data_IDORAW_freeONLY_PM
_symmetry_space_group_name_H-M	'P1'
_cell_length_a	20.467000
_cell_length_b	20.467000
_cell_length_c	34.344000
_cell_angle_alpha	90.000000
_cell_angle_beta	90.000000
_cell_angle_gamma	90.000000
_symmetry_Int_Tables_number 1

loop_
_symmetry_equiv_pos_as_xyz
'x,y,z'

loop_
_atom_site_label
_atom_site_type_symbol
_atom_site_fract_x
_atom_site_fract_y
_atom_site_fract_z
Mn11	Mn1	0.318520	0.130380	0.197850
Mn21	Mn2	0.113020	0.310280	0.213800
Cu11	Cu1	0.313230	0.971070	0.920290
Cu21	Cu2	0.451920	0.170630	0.063900
C11	C1	0.344800	0.051300	0.030460
H11	H1	0.388200	0.038100	0.031600
C21	C2	0.301400	0.021900	0.003790
C31	C3	0.237200	0.043500	0.001100
H21	H2	0.209600	0.025800	0.982400
C41	C4	0.214400	0.091100	0.025980
H31	H3	0.171100	0.104400	0.024400
C51	C5	0.255600	0.119600	0.053620
H41	H4	0.239500	0.150800	0.070800
C61	C6	0.321900	0.100500	0.055210
C71	C7	0.356000	0.923600	0.990520
C81	C8	0.373100	0.871900	0.960850
C91	C9	0.358200	0.136300	0.116850
C101	C10	0.416400	0.163000	0.139960
C111	C11	0.388000	0.118500	0.954110
H51	H5	0.418300	0.084800	0.952200
C121	C12	0.332000	0.118600	0.930080
C131	C13	0.288600	0.169700	0.933770
H61	H6	0.251300	0.170000	0.918200
C141	C14	0.298300	0.220000	0.959540
H71	H7	0.268400	0.254200	0.960900
C151	C15	0.354100	0.219500	0.984010
H81	H8	0.361000	0.252700	0.002000
C161	C16	0.397600	0.168800	0.980450
C171	C17	0.315400	0.073500	0.867170
C181	C18	0.306800	0.009500	0.844570
C191	C19	0.511600	0.166300	0.991470
C201	C20	0.566200	0.164700	0.022650
C211	C21	0.189300	0.189800	0.213110
C221	C22	0.240200	0.247500	0.212380
N11	N1	0.324000	0.973200	0.977490
N21	N2	0.367400	0.131900	0.079760
N31	N3	0.321200	0.064500	0.905140
N41	N4	0.452400	0.167000	0.006160
O11	O1	0.622770	0.161600	0.010490
O21	O2	0.527980	0.169500	0.956930
O31	O3	0.443300	0.282800	0.062780
O41	O4	0.549400	0.167700	0.057750
O51	O5	0.212300	0.133480	0.209000
O61	O6	0.298500	0.233260	0.206930
O71	O7	0.219300	0.302980	0.220000
O81	O8	0.130800	0.205000	0.215510
O91	O9	0.465300	0.181500	0.120440
O101	O10	0.398400	0.819790	0.972360
O111	O11	0.371900	0.911790	0.026240
O121	O12	0.317610	0.126060	0.848740
O131	O13	0.301600	0.013800	0.808550
O141	O14	0.305500	0.956900	0.863710
O151	O15	0.210400	0.935700	0.924200
O161	O16	0.357000	0.882000	0.925670
O171	O17	0.413400	0.163800	0.176140
O181	O18	0.307570	0.116970	0.136240
Mn31	Mn3	0.681480	0.869620	0.697850
Mn41	Mn4	0.886980	0.689720	0.713800
Cu31	Cu3	0.686770	0.028930	0.420290
Cu41	Cu4	0.548080	0.829370	0.563900
C231	C23	0.655200	0.948700	0.530460
H91	H9	0.611800	0.961900	0.531600
C241	C24	0.698600	0.978100	0.503790
C251	C25	0.762800	0.956500	0.501100
H101	H10	0.790400	0.974200	0.482400
C261	C26	0.785600	0.908900	0.525980
H111	H11	0.828900	0.895600	0.524400
C271	C27	0.744400	0.880400	0.553620
H121	H12	0.760500	0.849200	0.570800
C281	C28	0.678100	0.899500	0.555210
C291	C29	0.644000	0.076400	0.490520
C301	C30	0.626900	0.128100	0.460850
C311	C31	0.641800	0.863700	0.616850
C321	C32	0.583600	0.837000	0.639960
C331	C33	0.612000	0.881500	0.454110
H131	H13	0.581700	0.915200	0.452200
C341	C34	0.668000	0.881400	0.430080
C351	C35	0.711400	0.830300	0.433770
H141	H14	0.748700	0.830000	0.418200
C361	C36	0.701700	0.780000	0.459540
H151	H15	0.731600	0.745800	0.460900
C371	C37	0.645900	0.780500	0.484010
H161	H16	0.639000	0.747300	0.502000
C381	C38	0.602400	0.831200	0.480450
C391	C39	0.684600	0.926500	0.367170
C401	C40	0.693200	0.990500	0.344570
C411	C41	0.488400	0.833700	0.491470
C421	C42	0.433800	0.835300	0.522650
C431	C43	0.810700	0.810200	0.713110
C441	C44	0.759800	0.752500	0.712380
N51	N5	0.676000	0.026800	0.477490
N61	N6	0.632600	0.868100	0.579760
N71	N7	0.678800	0.935500	0.405140
N81	N8	0.547600	0.833000	0.506160
O191	O19	0.377230	0.838400	0.510490
O201	O20	0.472020	0.830500	0.456930
O211	O21	0.556700	0.717200	0.562780
O221	O22	0.450600	0.832300	0.557750
O231	O23	0.787700	0.866520	0.709000
O241	O24	0.701500	0.766740	0.706930
O251	O25	0.780700	0.697020	0.720000
O261	O26	0.869200	0.795000	0.715510
O271	O27	0.534700	0.818500	0.620440
O281	O28	0.601600	0.180210	0.472360
O291	O29	0.628100	0.088210	0.526240
O301	O30	0.682390	0.873940	0.348740
O311	O31	0.698400	0.986200	0.308550
O321	O32	0.694500	0.043100	0.363710
O331	O33	0.789600	0.064300	0.424200
O341	O34	0.643000	0.118000	0.425670
O351	O35	0.586600	0.836200	0.676140
O361	O36	0.692430	0.883030	0.636240
Mn51	Mn5	0.369620	0.818520	0.447850
Mn61	Mn6	0.189720	0.613020	0.463800
Cu51	Cu5	0.528930	0.813230	0.170290
Cu61	Cu6	0.329370	0.951920	0.313900
C451	C45	0.448700	0.844800	0.280460
H171	H17	0.461900	0.888200	0.281600
C461	C46	0.478100	0.801400	0.253790
C471	C47	0.456500	0.737200	0.251100
H181	H18	0.474200	0.709600	0.232400
C481	C48	0.408900	0.714400	0.275980
H191	H19	0.395600	0.671100	0.274400
C491	C49	0.380400	0.755600	0.303620
H201	H20	0.349200	0.739500	0.320800
C501	C50	0.399500	0.821900	0.305210
C511	C51	0.576400	0.856000	0.240520
C521	C52	0.628100	0.873100	0.210850
C531	C53	0.363700	0.858200	0.366850
C541	C54	0.337000	0.916400	0.389960
C551	C55	0.381500	0.888000	0.204110
H211	H21	0.415200	0.918300	0.202200
C561	C56	0.381400	0.832000	0.180080
C571	C57	0.330300	0.788600	0.183770
H221	H22	0.330000	0.751300	0.168200
C581	C58	0.280000	0.798300	0.209540
H231	H23	0.245800	0.768400	0.210900
C591	C59	0.280500	0.854100	0.234010
H241	H24	0.247300	0.861000	0.252000
C601	C60	0.331200	0.897600	0.230450
C611	C61	0.426500	0.815400	0.117170
C621	C62	0.490500	0.806800	0.094570
C631	C63	0.333700	0.011600	0.241470
C641	C64	0.335300	0.066200	0.272650
C651	C65	0.310200	0.689300	0.463110
C661	C66	0.252500	0.740200	0.462380
N91	N9	0.526800	0.824000	0.227490
N101	N10	0.368100	0.867400	0.329760
N111	N11	0.435500	0.821200	0.155140
N121	N12	0.333000	0.952400	0.256160
O371	O37	0.338400	0.122770	0.260490
O381	O38	0.330500	0.027980	0.206930
O391	O39	0.217200	0.943300	0.312780
O401	O40	0.332300	0.049400	0.307750
O411	O41	0.366520	0.712300	0.459000
O421	O42	0.266740	0.798500	0.456930
O431	O43	0.197020	0.719300	0.470000
O441	O44	0.295000	0.630800	0.465510
O451	O45	0.318500	0.965300	0.370440
O461	O46	0.680210	0.898400	0.222360
O471	O47	0.588210	0.871900	0.276240
O481	O48	0.373940	0.817610	0.098740
O491	O49	0.486200	0.801600	0.058550
O501	O50	0.543100	0.805500	0.113710
O511	O51	0.564300	0.710400	0.174200
O521	O52	0.618000	0.857000	0.175670
O531	O53	0.336200	0.913400	0.426140
O541	O54	0.383030	0.807570	0.386240
Mn71	Mn7	0.630380	0.181480	0.947850
Mn81	Mn8	0.810280	0.386980	0.963800
Cu71	Cu7	0.471070	0.186770	0.670290
Cu81	Cu8	0.670630	0.048080	0.813900
C671	C67	0.551300	0.155200	0.780460
H251	H25	0.538100	0.111800	0.781600
C681	C68	0.521900	0.198600	0.753790
C691	C69	0.543500	0.262800	0.751100
H261	H26	0.525800	0.290400	0.732400
C701	C70	0.591100	0.285600	0.775980
H271	H27	0.604400	0.328900	0.774400
C711	C71	0.619600	0.244400	0.803620
H281	H28	0.650800	0.260500	0.820800
C721	C72	0.600500	0.178100	0.805210
C731	C73	0.423600	0.144000	0.740520
C741	C74	0.371900	0.126900	0.710850
C751	C75	0.636300	0.141800	0.866850
C761	C76	0.663000	0.083600	0.889960
C771	C77	0.618500	0.112000	0.704110
H291	H29	0.584800	0.081700	0.702200
C781	C78	0.618600	0.168000	0.680080
C791	C79	0.669700	0.211400	0.683770
H301	H30	0.670000	0.248700	0.668200
C801	C80	0.720000	0.201700	0.709540
H311	H31	0.754200	0.231600	0.710900
C811	C81	0.719500	0.145900	0.734010
H321	H32	0.752700	0.139000	0.752000
C821	C82	0.668800	0.102400	0.730450
C831	C83	0.573500	0.184600	0.617170
C841	C84	0.509500	0.193200	0.594570
C851	C85	0.666300	0.988400	0.741470
C861	C86	0.664700	0.933800	0.772650
C871	C87	0.689800	0.310700	0.963110
C881	C88	0.747500	0.259800	0.962380
N131	N13	0.473200	0.176000	0.727490
N141	N14	0.631900	0.132600	0.829760
N151	N15	0.564500	0.178800	0.655140
N161	N16	0.667000	0.047600	0.756160
O551	O55	0.661600	0.877230	0.760490
O561	O56	0.669500	0.972020	0.706930
O571	O57	0.782800	0.056700	0.812780
O581	O58	0.667700	0.950600	0.807750
O591	O59	0.633480	0.287700	0.959000
O601	O60	0.733260	0.201500	0.956930
O611	O61	0.802980	0.280700	0.970000
O621	O62	0.705000	0.369200	0.965510
O631	O63	0.681500	0.034700	0.870440
O641	O64	0.319790	0.101600	0.722360
O651	O65	0.411790	0.128100	0.776240
O661	O66	0.626060	0.182390	0.598740
O671	O67	0.513800	0.198400	0.558550
O681	O68	0.456900	0.194500	0.613710
O691	O69	0.435700	0.289600	0.674200
O701	O70	0.382000	0.143000	0.675670
O711	O71	0.663800	0.086600	0.926140
O721	O72	0.616970	0.192430	0.886240
Mn91	Mn9	0.181480	0.630380	0.052150
Mn101	Mn10	0.386980	0.810280	0.036200
Cu91	Cu9	0.186770	0.471070	0.329710
Cu101	Cu10	0.048080	0.670630	0.186100
C891	C89	0.155200	0.551300	0.219540
H331	H33	0.111800	0.538100	0.218400
C901	C90	0.198600	0.521900	0.246210
C911	C91	0.262800	0.543500	0.248900
H341	H34	0.290400	0.525800	0.267600
C921	C92	0.285600	0.591100	0.224020
H351	H35	0.328900	0.604400	0.225600
C931	C93	0.244400	0.619600	0.196380
H361	H36	0.260500	0.650800	0.179200
C941	C94	0.178100	0.600500	0.194790
C951	C95	0.144000	0.423600	0.259480
C961	C96	0.126900	0.371900	0.289150
C971	C97	0.141800	0.636300	0.133150
C981	C98	0.083600	0.663000	0.110040
C991	C99	0.112000	0.618500	0.295890
H371	H37	0.081700	0.584800	0.297800
C1001	C100	0.168000	0.618600	0.319920
C1011	C101	0.211400	0.669700	0.316230
H381	H38	0.248700	0.670000	0.331800
C1021	C102	0.201700	0.720000	0.290460
H391	H39	0.231600	0.754200	0.289100
C1031	C103	0.145900	0.719500	0.265990
H401	H40	0.139000	0.752700	0.248000
C1041	C104	0.102400	0.668800	0.269550
C1051	C105	0.184600	0.573500	0.382830
C1061	C106	0.193200	0.509500	0.405430
C1071	C107	0.988400	0.666300	0.258530
C1081	C108	0.933800	0.664700	0.227350
C1091	C109	0.310700	0.689800	0.036890
C1101	C110	0.259800	0.747500	0.037620
N171	N17	0.176000	0.473200	0.272510
N181	N18	0.132600	0.631900	0.170240
N191	N19	0.178800	0.564500	0.344860
N201	N20	0.047600	0.667000	0.243840
O731	O73	0.877230	0.661600	0.239510
O741	O74	0.972020	0.669500	0.293070
O751	O75	0.056700	0.782800	0.187220
O761	O76	0.950600	0.667700	0.192250
O771	O77	0.287700	0.633480	0.041000
O781	O78	0.201500	0.733260	0.043070
O791	O79	0.280700	0.802980	0.030000
O801	O80	0.369200	0.705000	0.034490
O811	O81	0.034700	0.681500	0.129560
O821	O82	0.101600	0.319790	0.277640
O831	O83	0.128100	0.411790	0.223760
O841	O84	0.182390	0.626060	0.401260
O851	O85	0.198400	0.513800	0.441450
O861	O86	0.194500	0.456900	0.386290
O871	O87	0.289600	0.435700	0.325800
O881	O88	0.143000	0.382000	0.324330
O891	O89	0.086600	0.663800	0.073860
O901	O90	0.192430	0.616970	0.113760
Mn111	Mn11	0.818520	0.369620	0.552150
Mn121	Mn12	0.613020	0.189720	0.536200
Cu111	Cu11	0.813230	0.528930	0.829710
Cu121	Cu12	0.951920	0.329370	0.686100
C1111	C111	0.844800	0.448700	0.719540
H411	H41	0.888200	0.461900	0.718400
C1121	C112	0.801400	0.478100	0.746210
C1131	C113	0.737200	0.456500	0.748900
H421	H42	0.709600	0.474200	0.767600
C1141	C114	0.714400	0.408900	0.724020
H431	H43	0.671100	0.395600	0.725600
C1151	C115	0.755600	0.380400	0.696380
H441	H44	0.739500	0.349200	0.679200
C1161	C116	0.821900	0.399500	0.694790
C1171	C117	0.856000	0.576400	0.759480
C1181	C118	0.873100	0.628100	0.789150
C1191	C119	0.858200	0.363700	0.633150
C1201	C120	0.916400	0.337000	0.610040
C1211	C121	0.888000	0.381500	0.795890
H451	H45	0.918300	0.415200	0.797800
C1221	C122	0.832000	0.381400	0.819920
C1231	C123	0.788600	0.330300	0.816230
H461	H46	0.751300	0.330000	0.831800
C1241	C124	0.798300	0.280000	0.790460
H471	H47	0.768400	0.245800	0.789100
C1251	C125	0.854100	0.280500	0.765990
H481	H48	0.861000	0.247300	0.748000
C1261	C126	0.897600	0.331200	0.769550
C1271	C127	0.815400	0.426500	0.882830
C1281	C128	0.806800	0.490500	0.905430
C1291	C129	0.011600	0.333700	0.758530
C1301	C130	0.066200	0.335300	0.727350
C1311	C131	0.689300	0.310200	0.536890
C1321	C132	0.740200	0.252500	0.537620
N211	N21	0.824000	0.526800	0.772510
N221	N22	0.867400	0.368100	0.670240
N231	N23	0.821200	0.435500	0.844860
N241	N24	0.952400	0.333000	0.743840
O911	O91	0.122770	0.338400	0.739510
O921	O92	0.027980	0.330500	0.793070
O931	O93	0.943300	0.217200	0.687220
O941	O94	0.049400	0.332300	0.692250
O951	O95	0.712300	0.366520	0.541000
O961	O96	0.798500	0.266740	0.543070
O971	O97	0.719300	0.197020	0.530000
O981	O98	0.630800	0.295000	0.534490
O991	O99	0.965300	0.318500	0.629560
O1001	O100	0.898400	0.680210	0.777640
O1011	O101	0.871900	0.588210	0.723760
O1021	O102	0.817610	0.373940	0.901260
O1031	O103	0.801600	0.486200	0.941450
O1041	O104	0.805500	0.543100	0.886290
O1051	O105	0.710400	0.564300	0.825800
O1061	O106	0.857000	0.618000	0.824330
O1071	O107	0.913400	0.336200	0.573860
O1081	O108	0.807570	0.383030	0.613760
Mn131	Mn13	0.130380	0.318520	0.802150
Mn141	Mn14	0.310280	0.113020	0.786200
Cu131	Cu13	0.971070	0.313230	0.079710
Cu141	Cu14	0.170630	0.451920	0.936100
C1331	C133	0.051300	0.344800	0.969540
H491	H49	0.038100	0.388200	0.968400
C1341	C134	0.021900	0.301400	0.996210
C1351	C135	0.043500	0.237200	0.998900
H501	H50	0.025800	0.209600	0.017600
C1361	C136	0.091100	0.214400	0.974020
H511	H51	0.104400	0.171100	0.975600
C1371	C137	0.119600	0.255600	0.946380
H521	H52	0.150800	0.239500	0.929200
C1381	C138	0.100500	0.321900	0.944790
C1391	C139	0.923600	0.356000	0.009480
C1401	C140	0.871900	0.373100	0.039150
C1411	C141	0.136300	0.358200	0.883150
C1421	C142	0.163000	0.416400	0.860040
C1431	C143	0.118500	0.388000	0.045890
H531	H53	0.084800	0.418300	0.047800
C1441	C144	0.118600	0.332000	0.069920
C1451	C145	0.169700	0.288600	0.066230
H541	H54	0.170000	0.251300	0.081800
C1461	C146	0.220000	0.298300	0.040460
H551	H55	0.254200	0.268400	0.039100
C1471	C147	0.219500	0.354100	0.015990
H561	H56	0.252700	0.361000	0.998000
C1481	C148	0.168800	0.397600	0.019550
C1491	C149	0.073500	0.315400	0.132830
C1501	C150	0.009500	0.306800	0.155430
C1511	C151	0.166300	0.511600	0.008530
C1521	C152	0.164700	0.566200	0.977350
C1531	C153	0.189800	0.189300	0.786890
C1541	C154	0.247500	0.240200	0.787620
N251	N25	0.973200	0.324000	0.022510
N261	N26	0.131900	0.367400	0.920240
N271	N27	0.064500	0.321200	0.094860
N281	N28	0.167000	0.452400	0.993840
O1091	O109	0.161600	0.622770	0.989510
O1101	O110	0.169500	0.527980	0.043070
O1111	O111	0.282800	0.443300	0.937220
O1121	O112	0.167700	0.549400	0.942250
O1131	O113	0.133480	0.212300	0.791000
O1141	O114	0.233260	0.298500	0.793070
O1151	O115	0.302980	0.219300	0.780000
O1161	O116	0.205000	0.130800	0.784490
O1171	O117	0.181500	0.465300	0.879560
O1181	O118	0.819790	0.398400	0.027640
O1191	O119	0.911790	0.371900	0.973760
O1201	O120	0.126060	0.317610	0.151260
O1211	O121	0.013800	0.301600	0.191450
O1221	O122	0.956900	0.305500	0.136290
O1231	O123	0.935700	0.210400	0.075800
O1241	O124	0.882000	0.357000	0.074330
O1251	O125	0.163800	0.413400	0.823860
O1261	O126	0.116970	0.307570	0.863760
Mn151	Mn15	0.869620	0.681480	0.302150
Mn161	Mn16	0.689720	0.886980	0.286200
Cu151	Cu15	0.028930	0.686770	0.579710
Cu161	Cu16	0.829370	0.548080	0.436100
C1551	C155	0.948700	0.655200	0.469540
H571	H57	0.961900	0.611800	0.468400
C1561	C156	0.978100	0.698600	0.496210
C1571	C157	0.956500	0.762800	0.498900
H581	H58	0.974200	0.790400	0.517600
C1581	C158	0.908900	0.785600	0.474020
H591	H59	0.895600	0.828900	0.475600
C1591	C159	0.880400	0.744400	0.446380
H601	H60	0.849200	0.760500	0.429200
C1601	C160	0.899500	0.678100	0.444790
C1611	C161	0.076400	0.644000	0.509480
C1621	C162	0.128100	0.626900	0.539150
C1631	C163	0.863700	0.641800	0.383150
C1641	C164	0.837000	0.583600	0.360040
C1651	C165	0.881500	0.612000	0.545890
H611	H61	0.915200	0.581700	0.547800
C1661	C166	0.881400	0.668000	0.569920
C1671	C167	0.830300	0.711400	0.566230
H621	H62	0.830000	0.748700	0.581800
C1681	C168	0.780000	0.701700	0.540460
H631	H63	0.745800	0.731600	0.539100
C1691	C169	0.780500	0.645900	0.515990
H641	H64	0.747300	0.639000	0.498000
C1701	C170	0.831200	0.602400	0.519550
C1711	C171	0.926500	0.684600	0.632830
C1721	C172	0.990500	0.693200	0.655430
C1731	C173	0.833700	0.488400	0.508530
C1741	C174	0.835300	0.433800	0.477350
C1751	C175	0.810200	0.810700	0.286890
C1761	C176	0.752500	0.759800	0.287620
N291	N29	0.026800	0.676000	0.522510
N301	N30	0.868100	0.632600	0.420240
N311	N31	0.935500	0.678800	0.594860
N321	N32	0.833000	0.547600	0.493840
O1271	O127	0.838400	0.377230	0.489510
O1281	O128	0.830500	0.472020	0.543070
O1291	O129	0.717200	0.556700	0.437220
O1301	O130	0.832300	0.450600	0.442250
O1311	O131	0.866520	0.787700	0.291000
O1321	O132	0.766740	0.701500	0.293070
O1331	O133	0.697020	0.780700	0.280000
O1341	O134	0.795000	0.869200	0.284490
O1351	O135	0.818500	0.534700	0.379560
O1361	O136	0.180210	0.601600	0.527640
O1371	O137	0.088210	0.628100	0.473760
O1381	O138	0.873940	0.682390	0.651260
O1391	O139	0.986200	0.698400	0.691450
O1401	O140	0.043100	0.694500	0.636290
O1411	O141	0.064300	0.789600	0.575800
O1421	O142	0.118000	0.643000	0.574330
O1431	O143	0.836200	0.586600	0.323860
O1441	O144	0.883030	0.692430	0.363760
