data_IFEHUY_freeONLY_PM
_symmetry_space_group_name_H-M	'P1'
_cell_length_a	15.483900
_cell_length_b	16.354100
_cell_length_c	16.354100
_cell_angle_alpha	69.476100
_cell_angle_beta	71.603200
_cell_angle_gamma	108.397000
_symmetry_Int_Tables_number 1

loop_
_symmetry_equiv_pos_as_xyz
'x,y,z'

loop_
_atom_site_label
_atom_site_type_symbol
_atom_site_fract_x
_atom_site_fract_y
_atom_site_fract_z
Mn11	Mn1	0.592210	0.684420	0.657790
Mn21	Mn2	0.250000	0.657790	0.657790
Mn31	Mn3	0.907790	0.657790	0.684420
Mn41	Mn4	0.407790	0.315580	0.342210
Mn51	Mn5	0.750000	0.342210	0.342210
Mn61	Mn6	0.092210	0.342210	0.315580
Mn71	Mn7	0.750000	0.592840	0.592840
Mn81	Mn8	0.342840	0.592840	0.814320
Mn91	Mn9	0.157160	0.814320	0.592840
Mn101	Mn10	0.250000	0.407160	0.407160
Mn111	Mn11	0.657160	0.407160	0.185680
Mn121	Mn12	0.842840	0.185680	0.407160
H11	H1	0.617200	0.439300	0.973800
H21	H2	0.516900	0.435700	0.706800
H31	H3	0.610500	0.314900	0.601300
H41	H4	0.504400	0.258200	0.602800
H51	H5	0.522800	0.207700	0.694500
H61	H6	0.358700	0.311300	0.772600
H71	H7	0.352100	0.204400	0.802500
H81	H8	0.349200	0.264200	0.703000
H91	H9	0.591000	0.973800	0.586900
H101	H10	0.223700	0.706800	0.857500
H111	H11	0.211800	0.601300	0.083800
H121	H12	0.107200	0.602800	0.139000
H131	H13	0.217300	0.694500	0.097800
H141	H14	0.131300	0.772600	0.916100
H151	H15	0.154600	0.802500	0.993100
H161	H16	0.052200	0.703000	0.032800
H171	H17	0.177900	0.586900	0.439300
H181	H18	0.081200	0.857500	0.435700
H191	H19	0.295600	0.083800	0.314900
H201	H20	0.246200	0.139000	0.258200
H211	H21	0.315100	0.097800	0.207700
H221	H22	0.047400	0.916100	0.311300
H231	H23	0.147700	0.993100	0.204400
H241	H24	0.085000	0.032800	0.264200
H251	H25	0.909000	0.586900	0.973800
H261	H26	0.276300	0.857500	0.706800
H271	H27	0.288200	0.083800	0.601300
H281	H28	0.392800	0.139000	0.602800
H291	H29	0.282700	0.097800	0.694500
H301	H30	0.368700	0.916100	0.772600
H311	H31	0.345400	0.993100	0.802500
H321	H32	0.447800	0.032800	0.703000
H331	H33	0.322100	0.439300	0.586900
H341	H34	0.418800	0.435700	0.857500
H351	H35	0.204400	0.314900	0.083800
H361	H36	0.253800	0.258200	0.139000
H371	H37	0.184900	0.207700	0.097800
H381	H38	0.452600	0.311300	0.916100
H391	H39	0.352300	0.204400	0.993100
H401	H40	0.415000	0.264200	0.032800
H411	H41	0.882800	0.973800	0.439300
H421	H42	0.983100	0.706800	0.435700
H431	H43	0.889500	0.601300	0.314900
H441	H44	0.995600	0.602800	0.258200
H451	H45	0.977200	0.694500	0.207700
H461	H46	0.141300	0.772600	0.311300
H471	H47	0.147900	0.802500	0.204400
H481	H48	0.150800	0.703000	0.264200
H491	H49	0.382800	0.560700	0.026200
H501	H50	0.483100	0.564300	0.293200
H511	H51	0.389500	0.685100	0.398700
H521	H52	0.495600	0.741800	0.397200
H531	H53	0.477200	0.792300	0.305500
H541	H54	0.641300	0.688700	0.227400
H551	H55	0.647900	0.795600	0.197500
H561	H56	0.650800	0.735800	0.297000
H571	H57	0.409000	0.026200	0.413100
H581	H58	0.776300	0.293200	0.142500
H591	H59	0.788200	0.398700	0.916200
H601	H60	0.892800	0.397200	0.861000
H611	H61	0.782700	0.305500	0.902200
H621	H62	0.868700	0.227400	0.083900
H631	H63	0.845400	0.197500	0.006900
H641	H64	0.947800	0.297000	0.967200
H651	H65	0.822100	0.413100	0.560700
H661	H66	0.918800	0.142500	0.564300
H671	H67	0.704400	0.916200	0.685100
H681	H68	0.753800	0.861000	0.741800
H691	H69	0.684900	0.902200	0.792300
H701	H70	0.952600	0.083900	0.688700
H711	H71	0.852300	0.006900	0.795600
H721	H72	0.915000	0.967200	0.735800
H731	H73	0.091000	0.413100	0.026200
H741	H74	0.723700	0.142500	0.293200
H751	H75	0.711800	0.916200	0.398700
H761	H76	0.607200	0.861000	0.397200
H771	H77	0.717300	0.902200	0.305500
H781	H78	0.631300	0.083900	0.227400
H791	H79	0.654600	0.006900	0.197500
H801	H80	0.552200	0.967200	0.297000
H811	H81	0.677900	0.560700	0.413100
H821	H82	0.581200	0.564300	0.142500
H831	H83	0.795600	0.685100	0.916200
H841	H84	0.746200	0.741800	0.861000
H851	H85	0.815100	0.792300	0.902200
H861	H86	0.547400	0.688700	0.083900
H871	H87	0.647700	0.795600	0.006900
H881	H88	0.585000	0.735800	0.967200
H891	H89	0.117200	0.026200	0.560700
H901	H90	0.016900	0.293200	0.564300
H911	H91	0.110500	0.398700	0.685100
H921	H92	0.004400	0.397200	0.741800
H931	H93	0.022800	0.305500	0.792300
H941	H94	0.858700	0.227400	0.688700
H951	H95	0.852100	0.197500	0.795600
H961	H96	0.849200	0.297000	0.735800
C11	C1	0.576670	0.537980	0.903460
C21	C2	0.662040	0.572590	0.803250
C31	C3	0.568950	0.463620	0.984920
C41	C4	0.507260	0.576580	0.917520
C51	C5	0.549690	0.405060	0.678140
C61	C6	0.535700	0.270830	0.643630
C71	C7	0.378630	0.270610	0.746820
C81	C8	0.480130	0.903460	0.558560
C91	C9	0.465290	0.803250	0.624160
C101	C10	0.553870	0.984920	0.551460
C111	C11	0.424780	0.917520	0.505900
C121	C12	0.227830	0.678140	0.916800
C131	C13	0.179330	0.643630	0.085540
C141	C14	0.125450	0.746820	0.982570
C151	C15	0.038690	0.558560	0.537980
C161	C16	0.089450	0.624160	0.572590
C171	C17	0.105330	0.551460	0.463620
C181	C18	0.930680	0.505900	0.576580
C191	C19	0.144630	0.916800	0.405060
C201	C20	0.264870	0.085540	0.270830
C211	C21	0.108020	0.982570	0.270610
C221	C22	0.019870	0.558560	0.903460
C231	C23	0.034710	0.624160	0.803250
C241	C24	0.946130	0.551460	0.984920
C251	C25	0.075220	0.505900	0.917520
C261	C26	0.272170	0.916800	0.678140
C271	C27	0.320670	0.085540	0.643630
C281	C28	0.374550	0.982570	0.746820
C291	C29	0.461310	0.537980	0.558560
C301	C30	0.410550	0.572590	0.624160
C311	C31	0.394670	0.463620	0.551460
C321	C32	0.569320	0.576580	0.505900
C331	C33	0.355370	0.405060	0.916800
C341	C34	0.235130	0.270830	0.085540
C351	C35	0.391980	0.270610	0.982570
C361	C36	0.923330	0.903460	0.537980
C371	C37	0.837960	0.803250	0.572590
C381	C38	0.931050	0.984920	0.463620
C391	C39	0.992740	0.917520	0.576580
C401	C40	0.950310	0.678140	0.405060
C411	C41	0.964300	0.643630	0.270830
C421	C42	0.121370	0.746820	0.270610
C431	C43	0.423330	0.462020	0.096540
C441	C44	0.337960	0.427410	0.196750
C451	C45	0.431050	0.536380	0.015080
C461	C46	0.492740	0.423420	0.082480
C471	C47	0.450310	0.594940	0.321860
C481	C48	0.464300	0.729170	0.356370
C491	C49	0.621370	0.729390	0.253180
C501	C50	0.519870	0.096540	0.441440
C511	C51	0.534710	0.196750	0.375840
C521	C52	0.446130	0.015080	0.448540
C531	C53	0.575220	0.082480	0.494100
C541	C54	0.772170	0.321860	0.083200
C551	C55	0.820670	0.356370	0.914460
C561	C56	0.874550	0.253180	0.017430
C571	C57	0.961310	0.441440	0.462020
C581	C58	0.910550	0.375840	0.427410
C591	C59	0.894670	0.448540	0.536380
C601	C60	0.069320	0.494100	0.423420
C611	C61	0.855370	0.083200	0.594940
C621	C62	0.735130	0.914460	0.729170
C631	C63	0.891980	0.017430	0.729390
C641	C64	0.980130	0.441440	0.096540
C651	C65	0.965290	0.375840	0.196750
C661	C66	0.053870	0.448540	0.015080
C671	C67	0.924780	0.494100	0.082480
C681	C68	0.727830	0.083200	0.321860
C691	C69	0.679330	0.914460	0.356370
C701	C70	0.625450	0.017430	0.253180
C711	C71	0.538690	0.462020	0.441440
C721	C72	0.589450	0.427410	0.375840
C731	C73	0.605330	0.536380	0.448540
C741	C74	0.430680	0.423420	0.494100
C751	C75	0.644630	0.594940	0.083200
C761	C76	0.764870	0.729170	0.914460
C771	C77	0.608020	0.729390	0.017430
C781	C78	0.076670	0.096540	0.462020
C791	C79	0.162040	0.196750	0.427410
C801	C80	0.068950	0.015080	0.536380
C811	C81	0.007260	0.082480	0.423420
C821	C82	0.049690	0.321860	0.594940
C831	C83	0.035700	0.356370	0.729170
C841	C84	0.878630	0.253180	0.729390
S11	S1	0.514290	0.676010	0.821150
S21	S2	0.335440	0.821160	0.502840
S31	S3	0.838280	0.502840	0.676010
S41	S4	0.164560	0.502840	0.821150
S51	S5	0.661720	0.676010	0.502840
S61	S6	0.985710	0.821150	0.676010
S71	S7	0.485710	0.323990	0.178850
S81	S8	0.664560	0.178850	0.497160
S91	S9	0.161720	0.497160	0.323990
S101	S10	0.835440	0.497160	0.178850
S111	S11	0.338280	0.324000	0.497160
S121	S12	0.014280	0.178840	0.324000
N11	N1	0.490210	0.317550	0.691400
N21	N2	0.181610	0.691400	0.991050
N31	N3	0.172660	0.991050	0.317550
N41	N4	0.318390	0.991050	0.691400
N51	N5	0.327340	0.317550	0.991050
N61	N6	0.009790	0.691400	0.317550
N71	N7	0.509790	0.682450	0.308600
N81	N8	0.818390	0.308600	0.008950
N91	N9	0.827340	0.008950	0.682450
N101	N10	0.681610	0.008950	0.308600
N111	N11	0.672660	0.682450	0.008950
N121	N12	0.990210	0.308600	0.682450
O11	O1	0.639160	0.573400	0.734070
O21	O2	0.750080	0.594650	0.795220
O31	O3	0.644310	0.448100	0.631060
O41	O4	0.373230	0.734070	0.692530
O51	O5	0.545300	0.795220	0.610130
O61	O6	0.275370	0.631060	0.920840
O71	O7	0.065760	0.692530	0.573400
O81	O8	0.155430	0.610130	0.594650
O91	O9	0.196210	0.920840	0.448100
O101	O10	0.126770	0.692530	0.734070
O111	O11	0.954700	0.610130	0.795220
O121	O12	0.224630	0.920840	0.631060
O131	O13	0.434240	0.573400	0.692530
O141	O14	0.344570	0.594650	0.610130
O151	O15	0.303790	0.448100	0.920840
O161	O16	0.860840	0.734070	0.573400
O171	O17	0.749920	0.795220	0.594650
O181	O18	0.855690	0.631060	0.448100
O191	O19	0.360840	0.426600	0.265930
O201	O20	0.249920	0.405350	0.204780
O211	O21	0.355690	0.551900	0.368940
O221	O22	0.626770	0.265930	0.307470
O231	O23	0.454700	0.204780	0.389870
O241	O24	0.724630	0.368940	0.079160
O251	O25	0.934240	0.307470	0.426600
O261	O26	0.844570	0.389870	0.405350
O271	O27	0.803790	0.079160	0.551900
O281	O28	0.873230	0.307470	0.265930
O291	O29	0.045300	0.389870	0.204780
O301	O30	0.775370	0.079160	0.368940
O311	O31	0.565760	0.426600	0.307470
O321	O32	0.655430	0.405350	0.389870
O331	O33	0.696210	0.551900	0.079160
O341	O34	0.139160	0.265930	0.426600
O351	O35	0.250080	0.204780	0.405350
O361	O36	0.144310	0.368940	0.551900
