data_IFENOY03_SL_PM
_symmetry_space_group_name_H-M	'P1'
_cell_length_a	26.436600
_cell_length_b	26.436600
_cell_length_c	5.328700
_cell_angle_alpha	90.000000
_cell_angle_beta	90.000000
_cell_angle_gamma	90.000000
_symmetry_Int_Tables_number 1

loop_
_symmetry_equiv_pos_as_xyz
'x,y,z'

loop_
_atom_site_label
_atom_site_type_symbol
_atom_site_fract_x
_atom_site_fract_y
_atom_site_fract_z
Zn11	Zn1	0.726230	0.714900	0.332600
H21	H2	0.832000	0.506500	0.531100
H31	H3	0.812700	0.679300	0.726600
H41	H4	0.877100	0.669700	0.057100
H51	H5	0.900100	0.500600	0.846400
H61	H6	0.948000	0.537600	0.150800
H71	H7	0.704600	0.607100	0.115600
H81	H8	0.935100	0.621300	0.266300
H91	H9	0.811600	0.485600	0.106800
H101	H10	0.786100	0.404900	0.968300
H111	H11	0.667900	0.521400	0.209400
H121	H12	0.642500	0.453000	0.992700
C131	C13	0.741570	0.511490	0.173400
C141	C14	0.827740	0.540380	0.572400
C151	C15	0.791600	0.569470	0.454300
C161	C16	0.852770	0.615600	0.814800
C171	C17	0.857860	0.563300	0.756200
C181	C18	0.816760	0.645150	0.688800
C191	C19	0.787330	0.622000	0.505800
C201	C20	0.881600	0.636000	0.011400
C211	C21	0.895100	0.534500	0.886400
C221	C22	0.923400	0.556600	0.068900
C231	C23	0.731400	0.604020	0.227700
C241	C24	0.916300	0.607200	0.136400
C251	C25	0.777400	0.477400	0.099000
C261	C26	0.715000	0.418870	0.983600
C271	C27	0.761900	0.429100	0.009000
C281	C28	0.692000	0.499200	0.146000
C291	C29	0.676300	0.457700	0.036000
C301	C30	0.695900	0.369200	0.897000
N311	N31	0.749470	0.641390	0.356400
N321	N32	0.755870	0.559870	0.274600
O331	O33	0.223980	0.246180	0.156200
O341	O34	0.724210	0.334840	0.860300
O351	O35	0.655300	0.357900	0.818000
H361	H36	0.302500	0.242470	0.825100
Zn371	Zn37	0.226230	0.214900	0.832600
H381	H38	0.332000	0.006500	0.031100
H391	H39	0.312700	0.179300	0.226600
H401	H40	0.377100	0.169700	0.557100
H411	H41	0.400100	0.000600	0.346400
H421	H42	0.448000	0.037600	0.650800
H431	H43	0.204600	0.107100	0.615600
H441	H44	0.435100	0.121300	0.766300
H451	H45	0.311600	0.985600	0.606800
H461	H46	0.286100	0.904900	0.468300
H471	H47	0.167900	0.021400	0.709400
H481	H48	0.142500	0.953000	0.492700
C491	C49	0.241570	0.011490	0.673400
C501	C50	0.327740	0.040380	0.072400
C511	C51	0.291600	0.069470	0.954300
C521	C52	0.352770	0.115600	0.314800
C531	C53	0.357860	0.063300	0.256200
C541	C54	0.316760	0.145150	0.188800
C551	C55	0.287330	0.122000	0.005800
C561	C56	0.381600	0.136000	0.511400
C571	C57	0.395100	0.034500	0.386400
C581	C58	0.423400	0.056600	0.568900
C591	C59	0.231400	0.104020	0.727700
C601	C60	0.416300	0.107200	0.636400
C611	C61	0.277400	0.977400	0.599000
C621	C62	0.215000	0.918870	0.483600
C631	C63	0.261900	0.929100	0.509000
C641	C64	0.192000	0.999200	0.646000
C651	C65	0.176300	0.957700	0.536000
C661	C66	0.195900	0.869200	0.397000
N671	N67	0.249470	0.141390	0.856400
N681	N68	0.255870	0.059870	0.774600
O691	O69	0.723980	0.746180	0.656200
O701	O70	0.224210	0.834840	0.360300
O711	O71	0.155300	0.857900	0.318000
H721	H72	0.802500	0.742470	0.325100
Zn731	Zn73	0.273770	0.285100	0.332600
H741	H74	0.168000	0.493500	0.531100
H751	H75	0.187300	0.320700	0.726600
H761	H76	0.122900	0.330300	0.057100
H771	H77	0.099900	0.499400	0.846400
H781	H78	0.052000	0.462400	0.150800
H791	H79	0.295400	0.392900	0.115600
H801	H80	0.064900	0.378700	0.266300
H811	H81	0.188400	0.514400	0.106800
H821	H82	0.213900	0.595100	0.968300
H831	H83	0.332100	0.478600	0.209400
H841	H84	0.357500	0.547000	0.992700
C851	C85	0.258430	0.488510	0.173400
C861	C86	0.172260	0.459620	0.572400
C871	C87	0.208400	0.430530	0.454300
C881	C88	0.147230	0.384400	0.814800
C891	C89	0.142140	0.436700	0.756200
C901	C90	0.183240	0.354850	0.688800
C911	C91	0.212670	0.378000	0.505800
C921	C92	0.118400	0.364000	0.011400
C931	C93	0.104900	0.465500	0.886400
C941	C94	0.076600	0.443400	0.068900
C951	C95	0.268600	0.395980	0.227700
C961	C96	0.083700	0.392800	0.136400
C971	C97	0.222600	0.522600	0.099000
C981	C98	0.285000	0.581130	0.983600
C991	C99	0.238100	0.570900	0.009000
C1001	C100	0.308000	0.500800	0.146000
C1011	C101	0.323700	0.542300	0.036000
C1021	C102	0.304100	0.630800	0.897000
N1031	N103	0.250530	0.358610	0.356400
N1041	N104	0.244130	0.440130	0.274600
O1051	O105	0.776020	0.753820	0.156200
O1061	O106	0.275790	0.665160	0.860300
O1071	O107	0.344700	0.642100	0.818000
H1081	H108	0.697500	0.757530	0.825100
Zn1091	Zn109	0.773770	0.785100	0.832600
H1101	H110	0.668000	0.993500	0.031100
H1111	H111	0.687300	0.820700	0.226600
H1121	H112	0.622900	0.830300	0.557100
H1131	H113	0.599900	0.999400	0.346400
H1141	H114	0.552000	0.962400	0.650800
H1151	H115	0.795400	0.892900	0.615600
H1161	H116	0.564900	0.878700	0.766300
H1171	H117	0.688400	0.014400	0.606800
H1181	H118	0.713900	0.095100	0.468300
H1191	H119	0.832100	0.978600	0.709400
H1201	H120	0.857500	0.047000	0.492700
C1211	C121	0.758430	0.988510	0.673400
C1221	C122	0.672260	0.959620	0.072400
C1231	C123	0.708400	0.930530	0.954300
C1241	C124	0.647230	0.884400	0.314800
C1251	C125	0.642140	0.936700	0.256200
C1261	C126	0.683240	0.854850	0.188800
C1271	C127	0.712670	0.878000	0.005800
C1281	C128	0.618400	0.864000	0.511400
C1291	C129	0.604900	0.965500	0.386400
C1301	C130	0.576600	0.943400	0.568900
C1311	C131	0.768600	0.895980	0.727700
C1321	C132	0.583700	0.892800	0.636400
C1331	C133	0.722600	0.022600	0.599000
C1341	C134	0.785000	0.081130	0.483600
C1351	C135	0.738100	0.070900	0.509000
C1361	C136	0.808000	0.000800	0.646000
C1371	C137	0.823700	0.042300	0.536000
C1381	C138	0.804100	0.130800	0.397000
N1391	N139	0.750530	0.858610	0.856400
N1401	N140	0.744130	0.940130	0.774600
O1411	O141	0.276020	0.253820	0.656200
O1421	O142	0.775790	0.165160	0.360300
O1431	O143	0.844700	0.142100	0.318000
H1441	H144	0.197500	0.257530	0.325100
Zn1451	Zn145	0.714900	0.273770	0.667400
H1461	H146	0.506500	0.168000	0.468900
H1471	H147	0.679300	0.187300	0.273400
H1481	H148	0.669700	0.122900	0.942900
H1491	H149	0.500600	0.099900	0.153600
H1501	H150	0.537600	0.052000	0.849200
H1511	H151	0.607100	0.295400	0.884400
H1521	H152	0.621300	0.064900	0.733700
H1531	H153	0.485600	0.188400	0.893200
H1541	H154	0.404900	0.213900	0.031700
H1551	H155	0.521400	0.332100	0.790600
H1561	H156	0.453000	0.357500	0.007300
C1571	C157	0.511490	0.258430	0.826600
C1581	C158	0.540380	0.172260	0.427600
C1591	C159	0.569470	0.208400	0.545700
C1601	C160	0.615600	0.147230	0.185200
C1611	C161	0.563300	0.142140	0.243800
C1621	C162	0.645150	0.183240	0.311200
C1631	C163	0.622000	0.212670	0.494200
C1641	C164	0.636000	0.118400	0.988600
C1651	C165	0.534500	0.104900	0.113600
C1661	C166	0.556600	0.076600	0.931100
C1671	C167	0.604020	0.268600	0.772300
C1681	C168	0.607200	0.083700	0.863600
C1691	C169	0.477400	0.222600	0.901000
C1701	C170	0.418870	0.285000	0.016400
C1711	C171	0.429100	0.238100	0.991000
C1721	C172	0.499200	0.308000	0.854000
C1731	C173	0.457700	0.323700	0.964000
C1741	C174	0.369200	0.304100	0.103000
N1751	N175	0.641390	0.250530	0.643600
N1761	N176	0.559870	0.244130	0.725400
O1771	O177	0.246180	0.776020	0.843800
O1781	O178	0.334840	0.275790	0.139700
O1791	O179	0.357900	0.344700	0.182000
H1801	H180	0.242470	0.697500	0.174900
Zn1811	Zn181	0.214900	0.773770	0.167400
H1821	H182	0.006500	0.668000	0.968900
H1831	H183	0.179300	0.687300	0.773400
H1841	H184	0.169700	0.622900	0.442900
H1851	H185	0.000600	0.599900	0.653600
H1861	H186	0.037600	0.552000	0.349200
H1871	H187	0.107100	0.795400	0.384400
H1881	H188	0.121300	0.564900	0.233700
H1891	H189	0.985600	0.688400	0.393200
H1901	H190	0.904900	0.713900	0.531700
H1911	H191	0.021400	0.832100	0.290600
H1921	H192	0.953000	0.857500	0.507300
C1931	C193	0.011490	0.758430	0.326600
C1941	C194	0.040380	0.672260	0.927600
C1951	C195	0.069470	0.708400	0.045700
C1961	C196	0.115600	0.647230	0.685200
C1971	C197	0.063300	0.642140	0.743800
C1981	C198	0.145150	0.683240	0.811200
C1991	C199	0.122000	0.712670	0.994200
C2001	C200	0.136000	0.618400	0.488600
C2011	C201	0.034500	0.604900	0.613600
C2021	C202	0.056600	0.576600	0.431100
C2031	C203	0.104020	0.768600	0.272300
C2041	C204	0.107200	0.583700	0.363600
C2051	C205	0.977400	0.722600	0.401000
C2061	C206	0.918870	0.785000	0.516400
C2071	C207	0.929100	0.738100	0.491000
C2081	C208	0.999200	0.808000	0.354000
C2091	C209	0.957700	0.823700	0.464000
C2101	C210	0.869200	0.804100	0.603000
N2111	N211	0.141390	0.750530	0.143600
N2121	N212	0.059870	0.744130	0.225400
O2131	O213	0.746180	0.276020	0.343800
O2141	O214	0.834840	0.775790	0.639700
O2151	O215	0.857900	0.844700	0.682000
H2161	H216	0.742470	0.197500	0.674900
Zn2171	Zn217	0.285100	0.726230	0.667400
H2181	H218	0.493500	0.832000	0.468900
H2191	H219	0.320700	0.812700	0.273400
H2201	H220	0.330300	0.877100	0.942900
H2211	H221	0.499400	0.900100	0.153600
H2221	H222	0.462400	0.948000	0.849200
H2231	H223	0.392900	0.704600	0.884400
H2241	H224	0.378700	0.935100	0.733700
H2251	H225	0.514400	0.811600	0.893200
H2261	H226	0.595100	0.786100	0.031700
H2271	H227	0.478600	0.667900	0.790600
H2281	H228	0.547000	0.642500	0.007300
C2291	C229	0.488510	0.741570	0.826600
C2301	C230	0.459620	0.827740	0.427600
C2311	C231	0.430530	0.791600	0.545700
C2321	C232	0.384400	0.852770	0.185200
C2331	C233	0.436700	0.857860	0.243800
C2341	C234	0.354850	0.816760	0.311200
C2351	C235	0.378000	0.787330	0.494200
C2361	C236	0.364000	0.881600	0.988600
C2371	C237	0.465500	0.895100	0.113600
C2381	C238	0.443400	0.923400	0.931100
C2391	C239	0.395980	0.731400	0.772300
C2401	C240	0.392800	0.916300	0.863600
C2411	C241	0.522600	0.777400	0.901000
C2421	C242	0.581130	0.715000	0.016400
C2431	C243	0.570900	0.761900	0.991000
C2441	C244	0.500800	0.692000	0.854000
C2451	C245	0.542300	0.676300	0.964000
C2461	C246	0.630800	0.695900	0.103000
N2471	N247	0.358610	0.749470	0.643600
N2481	N248	0.440130	0.755870	0.725400
O2491	O249	0.753820	0.223980	0.843800
O2501	O250	0.665160	0.724210	0.139700
O2511	O251	0.642100	0.655300	0.182000
H2521	H252	0.757530	0.302500	0.174900
Zn2531	Zn253	0.785100	0.226230	0.167400
H2541	H254	0.993500	0.332000	0.968900
H2551	H255	0.820700	0.312700	0.773400
H2561	H256	0.830300	0.377100	0.442900
H2571	H257	0.999400	0.400100	0.653600
H2581	H258	0.962400	0.448000	0.349200
H2591	H259	0.892900	0.204600	0.384400
H2601	H260	0.878700	0.435100	0.233700
H2611	H261	0.014400	0.311600	0.393200
H2621	H262	0.095100	0.286100	0.531700
H2631	H263	0.978600	0.167900	0.290600
H2641	H264	0.047000	0.142500	0.507300
C2651	C265	0.988510	0.241570	0.326600
C2661	C266	0.959620	0.327740	0.927600
C2671	C267	0.930530	0.291600	0.045700
C2681	C268	0.884400	0.352770	0.685200
C2691	C269	0.936700	0.357860	0.743800
C2701	C270	0.854850	0.316760	0.811200
C2711	C271	0.878000	0.287330	0.994200
C2721	C272	0.864000	0.381600	0.488600
C2731	C273	0.965500	0.395100	0.613600
C2741	C274	0.943400	0.423400	0.431100
C2751	C275	0.895980	0.231400	0.272300
C2761	C276	0.892800	0.416300	0.363600
C2771	C277	0.022600	0.277400	0.401000
C2781	C278	0.081130	0.215000	0.516400
C2791	C279	0.070900	0.261900	0.491000
C2801	C280	0.000800	0.192000	0.354000
C2811	C281	0.042300	0.176300	0.464000
C2821	C282	0.130800	0.195900	0.603000
N2831	N283	0.858610	0.249470	0.143600
N2841	N284	0.940130	0.255870	0.225400
O2851	O285	0.253820	0.723980	0.343800
O2861	O286	0.165160	0.224210	0.639700
O2871	O287	0.142100	0.155300	0.682000
H2881	H288	0.257530	0.802500	0.674900
