data_IGAGUU_freeONLY_PM
_symmetry_space_group_name_H-M	'P1'
_cell_length_a	26.388000
_cell_length_b	29.720000
_cell_length_c	29.720000
_cell_angle_alpha	120.000000
_cell_angle_beta	90.000000
_cell_angle_gamma	90.000000
_symmetry_Int_Tables_number 1

loop_
_symmetry_equiv_pos_as_xyz
'x,y,z'

loop_
_atom_site_label
_atom_site_type_symbol
_atom_site_fract_x
_atom_site_fract_y
_atom_site_fract_z
Cr11	Cr1	0.750000	0.000000	0.583700
Cr21	Cr2	0.750000	0.583700	0.000000
Cr31	Cr3	0.750000	0.416300	0.416300
Cr41	Cr4	0.250000	0.000000	0.416300
Cr51	Cr5	0.250000	0.416300	0.000000
Cr61	Cr6	0.250000	0.583700	0.583700
Cr71	Cr7	0.688000	0.000000	0.678100
Cr81	Cr8	0.688000	0.678100	0.000000
Cr91	Cr9	0.688000	0.321900	0.321900
Cr101	Cr10	0.188000	0.000000	0.321900
Cr111	Cr11	0.188000	0.321900	0.000000
Cr121	Cr12	0.188000	0.678100	0.678100
Cr131	Cr13	0.812000	0.321900	0.321900
Cr141	Cr14	0.812000	0.678100	0.000000
Cr151	Cr15	0.812000	0.000000	0.678100
Cr161	Cr16	0.312000	0.678100	0.678100
Cr171	Cr17	0.312000	0.321900	0.000000
Cr181	Cr18	0.312000	0.000000	0.321900
Cu11	Cu1	0.500000	0.763460	0.381730
Cu21	Cu2	0.500000	0.618270	0.236540
Cu31	Cu3	0.500000	0.618270	0.381730
Cu41	Cu4	0.000000	0.236540	0.618270
Cu51	Cu5	0.000000	0.381730	0.763460
Cu61	Cu6	0.000000	0.381730	0.618270
Cu71	Cu7	0.500000	0.236540	0.618270
Cu81	Cu8	0.500000	0.381730	0.763460
Cu91	Cu9	0.500000	0.381730	0.618270
Cu101	Cu10	0.000000	0.763460	0.381730
Cu111	Cu11	0.000000	0.618270	0.236540
Cu121	Cu12	0.000000	0.618270	0.381730
H11	H1	0.553100	0.733900	0.432700
H21	H2	0.585700	0.731400	0.390900
H31	H3	0.637300	0.805400	0.405500
H41	H4	0.595400	0.875600	0.576800
H51	H5	0.550800	0.803600	0.515600
H61	H6	0.672900	0.884800	0.465500
H71	H7	0.673700	0.785300	0.673700
H81	H8	0.673600	0.868400	0.683800
H91	H9	0.778900	0.709600	0.664400
H101	H10	0.553100	0.698800	0.266100
H111	H11	0.585700	0.659500	0.268600
H121	H12	0.637300	0.600100	0.194600
H131	H13	0.595400	0.701200	0.124400
H141	H14	0.550800	0.712000	0.196400
H151	H15	0.672900	0.580700	0.115200
H161	H16	0.673700	0.888400	0.214700
H171	H17	0.673600	0.815400	0.131600
H181	H18	0.778900	0.954800	0.290400
H191	H19	0.553100	0.567300	0.301200
H201	H20	0.585700	0.609100	0.340500
H211	H21	0.637300	0.594500	0.399900
H221	H22	0.595400	0.423200	0.298800
H231	H23	0.550800	0.484400	0.288000
H241	H24	0.672900	0.534500	0.419300
H251	H25	0.673700	0.326300	0.111600
H261	H26	0.673600	0.316200	0.184600
H271	H27	0.778900	0.335600	0.045200
H281	H28	0.053100	0.266100	0.567300
H291	H29	0.085700	0.268600	0.609100
H301	H30	0.137300	0.194600	0.594500
H311	H31	0.095400	0.124400	0.423200
H321	H32	0.050800	0.196400	0.484400
H331	H33	0.172900	0.115200	0.534500
H341	H34	0.173700	0.214700	0.326300
H351	H35	0.173600	0.131600	0.316200
H361	H36	0.278900	0.290400	0.335600
H371	H37	0.053100	0.301200	0.733900
H381	H38	0.085700	0.340500	0.731400
H391	H39	0.137300	0.399900	0.805400
H401	H40	0.095400	0.298800	0.875600
H411	H41	0.050800	0.288000	0.803600
H421	H42	0.172900	0.419300	0.884800
H431	H43	0.173700	0.111600	0.785300
H441	H44	0.173600	0.184600	0.868400
H451	H45	0.278900	0.045200	0.709600
H461	H46	0.053100	0.432700	0.698800
H471	H47	0.085700	0.390900	0.659500
H481	H48	0.137300	0.405500	0.600100
H491	H49	0.095400	0.576800	0.701200
H501	H50	0.050800	0.515600	0.712000
H511	H51	0.172900	0.465500	0.580700
H521	H52	0.173700	0.673700	0.888400
H531	H53	0.173600	0.683800	0.815400
H541	H54	0.278900	0.664400	0.954800
H551	H55	0.946900	0.301200	0.567300
H561	H56	0.914300	0.340500	0.609100
H571	H57	0.862700	0.399900	0.594500
H581	H58	0.904600	0.298800	0.423200
H591	H59	0.949200	0.288000	0.484400
H601	H60	0.827100	0.419300	0.534500
H611	H61	0.826300	0.111600	0.326300
H621	H62	0.826400	0.184600	0.316200
H631	H63	0.721100	0.045200	0.335600
H641	H64	0.946900	0.432700	0.733900
H651	H65	0.914300	0.390900	0.731400
H661	H66	0.862700	0.405500	0.805400
H671	H67	0.904600	0.576800	0.875600
H681	H68	0.949200	0.515600	0.803600
H691	H69	0.827100	0.465500	0.884800
H701	H70	0.826300	0.673700	0.785300
H711	H71	0.826400	0.683800	0.868400
H721	H72	0.721100	0.664400	0.709600
H731	H73	0.946900	0.266100	0.698800
H741	H74	0.914300	0.268600	0.659500
H751	H75	0.862700	0.194600	0.600100
H761	H76	0.904600	0.124400	0.701200
H771	H77	0.949200	0.196400	0.712000
H781	H78	0.827100	0.115200	0.580700
H791	H79	0.826300	0.214700	0.888400
H801	H80	0.826400	0.131600	0.815400
H811	H81	0.721100	0.290400	0.954800
H821	H82	0.446900	0.698800	0.432700
H831	H83	0.414300	0.659500	0.390900
H841	H84	0.362700	0.600100	0.405500
H851	H85	0.404600	0.701200	0.576800
H861	H86	0.449200	0.712000	0.515600
H871	H87	0.327100	0.580700	0.465500
H881	H88	0.326300	0.888400	0.673700
H891	H89	0.326400	0.815400	0.683800
H901	H90	0.221100	0.954800	0.664400
H911	H91	0.446900	0.567300	0.266100
H921	H92	0.414300	0.609100	0.268600
H931	H93	0.362700	0.594500	0.194600
H941	H94	0.404600	0.423200	0.124400
H951	H95	0.449200	0.484400	0.196400
H961	H96	0.327100	0.534500	0.115200
H971	H97	0.326300	0.326300	0.214700
H981	H98	0.326400	0.316200	0.131600
H991	H99	0.221100	0.335600	0.290400
H1001	H100	0.446900	0.733900	0.301200
H1011	H101	0.414300	0.731400	0.340500
H1021	H102	0.362700	0.805400	0.399900
H1031	H103	0.404600	0.875600	0.298800
H1041	H104	0.449200	0.803600	0.288000
H1051	H105	0.327100	0.884800	0.419300
H1061	H106	0.326300	0.785300	0.111600
H1071	H107	0.326400	0.868400	0.184600
H1081	H108	0.221100	0.709600	0.045200
H1091	H109	0.446900	0.266100	0.567300
H1101	H110	0.414300	0.268600	0.609100
H1111	H111	0.362700	0.194600	0.594500
H1121	H112	0.404600	0.124400	0.423200
H1131	H113	0.449200	0.196400	0.484400
H1141	H114	0.327100	0.115200	0.534500
H1151	H115	0.326300	0.214700	0.326300
H1161	H116	0.326400	0.131600	0.316200
H1171	H117	0.221100	0.290400	0.335600
H1181	H118	0.446900	0.301200	0.733900
H1191	H119	0.414300	0.340500	0.731400
H1201	H120	0.362700	0.399900	0.805400
H1211	H121	0.404600	0.298800	0.875600
H1221	H122	0.449200	0.288000	0.803600
H1231	H123	0.327100	0.419300	0.884800
H1241	H124	0.326300	0.111600	0.785300
H1251	H125	0.326400	0.184600	0.868400
H1261	H126	0.221100	0.045200	0.709600
H1271	H127	0.446900	0.432700	0.698800
H1281	H128	0.414300	0.390900	0.659500
H1291	H129	0.362700	0.405500	0.600100
H1301	H130	0.404600	0.576800	0.701200
H1311	H131	0.449200	0.515600	0.712000
H1321	H132	0.327100	0.465500	0.580700
H1331	H133	0.326300	0.673700	0.888400
H1341	H134	0.326400	0.683800	0.815400
H1351	H135	0.221100	0.664400	0.954800
H1361	H136	0.946900	0.733900	0.432700
H1371	H137	0.914300	0.731400	0.390900
H1381	H138	0.862700	0.805400	0.405500
H1391	H139	0.904600	0.875600	0.576800
H1401	H140	0.949200	0.803600	0.515600
H1411	H141	0.827100	0.884800	0.465500
H1421	H142	0.826300	0.785300	0.673700
H1431	H143	0.826400	0.868400	0.683800
H1441	H144	0.721100	0.709600	0.664400
H1451	H145	0.946900	0.698800	0.266100
H1461	H146	0.914300	0.659500	0.268600
H1471	H147	0.862700	0.600100	0.194600
H1481	H148	0.904600	0.701200	0.124400
H1491	H149	0.949200	0.712000	0.196400
H1501	H150	0.827100	0.580700	0.115200
H1511	H151	0.826300	0.888400	0.214700
H1521	H152	0.826400	0.815400	0.131600
H1531	H153	0.721100	0.954800	0.290400
H1541	H154	0.946900	0.567300	0.301200
H1551	H155	0.914300	0.609100	0.340500
H1561	H156	0.862700	0.594500	0.399900
H1571	H157	0.904600	0.423200	0.298800
H1581	H158	0.949200	0.484400	0.288000
H1591	H159	0.827100	0.534500	0.419300
H1601	H160	0.826300	0.326300	0.111600
H1611	H161	0.826400	0.316200	0.184600
H1621	H162	0.721100	0.335600	0.045200
H1631	H163	0.053100	0.698800	0.432700
H1641	H164	0.085700	0.659500	0.390900
H1651	H165	0.137300	0.600100	0.405500
H1661	H166	0.095400	0.701200	0.576800
H1671	H167	0.050800	0.712000	0.515600
H1681	H168	0.172900	0.580700	0.465500
H1691	H169	0.173700	0.888400	0.673700
H1701	H170	0.173600	0.815400	0.683800
H1711	H171	0.278900	0.954800	0.664400
H1721	H172	0.053100	0.567300	0.266100
H1731	H173	0.085700	0.609100	0.268600
H1741	H174	0.137300	0.594500	0.194600
H1751	H175	0.095400	0.423200	0.124400
H1761	H176	0.050800	0.484400	0.196400
H1771	H177	0.172900	0.534500	0.115200
H1781	H178	0.173700	0.326300	0.214700
H1791	H179	0.173600	0.316200	0.131600
H1801	H180	0.278900	0.335600	0.290400
H1811	H181	0.053100	0.733900	0.301200
H1821	H182	0.085700	0.731400	0.340500
H1831	H183	0.137300	0.805400	0.399900
H1841	H184	0.095400	0.875600	0.298800
H1851	H185	0.050800	0.803600	0.288000
H1861	H186	0.172900	0.884800	0.419300
H1871	H187	0.173700	0.785300	0.111600
H1881	H188	0.173600	0.868400	0.184600
H1891	H189	0.278900	0.709600	0.045200
H1901	H190	0.553100	0.301200	0.567300
H1911	H191	0.585700	0.340500	0.609100
H1921	H192	0.637300	0.399900	0.594500
H1931	H193	0.595400	0.298800	0.423200
H1941	H194	0.550800	0.288000	0.484400
H1951	H195	0.672900	0.419300	0.534500
H1961	H196	0.673700	0.111600	0.326300
H1971	H197	0.673600	0.184600	0.316200
H1981	H198	0.778900	0.045200	0.335600
H1991	H199	0.553100	0.432700	0.733900
H2001	H200	0.585700	0.390900	0.731400
H2011	H201	0.637300	0.405500	0.805400
H2021	H202	0.595400	0.576800	0.875600
H2031	H203	0.550800	0.515600	0.803600
H2041	H204	0.672900	0.465500	0.884800
H2051	H205	0.673700	0.673700	0.785300
H2061	H206	0.673600	0.683800	0.868400
H2071	H207	0.778900	0.664400	0.709600
H2081	H208	0.553100	0.266100	0.698800
H2091	H209	0.585700	0.268600	0.659500
H2101	H210	0.637300	0.194600	0.600100
H2111	H211	0.595400	0.124400	0.701200
H2121	H212	0.550800	0.196400	0.712000
H2131	H213	0.672900	0.115200	0.580700
H2141	H214	0.673700	0.214700	0.888400
H2151	H215	0.673600	0.131600	0.815400
H2161	H216	0.778900	0.290400	0.954800
C11	C1	0.589300	0.799600	0.454700
C21	C2	0.627100	0.821800	0.440900
C31	C3	0.641300	0.884200	0.527900
C41	C4	0.603500	0.861300	0.541100
C51	C5	0.576700	0.818800	0.505400
C61	C6	0.650900	0.866600	0.476100
C71	C7	0.669700	0.929900	0.568200
C81	C8	0.704800	0.802400	0.675800
C91	C9	0.705000	0.851800	0.681800
C101	C10	0.589300	0.655100	0.200400
C111	C11	0.627100	0.619100	0.178200
C121	C12	0.641300	0.643700	0.115800
C131	C13	0.603500	0.679800	0.138700
C141	C14	0.576700	0.686600	0.181200
C151	C15	0.650900	0.609500	0.133400
C161	C16	0.669700	0.638300	0.070100
C171	C17	0.704800	0.873400	0.197600
C181	C18	0.705000	0.830000	0.148200
C191	C19	0.589300	0.545300	0.344900
C201	C20	0.627100	0.559100	0.380900
C211	C21	0.641300	0.472100	0.356300
C221	C22	0.603500	0.458900	0.320200
C231	C23	0.576700	0.494600	0.313400
C241	C24	0.650900	0.523900	0.390500
C251	C25	0.669700	0.431800	0.361700
C261	C26	0.704800	0.324200	0.126600
C271	C27	0.705000	0.318200	0.170000
C281	C28	0.089300	0.200400	0.545300
C291	C29	0.127100	0.178200	0.559100
C301	C30	0.141300	0.115800	0.472100
C311	C31	0.103500	0.138700	0.458900
C321	C32	0.076700	0.181200	0.494600
C331	C33	0.150900	0.133400	0.523900
C341	C34	0.169700	0.070100	0.431800
C351	C35	0.204800	0.197600	0.324200
C361	C36	0.205000	0.148200	0.318200
C371	C37	0.089300	0.344900	0.799600
C381	C38	0.127100	0.380900	0.821800
C391	C39	0.141300	0.356300	0.884200
C401	C40	0.103500	0.320200	0.861300
C411	C41	0.076700	0.313400	0.818800
C421	C42	0.150900	0.390500	0.866600
C431	C43	0.169700	0.361700	0.929900
C441	C44	0.204800	0.126600	0.802400
C451	C45	0.205000	0.170000	0.851800
C461	C46	0.089300	0.454700	0.655100
C471	C47	0.127100	0.440900	0.619100
C481	C48	0.141300	0.527900	0.643700
C491	C49	0.103500	0.541100	0.679800
C501	C50	0.076700	0.505400	0.686600
C511	C51	0.150900	0.476100	0.609500
C521	C52	0.169700	0.568200	0.638300
C531	C53	0.204800	0.675800	0.873400
C541	C54	0.205000	0.681800	0.830000
C551	C55	0.910700	0.344900	0.545300
C561	C56	0.872900	0.380900	0.559100
C571	C57	0.858700	0.356300	0.472100
C581	C58	0.896500	0.320200	0.458900
C591	C59	0.923300	0.313400	0.494600
C601	C60	0.849100	0.390500	0.523900
C611	C61	0.830300	0.361700	0.431800
C621	C62	0.795200	0.126600	0.324200
C631	C63	0.795000	0.170000	0.318200
C641	C64	0.910700	0.454700	0.799600
C651	C65	0.872900	0.440900	0.821800
C661	C66	0.858700	0.527900	0.884200
C671	C67	0.896500	0.541100	0.861300
C681	C68	0.923300	0.505400	0.818800
C691	C69	0.849100	0.476100	0.866600
C701	C70	0.830300	0.568200	0.929900
C711	C71	0.795200	0.675800	0.802400
C721	C72	0.795000	0.681800	0.851800
C731	C73	0.910700	0.200400	0.655100
C741	C74	0.872900	0.178200	0.619100
C751	C75	0.858700	0.115800	0.643700
C761	C76	0.896500	0.138700	0.679800
C771	C77	0.923300	0.181200	0.686600
C781	C78	0.849100	0.133400	0.609500
C791	C79	0.830300	0.070100	0.638300
C801	C80	0.795200	0.197600	0.873400
C811	C81	0.795000	0.148200	0.830000
C821	C82	0.410700	0.655100	0.454700
C831	C83	0.372900	0.619100	0.440900
C841	C84	0.358700	0.643700	0.527900
C851	C85	0.396500	0.679800	0.541100
C861	C86	0.423300	0.686600	0.505400
C871	C87	0.349100	0.609500	0.476100
C881	C88	0.330300	0.638300	0.568200
C891	C89	0.295200	0.873400	0.675800
C901	C90	0.295000	0.830000	0.681800
C911	C91	0.410700	0.545300	0.200400
C921	C92	0.372900	0.559100	0.178200
C931	C93	0.358700	0.472100	0.115800
C941	C94	0.396500	0.458900	0.138700
C951	C95	0.423300	0.494600	0.181200
C961	C96	0.349100	0.523900	0.133400
C971	C97	0.330300	0.431800	0.070100
C981	C98	0.295200	0.324200	0.197600
C991	C99	0.295000	0.318200	0.148200
C1001	C100	0.410700	0.799600	0.344900
C1011	C101	0.372900	0.821800	0.380900
C1021	C102	0.358700	0.884200	0.356300
C1031	C103	0.396500	0.861300	0.320200
C1041	C104	0.423300	0.818800	0.313400
C1051	C105	0.349100	0.866600	0.390500
C1061	C106	0.330300	0.929900	0.361700
C1071	C107	0.295200	0.802400	0.126600
C1081	C108	0.295000	0.851800	0.170000
C1091	C109	0.410700	0.200400	0.545300
C1101	C110	0.372900	0.178200	0.559100
C1111	C111	0.358700	0.115800	0.472100
C1121	C112	0.396500	0.138700	0.458900
C1131	C113	0.423300	0.181200	0.494600
C1141	C114	0.349100	0.133400	0.523900
C1151	C115	0.330300	0.070100	0.431800
C1161	C116	0.295200	0.197600	0.324200
C1171	C117	0.295000	0.148200	0.318200
C1181	C118	0.410700	0.344900	0.799600
C1191	C119	0.372900	0.380900	0.821800
C1201	C120	0.358700	0.356300	0.884200
C1211	C121	0.396500	0.320200	0.861300
C1221	C122	0.423300	0.313400	0.818800
C1231	C123	0.349100	0.390500	0.866600
C1241	C124	0.330300	0.361700	0.929900
C1251	C125	0.295200	0.126600	0.802400
C1261	C126	0.295000	0.170000	0.851800
C1271	C127	0.410700	0.454700	0.655100
C1281	C128	0.372900	0.440900	0.619100
C1291	C129	0.358700	0.527900	0.643700
C1301	C130	0.396500	0.541100	0.679800
C1311	C131	0.423300	0.505400	0.686600
C1321	C132	0.349100	0.476100	0.609500
C1331	C133	0.330300	0.568200	0.638300
C1341	C134	0.295200	0.675800	0.873400
C1351	C135	0.295000	0.681800	0.830000
C1361	C136	0.910700	0.799600	0.454700
C1371	C137	0.872900	0.821800	0.440900
C1381	C138	0.858700	0.884200	0.527900
C1391	C139	0.896500	0.861300	0.541100
C1401	C140	0.923300	0.818800	0.505400
C1411	C141	0.849100	0.866600	0.476100
C1421	C142	0.830300	0.929900	0.568200
C1431	C143	0.795200	0.802400	0.675800
C1441	C144	0.795000	0.851800	0.681800
C1451	C145	0.910700	0.655100	0.200400
C1461	C146	0.872900	0.619100	0.178200
C1471	C147	0.858700	0.643700	0.115800
C1481	C148	0.896500	0.679800	0.138700
C1491	C149	0.923300	0.686600	0.181200
C1501	C150	0.849100	0.609500	0.133400
C1511	C151	0.830300	0.638300	0.070100
C1521	C152	0.795200	0.873400	0.197600
C1531	C153	0.795000	0.830000	0.148200
C1541	C154	0.910700	0.545300	0.344900
C1551	C155	0.872900	0.559100	0.380900
C1561	C156	0.858700	0.472100	0.356300
C1571	C157	0.896500	0.458900	0.320200
C1581	C158	0.923300	0.494600	0.313400
C1591	C159	0.849100	0.523900	0.390500
C1601	C160	0.830300	0.431800	0.361700
C1611	C161	0.795200	0.324200	0.126600
C1621	C162	0.795000	0.318200	0.170000
C1631	C163	0.089300	0.655100	0.454700
C1641	C164	0.127100	0.619100	0.440900
C1651	C165	0.141300	0.643700	0.527900
C1661	C166	0.103500	0.679800	0.541100
C1671	C167	0.076700	0.686600	0.505400
C1681	C168	0.150900	0.609500	0.476100
C1691	C169	0.169700	0.638300	0.568200
C1701	C170	0.204800	0.873400	0.675800
C1711	C171	0.205000	0.830000	0.681800
C1721	C172	0.089300	0.545300	0.200400
C1731	C173	0.127100	0.559100	0.178200
C1741	C174	0.141300	0.472100	0.115800
C1751	C175	0.103500	0.458900	0.138700
C1761	C176	0.076700	0.494600	0.181200
C1771	C177	0.150900	0.523900	0.133400
C1781	C178	0.169700	0.431800	0.070100
C1791	C179	0.204800	0.324200	0.197600
C1801	C180	0.205000	0.318200	0.148200
C1811	C181	0.089300	0.799600	0.344900
C1821	C182	0.127100	0.821800	0.380900
C1831	C183	0.141300	0.884200	0.356300
C1841	C184	0.103500	0.861300	0.320200
C1851	C185	0.076700	0.818800	0.313400
C1861	C186	0.150900	0.866600	0.390500
C1871	C187	0.169700	0.929900	0.361700
C1881	C188	0.204800	0.802400	0.126600
C1891	C189	0.205000	0.851800	0.170000
C1901	C190	0.589300	0.344900	0.545300
C1911	C191	0.627100	0.380900	0.559100
C1921	C192	0.641300	0.356300	0.472100
C1931	C193	0.603500	0.320200	0.458900
C1941	C194	0.576700	0.313400	0.494600
C1951	C195	0.650900	0.390500	0.523900
C1961	C196	0.669700	0.361700	0.431800
C1971	C197	0.704800	0.126600	0.324200
C1981	C198	0.705000	0.170000	0.318200
C1991	C199	0.589300	0.454700	0.799600
C2001	C200	0.627100	0.440900	0.821800
C2011	C201	0.641300	0.527900	0.884200
C2021	C202	0.603500	0.541100	0.861300
C2031	C203	0.576700	0.505400	0.818800
C2041	C204	0.650900	0.476100	0.866600
C2051	C205	0.669700	0.568200	0.929900
C2061	C206	0.704800	0.675800	0.802400
C2071	C207	0.705000	0.681800	0.851800
C2081	C208	0.589300	0.200400	0.655100
C2091	C209	0.627100	0.178200	0.619100
C2101	C210	0.641300	0.115800	0.643700
C2111	C211	0.603500	0.138700	0.679800
C2121	C212	0.576700	0.181200	0.686600
C2131	C213	0.650900	0.133400	0.609500
C2141	C214	0.669700	0.070100	0.638300
C2151	C215	0.704800	0.197600	0.873400
C2161	C216	0.705000	0.148200	0.830000
C2171	C217	0.750000	0.931000	0.691700
C2181	C218	0.750000	0.877600	0.684900
C2191	C219	0.750000	0.778500	0.672900
C2201	C220	0.750000	0.760700	0.069000
C2211	C221	0.750000	0.807300	0.122400
C2221	C222	0.750000	0.894400	0.221500
C2231	C223	0.750000	0.308300	0.239300
C2241	C224	0.750000	0.315100	0.192700
C2251	C225	0.750000	0.327100	0.105600
C2261	C226	0.250000	0.069000	0.308300
C2271	C227	0.250000	0.122400	0.315100
C2281	C228	0.250000	0.221500	0.327100
C2291	C229	0.250000	0.239300	0.931000
C2301	C230	0.250000	0.192700	0.877600
C2311	C231	0.250000	0.105600	0.778500
C2321	C232	0.250000	0.691700	0.760700
C2331	C233	0.250000	0.684900	0.807300
C2341	C234	0.250000	0.672900	0.894400
C2351	C235	0.750000	0.239300	0.308300
C2361	C236	0.750000	0.192700	0.315100
C2371	C237	0.750000	0.105600	0.327100
C2381	C238	0.750000	0.691700	0.931000
C2391	C239	0.750000	0.684900	0.877600
C2401	C240	0.750000	0.672900	0.778500
C2411	C241	0.750000	0.069000	0.760700
C2421	C242	0.750000	0.122400	0.807300
C2431	C243	0.750000	0.221500	0.894400
C2441	C244	0.250000	0.760700	0.691700
C2451	C245	0.250000	0.807300	0.684900
C2461	C246	0.250000	0.894400	0.672900
C2471	C247	0.250000	0.308300	0.069000
C2481	C248	0.250000	0.315100	0.122400
C2491	C249	0.250000	0.327100	0.221500
C2501	C250	0.250000	0.931000	0.239300
C2511	C251	0.250000	0.877600	0.192700
C2521	C252	0.250000	0.778500	0.105600
N11	N1	0.563000	0.751900	0.416500
N21	N2	0.563000	0.664600	0.248100
N31	N3	0.563000	0.583500	0.335400
N41	N4	0.063000	0.248100	0.583500
N51	N5	0.063000	0.335400	0.751900
N61	N6	0.063000	0.416500	0.664600
N71	N7	0.937000	0.335400	0.583500
N81	N8	0.937000	0.416500	0.751900
N91	N9	0.937000	0.248100	0.664600
N101	N10	0.437000	0.664600	0.416500
N111	N11	0.437000	0.583500	0.248100
N121	N12	0.437000	0.751900	0.335400
N131	N13	0.437000	0.248100	0.583500
N141	N14	0.437000	0.335400	0.751900
N151	N15	0.437000	0.416500	0.664600
N161	N16	0.937000	0.751900	0.416500
N171	N17	0.937000	0.664600	0.248100
N181	N18	0.937000	0.583500	0.335400
N191	N19	0.063000	0.664600	0.416500
N201	N20	0.063000	0.583500	0.248100
N211	N21	0.063000	0.751900	0.335400
N221	N22	0.563000	0.335400	0.583500
N231	N23	0.563000	0.416500	0.751900
N241	N24	0.563000	0.248100	0.664600
N251	N25	0.750000	0.725000	0.666000
N261	N26	0.750000	0.941000	0.275000
N271	N27	0.750000	0.334000	0.059000
N281	N28	0.250000	0.275000	0.334000
N291	N29	0.250000	0.059000	0.725000
N301	N30	0.250000	0.666000	0.941000
N311	N31	0.750000	0.059000	0.334000
N321	N32	0.750000	0.666000	0.725000
N331	N33	0.750000	0.275000	0.941000
N341	N34	0.250000	0.941000	0.666000
N351	N35	0.250000	0.334000	0.275000
N361	N36	0.250000	0.725000	0.059000
Cl11	Cl1	0.453800	0.786400	0.455300
Cl21	Cl2	0.453800	0.668900	0.213600
Cl31	Cl3	0.453800	0.544700	0.331100
Cl41	Cl4	0.953800	0.213600	0.544700
Cl51	Cl5	0.953800	0.331100	0.786400
Cl61	Cl6	0.953800	0.455300	0.668900
Cl71	Cl7	0.046200	0.331100	0.544700
Cl81	Cl8	0.046200	0.455300	0.786400
Cl91	Cl9	0.046200	0.213600	0.668900
Cl101	Cl10	0.546200	0.668900	0.455300
Cl111	Cl11	0.546200	0.544700	0.213600
Cl121	Cl12	0.546200	0.786400	0.331100
Cl131	Cl13	0.546200	0.213600	0.544700
Cl141	Cl14	0.546200	0.331100	0.786400
Cl151	Cl15	0.546200	0.455300	0.668900
Cl161	Cl16	0.046200	0.786400	0.455300
Cl171	Cl17	0.046200	0.668900	0.213600
Cl181	Cl18	0.046200	0.544700	0.331100
Cl191	Cl19	0.953800	0.668900	0.455300
Cl201	Cl20	0.953800	0.544700	0.213600
Cl211	Cl21	0.953800	0.786400	0.331100
Cl221	Cl22	0.453800	0.331100	0.544700
Cl231	Cl23	0.453800	0.455300	0.786400
Cl241	Cl24	0.453800	0.213600	0.668900
Cl251	Cl25	0.500000	0.666670	0.333340
Cl261	Cl26	0.000000	0.333330	0.666660
Cl271	Cl27	0.500000	0.333330	0.666660
Cl281	Cl28	0.000000	0.666670	0.333340
O11	O1	0.702900	0.947900	0.551700
O21	O2	0.658400	0.946200	0.614300
O31	O3	0.704600	0.947800	0.692300
O41	O4	0.702900	0.603800	0.052100
O51	O5	0.658400	0.668100	0.053800
O61	O6	0.704600	0.744500	0.052200
O71	O7	0.702900	0.448300	0.396200
O81	O8	0.658400	0.385700	0.331900
O91	O9	0.704600	0.307700	0.255500
O101	O10	0.202900	0.052100	0.448300
O111	O11	0.158400	0.053800	0.385700
O121	O12	0.204600	0.052200	0.307700
O131	O13	0.202900	0.396200	0.947900
O141	O14	0.158400	0.331900	0.946200
O151	O15	0.204600	0.255500	0.947800
O161	O16	0.202900	0.551700	0.603800
O171	O17	0.158400	0.614300	0.668100
O181	O18	0.204600	0.692300	0.744500
O191	O19	0.797100	0.396200	0.448300
O201	O20	0.841600	0.331900	0.385700
O211	O21	0.795400	0.255500	0.307700
O221	O22	0.797100	0.551700	0.947900
O231	O23	0.841600	0.614300	0.946200
O241	O24	0.795400	0.692300	0.947800
O251	O25	0.797100	0.052100	0.603800
O261	O26	0.841600	0.053800	0.668100
O271	O27	0.795400	0.052200	0.744500
O281	O28	0.297100	0.603800	0.551700
O291	O29	0.341600	0.668100	0.614300
O301	O30	0.295400	0.744500	0.692300
O311	O31	0.297100	0.448300	0.052100
O321	O32	0.341600	0.385700	0.053800
O331	O33	0.295400	0.307700	0.052200
O341	O34	0.297100	0.947900	0.396200
O351	O35	0.341600	0.946200	0.331900
O361	O36	0.295400	0.947800	0.255500
O371	O37	0.297100	0.052100	0.448300
O381	O38	0.341600	0.053800	0.385700
O391	O39	0.295400	0.052200	0.307700
O401	O40	0.297100	0.396200	0.947900
O411	O41	0.341600	0.331900	0.946200
O421	O42	0.295400	0.255500	0.947800
O431	O43	0.297100	0.551700	0.603800
O441	O44	0.341600	0.614300	0.668100
O451	O45	0.295400	0.692300	0.744500
O461	O46	0.797100	0.947900	0.551700
O471	O47	0.841600	0.946200	0.614300
O481	O48	0.795400	0.947800	0.692300
O491	O49	0.797100	0.603800	0.052100
O501	O50	0.841600	0.668100	0.053800
O511	O51	0.795400	0.744500	0.052200
O521	O52	0.797100	0.448300	0.396200
O531	O53	0.841600	0.385700	0.331900
O541	O54	0.795400	0.307700	0.255500
O551	O55	0.202900	0.603800	0.551700
O561	O56	0.158400	0.668100	0.614300
O571	O57	0.204600	0.744500	0.692300
O581	O58	0.202900	0.448300	0.052100
O591	O59	0.158400	0.385700	0.053800
O601	O60	0.204600	0.307700	0.052200
O611	O61	0.202900	0.947900	0.396200
O621	O62	0.158400	0.946200	0.331900
O631	O63	0.204600	0.947800	0.255500
O641	O64	0.702900	0.396200	0.448300
O651	O65	0.658400	0.331900	0.385700
O661	O66	0.704600	0.255500	0.307700
O671	O67	0.702900	0.551700	0.947900
O681	O68	0.658400	0.614300	0.946200
O691	O69	0.704600	0.692300	0.947800
O701	O70	0.702900	0.052100	0.603800
O711	O71	0.658400	0.053800	0.668100
O721	O72	0.704600	0.052200	0.744500
O731	O73	0.750000	0.000000	0.509700
O741	O74	0.750000	0.000000	0.645900
O751	O75	0.750000	0.509700	0.000000
O761	O76	0.750000	0.645900	0.000000
O771	O77	0.750000	0.490300	0.490300
O781	O78	0.750000	0.354100	0.354100
O791	O79	0.250000	0.000000	0.490300
O801	O80	0.250000	0.000000	0.354100
O811	O81	0.250000	0.490300	0.000000
O821	O82	0.250000	0.354100	0.000000
O831	O83	0.250000	0.509700	0.509700
O841	O84	0.250000	0.645900	0.645900
O851	O85	0.616400	0.000000	0.712400
O861	O86	0.616400	0.712400	0.000000
O871	O87	0.616400	0.287600	0.287600
O881	O88	0.116400	0.000000	0.287600
O891	O89	0.116400	0.287600	0.000000
O901	O90	0.116400	0.712400	0.712400
O911	O91	0.883600	0.287600	0.287600
O921	O92	0.883600	0.712400	0.000000
O931	O93	0.883600	0.000000	0.712400
O941	O94	0.383600	0.712400	0.712400
O951	O95	0.383600	0.287600	0.000000
O961	O96	0.383600	0.000000	0.287600
