data_IGINIX01_freeONLY_PM
_symmetry_space_group_name_H-M	'P1'
_cell_length_a	14.090700
_cell_length_b	12.143400
_cell_length_c	14.634500
_cell_angle_alpha	90.000000
_cell_angle_beta	106.053000
_cell_angle_gamma	90.000000
_symmetry_Int_Tables_number 1

loop_
_symmetry_equiv_pos_as_xyz
'x,y,z'

loop_
_atom_site_label
_atom_site_type_symbol
_atom_site_fract_x
_atom_site_fract_y
_atom_site_fract_z
Zn11	Zn1	0.196310	0.243170	0.074260
Zn21	Zn2	0.350120	0.021370	0.156460
O11	O1	0.288400	0.233110	0.976120
O21	O2	0.386730	0.092030	0.041200
O31	O3	0.608580	0.253420	0.672390
O41	O4	0.670700	0.098330	0.750100
O51	O5	0.322970	0.287720	0.175060
O61	O6	0.396550	0.136830	0.253120
O71	O7	0.674590	0.588960	0.515450
O81	O8	0.710460	0.431130	0.596320
O91	O9	0.156330	0.401120	0.025860
N11	N1	0.538130	0.093020	0.844210
N21	N2	0.581020	0.320330	0.461200
N31	N3	0.181980	0.585660	0.039700
C11	C1	0.475920	0.088810	0.898720
H11	H1	0.472800	0.022900	0.932700
C21	C2	0.415480	0.176550	0.908030
C31	C3	0.413400	0.267950	0.850940
H21	H2	0.370900	0.328100	0.852900
C41	C4	0.474740	0.270770	0.790230
H31	H3	0.473100	0.332100	0.749500
C51	C5	0.537910	0.183180	0.790210
C61	C6	0.357200	0.167960	0.981030
C71	C7	0.611790	0.178480	0.732400
C81	C8	0.517300	0.261990	0.394230
H41	H4	0.517600	0.184000	0.399700
C91	C9	0.450380	0.311020	0.316670
C101	C10	0.447590	0.425380	0.310730
H51	H5	0.400700	0.461200	0.260200
C111	C11	0.514400	0.486560	0.379900
H61	H6	0.514500	0.564700	0.377200
C121	C12	0.580950	0.430640	0.452860
C131	C13	0.383610	0.239770	0.241730
C141	C14	0.660550	0.491320	0.526390
C151	C15	0.198450	0.483580	0.069760
H71	H7	0.245900	0.471700	0.129200
C161	C16	0.112800	0.612300	0.948470
H81	H8	0.148600	0.618800	0.900000
H91	H9	0.080000	0.682300	0.953600
H101	H10	0.063200	0.553800	0.930400
C171	C17	0.240690	0.675760	0.093010
H111	H11	0.274300	0.650700	0.157500
H121	H12	0.197300	0.737800	0.096300
H131	H13	0.289800	0.699300	0.061000
Zn31	Zn3	0.303690	0.743170	0.425740
Zn41	Zn4	0.149880	0.521370	0.343540
O101	O10	0.211600	0.733110	0.523880
O111	O11	0.113270	0.592030	0.458800
O121	O12	0.891420	0.753420	0.827610
O131	O13	0.829300	0.598330	0.749900
O141	O14	0.177030	0.787720	0.324940
O151	O15	0.103450	0.636830	0.246880
O161	O16	0.825410	0.088960	0.984550
O171	O17	0.789540	0.931130	0.903680
O181	O18	0.343670	0.901120	0.474140
N41	N4	0.961870	0.593020	0.655790
N51	N5	0.918980	0.820330	0.038800
N61	N6	0.318020	0.085660	0.460300
C181	C18	0.024080	0.588810	0.601280
H141	H14	0.027200	0.522900	0.567300
C191	C19	0.084520	0.676550	0.591970
C201	C20	0.086600	0.767950	0.649060
H151	H15	0.129100	0.828100	0.647100
C211	C21	0.025260	0.770770	0.709770
H161	H16	0.026900	0.832100	0.750500
C221	C22	0.962090	0.683180	0.709790
C231	C23	0.142800	0.667960	0.518970
C241	C24	0.888210	0.678480	0.767600
C251	C25	0.982700	0.761990	0.105770
H171	H17	0.982400	0.684000	0.100300
C261	C26	0.049620	0.811020	0.183330
C271	C27	0.052410	0.925380	0.189270
H181	H18	0.099300	0.961200	0.239800
C281	C28	0.985600	0.986560	0.120100
H191	H19	0.985500	0.064700	0.122800
C291	C29	0.919050	0.930640	0.047140
C301	C30	0.116390	0.739770	0.258270
C311	C31	0.839450	0.991320	0.973610
C321	C32	0.301550	0.983580	0.430240
H201	H20	0.254100	0.971700	0.370800
C331	C33	0.387200	0.112300	0.551530
H211	H21	0.351400	0.118800	0.600000
H221	H22	0.420000	0.182300	0.546400
H231	H23	0.436800	0.053800	0.569600
C341	C34	0.259310	0.175760	0.406990
H241	H24	0.225700	0.150700	0.342500
H251	H25	0.302700	0.237800	0.403700
H261	H26	0.210200	0.199300	0.439000
Zn51	Zn5	0.803690	0.756830	0.925740
Zn61	Zn6	0.649880	0.978630	0.843540
O191	O19	0.711600	0.766890	0.023880
O201	O20	0.613270	0.907970	0.958800
O211	O21	0.391420	0.746580	0.327610
O221	O22	0.329300	0.901670	0.249900
O231	O23	0.677030	0.712280	0.824940
O241	O24	0.603450	0.863170	0.746880
O251	O25	0.325410	0.411040	0.484550
O261	O26	0.289540	0.568870	0.403680
O271	O27	0.843670	0.598880	0.974140
N71	N7	0.461870	0.906980	0.155790
N81	N8	0.418980	0.679670	0.538800
N91	N9	0.818020	0.414340	0.960300
C351	C35	0.524080	0.911190	0.101280
H271	H27	0.527200	0.977100	0.067300
C361	C36	0.584520	0.823450	0.091970
C371	C37	0.586600	0.732050	0.149060
H281	H28	0.629100	0.671900	0.147100
C381	C38	0.525260	0.729230	0.209770
H291	H29	0.526900	0.667900	0.250500
C391	C39	0.462090	0.816820	0.209790
C401	C40	0.642800	0.832040	0.018970
C411	C41	0.388210	0.821520	0.267600
C421	C42	0.482700	0.738010	0.605770
H301	H30	0.482400	0.816000	0.600300
C431	C43	0.549620	0.688980	0.683330
C441	C44	0.552410	0.574620	0.689270
H311	H31	0.599300	0.538800	0.739800
C451	C45	0.485600	0.513440	0.620100
H321	H32	0.485500	0.435300	0.622800
C461	C46	0.419050	0.569360	0.547140
C471	C47	0.616390	0.760230	0.758270
C481	C48	0.339450	0.508680	0.473610
C491	C49	0.801550	0.516420	0.930240
H331	H33	0.754100	0.528300	0.870800
C501	C50	0.887200	0.387700	0.051530
H341	H34	0.851400	0.381200	0.100000
H351	H35	0.920000	0.317700	0.046400
H361	H36	0.936800	0.446200	0.069600
C511	C51	0.759310	0.324240	0.906990
H371	H37	0.725700	0.349300	0.842500
H381	H38	0.802700	0.262200	0.903700
H391	H39	0.710200	0.300700	0.939000
Zn71	Zn7	0.696310	0.256830	0.574260
Zn81	Zn8	0.850120	0.478630	0.656460
O281	O28	0.788400	0.266890	0.476120
O291	O29	0.886730	0.407970	0.541200
O301	O30	0.108580	0.246580	0.172390
O311	O31	0.170700	0.401670	0.250100
O321	O32	0.822970	0.212280	0.675060
O331	O33	0.896550	0.363170	0.753120
O341	O34	0.174590	0.911040	0.015450
O351	O35	0.210460	0.068870	0.096320
O361	O36	0.656330	0.098880	0.525860
N101	N10	0.038130	0.406980	0.344210
N111	N11	0.081020	0.179670	0.961200
N121	N12	0.681980	0.914340	0.539700
C521	C52	0.975920	0.411190	0.398720
H401	H40	0.972800	0.477100	0.432700
C531	C53	0.915480	0.323450	0.408030
C541	C54	0.913400	0.232050	0.350940
H411	H41	0.870900	0.171900	0.352900
C551	C55	0.974740	0.229230	0.290230
H421	H42	0.973100	0.167900	0.249500
C561	C56	0.037910	0.316820	0.290210
C571	C57	0.857200	0.332040	0.481030
C581	C58	0.111790	0.321520	0.232400
C591	C59	0.017300	0.238010	0.894230
H431	H43	0.017600	0.316000	0.899700
C601	C60	0.950380	0.188980	0.816670
C611	C61	0.947590	0.074620	0.810730
H441	H44	0.900700	0.038800	0.760200
C621	C62	0.014400	0.013440	0.879900
H451	H45	0.014500	0.935300	0.877200
C631	C63	0.080950	0.069360	0.952860
C641	C64	0.883610	0.260230	0.741730
C651	C65	0.160550	0.008680	0.026390
C661	C66	0.698450	0.016420	0.569760
H461	H46	0.745900	0.028300	0.629200
C671	C67	0.612800	0.887700	0.448470
H471	H47	0.648600	0.881200	0.400000
H481	H48	0.580000	0.817700	0.453600
H491	H49	0.563200	0.946200	0.430400
C681	C68	0.740690	0.824240	0.593010
H501	H50	0.774300	0.849300	0.657500
H511	H51	0.697300	0.762200	0.596300
H521	H52	0.789800	0.800700	0.561000
