data_IGUVIR01_freeONLY_PM
_symmetry_space_group_name_H-M	'P1'
_cell_length_a	9.790400
_cell_length_b	17.366000
_cell_length_c	15.256900
_cell_angle_alpha	90.000000
_cell_angle_beta	95.482900
_cell_angle_gamma	90.000000
_symmetry_Int_Tables_number 1

loop_
_symmetry_equiv_pos_as_xyz
'x,y,z'

loop_
_atom_site_label
_atom_site_type_symbol
_atom_site_fract_x
_atom_site_fract_y
_atom_site_fract_z
Cd11	Cd1	0.864500	0.580850	0.519290
O11	O1	0.753900	0.534520	0.392270
O21	O2	0.678300	0.666850	0.529140
O31	O3	0.838700	0.665480	0.640160
O41	O4	0.936800	0.461880	0.402150
N11	N1	0.998100	0.163480	0.052890
N21	N2	0.247800	0.987400	0.905100
C11	C1	0.821600	0.477840	0.369120
C21	C2	0.753300	0.427880	0.296500
C31	C3	0.827500	0.372180	0.255700
H11	H1	0.919200	0.363900	0.275200
C41	C4	0.765700	0.328600	0.185900
C51	C5	0.626900	0.340300	0.159200
H21	H2	0.584700	0.311900	0.112500
C61	C6	0.551400	0.393700	0.201800
H31	H3	0.458200	0.399800	0.184800
C71	C7	0.614300	0.438100	0.269600
H41	H4	0.563800	0.474700	0.297200
C81	C8	0.013300	0.171300	0.139700
H51	H5	0.075800	0.139400	0.171900
C91	C9	0.941400	0.224100	0.185000
H61	H6	0.957600	0.227900	0.245900
C101	C10	0.845700	0.271200	0.139800
C111	C11	0.827500	0.262200	0.048900
H71	H7	0.763200	0.292200	0.015500
C121	C12	0.904500	0.209200	0.008300
H81	H8	0.891300	0.204700	0.947400
C131	C13	0.723600	0.686700	0.605400
C141	C14	0.637400	0.738000	0.657100
C151	C15	0.508000	0.762300	0.622700
H91	H9	0.472500	0.745800	0.567200
C161	C16	0.431600	0.811000	0.670900
H101	H10	0.345600	0.827300	0.646700
C171	C17	0.480300	0.835830	0.754000
C181	C18	0.607900	0.810000	0.788400
H111	H11	0.642600	0.825700	0.844500
C191	C19	0.684700	0.761100	0.740600
H121	H12	0.769500	0.743700	0.765500
C201	C20	0.222100	0.981300	0.818200
H131	H13	0.152300	0.011400	0.790400
C211	C21	0.292800	0.932900	0.766800
H141	H14	0.269800	0.930600	0.706300
C221	C22	0.398700	0.887690	0.805900
C231	C23	0.425000	0.894300	0.896500
H151	H15	0.494200	0.865000	0.926200
C241	C24	0.349700	0.943700	0.942200
H161	H16	0.370600	0.947100	0.002800
Cd21	Cd2	0.135500	0.080850	0.980710
O51	O5	0.246100	0.034520	0.107730
O61	O6	0.321700	0.166850	0.970860
O71	O7	0.161300	0.165480	0.859840
O81	O8	0.063200	0.961880	0.097850
N31	N3	0.001900	0.663480	0.447110
N41	N4	0.752200	0.487400	0.594900
C251	C25	0.178400	0.977840	0.130880
C261	C26	0.246700	0.927880	0.203500
C271	C27	0.172500	0.872180	0.244300
H171	H17	0.080800	0.863900	0.224800
C281	C28	0.234300	0.828600	0.314100
C291	C29	0.373100	0.840300	0.340800
H181	H18	0.415300	0.811900	0.387500
C301	C30	0.448600	0.893700	0.298200
H191	H19	0.541800	0.899800	0.315200
C311	C31	0.385700	0.938100	0.230400
H201	H20	0.436200	0.974700	0.202800
C321	C32	0.986700	0.671300	0.360300
H211	H21	0.924200	0.639400	0.328100
C331	C33	0.058600	0.724100	0.315000
H221	H22	0.042400	0.727900	0.254100
C341	C34	0.154300	0.771200	0.360200
C351	C35	0.172500	0.762200	0.451100
H231	H23	0.236800	0.792200	0.484500
C361	C36	0.095500	0.709200	0.491700
H241	H24	0.108700	0.704700	0.552600
C371	C37	0.276400	0.186700	0.894600
C381	C38	0.362600	0.238000	0.842900
C391	C39	0.492000	0.262300	0.877300
H251	H25	0.527500	0.245800	0.932800
C401	C40	0.568400	0.311000	0.829100
H261	H26	0.654400	0.327300	0.853300
C411	C41	0.519700	0.335830	0.746000
C421	C42	0.392100	0.310000	0.711600
H271	H27	0.357400	0.325700	0.655500
C431	C43	0.315300	0.261100	0.759400
H281	H28	0.230500	0.243700	0.734500
C441	C44	0.777900	0.481300	0.681800
H291	H29	0.847700	0.511400	0.709600
C451	C45	0.707200	0.432900	0.733200
H301	H30	0.730200	0.430600	0.793700
C461	C46	0.601300	0.387690	0.694100
C471	C47	0.575000	0.394300	0.603500
H311	H31	0.505800	0.365000	0.573800
C481	C48	0.650300	0.443700	0.557800
H321	H32	0.629400	0.447100	0.497200
Cd31	Cd3	0.135500	0.419150	0.480710
O91	O9	0.246100	0.465480	0.607730
O101	O10	0.321700	0.333150	0.470860
O111	O11	0.161300	0.334520	0.359840
O121	O12	0.063200	0.538120	0.597850
N51	N5	0.001900	0.836520	0.947110
N61	N6	0.752200	0.012600	0.094900
C491	C49	0.178400	0.522160	0.630880
C501	C50	0.246700	0.572120	0.703500
C511	C51	0.172500	0.627820	0.744300
H331	H33	0.080800	0.636100	0.724800
C521	C52	0.234300	0.671400	0.814100
C531	C53	0.373100	0.659700	0.840800
H341	H34	0.415300	0.688100	0.887500
C541	C54	0.448600	0.606300	0.798200
H351	H35	0.541800	0.600200	0.815200
C551	C55	0.385700	0.561900	0.730400
H361	H36	0.436200	0.525300	0.702800
C561	C56	0.986700	0.828700	0.860300
H371	H37	0.924200	0.860600	0.828100
C571	C57	0.058600	0.775900	0.815000
H381	H38	0.042400	0.772100	0.754100
C581	C58	0.154300	0.728800	0.860200
C591	C59	0.172500	0.737800	0.951100
H391	H39	0.236800	0.707800	0.984500
C601	C60	0.095500	0.790800	0.991700
H401	H40	0.108700	0.795300	0.052600
C611	C61	0.276400	0.313300	0.394600
C621	C62	0.362600	0.262000	0.342900
C631	C63	0.492000	0.237700	0.377300
H411	H41	0.527500	0.254200	0.432800
C641	C64	0.568400	0.189000	0.329100
H421	H42	0.654400	0.172700	0.353300
C651	C65	0.519700	0.164170	0.246000
C661	C66	0.392100	0.190000	0.211600
H431	H43	0.357400	0.174300	0.155500
C671	C67	0.315300	0.238900	0.259400
H441	H44	0.230500	0.256300	0.234500
C681	C68	0.777900	0.018700	0.181800
H451	H45	0.847700	0.988600	0.209600
C691	C69	0.707200	0.067100	0.233200
H461	H46	0.730200	0.069400	0.293700
C701	C70	0.601300	0.112310	0.194100
C711	C71	0.575000	0.105700	0.103500
H471	H47	0.505800	0.135000	0.073800
C721	C72	0.650300	0.056300	0.057800
H481	H48	0.629400	0.052900	0.997200
Cd41	Cd4	0.864500	0.919150	0.019290
O131	O13	0.753900	0.965480	0.892270
O141	O14	0.678300	0.833150	0.029140
O151	O15	0.838700	0.834520	0.140160
O161	O16	0.936800	0.038120	0.902150
N71	N7	0.998100	0.336520	0.552890
N81	N8	0.247800	0.512600	0.405100
C731	C73	0.821600	0.022160	0.869120
C741	C74	0.753300	0.072120	0.796500
C751	C75	0.827500	0.127820	0.755700
H491	H49	0.919200	0.136100	0.775200
C761	C76	0.765700	0.171400	0.685900
C771	C77	0.626900	0.159700	0.659200
H501	H50	0.584700	0.188100	0.612500
C781	C78	0.551400	0.106300	0.701800
H511	H51	0.458200	0.100200	0.684800
C791	C79	0.614300	0.061900	0.769600
H521	H52	0.563800	0.025300	0.797200
C801	C80	0.013300	0.328700	0.639700
H531	H53	0.075800	0.360600	0.671900
C811	C81	0.941400	0.275900	0.685000
H541	H54	0.957600	0.272100	0.745900
C821	C82	0.845700	0.228800	0.639800
C831	C83	0.827500	0.237800	0.548900
H551	H55	0.763200	0.207800	0.515500
C841	C84	0.904500	0.290800	0.508300
H561	H56	0.891300	0.295300	0.447400
C851	C85	0.723600	0.813300	0.105400
C861	C86	0.637400	0.762000	0.157100
C871	C87	0.508000	0.737700	0.122700
H571	H57	0.472500	0.754200	0.067200
C881	C88	0.431600	0.689000	0.170900
H581	H58	0.345600	0.672700	0.146700
C891	C89	0.480300	0.664170	0.254000
C901	C90	0.607900	0.690000	0.288400
H591	H59	0.642600	0.674300	0.344500
C911	C91	0.684700	0.738900	0.240600
H601	H60	0.769500	0.756300	0.265500
C921	C92	0.222100	0.518700	0.318200
H611	H61	0.152300	0.488600	0.290400
C931	C93	0.292800	0.567100	0.266800
H621	H62	0.269800	0.569400	0.206300
C941	C94	0.398700	0.612310	0.305900
C951	C95	0.425000	0.605700	0.396500
H631	H63	0.494200	0.635000	0.426200
C961	C96	0.349700	0.556300	0.442200
H641	H64	0.370600	0.552900	0.502800
