data_IHAJEH_freeONLY_PM
_symmetry_space_group_name_H-M	'P1'
_cell_length_a	33.929000
_cell_length_b	13.045000
_cell_length_c	8.971300
_cell_angle_alpha	90.000000
_cell_angle_beta	104.370000
_cell_angle_gamma	90.000000
_symmetry_Int_Tables_number 1

loop_
_symmetry_equiv_pos_as_xyz
'x,y,z'

loop_
_atom_site_label
_atom_site_type_symbol
_atom_site_fract_x
_atom_site_fract_y
_atom_site_fract_z
Mn11	Mn1	0.147700	0.104550	0.660620
Mn21	Mn2	0.228990	0.857170	0.627070
P11	P1	0.051160	0.118970	0.566300
H11	H1	0.046500	0.227200	0.563000
P21	P2	0.195050	0.948800	0.904300
P31	P3	0.180090	0.706500	0.384300
H21	H2	0.161100	0.611700	0.401000
O11	O1	0.192200	0.737400	0.547900
O21	O2	0.224560	0.871100	0.832800
O31	O3	0.218600	0.047000	0.971200
O41	O4	0.156830	0.979400	0.777700
O51	O5	0.183980	0.887800	0.030700
O61	O6	0.093160	0.090000	0.538800
O71	O7	0.016170	0.105200	0.424800
O81	O8	0.146200	0.774500	0.290400
O91	O9	0.044200	0.070300	0.711800
O101	O10	0.213900	0.690300	0.307500
Zn11	Zn1	0.852300	0.104550	0.839380
Zn21	Zn2	0.771010	0.857170	0.872930
Mn31	Mn3	0.647700	0.604550	0.660620
Mn41	Mn4	0.728990	0.357170	0.627070
P41	P4	0.551160	0.618970	0.566300
H31	H3	0.546500	0.727200	0.563000
P51	P5	0.695050	0.448800	0.904300
P61	P6	0.680090	0.206500	0.384300
H41	H4	0.661100	0.111700	0.401000
O111	O11	0.692200	0.237400	0.547900
O121	O12	0.724560	0.371100	0.832800
O131	O13	0.718600	0.547000	0.971200
O141	O14	0.656830	0.479400	0.777700
O151	O15	0.683980	0.387800	0.030700
O161	O16	0.593160	0.590000	0.538800
O171	O17	0.516170	0.605200	0.424800
O181	O18	0.646200	0.274500	0.290400
O191	O19	0.544200	0.570300	0.711800
O201	O20	0.713900	0.190300	0.307500
Zn31	Zn3	0.352300	0.604550	0.839380
Zn41	Zn4	0.271010	0.357170	0.872930
P71	P7	0.948840	0.118970	0.933700
H51	H5	0.953500	0.227200	0.937000
P81	P8	0.804950	0.948800	0.595700
P91	P9	0.819910	0.706500	0.115700
H61	H6	0.838900	0.611700	0.099000
O211	O21	0.807800	0.737400	0.952100
O221	O22	0.775440	0.871100	0.667200
O231	O23	0.781400	0.047000	0.528800
O241	O24	0.843170	0.979400	0.722300
O251	O25	0.816020	0.887800	0.469300
O261	O26	0.906840	0.090000	0.961200
O271	O27	0.983830	0.105200	0.075200
O281	O28	0.853800	0.774500	0.209600
O291	O29	0.955800	0.070300	0.788200
O301	O30	0.786100	0.690300	0.192500
P101	P10	0.448840	0.618970	0.933700
H71	H7	0.453500	0.727200	0.937000
P111	P11	0.304950	0.448800	0.595700
P121	P12	0.319910	0.206500	0.115700
H81	H8	0.338900	0.111700	0.099000
O311	O31	0.307800	0.237400	0.952100
O321	O32	0.275440	0.371100	0.667200
O331	O33	0.281400	0.547000	0.528800
O341	O34	0.343170	0.479400	0.722300
O351	O35	0.316020	0.387800	0.469300
O361	O36	0.406840	0.590000	0.961200
O371	O37	0.483830	0.605200	0.075200
O381	O38	0.353800	0.274500	0.209600
O391	O39	0.455800	0.570300	0.788200
O401	O40	0.286100	0.190300	0.192500
Mn51	Mn5	0.852300	0.895450	0.339380
Mn61	Mn6	0.771010	0.142830	0.372930
P131	P13	0.948840	0.881030	0.433700
H91	H9	0.953500	0.772800	0.437000
P141	P14	0.804950	0.051200	0.095700
P151	P15	0.819910	0.293500	0.615700
H101	H10	0.838900	0.388300	0.599000
O411	O41	0.807800	0.262600	0.452100
O421	O42	0.775440	0.128900	0.167200
O431	O43	0.781400	0.953000	0.028800
O441	O44	0.843170	0.020600	0.222300
O451	O45	0.816020	0.112200	0.969300
O461	O46	0.906840	0.910000	0.461200
O471	O47	0.983830	0.894800	0.575200
O481	O48	0.853800	0.225500	0.709600
O491	O49	0.955800	0.929700	0.288200
O501	O50	0.786100	0.309700	0.692500
Zn51	Zn5	0.147700	0.895450	0.160620
Zn61	Zn6	0.228990	0.142830	0.127070
Mn71	Mn7	0.352300	0.395450	0.339380
Mn81	Mn8	0.271010	0.642830	0.372930
P161	P16	0.448840	0.381030	0.433700
H111	H11	0.453500	0.272800	0.437000
P171	P17	0.304950	0.551200	0.095700
P181	P18	0.319910	0.793500	0.615700
H121	H12	0.338900	0.888300	0.599000
O511	O51	0.307800	0.762600	0.452100
O521	O52	0.275440	0.628900	0.167200
O531	O53	0.281400	0.453000	0.028800
O541	O54	0.343170	0.520600	0.222300
O551	O55	0.316020	0.612200	0.969300
O561	O56	0.406840	0.410000	0.461200
O571	O57	0.483830	0.394800	0.575200
O581	O58	0.353800	0.725500	0.709600
O591	O59	0.455800	0.429700	0.288200
O601	O60	0.286100	0.809700	0.692500
Zn71	Zn7	0.647700	0.395450	0.160620
Zn81	Zn8	0.728990	0.642830	0.127070
P191	P19	0.051160	0.881030	0.066300
H131	H13	0.046500	0.772800	0.063000
P201	P20	0.195050	0.051200	0.404300
P211	P21	0.180090	0.293500	0.884300
H141	H14	0.161100	0.388300	0.901000
O611	O61	0.192200	0.262600	0.047900
O621	O62	0.224560	0.128900	0.332800
O631	O63	0.218600	0.953000	0.471200
O641	O64	0.156830	0.020600	0.277700
O651	O65	0.183980	0.112200	0.530700
O661	O66	0.093160	0.910000	0.038800
O671	O67	0.016170	0.894800	0.924800
O681	O68	0.146200	0.225500	0.790400
O691	O69	0.044200	0.929700	0.211800
O701	O70	0.213900	0.309700	0.807500
P221	P22	0.551160	0.381030	0.066300
H151	H15	0.546500	0.272800	0.063000
P231	P23	0.695050	0.551200	0.404300
P241	P24	0.680090	0.793500	0.884300
H161	H16	0.661100	0.888300	0.901000
O711	O71	0.692200	0.762600	0.047900
O721	O72	0.724560	0.628900	0.332800
O731	O73	0.718600	0.453000	0.471200
O741	O74	0.656830	0.520600	0.277700
O751	O75	0.683980	0.612200	0.530700
O761	O76	0.593160	0.410000	0.038800
O771	O77	0.516170	0.394800	0.924800
O781	O78	0.646200	0.725500	0.790400
O791	O79	0.544200	0.429700	0.211800
O801	O80	0.713900	0.809700	0.807500
Mn91	Mn9	0.000000	0.012790	0.250000
Mn101	Mn10	0.500000	0.512790	0.250000
Mn111	Mn11	0.000000	0.987210	0.750000
Mn121	Mn12	0.500000	0.487210	0.750000
