data_IHERIY_freeONLY_PM
_symmetry_space_group_name_H-M	'P1'
_cell_length_a	11.862000
_cell_length_b	12.013000
_cell_length_c	13.685000
_cell_angle_alpha	102.810000
_cell_angle_beta	100.060000
_cell_angle_gamma	98.870000
_symmetry_Int_Tables_number 1

loop_
_symmetry_equiv_pos_as_xyz
'x,y,z'

loop_
_atom_site_label
_atom_site_type_symbol
_atom_site_fract_x
_atom_site_fract_y
_atom_site_fract_z
Co11	Co1	0.253420	0.972990	0.107430
Co21	Co2	0.130280	0.279790	0.182200
O11	O1	0.386790	0.095960	0.088280
O21	O2	0.388180	0.088600	0.246940
O31	O3	0.381290	0.487390	0.254500
O41	O4	0.307570	0.298320	0.203590
N11	N1	0.144360	0.286610	0.342800
N21	N2	0.326150	0.825120	0.083100
O51	O5	0.150400	0.467370	0.217330
H11	H1	0.220000	0.497400	0.229500
H21	H2	0.132100	0.508700	0.268800
O61	O6	0.947480	0.234910	0.138940
O71	O7	0.850990	0.066100	0.029810
O81	O8	0.128290	0.098080	0.152710
O91	O9	0.136460	0.935060	0.197040
N31	N3	0.124860	0.285650	0.026520
S11	S1	0.657480	0.075690	0.175630
C11	C1	0.425300	0.821900	0.049100
H31	H3	0.466800	0.890800	0.041900
C21	C2	0.468900	0.722300	0.024400
H41	H4	0.538300	0.724800	0.001400
C31	C3	0.408800	0.617600	0.033900
C41	C4	0.304300	0.620500	0.066000
H51	H5	0.259400	0.552300	0.071300
C51	C5	0.267100	0.723900	0.089900
H61	H6	0.197200	0.723600	0.111900
C61	C6	0.450400	0.507800	0.012300
H71	H7	0.400700	0.441900	0.016500
C71	C7	0.426600	0.136700	0.183780
C81	C8	0.640400	0.219400	0.225900
C91	C9	0.527400	0.240200	0.220510
C101	C10	0.511700	0.355200	0.248800
C111	C11	0.391300	0.383600	0.235700
C121	C12	0.608900	0.444900	0.286700
H81	H8	0.599000	0.521300	0.306600
C131	C13	0.720000	0.422300	0.295400
H91	H9	0.784400	0.483000	0.323300
C141	C14	0.735900	0.310400	0.263000
H101	H10	0.811000	0.295900	0.266000
C151	C15	0.794600	0.065300	0.247200
C161	C16	0.797400	0.030600	0.337700
H111	H11	0.732200	0.028200	0.366900
C171	C17	0.896400	0.999900	0.384300
H121	H12	0.900000	0.981900	0.447300
C181	C18	0.990400	0.995800	0.337300
H131	H13	0.053800	0.967400	0.365100
C191	C19	0.990300	0.034100	0.248780
C201	C20	0.894300	0.074700	0.205560
C211	C21	0.090780	0.022800	0.196800
C221	C22	0.898100	0.129800	0.116700
C231	C23	0.066700	0.323900	0.395600
H141	H14	0.005600	0.351000	0.362200
C241	C24	0.072700	0.324000	0.497600
H151	H15	0.016100	0.350100	0.530900
C251	C25	0.164000	0.284900	0.550020
C261	C26	0.244000	0.247200	0.495400
H161	H16	0.306700	0.220700	0.527200
C271	C27	0.231600	0.248400	0.393700
H171	H17	0.286400	0.221500	0.358500
C281	C28	0.177800	0.280100	0.658200
H181	H18	0.240400	0.250000	0.685300
C291	C29	0.109100	0.314700	0.719500
H191	H19	0.048700	0.348100	0.693300
C301	C30	0.119400	0.305300	0.825690
C311	C31	0.050100	0.358700	0.884800
H201	H20	0.000400	0.402700	0.858300
C321	C32	0.054800	0.346700	0.983200
H211	H21	0.006800	0.382800	0.021400
C331	C33	0.192400	0.233400	0.969740
H221	H22	0.241500	0.190300	0.998400
C341	C34	0.192200	0.240900	0.870400
H231	H23	0.240300	0.203300	0.833500
Co31	Co3	0.746580	0.027010	0.892570
Co41	Co4	0.869720	0.720210	0.817800
O101	O10	0.613210	0.904040	0.911720
O111	O11	0.611820	0.911400	0.753060
O121	O12	0.618710	0.512610	0.745500
O131	O13	0.692430	0.701680	0.796410
N41	N4	0.855640	0.713390	0.657200
N51	N5	0.673850	0.174880	0.916900
O141	O14	0.849600	0.532630	0.782670
H241	H24	0.780000	0.502600	0.770500
H251	H25	0.867900	0.491300	0.731200
O151	O15	0.052520	0.765090	0.861060
O161	O16	0.149010	0.933900	0.970190
O171	O17	0.871710	0.901920	0.847290
O181	O18	0.863540	0.064940	0.802960
N61	N6	0.875140	0.714350	0.973480
S21	S2	0.342520	0.924310	0.824370
C351	C35	0.574700	0.178100	0.950900
H261	H26	0.533200	0.109200	0.958100
C361	C36	0.531100	0.277700	0.975600
H271	H27	0.461700	0.275200	0.998600
C371	C37	0.591200	0.382400	0.966100
C381	C38	0.695700	0.379500	0.934000
H281	H28	0.740600	0.447700	0.928700
C391	C39	0.732900	0.276100	0.910100
H291	H29	0.802800	0.276400	0.888100
C401	C40	0.549600	0.492200	0.987700
H301	H30	0.599300	0.558100	0.983500
C411	C41	0.573400	0.863300	0.816220
C421	C42	0.359600	0.780600	0.774100
C431	C43	0.472600	0.759800	0.779490
C441	C44	0.488300	0.644800	0.751200
C451	C45	0.608700	0.616400	0.764300
C461	C46	0.391100	0.555100	0.713300
H311	H31	0.401000	0.478700	0.693400
C471	C47	0.280000	0.577700	0.704600
H321	H32	0.215600	0.517000	0.676700
C481	C48	0.264100	0.689600	0.737000
H331	H33	0.189000	0.704100	0.734000
C491	C49	0.205400	0.934700	0.752800
C501	C50	0.202600	0.969400	0.662300
H341	H34	0.267800	0.971800	0.633100
C511	C51	0.103600	0.000100	0.615700
H351	H35	0.100000	0.018100	0.552700
C521	C52	0.009600	0.004200	0.662700
H361	H36	0.946200	0.032600	0.634900
C531	C53	0.009700	0.965900	0.751220
C541	C54	0.105700	0.925300	0.794440
C551	C55	0.909220	0.977200	0.803200
C561	C56	0.101900	0.870200	0.883300
C571	C57	0.933300	0.676100	0.604400
H371	H37	0.994400	0.649000	0.637800
C581	C58	0.927300	0.676000	0.502400
H381	H38	0.983900	0.649900	0.469100
C591	C59	0.836000	0.715100	0.449980
C601	C60	0.756000	0.752800	0.504600
H391	H39	0.693300	0.779300	0.472800
C611	C61	0.768400	0.751600	0.606300
H401	H40	0.713600	0.778500	0.641500
C621	C62	0.822200	0.719900	0.341800
H411	H41	0.759600	0.750000	0.314700
C631	C63	0.890900	0.685300	0.280500
H421	H42	0.951300	0.651900	0.306700
C641	C64	0.880600	0.694700	0.174310
C651	C65	0.949900	0.641300	0.115200
H431	H43	0.999600	0.597300	0.141700
C661	C66	0.945200	0.653300	0.016800
H441	H44	0.993200	0.617200	0.978600
C671	C67	0.807600	0.766600	0.030260
H451	H45	0.758500	0.809700	0.001600
C681	C68	0.807800	0.759100	0.129600
H461	H46	0.759700	0.796700	0.166500
