data_IHUTIQ_freeONLY_PM
_symmetry_space_group_name_H-M	'P1'
_cell_length_a	14.349000
_cell_length_b	12.088000
_cell_length_c	26.620000
_cell_angle_alpha	90.000000
_cell_angle_beta	97.255000
_cell_angle_gamma	90.000000
_symmetry_Int_Tables_number 1

loop_
_symmetry_equiv_pos_as_xyz
'x,y,z'

loop_
_atom_site_label
_atom_site_type_symbol
_atom_site_fract_x
_atom_site_fract_y
_atom_site_fract_z
Co11	Co1	0.159460	0.211710	0.307300
Co21	Co2	0.641940	0.837620	0.785060
C11	C1	0.085800	0.028600	0.230800
H11	H1	0.119300	0.982700	0.254600
C21	C2	0.045600	0.981800	0.186100
H21	H2	0.052000	0.906700	0.179800
C31	C3	0.995300	0.050600	0.150600
C41	C4	0.983800	0.163000	0.163000
H31	H3	0.948300	0.210100	0.140600
C51	C5	0.026200	0.200900	0.208600
H41	H4	0.017800	0.274600	0.217100
C61	C6	0.957000	0.005900	0.100000
H51	H5	0.955500	0.929700	0.095100
C71	C7	0.858000	0.065500	0.983000
H61	H6	0.859600	0.142200	0.985700
C81	C8	0.816400	0.012200	0.936500
C91	C9	0.810300	0.899800	0.930000
H71	H7	0.837400	0.853300	0.955600
C101	C10	0.764800	0.854700	0.886300
H81	H8	0.762100	0.778100	0.883100
C111	C11	0.731500	0.026700	0.852500
H91	H9	0.706000	0.071000	0.825700
C121	C12	0.776400	0.077100	0.895900
H101	H10	0.779900	0.153800	0.897900
C131	C13	0.246200	0.400600	0.376800
H111	H11	0.219900	0.444800	0.350100
C141	C14	0.291400	0.451500	0.418900
H121	H12	0.293700	0.528300	0.420800
C151	C15	0.333600	0.388300	0.458400
C161	C16	0.326200	0.272100	0.453800
H131	H13	0.353200	0.226400	0.479800
C171	C17	0.278500	0.227400	0.410500
H141	H14	0.274300	0.150800	0.407600
C181	C18	0.383100	0.436800	0.505300
H151	H15	0.412400	0.389600	0.530000
C191	C19	0.428100	0.659500	0.574400
H161	H16	0.394200	0.709200	0.552500
C201	C20	0.470900	0.697900	0.625200
C211	C21	0.523200	0.624700	0.657500
H171	H17	0.529000	0.551000	0.648400
C221	C22	0.566600	0.663400	0.703500
H181	H18	0.603800	0.614800	0.724400
C231	C23	0.502800	0.834800	0.689300
H191	H19	0.493500	0.906500	0.700300
C241	C24	0.458900	0.803400	0.642200
H201	H20	0.421500	0.853500	0.622200
C251	C25	0.302300	0.016600	0.295800
C261	C26	0.313900	0.909300	0.326500
H211	H21	0.258500	0.901100	0.344200
C271	C27	0.401200	0.919100	0.367000
H221	H22	0.456400	0.933300	0.350400
H231	H23	0.392900	0.981200	0.389100
C281	C28	0.416400	0.813900	0.398600
H241	H24	0.474800	0.820700	0.421200
H251	H25	0.365800	0.806600	0.419300
C291	C29	0.420400	0.709800	0.366800
H261	H26	0.419600	0.646200	0.389600
C301	C30	0.331800	0.703000	0.327900
H271	H27	0.277000	0.694600	0.345500
H281	H28	0.335800	0.638600	0.306600
C311	C31	0.321300	0.807400	0.295000
H291	H29	0.375100	0.814100	0.276500
H301	H30	0.265400	0.800900	0.270500
C321	C32	0.509700	0.698600	0.338600
C331	C33	0.210100	0.356800	0.227100
C341	C34	0.195200	0.458600	0.192600
H311	H31	0.254000	0.472800	0.178500
C351	C35	0.117200	0.434400	0.147400
H321	H32	0.133300	0.368000	0.129900
H331	H33	0.057900	0.421400	0.160400
C361	C36	0.106600	0.530800	0.110500
H341	H34	0.055100	0.515300	0.084200
H351	H35	0.163500	0.536800	0.094400
C371	C37	0.088300	0.641900	0.135200
H361	H36	0.097900	0.700100	0.110800
C381	C38	0.160800	0.660600	0.182300
H371	H37	0.221900	0.674500	0.171500
H381	H38	0.143200	0.725800	0.200100
C391	C39	0.168400	0.563100	0.218100
H391	H39	0.215100	0.579000	0.246800
H401	H40	0.108500	0.552100	0.230800
C401	C40	0.989600	0.652500	0.147500
N11	N1	0.079800	0.135400	0.242020
N21	N2	0.926700	0.068800	0.063620
N31	N3	0.892900	0.003700	0.020610
N41	N4	0.723800	0.917700	0.847920
N51	N5	0.237600	0.290000	0.371830
N61	N6	0.386900	0.538900	0.513080
N71	N7	0.436600	0.561400	0.560500
N81	N8	0.557400	0.767700	0.719340
O11	O1	0.258500	0.093200	0.314210
O21	O2	0.340900	0.023000	0.256620
O31	O3	0.574600	0.767600	0.345400
O41	O4	0.514500	0.618700	0.310180
O51	O5	0.258600	0.278900	0.212250
O61	O6	0.169900	0.353800	0.266770
O71	O7	0.968200	0.745300	0.167600
O81	O8	0.930000	0.578800	0.141900
Co31	Co3	0.840540	0.711710	0.192700
Co41	Co4	0.358060	0.337620	0.714940
C411	C41	0.914200	0.528600	0.269200
H411	H41	0.880700	0.482700	0.245400
C421	C42	0.954400	0.481800	0.313900
H421	H42	0.948000	0.406700	0.320200
C431	C43	0.004700	0.550600	0.349400
C441	C44	0.016200	0.663000	0.337000
H431	H43	0.051700	0.710100	0.359400
C451	C45	0.973800	0.700900	0.291400
H441	H44	0.982200	0.774600	0.282900
C461	C46	0.043000	0.505900	0.400000
H451	H45	0.044500	0.429700	0.404900
C471	C47	0.142000	0.565500	0.517000
H461	H46	0.140400	0.642200	0.514300
C481	C48	0.183600	0.512200	0.563500
C491	C49	0.189700	0.399800	0.570000
H471	H47	0.162600	0.353300	0.544400
C501	C50	0.235200	0.354700	0.613700
H481	H48	0.237900	0.278100	0.616900
C511	C51	0.268500	0.526700	0.647500
H491	H49	0.294000	0.571000	0.674300
C521	C52	0.223600	0.577100	0.604100
H501	H50	0.220100	0.653800	0.602100
C531	C53	0.753800	0.900600	0.123200
H511	H51	0.780100	0.944800	0.149900
C541	C54	0.708600	0.951500	0.081100
H521	H52	0.706300	0.028300	0.079200
C551	C55	0.666400	0.888300	0.041600
C561	C56	0.673800	0.772100	0.046200
H531	H53	0.646800	0.726400	0.020200
C571	C57	0.721500	0.727400	0.089500
H541	H54	0.725700	0.650800	0.092400
C581	C58	0.616900	0.936800	0.994700
H551	H55	0.587600	0.889600	0.970000
C591	C59	0.571900	0.159500	0.925600
H561	H56	0.605800	0.209200	0.947500
C601	C60	0.529100	0.197900	0.874800
C611	C61	0.476800	0.124700	0.842500
H571	H57	0.471000	0.051000	0.851600
C621	C62	0.433400	0.163400	0.796500
H581	H58	0.396200	0.114800	0.775600
C631	C63	0.497200	0.334800	0.810700
H591	H59	0.506500	0.406500	0.799700
C641	C64	0.541100	0.303400	0.857800
H601	H60	0.578500	0.353500	0.877800
C651	C65	0.697700	0.516600	0.204200
C661	C66	0.686100	0.409300	0.173500
H611	H61	0.741500	0.401100	0.155800
C671	C67	0.598800	0.419100	0.133000
H621	H62	0.543600	0.433300	0.149600
H631	H63	0.607100	0.481200	0.110900
C681	C68	0.583600	0.313900	0.101400
H641	H64	0.525200	0.320700	0.078800
H651	H65	0.634200	0.306600	0.080700
C691	C69	0.579600	0.209800	0.133200
H661	H66	0.580400	0.146200	0.110400
C701	C70	0.668200	0.203000	0.172100
H671	H67	0.723000	0.194600	0.154500
H681	H68	0.664200	0.138600	0.193400
C711	C71	0.678700	0.307400	0.205000
H691	H69	0.624900	0.314100	0.223500
H701	H70	0.734600	0.300900	0.229500
C721	C72	0.490300	0.198600	0.161400
C731	C73	0.789900	0.856800	0.272900
C741	C74	0.804800	0.958600	0.307400
H711	H71	0.746000	0.972800	0.321500
C751	C75	0.882800	0.934400	0.352600
H721	H72	0.866700	0.868000	0.370100
H731	H73	0.942100	0.921400	0.339600
C761	C76	0.893400	0.030800	0.389500
H741	H74	0.944900	0.015300	0.415800
H751	H75	0.836500	0.036800	0.405600
C771	C77	0.911700	0.141900	0.364800
H761	H76	0.902100	0.200100	0.389200
C781	C78	0.839200	0.160600	0.317700
H771	H77	0.778100	0.174500	0.328500
H781	H78	0.856800	0.225800	0.299900
C791	C79	0.831600	0.063100	0.281900
H791	H79	0.784900	0.079000	0.253200
H801	H80	0.891500	0.052100	0.269200
C801	C80	0.010400	0.152500	0.352500
N91	N9	0.920200	0.635400	0.257980
N101	N10	0.073300	0.568800	0.436380
N111	N11	0.107100	0.503700	0.479390
N121	N12	0.276200	0.417700	0.652080
N131	N13	0.762400	0.790000	0.128170
N141	N14	0.613100	0.038900	0.986920
N151	N15	0.563400	0.061400	0.939500
N161	N16	0.442600	0.267700	0.780660
O91	O9	0.741500	0.593200	0.185790
O101	O10	0.659100	0.523000	0.243380
O111	O11	0.425400	0.267600	0.154600
O121	O12	0.485500	0.118700	0.189820
O131	O13	0.741400	0.778900	0.287750
O141	O14	0.830100	0.853800	0.233230
O151	O15	0.031800	0.245300	0.332400
O161	O16	0.070000	0.078800	0.358100
Co51	Co5	0.840540	0.788290	0.692700
Co61	Co6	0.358060	0.162380	0.214940
C811	C81	0.914200	0.971400	0.769200
H811	H81	0.880700	0.017300	0.745400
C821	C82	0.954400	0.018200	0.813900
H821	H82	0.948000	0.093300	0.820200
C831	C83	0.004700	0.949400	0.849400
C841	C84	0.016200	0.837000	0.837000
H831	H83	0.051700	0.789900	0.859400
C851	C85	0.973800	0.799100	0.791400
H841	H84	0.982200	0.725400	0.782900
C861	C86	0.043000	0.994100	0.900000
H851	H85	0.044500	0.070300	0.904900
C871	C87	0.142000	0.934500	0.017000
H861	H86	0.140400	0.857800	0.014300
C881	C88	0.183600	0.987800	0.063500
C891	C89	0.189700	0.100200	0.070000
H871	H87	0.162600	0.146700	0.044400
C901	C90	0.235200	0.145300	0.113700
H881	H88	0.237900	0.221900	0.116900
C911	C91	0.268500	0.973300	0.147500
H891	H89	0.294000	0.929000	0.174300
C921	C92	0.223600	0.922900	0.104100
H901	H90	0.220100	0.846200	0.102100
C931	C93	0.753800	0.599400	0.623200
H911	H91	0.780100	0.555200	0.649900
C941	C94	0.708600	0.548500	0.581100
H921	H92	0.706300	0.471700	0.579200
C951	C95	0.666400	0.611700	0.541600
C961	C96	0.673800	0.727900	0.546200
H931	H93	0.646800	0.773600	0.520200
C971	C97	0.721500	0.772600	0.589500
H941	H94	0.725700	0.849200	0.592400
C981	C98	0.616900	0.563200	0.494700
H951	H95	0.587600	0.610400	0.470000
C991	C99	0.571900	0.340500	0.425600
H961	H96	0.605800	0.290800	0.447500
C1001	C100	0.529100	0.302100	0.374800
C1011	C101	0.476800	0.375300	0.342500
H971	H97	0.471000	0.449000	0.351600
C1021	C102	0.433400	0.336600	0.296500
H981	H98	0.396200	0.385200	0.275600
C1031	C103	0.497200	0.165200	0.310700
H991	H99	0.506500	0.093500	0.299700
C1041	C104	0.541100	0.196600	0.357800
H1001	H100	0.578500	0.146500	0.377800
C1051	C105	0.697700	0.983400	0.704200
C1061	C106	0.686100	0.090700	0.673500
H1011	H101	0.741500	0.098900	0.655800
C1071	C107	0.598800	0.080900	0.633000
H1021	H102	0.543600	0.066700	0.649600
H1031	H103	0.607100	0.018800	0.610900
C1081	C108	0.583600	0.186100	0.601400
H1041	H104	0.525200	0.179300	0.578800
H1051	H105	0.634200	0.193400	0.580700
C1091	C109	0.579600	0.290200	0.633200
H1061	H106	0.580400	0.353800	0.610400
C1101	C110	0.668200	0.297000	0.672100
H1071	H107	0.723000	0.305400	0.654500
H1081	H108	0.664200	0.361400	0.693400
C1111	C111	0.678700	0.192600	0.705000
H1091	H109	0.624900	0.185900	0.723500
H1101	H110	0.734600	0.199100	0.729500
C1121	C112	0.490300	0.301400	0.661400
C1131	C113	0.789900	0.643200	0.772900
C1141	C114	0.804800	0.541400	0.807400
H1111	H111	0.746000	0.527200	0.821500
C1151	C115	0.882800	0.565600	0.852600
H1121	H112	0.866700	0.632000	0.870100
H1131	H113	0.942100	0.578600	0.839600
C1161	C116	0.893400	0.469200	0.889500
H1141	H114	0.944900	0.484700	0.915800
H1151	H115	0.836500	0.463200	0.905600
C1171	C117	0.911700	0.358100	0.864800
H1161	H116	0.902100	0.299900	0.889200
C1181	C118	0.839200	0.339400	0.817700
H1171	H117	0.778100	0.325500	0.828500
H1181	H118	0.856800	0.274200	0.799900
C1191	C119	0.831600	0.436900	0.781900
H1191	H119	0.784900	0.421000	0.753200
H1201	H120	0.891500	0.447900	0.769200
C1201	C120	0.010400	0.347500	0.852500
N171	N17	0.920200	0.864600	0.757980
N181	N18	0.073300	0.931200	0.936380
N191	N19	0.107100	0.996300	0.979390
N201	N20	0.276200	0.082300	0.152080
N211	N21	0.762400	0.710000	0.628170
N221	N22	0.613100	0.461100	0.486920
N231	N23	0.563400	0.438600	0.439500
N241	N24	0.442600	0.232300	0.280660
O171	O17	0.741500	0.906800	0.685790
O181	O18	0.659100	0.977000	0.743380
O191	O19	0.425400	0.232400	0.654600
O201	O20	0.485500	0.381300	0.689820
O211	O21	0.741400	0.721100	0.787750
O221	O22	0.830100	0.646200	0.733230
O231	O23	0.031800	0.254700	0.832400
O241	O24	0.070000	0.421200	0.858100
Co71	Co7	0.159460	0.288290	0.807300
Co81	Co8	0.641940	0.662380	0.285060
C1211	C121	0.085800	0.471400	0.730800
H1211	H121	0.119300	0.517300	0.754600
C1221	C122	0.045600	0.518200	0.686100
H1221	H122	0.052000	0.593300	0.679800
C1231	C123	0.995300	0.449400	0.650600
C1241	C124	0.983800	0.337000	0.663000
H1231	H123	0.948300	0.289900	0.640600
C1251	C125	0.026200	0.299100	0.708600
H1241	H124	0.017800	0.225400	0.717100
C1261	C126	0.957000	0.494100	0.600000
H1251	H125	0.955500	0.570300	0.595100
C1271	C127	0.858000	0.434500	0.483000
H1261	H126	0.859600	0.357800	0.485700
C1281	C128	0.816400	0.487800	0.436500
C1291	C129	0.810300	0.600200	0.430000
H1271	H127	0.837400	0.646700	0.455600
C1301	C130	0.764800	0.645300	0.386300
H1281	H128	0.762100	0.721900	0.383100
C1311	C131	0.731500	0.473300	0.352500
H1291	H129	0.706000	0.429000	0.325700
C1321	C132	0.776400	0.422900	0.395900
H1301	H130	0.779900	0.346200	0.397900
C1331	C133	0.246200	0.099400	0.876800
H1311	H131	0.219900	0.055200	0.850100
C1341	C134	0.291400	0.048500	0.918900
H1321	H132	0.293700	0.971700	0.920800
C1351	C135	0.333600	0.111700	0.958400
C1361	C136	0.326200	0.227900	0.953800
H1331	H133	0.353200	0.273600	0.979800
C1371	C137	0.278500	0.272600	0.910500
H1341	H134	0.274300	0.349200	0.907600
C1381	C138	0.383100	0.063200	0.005300
H1351	H135	0.412400	0.110400	0.030000
C1391	C139	0.428100	0.840500	0.074400
H1361	H136	0.394200	0.790800	0.052500
C1401	C140	0.470900	0.802100	0.125200
C1411	C141	0.523200	0.875300	0.157500
H1371	H137	0.529000	0.949000	0.148400
C1421	C142	0.566600	0.836600	0.203500
H1381	H138	0.603800	0.885200	0.224400
C1431	C143	0.502800	0.665200	0.189300
H1391	H139	0.493500	0.593500	0.200300
C1441	C144	0.458900	0.696600	0.142200
H1401	H140	0.421500	0.646500	0.122200
C1451	C145	0.302300	0.483400	0.795800
C1461	C146	0.313900	0.590700	0.826500
H1411	H141	0.258500	0.598900	0.844200
C1471	C147	0.401200	0.580900	0.867000
H1421	H142	0.456400	0.566700	0.850400
H1431	H143	0.392900	0.518800	0.889100
C1481	C148	0.416400	0.686100	0.898600
H1441	H144	0.474800	0.679300	0.921200
H1451	H145	0.365800	0.693400	0.919300
C1491	C149	0.420400	0.790200	0.866800
H1461	H146	0.419600	0.853800	0.889600
C1501	C150	0.331800	0.797000	0.827900
H1471	H147	0.277000	0.805400	0.845500
H1481	H148	0.335800	0.861400	0.806600
C1511	C151	0.321300	0.692600	0.795000
H1491	H149	0.375100	0.685900	0.776500
H1501	H150	0.265400	0.699100	0.770500
C1521	C152	0.509700	0.801400	0.838600
C1531	C153	0.210100	0.143200	0.727100
C1541	C154	0.195200	0.041400	0.692600
H1511	H151	0.254000	0.027200	0.678500
C1551	C155	0.117200	0.065600	0.647400
H1521	H152	0.133300	0.132000	0.629900
H1531	H153	0.057900	0.078600	0.660400
C1561	C156	0.106600	0.969200	0.610500
H1541	H154	0.055100	0.984700	0.584200
H1551	H155	0.163500	0.963200	0.594400
C1571	C157	0.088300	0.858100	0.635200
H1561	H156	0.097900	0.799900	0.610800
C1581	C158	0.160800	0.839400	0.682300
H1571	H157	0.221900	0.825500	0.671500
H1581	H158	0.143200	0.774200	0.700100
C1591	C159	0.168400	0.936900	0.718100
H1591	H159	0.215100	0.921000	0.746800
H1601	H160	0.108500	0.947900	0.730800
C1601	C160	0.989600	0.847500	0.647500
N251	N25	0.079800	0.364600	0.742020
N261	N26	0.926700	0.431200	0.563620
N271	N27	0.892900	0.496300	0.520610
N281	N28	0.723800	0.582300	0.347920
N291	N29	0.237600	0.210000	0.871830
N301	N30	0.386900	0.961100	0.013080
N311	N31	0.436600	0.938600	0.060500
N321	N32	0.557400	0.732300	0.219340
O251	O25	0.258500	0.406800	0.814210
O261	O26	0.340900	0.477000	0.756620
O271	O27	0.574600	0.732400	0.845400
O281	O28	0.514500	0.881300	0.810180
O291	O29	0.258600	0.221100	0.712250
O301	O30	0.169900	0.146200	0.766770
O311	O31	0.968200	0.754700	0.667600
O321	O32	0.930000	0.921200	0.641900
