data_IJASOC_freeONLY_PM
_symmetry_space_group_name_H-M	'P1'
_cell_length_a	9.955000
_cell_length_b	12.795000
_cell_length_c	13.801000
_cell_angle_alpha	69.415000
_cell_angle_beta	82.562000
_cell_angle_gamma	83.117000
_symmetry_Int_Tables_number 1

loop_
_symmetry_equiv_pos_as_xyz
'x,y,z'

loop_
_atom_site_label
_atom_site_type_symbol
_atom_site_fract_x
_atom_site_fract_y
_atom_site_fract_z
Tm11	Tm1	0.530180	0.640350	0.374780
Tm21	Tm2	0.469820	0.359650	0.625220
H11	H1	0.597000	0.518300	0.242400
H21	H2	0.535400	0.437100	0.328400
H31	H3	0.210200	0.981400	0.411100
H41	H4	0.302200	0.875600	0.403500
H51	H5	0.222900	0.873600	0.509900
H61	H6	0.710800	0.850600	0.677800
H71	H7	0.682500	0.765700	0.625500
H81	H8	0.793000	0.851200	0.572700
H91	H9	0.134600	0.423100	0.297400
H101	H10	0.203700	0.532500	0.281700
H111	H11	0.259700	0.417300	0.358000
H121	H12	0.095000	0.566900	0.694000
H131	H13	0.189100	0.632300	0.596600
H141	H14	0.040700	0.682200	0.616700
H151	H15	0.244900	0.032900	0.171500
H161	H16	0.187400	0.959900	0.118300
H171	H17	0.280300	0.903000	0.209200
H181	H18	0.808900	0.868300	0.986500
H191	H19	0.774900	0.850500	0.105100
H201	H20	0.719400	0.771800	0.057000
H211	H21	0.767700	0.763000	0.407700
H221	H22	0.998400	0.805500	0.167600
H231	H23	0.096000	0.723300	0.246400
H241	H24	0.963600	0.681400	0.227000
H251	H25	0.930900	0.868500	0.399200
H261	H26	0.072900	0.806500	0.382500
H271	H27	0.019700	0.911800	0.292600
H281	H28	0.403000	0.481700	0.757600
H291	H29	0.464600	0.562900	0.671600
H301	H30	0.789800	0.018600	0.588900
H311	H31	0.697800	0.124400	0.596500
H321	H32	0.777100	0.126400	0.490100
H331	H33	0.289200	0.149400	0.322200
H341	H34	0.317500	0.234300	0.374500
H351	H35	0.207000	0.148800	0.427300
H361	H36	0.865400	0.576900	0.702600
H371	H37	0.796300	0.467500	0.718300
H381	H38	0.740300	0.582700	0.642000
H391	H39	0.905000	0.433100	0.306000
H401	H40	0.810900	0.367700	0.403400
H411	H41	0.959300	0.317800	0.383300
H421	H42	0.755100	0.967100	0.828500
H431	H43	0.812600	0.040100	0.881700
H441	H44	0.719700	0.097000	0.790800
H451	H45	0.191100	0.131700	0.013500
H461	H46	0.225100	0.149500	0.894900
H471	H47	0.280600	0.228200	0.943000
H481	H48	0.232300	0.237000	0.592300
H491	H49	0.001600	0.194500	0.832400
H501	H50	0.904000	0.276700	0.753600
H511	H51	0.036400	0.318600	0.773000
H521	H52	0.069100	0.131500	0.600800
H531	H53	0.927100	0.193500	0.617500
H541	H54	0.980300	0.088200	0.707400
C11	C1	0.474700	0.764500	0.556000
C21	C2	0.488600	0.888300	0.526200
C31	C3	0.388300	0.962500	0.473500
C41	C4	0.270500	0.919400	0.447100
C51	C5	0.600100	0.923800	0.553300
C61	C6	0.706200	0.840200	0.612700
C71	C7	0.268900	0.573200	0.451600
C81	C8	0.128300	0.534400	0.478000
C91	C9	0.085200	0.480200	0.418300
C101	C10	0.179300	0.461600	0.331000
C111	C11	0.046000	0.555300	0.559900
C121	C12	0.097400	0.614400	0.622400
C131	C13	0.504900	0.817100	0.194300
C141	C14	0.502100	0.913200	0.092000
C151	C15	0.386700	0.985500	0.073400
C161	C16	0.263900	0.968600	0.149900
C171	C17	0.614600	0.925700	0.021100
C181	C18	0.740900	0.846900	0.044400
C191	C19	0.809700	0.739700	0.353700
C201	C20	0.002800	0.744100	0.232100
C211	C21	0.993700	0.846400	0.349600
C221	C22	0.525300	0.235500	0.444000
C231	C23	0.511400	0.111700	0.473800
C241	C24	0.611700	0.037500	0.526500
C251	C25	0.729500	0.080600	0.552900
C261	C26	0.399900	0.076200	0.446700
C271	C27	0.293800	0.159800	0.387300
C281	C28	0.731100	0.426800	0.548400
C291	C29	0.871700	0.465600	0.522000
C301	C30	0.914800	0.519800	0.581700
C311	C31	0.820700	0.538400	0.669000
C321	C32	0.954000	0.444700	0.440100
C331	C33	0.902600	0.385600	0.377600
C341	C34	0.495100	0.182900	0.805700
C351	C35	0.497900	0.086800	0.908000
C361	C36	0.613300	0.014500	0.926600
C371	C37	0.736100	0.031400	0.850100
C381	C38	0.385400	0.074300	0.978900
C391	C39	0.259100	0.153100	0.955600
C401	C40	0.190300	0.260300	0.646300
C411	C41	0.997200	0.255900	0.767900
C421	C42	0.006300	0.153600	0.650400
N11	N1	0.930900	0.776000	0.312000
N21	N2	0.069100	0.224000	0.688000
O11	O1	0.529100	0.715300	0.494600
O21	O2	0.411900	0.715400	0.639300
O31	O3	0.290100	0.664100	0.382300
O41	O4	0.366900	0.513300	0.496800
O51	O5	0.507800	0.836400	0.276400
O61	O6	0.504800	0.719900	0.196100
O71	O7	0.750100	0.679600	0.327500
O81	O8	0.559900	0.503500	0.304300
O91	O9	0.470900	0.284700	0.505400
O101	O10	0.588100	0.284600	0.360700
O111	O11	0.709900	0.335900	0.617700
O121	O12	0.633100	0.486700	0.503200
O131	O13	0.492200	0.163600	0.723600
O141	O14	0.495200	0.280100	0.803900
O151	O15	0.249900	0.320400	0.672500
O161	O16	0.440100	0.496500	0.695700
