data_IJEVIE_freeONLY_PM
_symmetry_space_group_name_H-M	'P1'
_cell_length_a	10.143000
_cell_length_b	16.127000
_cell_length_c	22.937000
_cell_angle_alpha	79.015000
_cell_angle_beta	84.963000
_cell_angle_gamma	77.484000
_symmetry_Int_Tables_number 1

loop_
_symmetry_equiv_pos_as_xyz
'x,y,z'

loop_
_atom_site_label
_atom_site_type_symbol
_atom_site_fract_x
_atom_site_fract_y
_atom_site_fract_z
Cd11	Cd1	0.204490	0.971910	0.211400
Cd21	Cd2	0.135970	0.444380	0.195510
Cd31	Cd3	0.424040	0.036280	0.306900
Cd41	Cd4	0.498800	0.686160	0.230990
Cd51	Cd5	0.323780	0.523140	0.287970
C11	C1	0.934200	0.029000	0.179100
C21	C2	0.802300	0.064400	0.150400
C31	C3	0.794800	0.126200	0.099000
H11	H1	0.870400	0.149300	0.085100
C41	C4	0.677300	0.154400	0.067800
C51	C5	0.564800	0.123500	0.090400
H21	H2	0.485900	0.141900	0.069700
C61	C6	0.565200	0.064700	0.144000
C71	C7	0.685100	0.034100	0.173000
H31	H3	0.687900	0.993200	0.207700
C81	C8	0.440500	0.032000	0.167200
C91	C9	0.432100	0.416400	0.173800
C101	C10	0.562300	0.398000	0.138500
C111	C11	0.573300	0.356100	0.090400
H41	H4	0.498400	0.337900	0.080600
C121	C12	0.694100	0.340600	0.056400
C131	C13	0.807900	0.366300	0.072900
H51	H5	0.889700	0.355300	0.051200
C141	C14	0.798300	0.408300	0.122000
C151	C15	0.674500	0.426100	0.154100
H61	H6	0.666400	0.456200	0.185400
C161	C16	0.920100	0.427600	0.142500
C171	C17	0.701900	0.298600	0.003700
C181	C18	0.722500	0.345600	0.946700
H71	H7	0.736300	0.401500	0.943500
C191	C19	0.723400	0.313500	0.895500
C201	C20	0.702500	0.226900	0.900500
C211	C21	0.685700	0.179800	0.958400
H81	H8	0.675600	0.123000	0.962300
C221	C22	0.683600	0.214000	0.008900
C231	C23	0.746500	0.369000	0.837600
C241	C24	0.713400	0.178600	0.849100
C251	C25	0.283900	0.869100	0.344300
C261	C26	0.244300	0.812100	0.400500
C271	C27	0.244300	0.726100	0.403100
C281	C28	0.208400	0.677600	0.456200
H91	H9	0.207000	0.619800	0.457500
C291	C29	0.173600	0.713300	0.508600
C301	C30	0.169100	0.801000	0.504300
C311	C31	0.202100	0.848900	0.450600
H101	H10	0.195800	0.907900	0.447900
C321	C32	0.294100	0.679800	0.350200
C331	C33	0.143400	0.845400	0.556700
C341	C34	0.019500	0.854400	0.590500
H111	H11	0.950100	0.830500	0.581200
C351	C35	0.002000	0.898900	0.637700
C361	C36	0.105700	0.932000	0.654100
H121	H12	0.093500	0.959700	0.686800
C371	C37	0.230700	0.923200	0.620500
C381	C38	0.248800	0.881900	0.573400
H131	H13	0.330800	0.877100	0.551400
C391	C39	0.350700	0.952400	0.637100
C401	C40	0.865200	0.913400	0.669300
C411	C41	0.157900	0.652300	0.565800
C421	C42	0.033300	0.636300	0.589400
H141	H14	0.955700	0.666000	0.569900
C431	C43	0.021000	0.576900	0.641400
C441	C44	0.135300	0.534000	0.670300
H151	H15	0.127600	0.496100	0.705900
C451	C45	0.261900	0.546000	0.647700
C461	C46	0.272500	0.606900	0.595300
H161	H16	0.357100	0.616600	0.580300
C471	C47	0.387300	0.496900	0.678900
C481	C48	0.885300	0.557800	0.663500
C491	C49	0.727800	0.643300	0.128600
H171	H17	0.791500	0.642100	0.155700
C501	C50	0.670000	0.628700	0.030500
H181	H18	0.605600	0.595600	0.050300
H191	H19	0.717600	0.601400	0.999000
H201	H20	0.623100	0.685800	0.014400
C511	C51	0.911000	0.625500	0.055100
H211	H21	0.961200	0.629900	0.087500
H221	H22	0.920800	0.670700	0.022200
H231	H23	0.943400	0.570500	0.043200
C521	C52	0.533900	0.203900	0.252700
H241	H24	0.594800	0.193800	0.220900
C531	C53	0.695200	0.276000	0.283100
H251	H25	0.677300	0.337200	0.282100
H261	H26	0.741700	0.263200	0.246600
H271	H27	0.750400	0.247200	0.315800
C541	C54	0.468000	0.276400	0.336200
H281	H28	0.414600	0.233900	0.351200
H291	H29	0.410400	0.329500	0.319500
H301	H30	0.515500	0.285700	0.368000
N11	N1	0.768200	0.633900	0.074200
N21	N2	0.565700	0.245900	0.290300
O11	O1	0.945400	0.967200	0.222100
O21	O2	0.033500	0.062500	0.159500
O31	O3	0.436500	0.988200	0.220000
O41	O4	0.340900	0.048200	0.135700
O51	O5	0.331500	0.406700	0.149400
O61	O6	0.429900	0.434200	0.224200
O71	O7	0.911400	0.464300	0.186400
O81	O8	0.033800	0.402900	0.116200
O91	O9	0.832400	0.413100	0.836000
O101	O10	0.681300	0.368900	0.793900
O111	O11	0.617200	0.188300	0.817700
O121	O12	0.817300	0.128200	0.843400
O131	O13	0.211700	0.882600	0.300700
O141	O14	0.380600	0.903800	0.347200
O151	O15	0.388300	0.705300	0.318400
O161	O16	0.234100	0.621700	0.344700
O171	O17	0.452800	0.949300	0.602800
O181	O18	0.344000	0.978400	0.686000
O191	O19	0.850100	0.925000	0.722100
O201	O20	0.762100	0.914500	0.639100
O211	O21	0.495500	0.519700	0.659600
O221	O22	0.376500	0.437700	0.722400
O231	O23	0.879800	0.511300	0.714900
O241	O24	0.788800	0.579700	0.631100
O251	O25	0.608200	0.653700	0.144800
O261	O26	0.506700	0.119400	0.539200
O271	O27	0.157000	0.301000	0.249700
O281	O28	0.715900	0.935800	0.521200
O291	O29	0.426800	0.175700	0.256100
O301	O30	0.613500	0.794900	0.253800
Cd61	Cd6	0.795510	0.028090	0.788600
Cd71	Cd7	0.864030	0.555620	0.804490
Cd81	Cd8	0.575960	0.963720	0.693100
Cd91	Cd9	0.501200	0.313840	0.769010
Cd101	Cd10	0.676220	0.476860	0.712030
C551	C55	0.065800	0.971000	0.820900
C561	C56	0.197700	0.935600	0.849600
C571	C57	0.205200	0.873800	0.901000
H311	H31	0.129600	0.850700	0.914900
C581	C58	0.322700	0.845600	0.932200
C591	C59	0.435200	0.876500	0.909600
H321	H32	0.514100	0.858100	0.930300
C601	C60	0.434800	0.935300	0.856000
C611	C61	0.314900	0.965900	0.827000
H331	H33	0.312100	0.006800	0.792300
C621	C62	0.559500	0.968000	0.832800
C631	C63	0.567900	0.583600	0.826200
C641	C64	0.437700	0.602000	0.861500
C651	C65	0.426700	0.643900	0.909600
H341	H34	0.501600	0.662100	0.919400
C661	C66	0.305900	0.659400	0.943600
C671	C67	0.192100	0.633700	0.927100
H351	H35	0.110300	0.644700	0.948800
C681	C68	0.201700	0.591700	0.878000
C691	C69	0.325500	0.573900	0.845900
H361	H36	0.333600	0.543800	0.814600
C701	C70	0.079900	0.572400	0.857500
C711	C71	0.298100	0.701400	0.996300
C721	C72	0.277500	0.654400	0.053300
H371	H37	0.263700	0.598500	0.056500
C731	C73	0.276600	0.686500	0.104500
C741	C74	0.297500	0.773100	0.099500
C751	C75	0.314300	0.820200	0.041600
H381	H38	0.324400	0.877000	0.037700
C761	C76	0.316400	0.786000	0.991100
C771	C77	0.253500	0.631000	0.162400
C781	C78	0.286600	0.821400	0.150900
C791	C79	0.716100	0.130900	0.655700
C801	C80	0.755700	0.187900	0.599500
C811	C81	0.755700	0.273900	0.596900
C821	C82	0.791600	0.322400	0.543800
H391	H39	0.793000	0.380200	0.542500
C831	C83	0.826400	0.286700	0.491400
C841	C84	0.830900	0.199000	0.495700
C851	C85	0.797900	0.151100	0.549400
H401	H40	0.804200	0.092100	0.552100
C861	C86	0.705900	0.320200	0.649800
C871	C87	0.856600	0.154600	0.443300
C881	C88	0.980500	0.145600	0.409500
H411	H41	0.049900	0.169500	0.418800
C891	C89	0.998000	0.101100	0.362300
C901	C90	0.894300	0.068000	0.345900
H421	H42	0.906500	0.040300	0.313200
C911	C91	0.769300	0.076800	0.379500
C921	C92	0.751200	0.118100	0.426600
H431	H43	0.669200	0.122900	0.448600
C931	C93	0.649300	0.047600	0.362900
C941	C94	0.134800	0.086600	0.330700
C951	C95	0.842100	0.347700	0.434200
C961	C96	0.966700	0.363700	0.410600
H441	H44	0.044300	0.334000	0.430100
C971	C97	0.979000	0.423100	0.358600
C981	C98	0.864700	0.466000	0.329700
H451	H45	0.872400	0.503900	0.294100
C991	C99	0.738100	0.454000	0.352300
C1001	C100	0.727500	0.393100	0.404700
H461	H46	0.642900	0.383400	0.419700
C1011	C101	0.612700	0.503100	0.321100
C1021	C102	0.114700	0.442200	0.336500
C1031	C103	0.272200	0.356700	0.871400
H471	H47	0.208500	0.357900	0.844300
C1041	C104	0.330000	0.371300	0.969500
H481	H48	0.394400	0.404400	0.949700
H491	H49	0.282400	0.398600	0.001000
H501	H50	0.376900	0.314200	0.985600
C1051	C105	0.089000	0.374500	0.944900
H511	H51	0.038800	0.370100	0.912500
H521	H52	0.079200	0.329300	0.977800
H531	H53	0.056600	0.429500	0.956800
C1061	C106	0.466100	0.796100	0.747300
H541	H54	0.405200	0.806200	0.779100
C1071	C107	0.304800	0.724000	0.716900
H551	H55	0.322700	0.662800	0.717900
H561	H56	0.258300	0.736800	0.753400
H571	H57	0.249600	0.752800	0.684200
C1081	C108	0.532000	0.723600	0.663800
H581	H58	0.585400	0.766100	0.648800
H591	H59	0.589600	0.670500	0.680500
H601	H60	0.484500	0.714300	0.632000
N31	N3	0.231800	0.366100	0.925800
N41	N4	0.434300	0.754100	0.709700
O311	O31	0.054600	0.032800	0.777900
O321	O32	0.966500	0.937500	0.840500
O331	O33	0.563500	0.011800	0.780000
O341	O34	0.659100	0.951800	0.864300
O351	O35	0.668500	0.593300	0.850600
O361	O36	0.570100	0.565800	0.775800
O371	O37	0.088600	0.535700	0.813600
O381	O38	0.966200	0.597100	0.883800
O391	O39	0.167600	0.586900	0.164000
O401	O40	0.318700	0.631100	0.206100
O411	O41	0.382800	0.811700	0.182300
O421	O42	0.182700	0.871800	0.156600
O431	O43	0.788300	0.117400	0.699300
O441	O44	0.619400	0.096200	0.652800
O451	O45	0.611700	0.294700	0.681600
O461	O46	0.765900	0.378300	0.655300
O471	O47	0.547200	0.050700	0.397200
O481	O48	0.656000	0.021600	0.314000
O491	O49	0.149900	0.075000	0.277900
O501	O50	0.237900	0.085500	0.360900
O511	O51	0.504500	0.480300	0.340400
O521	O52	0.623500	0.562300	0.277600
O531	O53	0.120200	0.488700	0.285100
O541	O54	0.211200	0.420300	0.368900
O551	O55	0.391800	0.346300	0.855200
O561	O56	0.493300	0.880600	0.460800
O571	O57	0.843000	0.699000	0.750300
O581	O58	0.284100	0.064200	0.478800
O591	O59	0.573200	0.824300	0.743900
O601	O60	0.386500	0.205100	0.746200
Cd111	Cd11	0.500000	0.000000	0.500000
