data_IJODES_freeONLY_PM
_symmetry_space_group_name_H-M	'P1'
_cell_length_a	13.036000
_cell_length_b	12.294800
_cell_length_c	18.705500
_cell_angle_alpha	90.000000
_cell_angle_beta	123.019000
_cell_angle_gamma	90.000000
_symmetry_Int_Tables_number 1

loop_
_symmetry_equiv_pos_as_xyz
'x,y,z'

loop_
_atom_site_label
_atom_site_type_symbol
_atom_site_fract_x
_atom_site_fract_y
_atom_site_fract_z
Zn11	Zn1	0.599930	0.692520	0.126250
C11	C1	0.611300	0.587600	0.983000
H11	H1	0.637400	0.520500	0.010200
C21	C2	0.592700	0.612400	0.906700
H21	H2	0.601800	0.566100	0.871200
C31	C3	0.552600	0.756700	0.958000
H31	H3	0.529400	0.826600	0.962500
C41	C4	0.529300	0.784100	0.818200
C51	C5	0.533600	0.895200	0.823000
H41	H4	0.558400	0.930800	0.873800
C61	C6	0.823100	0.185700	0.256700
C71	C7	0.008500	0.291600	0.346700
C81	C8	0.018900	0.093600	0.351600
C91	C9	0.816300	0.382100	0.245800
H51	H5	0.754500	0.368400	0.186200
H61	H6	0.870500	0.438100	0.248200
C101	C10	0.755000	0.422900	0.289200
H71	H7	0.817000	0.440600	0.348000
H81	H8	0.704100	0.365600	0.289500
C111	C11	0.677300	0.522000	0.246100
C121	C12	0.205000	0.198400	0.432800
H91	H9	0.234400	0.261800	0.418200
H101	H10	0.239100	0.134600	0.422700
C131	C13	0.252600	0.203500	0.527600
H111	H11	0.219200	0.266200	0.539600
H121	H12	0.230000	0.138300	0.545100
C141	C14	0.389800	0.212500	0.573800
C151	C15	0.834900	0.986700	0.256800
H131	H13	0.891800	0.936100	0.256700
H141	H14	0.767200	0.996800	0.198300
C161	C16	0.786600	0.937400	0.307500
H151	H15	0.854700	0.915100	0.363200
H161	H16	0.739900	0.991600	0.315800
C171	C17	0.706200	0.840100	0.261300
O11	O1	0.626200	0.567200	0.278300
O21	O2	0.670500	0.552100	0.179300
O31	O3	0.448200	0.144700	0.563600
O41	O4	0.441400	0.301800	0.618600
O51	O5	0.629700	0.810100	0.279200
O61	O6	0.720900	0.794600	0.206900
O71	O7	0.715000	0.180800	0.206200
O81	O8	0.058000	0.378400	0.371900
O91	O9	0.077300	0.011100	0.381500
N11	N1	0.584800	0.680000	0.015000
N21	N2	0.557500	0.720600	0.891600
N31	N3	0.886600	0.282800	0.284100
N41	N4	0.072100	0.194300	0.376200
N51	N5	0.896200	0.090700	0.290800
Zn21	Zn2	0.400070	0.692520	0.373750
C181	C18	0.388700	0.587600	0.517000
H171	H17	0.362600	0.520500	0.489800
C191	C19	0.407300	0.612400	0.593300
H181	H18	0.398200	0.566100	0.628800
C201	C20	0.447400	0.756700	0.542000
H191	H19	0.470600	0.826600	0.537500
C211	C21	0.470700	0.784100	0.681800
C221	C22	0.466400	0.895200	0.677000
H201	H20	0.441600	0.930800	0.626200
C231	C23	0.176900	0.185700	0.243300
C241	C24	0.991500	0.291600	0.153300
C251	C25	0.981100	0.093600	0.148400
C261	C26	0.183700	0.382100	0.254200
H211	H21	0.245500	0.368400	0.313800
H221	H22	0.129500	0.438100	0.251800
C271	C27	0.245000	0.422900	0.210800
H231	H23	0.183000	0.440600	0.152000
H241	H24	0.295900	0.365600	0.210500
C281	C28	0.322700	0.522000	0.253900
C291	C29	0.795000	0.198400	0.067200
H251	H25	0.765600	0.261800	0.081800
H261	H26	0.760900	0.134600	0.077300
C301	C30	0.747400	0.203500	0.972400
H271	H27	0.780800	0.266200	0.960400
H281	H28	0.770000	0.138300	0.954900
C311	C31	0.610200	0.212500	0.926200
C321	C32	0.165100	0.986700	0.243200
H291	H29	0.108200	0.936100	0.243300
H301	H30	0.232800	0.996800	0.301700
C331	C33	0.213400	0.937400	0.192500
H311	H31	0.145300	0.915100	0.136800
H321	H32	0.260100	0.991600	0.184200
C341	C34	0.293800	0.840100	0.238700
O101	O10	0.373800	0.567200	0.221700
O111	O11	0.329500	0.552100	0.320700
O121	O12	0.551800	0.144700	0.936400
O131	O13	0.558600	0.301800	0.881400
O141	O14	0.370300	0.810100	0.220800
O151	O15	0.279100	0.794600	0.293100
O161	O16	0.285000	0.180800	0.293800
O171	O17	0.942000	0.378400	0.128100
O181	O18	0.922700	0.011100	0.118500
N61	N6	0.415200	0.680000	0.485000
N71	N7	0.442500	0.720600	0.608400
N81	N8	0.113400	0.282800	0.215900
N91	N9	0.927900	0.194300	0.123800
N101	N10	0.103800	0.090700	0.209200
Zn31	Zn3	0.400070	0.307480	0.873750
C351	C35	0.388700	0.412400	0.017000
H331	H33	0.362600	0.479500	0.989800
C361	C36	0.407300	0.387600	0.093300
H341	H34	0.398200	0.433900	0.128800
C371	C37	0.447400	0.243300	0.042000
H351	H35	0.470600	0.173400	0.037500
C381	C38	0.470700	0.215900	0.181800
C391	C39	0.466400	0.104800	0.177000
H361	H36	0.441600	0.069200	0.126200
C401	C40	0.176900	0.814300	0.743300
C411	C41	0.991500	0.708400	0.653300
C421	C42	0.981100	0.906400	0.648400
C431	C43	0.183700	0.617900	0.754200
H371	H37	0.245500	0.631600	0.813800
H381	H38	0.129500	0.561900	0.751800
C441	C44	0.245000	0.577100	0.710800
H391	H39	0.183000	0.559400	0.652000
H401	H40	0.295900	0.634400	0.710500
C451	C45	0.322700	0.478000	0.753900
C461	C46	0.795000	0.801600	0.567200
H411	H41	0.765600	0.738200	0.581800
H421	H42	0.760900	0.865400	0.577300
C471	C47	0.747400	0.796500	0.472400
H431	H43	0.780800	0.733800	0.460400
H441	H44	0.770000	0.861700	0.454900
C481	C48	0.610200	0.787500	0.426200
C491	C49	0.165100	0.013300	0.743200
H451	H45	0.108200	0.063900	0.743300
H461	H46	0.232800	0.003200	0.801700
C501	C50	0.213400	0.062600	0.692500
H471	H47	0.145300	0.084900	0.636800
H481	H48	0.260100	0.008400	0.684200
C511	C51	0.293800	0.159900	0.738700
O191	O19	0.373800	0.432800	0.721700
O201	O20	0.329500	0.447900	0.820700
O211	O21	0.551800	0.855300	0.436400
O221	O22	0.558600	0.698200	0.381400
O231	O23	0.370300	0.189900	0.720800
O241	O24	0.279100	0.205400	0.793100
O251	O25	0.285000	0.819200	0.793800
O261	O26	0.942000	0.621600	0.628100
O271	O27	0.922700	0.988900	0.618500
N111	N11	0.415200	0.320000	0.985000
N121	N12	0.442500	0.279400	0.108400
N131	N13	0.113400	0.717200	0.715900
N141	N14	0.927900	0.805700	0.623800
N151	N15	0.103800	0.909300	0.709200
Zn41	Zn4	0.599930	0.307480	0.626250
C521	C52	0.611300	0.412400	0.483000
H491	H49	0.637400	0.479500	0.510200
C531	C53	0.592700	0.387600	0.406700
H501	H50	0.601800	0.433900	0.371200
C541	C54	0.552600	0.243300	0.458000
H511	H51	0.529400	0.173400	0.462500
C551	C55	0.529300	0.215900	0.318200
C561	C56	0.533600	0.104800	0.323000
H521	H52	0.558400	0.069200	0.373800
C571	C57	0.823100	0.814300	0.756700
C581	C58	0.008500	0.708400	0.846700
C591	C59	0.018900	0.906400	0.851600
C601	C60	0.816300	0.617900	0.745800
H531	H53	0.754500	0.631600	0.686200
H541	H54	0.870500	0.561900	0.748200
C611	C61	0.755000	0.577100	0.789200
H551	H55	0.817000	0.559400	0.848000
H561	H56	0.704100	0.634400	0.789500
C621	C62	0.677300	0.478000	0.746100
C631	C63	0.205000	0.801600	0.932800
H571	H57	0.234400	0.738200	0.918200
H581	H58	0.239100	0.865400	0.922700
C641	C64	0.252600	0.796500	0.027600
H591	H59	0.219200	0.733800	0.039600
H601	H60	0.230000	0.861700	0.045100
C651	C65	0.389800	0.787500	0.073800
C661	C66	0.834900	0.013300	0.756800
H611	H61	0.891800	0.063900	0.756700
H621	H62	0.767200	0.003200	0.698300
C671	C67	0.786600	0.062600	0.807500
H631	H63	0.854700	0.084900	0.863200
H641	H64	0.739900	0.008400	0.815800
C681	C68	0.706200	0.159900	0.761300
O281	O28	0.626200	0.432800	0.778300
O291	O29	0.670500	0.447900	0.679300
O301	O30	0.448200	0.855300	0.063600
O311	O31	0.441400	0.698200	0.118600
O321	O32	0.629700	0.189900	0.779200
O331	O33	0.720900	0.205400	0.706900
O341	O34	0.715000	0.819200	0.706200
O351	O35	0.058000	0.621600	0.871900
O361	O36	0.077300	0.988900	0.881500
N161	N16	0.584800	0.320000	0.515000
N171	N17	0.557500	0.279400	0.391600
N181	N18	0.886600	0.717200	0.784100
N191	N19	0.072100	0.805700	0.876200
N201	N20	0.896200	0.909300	0.790800
Zn51	Zn5	0.500000	0.686970	0.250000
Zn61	Zn6	0.500000	0.313030	0.750000
C691	C69	0.500000	0.952800	0.750000
H651	H65	0.500000	0.028500	0.750000
N211	N21	0.500000	0.728700	0.750000
C701	C70	0.500000	0.047200	0.250000
H661	H66	0.500000	0.971500	0.250000
N221	N22	0.500000	0.271300	0.250000
