data_IKETEY_freeONLY_PM
_symmetry_space_group_name_H-M	'P1'
_cell_length_a	6.113900
_cell_length_b	9.983000
_cell_length_c	13.413000
_cell_angle_alpha	68.931000
_cell_angle_beta	80.960000
_cell_angle_gamma	76.689000
_symmetry_Int_Tables_number 1

loop_
_symmetry_equiv_pos_as_xyz
'x,y,z'

loop_
_atom_site_label
_atom_site_type_symbol
_atom_site_fract_x
_atom_site_fract_y
_atom_site_fract_z
Sm11	Sm1	0.830820	0.614580	0.196410
Sm21	Sm2	0.169180	0.385420	0.803590
H11	H1	0.322500	0.049600	0.029000
H21	H2	0.702000	0.325800	0.630600
H31	H3	0.866900	0.781400	0.345100
H41	H4	0.708200	0.858200	0.281500
H51	H5	0.459300	0.484400	0.211600
H61	H6	0.569000	0.362300	0.271200
H71	H7	0.677500	0.950400	0.971000
H81	H8	0.298000	0.674200	0.369400
H91	H9	0.133100	0.218600	0.654900
H101	H10	0.291800	0.141800	0.718500
H111	H11	0.540700	0.515600	0.788400
H121	H12	0.431000	0.637700	0.728800
C11	C1	0.286300	0.767200	0.140400
C21	C2	0.132500	0.895300	0.068400
C31	C3	0.189800	0.031400	0.015100
C41	C4	0.948400	0.383500	0.439500
C51	C5	0.711600	0.443900	0.472800
C61	C6	0.616200	0.397800	0.578200
C71	C7	0.089200	0.440700	0.033300
C81	C8	0.713700	0.232800	0.859600
C91	C9	0.867500	0.104700	0.931600
C101	C10	0.810200	0.968600	0.984900
C111	C11	0.051600	0.616500	0.560500
C121	C12	0.288400	0.556100	0.527200
C131	C13	0.383800	0.602200	0.421800
C141	C14	0.910800	0.559300	0.966700
N11	N1	0.938900	0.864700	0.054600
N21	N2	0.593800	0.546200	0.394100
N31	N3	0.061100	0.135300	0.945400
N41	N4	0.406200	0.453800	0.605900
O11	O1	0.212900	0.651700	0.184300
O21	O2	0.477500	0.785000	0.150900
O31	O3	0.014300	0.431100	0.342300
O41	O4	0.066800	0.290700	0.509900
O51	O5	0.083500	0.430500	0.129600
O61	O6	0.223700	0.362400	0.986700
O71	O7	0.825900	0.791300	0.284200
O81	O8	0.591100	0.435500	0.219500
O91	O9	0.787100	0.348300	0.815700
O101	O10	0.522500	0.215000	0.849100
O111	O11	0.985700	0.568900	0.657700
O121	O12	0.933200	0.709300	0.490100
O131	O13	0.916500	0.569500	0.870400
O141	O14	0.776300	0.637600	0.013300
O151	O15	0.174100	0.208700	0.715800
O161	O16	0.408900	0.564500	0.780500
