data_IKEVAW_freeONLY_PM
_symmetry_space_group_name_H-M	'P1'
_cell_length_a	6.053500
_cell_length_b	9.915900
_cell_length_c	13.290300
_cell_angle_alpha	68.832000
_cell_angle_beta	81.273000
_cell_angle_gamma	76.875000
_symmetry_Int_Tables_number 1

loop_
_symmetry_equiv_pos_as_xyz
'x,y,z'

loop_
_atom_site_label
_atom_site_type_symbol
_atom_site_fract_x
_atom_site_fract_y
_atom_site_fract_z
Dy11	Dy1	0.834640	0.613820	0.195110
Dy21	Dy2	0.165360	0.386180	0.804890
H11	H1	0.326600	0.047600	0.029200
H21	H2	0.705500	0.321400	0.628600
H31	H3	0.874200	0.776700	0.343300
H41	H4	0.715500	0.853500	0.279800
H51	H5	0.467200	0.485700	0.211200
H61	H6	0.577000	0.363600	0.270800
H71	H7	0.673400	0.952400	0.970800
H81	H8	0.294500	0.678600	0.371400
H91	H9	0.125800	0.223300	0.656700
H101	H10	0.284500	0.146500	0.720200
H111	H11	0.532800	0.514300	0.788800
H121	H12	0.423000	0.636400	0.729200
C11	C1	0.289400	0.764700	0.141700
C21	C2	0.136600	0.892900	0.069600
C31	C3	0.191600	0.029600	0.015800
C41	C4	0.950800	0.381700	0.438700
C51	C5	0.710800	0.444800	0.471900
C61	C6	0.618200	0.396000	0.576900
C71	C7	0.089200	0.439000	0.034300
C81	C8	0.710600	0.235300	0.858300
C91	C9	0.863400	0.107100	0.930400
C101	C10	0.808400	0.970400	0.984200
C111	C11	0.049200	0.618300	0.561300
C121	C12	0.289200	0.555200	0.528100
C131	C13	0.381800	0.604000	0.423100
C141	C14	0.910800	0.561000	0.965700
N11	N1	0.938900	0.863900	0.053900
N21	N2	0.593000	0.547900	0.393000
N31	N3	0.061100	0.136100	0.946100
N41	N4	0.407000	0.452100	0.607000
O11	O1	0.216200	0.646900	0.184000
O21	O2	0.483400	0.781100	0.152500
O31	O3	0.015600	0.432500	0.340600
O41	O4	0.071800	0.289400	0.509300
O51	O5	0.084300	0.429300	0.130800
O61	O6	0.225700	0.361200	0.986800
O71	O7	0.833200	0.786600	0.282500
O81	O8	0.599000	0.436800	0.219200
O91	O9	0.783800	0.353100	0.816000
O101	O10	0.516600	0.218900	0.847500
O111	O11	0.984400	0.567500	0.659400
O121	O12	0.928200	0.710600	0.490700
O131	O13	0.915700	0.570700	0.869200
O141	O14	0.774300	0.638800	0.013200
O151	O15	0.166800	0.213400	0.717500
O161	O16	0.401000	0.563200	0.780800
