data_IKEZED_freeONLY_PM
_symmetry_space_group_name_H-M	'P1'
_cell_length_a	10.407300
_cell_length_b	17.817400
_cell_length_c	7.527800
_cell_angle_alpha	90.000000
_cell_angle_beta	108.474000
_cell_angle_gamma	90.000000
_symmetry_Int_Tables_number 1

loop_
_symmetry_equiv_pos_as_xyz
'x,y,z'

loop_
_atom_site_label
_atom_site_type_symbol
_atom_site_fract_x
_atom_site_fract_y
_atom_site_fract_z
Zn11	Zn1	0.159650	0.722690	0.150330
O11	O1	0.190000	0.634500	0.010100
O21	O2	0.198200	0.700000	0.761900
O31	O3	0.339700	0.653200	0.470300
O41	O4	0.117600	0.669700	0.353300
C11	C1	0.182000	0.567900	0.737100
C21	C2	0.198700	0.567800	0.560100
C31	C3	0.189200	0.639100	0.843800
C41	C4	0.223300	0.636700	0.459700
Zn21	Zn2	0.659650	0.222690	0.150330
O51	O5	0.690000	0.134500	0.010100
O61	O6	0.698200	0.200000	0.761900
O71	O7	0.839700	0.153200	0.470300
O81	O8	0.617600	0.169700	0.353300
C51	C5	0.682000	0.067900	0.737100
C61	C6	0.698700	0.067800	0.560100
C71	C7	0.689200	0.139100	0.843800
C81	C8	0.723300	0.136700	0.459700
Zn31	Zn3	0.840350	0.722690	0.849670
O91	O9	0.810000	0.634500	0.989900
O101	O10	0.801800	0.700000	0.238100
O111	O11	0.660300	0.653200	0.529700
O121	O12	0.882400	0.669700	0.646700
C91	C9	0.818000	0.567900	0.262900
C101	C10	0.801300	0.567800	0.439900
C111	C11	0.810800	0.639100	0.156200
C121	C12	0.776700	0.636700	0.540300
Zn41	Zn4	0.340350	0.222690	0.849670
O131	O13	0.310000	0.134500	0.989900
O141	O14	0.301800	0.200000	0.238100
O151	O15	0.160300	0.153200	0.529700
O161	O16	0.382400	0.169700	0.646700
C131	C13	0.318000	0.067900	0.262900
C141	C14	0.301300	0.067800	0.439900
C151	C15	0.310800	0.139100	0.156200
C161	C16	0.276700	0.136700	0.540300
Zn51	Zn5	0.840350	0.277310	0.849670
O171	O17	0.810000	0.365500	0.989900
O181	O18	0.801800	0.300000	0.238100
O191	O19	0.660300	0.346800	0.529700
O201	O20	0.882400	0.330300	0.646700
C171	C17	0.818000	0.432100	0.262900
C181	C18	0.801300	0.432200	0.439900
C191	C19	0.810800	0.360900	0.156200
C201	C20	0.776700	0.363300	0.540300
Zn61	Zn6	0.340350	0.777310	0.849670
O211	O21	0.310000	0.865500	0.989900
O221	O22	0.301800	0.800000	0.238100
O231	O23	0.160300	0.846800	0.529700
O241	O24	0.382400	0.830300	0.646700
C211	C21	0.318000	0.932100	0.262900
C221	C22	0.301300	0.932200	0.439900
C231	C23	0.310800	0.860900	0.156200
C241	C24	0.276700	0.863300	0.540300
Zn71	Zn7	0.159650	0.277310	0.150330
O251	O25	0.190000	0.365500	0.010100
O261	O26	0.198200	0.300000	0.761900
O271	O27	0.339700	0.346800	0.470300
O281	O28	0.117600	0.330300	0.353300
C251	C25	0.182000	0.432100	0.737100
C261	C26	0.198700	0.432200	0.560100
C271	C27	0.189200	0.360900	0.843800
C281	C28	0.223300	0.363300	0.459700
Zn81	Zn8	0.659650	0.777310	0.150330
O291	O29	0.690000	0.865500	0.010100
O301	O30	0.698200	0.800000	0.761900
O311	O31	0.839700	0.846800	0.470300
O321	O32	0.617600	0.830300	0.353300
C291	C29	0.682000	0.932100	0.737100
C301	C30	0.698700	0.932200	0.560100
C311	C31	0.689200	0.860900	0.843800
C321	C32	0.723300	0.863300	0.459700
Na11	Na1	0.000000	0.753220	0.500000
Na21	Na2	0.500000	0.253220	0.500000
Na31	Na3	0.000000	0.246780	0.500000
Na41	Na4	0.500000	0.746780	0.500000
O331	O33	0.000000	0.770300	0.000000
H11	H1	0.000000	0.817600	0.000000
O341	O34	0.500000	0.270300	0.000000
H21	H2	0.500000	0.317600	0.000000
O351	O35	0.000000	0.229700	0.000000
H31	H3	0.000000	0.182400	0.000000
O361	O36	0.500000	0.729700	0.000000
H41	H4	0.500000	0.682400	0.000000
C331	C33	0.170700	0.500000	0.820700
C341	C34	0.204400	0.500000	0.473800
H51	H5	0.161000	0.500000	0.939000
H61	H6	0.216000	0.500000	0.356000
C351	C35	0.670700	0.000000	0.820700
C361	C36	0.704400	0.000000	0.473800
H71	H7	0.661000	0.000000	0.939000
H81	H8	0.716000	0.000000	0.356000
C371	C37	0.829300	0.500000	0.179300
C381	C38	0.795600	0.500000	0.526200
H91	H9	0.839000	0.500000	0.061000
H101	H10	0.784000	0.500000	0.644000
C391	C39	0.329300	0.000000	0.179300
C401	C40	0.295600	0.000000	0.526200
H111	H11	0.339000	0.000000	0.061000
H121	H12	0.284000	0.000000	0.644000
