data_IKOKEA_freeONLY_PM
_symmetry_space_group_name_H-M	'P1'
_cell_length_a	9.227600
_cell_length_b	9.286100
_cell_length_c	9.378900
_cell_angle_alpha	85.212800
_cell_angle_beta	77.311900
_cell_angle_gamma	89.347200
_symmetry_Int_Tables_number 1

loop_
_symmetry_equiv_pos_as_xyz
'x,y,z'

loop_
_atom_site_label
_atom_site_type_symbol
_atom_site_fract_x
_atom_site_fract_y
_atom_site_fract_z
Al11	Al1	0.866400	0.065300	0.084100
P11	P1	0.170000	0.139430	0.137000
P21	P2	0.375500	0.120600	0.676110
P31	P3	0.620900	0.315930	0.095280
Al21	Al2	0.623200	0.658290	0.085600
Al31	Al3	0.395600	0.119300	0.339500
O11	O1	0.772800	0.233600	0.066800
O21	O2	0.527100	0.051000	0.669000
O31	O3	0.254000	0.012600	0.746000
O41	O4	0.999900	0.144700	0.185500
O51	O5	0.540200	0.312300	0.961900
O61	O6	0.232900	0.023600	0.036700
O71	O7	0.361100	0.167800	0.517200
O81	O8	0.649300	0.475100	0.124200
O91	O9	0.227800	0.119400	0.280300
O101	O10	0.231500	0.286300	0.059700
O111	O11	0.368200	0.255200	0.756600
O121	O12	0.511700	0.254600	0.233300
F11	F1	0.015400	0.105000	0.919400
Al41	Al4	0.133600	0.934700	0.915900
P41	P4	0.830000	0.860570	0.863000
P51	P5	0.624500	0.879400	0.323890
P61	P6	0.379100	0.684070	0.904720
Al51	Al5	0.376800	0.341710	0.914400
Al61	Al6	0.604400	0.880700	0.660500
O131	O13	0.227200	0.766400	0.933200
O141	O14	0.472900	0.949000	0.331000
O151	O15	0.746000	0.987400	0.254000
O161	O16	0.000100	0.855300	0.814500
O171	O17	0.459800	0.687700	0.038100
O181	O18	0.767100	0.976400	0.963300
O191	O19	0.638900	0.832200	0.482800
O201	O20	0.350700	0.524900	0.875800
O211	O21	0.772200	0.880600	0.719700
O221	O22	0.768500	0.713700	0.940300
O231	O23	0.631800	0.744800	0.243400
O241	O24	0.488300	0.745400	0.766700
F21	F2	0.984600	0.895000	0.080600
