data_IKOQII_freeONLY_PM
_symmetry_space_group_name_H-M	'P1'
_cell_length_a	16.804800
_cell_length_b	16.804800
_cell_length_c	16.804800
_cell_angle_alpha	90.000000
_cell_angle_beta	90.000000
_cell_angle_gamma	90.000000
_symmetry_Int_Tables_number 1

loop_
_symmetry_equiv_pos_as_xyz
'x,y,z'

loop_
_atom_site_label
_atom_site_type_symbol
_atom_site_fract_x
_atom_site_fract_y
_atom_site_fract_z
N11	N1	0.399400	0.328500	0.563300
N21	N2	0.186100	0.921000	0.652000
C11	C1	0.427700	0.393600	0.513100
C21	C2	0.361500	0.445700	0.480000
C31	C3	0.235200	0.855800	0.679700
C41	C4	0.269300	0.802700	0.612400
H11	H1	0.968900	0.368000	0.705900
H21	H2	0.895000	0.366100	0.650600
H31	H3	0.953400	0.461400	0.572100
H41	H4	0.085600	0.449400	0.671300
H51	H5	0.031100	0.523700	0.666800
H61	H6	0.100200	0.881500	0.146700
H71	H7	0.044500	0.879500	0.220300
H81	H8	0.213400	0.704300	0.323900
H91	H9	0.197100	0.835000	0.422900
H101	H10	0.272600	0.782000	0.419600
N31	N3	0.899400	0.828500	0.063300
N41	N4	0.686100	0.421000	0.152000
C51	C5	0.927700	0.893600	0.013100
C61	C6	0.861500	0.945700	0.980000
C71	C7	0.735200	0.355800	0.179700
C81	C8	0.769300	0.302700	0.112400
H111	H11	0.468900	0.868000	0.205900
H121	H12	0.395000	0.866100	0.150600
H131	H13	0.453400	0.961400	0.072100
H141	H14	0.585600	0.949400	0.171300
H151	H15	0.531100	0.023700	0.166800
H161	H16	0.600200	0.381500	0.646700
H171	H17	0.544500	0.379500	0.720300
H181	H18	0.713400	0.204300	0.823900
H191	H19	0.697100	0.335000	0.922900
H201	H20	0.772600	0.282000	0.919600
N51	N5	0.100600	0.671500	0.063300
N61	N6	0.313900	0.079000	0.152000
C91	C9	0.072300	0.606400	0.013100
C101	C10	0.138500	0.554300	0.980000
C111	C11	0.264800	0.144200	0.179700
C121	C12	0.230700	0.197300	0.112400
H211	H21	0.531100	0.632000	0.205900
H221	H22	0.605000	0.633900	0.150600
H231	H23	0.546600	0.538600	0.072100
H241	H24	0.414400	0.550600	0.171300
H251	H25	0.468900	0.476300	0.166800
H261	H26	0.399800	0.118500	0.646700
H271	H27	0.455500	0.120500	0.720300
H281	H28	0.286600	0.295700	0.823900
H291	H29	0.302900	0.165000	0.922900
H301	H30	0.227400	0.218000	0.919600
N71	N7	0.600600	0.171500	0.563300
N81	N8	0.813900	0.579000	0.652000
C131	C13	0.572300	0.106400	0.513100
C141	C14	0.638500	0.054300	0.480000
C151	C15	0.764800	0.644200	0.679700
C161	C16	0.730700	0.697300	0.612400
H311	H31	0.031100	0.132000	0.705900
H321	H32	0.105000	0.133900	0.650600
H331	H33	0.046600	0.038600	0.572100
H341	H34	0.914400	0.050600	0.671300
H351	H35	0.968900	0.976300	0.666800
H361	H36	0.899800	0.618500	0.146700
H371	H37	0.955500	0.620500	0.220300
H381	H38	0.786600	0.795700	0.323900
H391	H39	0.802900	0.665000	0.422900
H401	H40	0.727400	0.718000	0.419600
N91	N9	0.600600	0.828500	0.936700
N101	N10	0.813900	0.421000	0.848000
C171	C17	0.572300	0.893600	0.986900
C181	C18	0.638500	0.945700	0.020000
C191	C19	0.764800	0.355800	0.820300
C201	C20	0.730700	0.302700	0.887600
H411	H41	0.031100	0.868000	0.794100
H421	H42	0.105000	0.866100	0.849400
H431	H43	0.046600	0.961400	0.927900
H441	H44	0.914400	0.949400	0.828700
H451	H45	0.968900	0.023700	0.833200
H461	H46	0.899800	0.381500	0.353300
H471	H47	0.955500	0.379500	0.279700
H481	H48	0.786600	0.204300	0.176100
H491	H49	0.802900	0.335000	0.077100
H501	H50	0.727400	0.282000	0.080400
N111	N11	0.100600	0.328500	0.436700
N121	N12	0.313900	0.921000	0.348000
C211	C21	0.072300	0.393600	0.486900
C221	C22	0.138500	0.445700	0.520000
C231	C23	0.264800	0.855800	0.320300
C241	C24	0.230700	0.802700	0.387600
H511	H51	0.531100	0.368000	0.294100
H521	H52	0.605000	0.366100	0.349400
H531	H53	0.546600	0.461400	0.427900
H541	H54	0.414400	0.449400	0.328700
H551	H55	0.468900	0.523700	0.333200
H561	H56	0.399800	0.881500	0.853300
H571	H57	0.455500	0.879500	0.779700
H581	H58	0.286600	0.704300	0.676100
H591	H59	0.302900	0.835000	0.577100
H601	H60	0.227400	0.782000	0.580400
N131	N13	0.899400	0.171500	0.436700
N141	N14	0.686100	0.579000	0.348000
C251	C25	0.927700	0.106400	0.486900
C261	C26	0.861500	0.054300	0.520000
C271	C27	0.735200	0.644200	0.320300
C281	C28	0.769300	0.697300	0.387600
H611	H61	0.468900	0.132000	0.294100
H621	H62	0.395000	0.133900	0.349400
H631	H63	0.453400	0.038600	0.427900
H641	H64	0.585600	0.050600	0.328700
H651	H65	0.531100	0.976300	0.333200
H661	H66	0.600200	0.618500	0.853300
H671	H67	0.544500	0.620500	0.779700
H681	H68	0.713400	0.795700	0.676100
H691	H69	0.697100	0.665000	0.577100
H701	H70	0.772600	0.718000	0.580400
N151	N15	0.399400	0.671500	0.936700
N161	N16	0.186100	0.079000	0.848000
C291	C29	0.427700	0.606400	0.986900
C301	C30	0.361500	0.554300	0.020000
C311	C31	0.235200	0.144200	0.820300
C321	C32	0.269300	0.197300	0.887600
H711	H71	0.968900	0.632000	0.794100
H721	H72	0.895000	0.633900	0.849400
H731	H73	0.953400	0.538600	0.927900
H741	H74	0.085600	0.550600	0.828700
H751	H75	0.031100	0.476300	0.833200
H761	H76	0.100200	0.118500	0.353300
H771	H77	0.044500	0.120500	0.279700
H781	H78	0.213400	0.295700	0.176100
H791	H79	0.197100	0.165000	0.077100
H801	H80	0.272600	0.218000	0.080400
N171	N17	0.563300	0.399400	0.328500
N181	N18	0.652000	0.186100	0.921000
C331	C33	0.513100	0.427700	0.393600
C341	C34	0.480000	0.361500	0.445700
C351	C35	0.679700	0.235200	0.855800
C361	C36	0.612400	0.269300	0.802700
H811	H81	0.705900	0.968900	0.368000
H821	H82	0.650600	0.895000	0.366100
H831	H83	0.572100	0.953400	0.461400
H841	H84	0.671300	0.085600	0.449400
H851	H85	0.666800	0.031100	0.523700
H861	H86	0.146700	0.100200	0.881500
H871	H87	0.220300	0.044500	0.879500
H881	H88	0.323900	0.213400	0.704300
H891	H89	0.422900	0.197100	0.835000
H901	H90	0.419600	0.272600	0.782000
N191	N19	0.063300	0.899400	0.828500
N201	N20	0.152000	0.686100	0.421000
C371	C37	0.013100	0.927700	0.893600
C381	C38	0.980000	0.861500	0.945700
C391	C39	0.179700	0.735200	0.355800
C401	C40	0.112400	0.769300	0.302700
H911	H91	0.205900	0.468900	0.868000
H921	H92	0.150600	0.395000	0.866100
H931	H93	0.072100	0.453400	0.961400
H941	H94	0.171300	0.585600	0.949400
H951	H95	0.166800	0.531100	0.023700
H961	H96	0.646700	0.600200	0.381500
H971	H97	0.720300	0.544500	0.379500
H981	H98	0.823900	0.713400	0.204300
H991	H99	0.922900	0.697100	0.335000
H1001	H100	0.919600	0.772600	0.282000
N211	N21	0.063300	0.100600	0.671500
N221	N22	0.152000	0.313900	0.079000
C411	C41	0.013100	0.072300	0.606400
C421	C42	0.980000	0.138500	0.554300
C431	C43	0.179700	0.264800	0.144200
C441	C44	0.112400	0.230700	0.197300
H1011	H101	0.205900	0.531100	0.632000
H1021	H102	0.150600	0.605000	0.633900
H1031	H103	0.072100	0.546600	0.538600
H1041	H104	0.171300	0.414400	0.550600
H1051	H105	0.166800	0.468900	0.476300
H1061	H106	0.646700	0.399800	0.118500
H1071	H107	0.720300	0.455500	0.120500
H1081	H108	0.823900	0.286600	0.295700
H1091	H109	0.922900	0.302900	0.165000
H1101	H110	0.919600	0.227400	0.218000
N231	N23	0.563300	0.600600	0.171500
N241	N24	0.652000	0.813900	0.579000
C451	C45	0.513100	0.572300	0.106400
C461	C46	0.480000	0.638500	0.054300
C471	C47	0.679700	0.764800	0.644200
C481	C48	0.612400	0.730700	0.697300
H1111	H111	0.705900	0.031100	0.132000
H1121	H112	0.650600	0.105000	0.133900
H1131	H113	0.572100	0.046600	0.038600
H1141	H114	0.671300	0.914400	0.050600
H1151	H115	0.666800	0.968900	0.976300
H1161	H116	0.146700	0.899800	0.618500
H1171	H117	0.220300	0.955500	0.620500
H1181	H118	0.323900	0.786600	0.795700
H1191	H119	0.422900	0.802900	0.665000
H1201	H120	0.419600	0.727400	0.718000
N251	N25	0.936700	0.600600	0.828500
N261	N26	0.848000	0.813900	0.421000
C491	C49	0.986900	0.572300	0.893600
C501	C50	0.020000	0.638500	0.945700
C511	C51	0.820300	0.764800	0.355800
C521	C52	0.887600	0.730700	0.302700
H1211	H121	0.794100	0.031100	0.868000
H1221	H122	0.849400	0.105000	0.866100
H1231	H123	0.927900	0.046600	0.961400
H1241	H124	0.828700	0.914400	0.949400
H1251	H125	0.833200	0.968900	0.023700
H1261	H126	0.353300	0.899800	0.381500
H1271	H127	0.279700	0.955500	0.379500
H1281	H128	0.176100	0.786600	0.204300
H1291	H129	0.077100	0.802900	0.335000
H1301	H130	0.080400	0.727400	0.282000
N271	N27	0.436700	0.100600	0.328500
N281	N28	0.348000	0.313900	0.921000
C531	C53	0.486900	0.072300	0.393600
C541	C54	0.520000	0.138500	0.445700
C551	C55	0.320300	0.264800	0.855800
C561	C56	0.387600	0.230700	0.802700
H1311	H131	0.294100	0.531100	0.368000
H1321	H132	0.349400	0.605000	0.366100
H1331	H133	0.427900	0.546600	0.461400
H1341	H134	0.328700	0.414400	0.449400
H1351	H135	0.333200	0.468900	0.523700
H1361	H136	0.853300	0.399800	0.881500
H1371	H137	0.779700	0.455500	0.879500
H1381	H138	0.676100	0.286600	0.704300
H1391	H139	0.577100	0.302900	0.835000
H1401	H140	0.580400	0.227400	0.782000
N291	N29	0.436700	0.899400	0.171500
N301	N30	0.348000	0.686100	0.579000
C571	C57	0.486900	0.927700	0.106400
C581	C58	0.520000	0.861500	0.054300
C591	C59	0.320300	0.735200	0.644200
C601	C60	0.387600	0.769300	0.697300
H1411	H141	0.294100	0.468900	0.132000
H1421	H142	0.349400	0.395000	0.133900
H1431	H143	0.427900	0.453400	0.038600
H1441	H144	0.328700	0.585600	0.050600
H1451	H145	0.333200	0.531100	0.976300
H1461	H146	0.853300	0.600200	0.618500
H1471	H147	0.779700	0.544500	0.620500
H1481	H148	0.676100	0.713400	0.795700
H1491	H149	0.577100	0.697100	0.665000
H1501	H150	0.580400	0.772600	0.718000
N311	N31	0.936700	0.399400	0.671500
N321	N32	0.848000	0.186100	0.079000
C611	C61	0.986900	0.427700	0.606400
C621	C62	0.020000	0.361500	0.554300
C631	C63	0.820300	0.235200	0.144200
C641	C64	0.887600	0.269300	0.197300
H1511	H151	0.794100	0.968900	0.632000
H1521	H152	0.849400	0.895000	0.633900
H1531	H153	0.927900	0.953400	0.538600
H1541	H154	0.828700	0.085600	0.550600
H1551	H155	0.833200	0.031100	0.476300
H1561	H156	0.353300	0.100200	0.118500
H1571	H157	0.279700	0.044500	0.120500
H1581	H158	0.176100	0.213400	0.295700
H1591	H159	0.077100	0.197100	0.165000
H1601	H160	0.080400	0.272600	0.218000
N331	N33	0.328500	0.563300	0.399400
N341	N34	0.921000	0.652000	0.186100
C651	C65	0.393600	0.513100	0.427700
C661	C66	0.445700	0.480000	0.361500
C671	C67	0.855800	0.679700	0.235200
C681	C68	0.802700	0.612400	0.269300
H1611	H161	0.368000	0.705900	0.968900
H1621	H162	0.366100	0.650600	0.895000
H1631	H163	0.461400	0.572100	0.953400
H1641	H164	0.449400	0.671300	0.085600
H1651	H165	0.523700	0.666800	0.031100
H1661	H166	0.881500	0.146700	0.100200
H1671	H167	0.879500	0.220300	0.044500
H1681	H168	0.704300	0.323900	0.213400
H1691	H169	0.835000	0.422900	0.197100
H1701	H170	0.782000	0.419600	0.272600
N351	N35	0.828500	0.063300	0.899400
N361	N36	0.421000	0.152000	0.686100
C691	C69	0.893600	0.013100	0.927700
C701	C70	0.945700	0.980000	0.861500
C711	C71	0.355800	0.179700	0.735200
C721	C72	0.302700	0.112400	0.769300
H1711	H171	0.868000	0.205900	0.468900
H1721	H172	0.866100	0.150600	0.395000
H1731	H173	0.961400	0.072100	0.453400
H1741	H174	0.949400	0.171300	0.585600
H1751	H175	0.023700	0.166800	0.531100
H1761	H176	0.381500	0.646700	0.600200
H1771	H177	0.379500	0.720300	0.544500
H1781	H178	0.204300	0.823900	0.713400
H1791	H179	0.335000	0.922900	0.697100
H1801	H180	0.282000	0.919600	0.772600
N371	N37	0.671500	0.063300	0.100600
N381	N38	0.079000	0.152000	0.313900
C731	C73	0.606400	0.013100	0.072300
C741	C74	0.554300	0.980000	0.138500
C751	C75	0.144200	0.179700	0.264800
C761	C76	0.197300	0.112400	0.230700
H1811	H181	0.632000	0.205900	0.531100
H1821	H182	0.633900	0.150600	0.605000
H1831	H183	0.538600	0.072100	0.546600
H1841	H184	0.550600	0.171300	0.414400
H1851	H185	0.476300	0.166800	0.468900
H1861	H186	0.118500	0.646700	0.399800
H1871	H187	0.120500	0.720300	0.455500
H1881	H188	0.295700	0.823900	0.286600
H1891	H189	0.165000	0.922900	0.302900
H1901	H190	0.218000	0.919600	0.227400
N391	N39	0.171500	0.563300	0.600600
N401	N40	0.579000	0.652000	0.813900
C771	C77	0.106400	0.513100	0.572300
C781	C78	0.054300	0.480000	0.638500
C791	C79	0.644200	0.679700	0.764800
C801	C80	0.697300	0.612400	0.730700
H1911	H191	0.132000	0.705900	0.031100
H1921	H192	0.133900	0.650600	0.105000
H1931	H193	0.038600	0.572100	0.046600
H1941	H194	0.050600	0.671300	0.914400
H1951	H195	0.976300	0.666800	0.968900
H1961	H196	0.618500	0.146700	0.899800
H1971	H197	0.620500	0.220300	0.955500
H1981	H198	0.795700	0.323900	0.786600
H1991	H199	0.665000	0.422900	0.802900
H2001	H200	0.718000	0.419600	0.727400
N411	N41	0.828500	0.936700	0.600600
N421	N42	0.421000	0.848000	0.813900
C811	C81	0.893600	0.986900	0.572300
C821	C82	0.945700	0.020000	0.638500
C831	C83	0.355800	0.820300	0.764800
C841	C84	0.302700	0.887600	0.730700
H2011	H201	0.868000	0.794100	0.031100
H2021	H202	0.866100	0.849400	0.105000
H2031	H203	0.961400	0.927900	0.046600
H2041	H204	0.949400	0.828700	0.914400
H2051	H205	0.023700	0.833200	0.968900
H2061	H206	0.381500	0.353300	0.899800
H2071	H207	0.379500	0.279700	0.955500
H2081	H208	0.204300	0.176100	0.786600
H2091	H209	0.335000	0.077100	0.802900
H2101	H210	0.282000	0.080400	0.727400
N431	N43	0.328500	0.436700	0.100600
N441	N44	0.921000	0.348000	0.313900
C851	C85	0.393600	0.486900	0.072300
C861	C86	0.445700	0.520000	0.138500
C871	C87	0.855800	0.320300	0.264800
C881	C88	0.802700	0.387600	0.230700
H2111	H211	0.368000	0.294100	0.531100
H2121	H212	0.366100	0.349400	0.605000
H2131	H213	0.461400	0.427900	0.546600
H2141	H214	0.449400	0.328700	0.414400
H2151	H215	0.523700	0.333200	0.468900
H2161	H216	0.881500	0.853300	0.399800
H2171	H217	0.879500	0.779700	0.455500
H2181	H218	0.704300	0.676100	0.286600
H2191	H219	0.835000	0.577100	0.302900
H2201	H220	0.782000	0.580400	0.227400
N451	N45	0.171500	0.436700	0.899400
N461	N46	0.579000	0.348000	0.686100
C891	C89	0.106400	0.486900	0.927700
C901	C90	0.054300	0.520000	0.861500
C911	C91	0.644200	0.320300	0.735200
C921	C92	0.697300	0.387600	0.769300
H2211	H221	0.132000	0.294100	0.468900
H2221	H222	0.133900	0.349400	0.395000
H2231	H223	0.038600	0.427900	0.453400
H2241	H224	0.050600	0.328700	0.585600
H2251	H225	0.976300	0.333200	0.531100
H2261	H226	0.618500	0.853300	0.600200
H2271	H227	0.620500	0.779700	0.544500
H2281	H228	0.795700	0.676100	0.713400
H2291	H229	0.665000	0.577100	0.697100
H2301	H230	0.718000	0.580400	0.772600
N471	N47	0.671500	0.936700	0.399400
N481	N48	0.079000	0.848000	0.186100
C931	C93	0.606400	0.986900	0.427700
C941	C94	0.554300	0.020000	0.361500
C951	C95	0.144200	0.820300	0.235200
C961	C96	0.197300	0.887600	0.269300
H2311	H231	0.632000	0.794100	0.968900
H2321	H232	0.633900	0.849400	0.895000
H2331	H233	0.538600	0.927900	0.953400
H2341	H234	0.550600	0.828700	0.085600
H2351	H235	0.476300	0.833200	0.031100
H2361	H236	0.118500	0.353300	0.100200
H2371	H237	0.120500	0.279700	0.044500
H2381	H238	0.295700	0.176100	0.213400
H2391	H239	0.165000	0.077100	0.197100
H2401	H240	0.218000	0.080400	0.272600
Ag11	Ag1	0.250000	0.624900	0.500000
Ag21	Ag2	0.250000	0.375100	0.000000
Ag31	Ag3	0.750000	0.875100	0.500000
Ag41	Ag4	0.750000	0.124900	0.000000
Ag51	Ag5	0.500000	0.250000	0.624900
Ag61	Ag6	0.000000	0.250000	0.375100
Ag71	Ag7	0.500000	0.750000	0.875100
Ag81	Ag8	0.000000	0.750000	0.124900
Ag91	Ag9	0.624900	0.500000	0.250000
Ag101	Ag10	0.375100	0.000000	0.250000
Ag111	Ag11	0.875100	0.500000	0.750000
Ag121	Ag12	0.124900	0.000000	0.750000
