data_IKOSOQ_freeONLY_PM
_symmetry_space_group_name_H-M	'P1'
_cell_length_a	15.778000
_cell_length_b	19.446000
_cell_length_c	25.677000
_cell_angle_alpha	90.000000
_cell_angle_beta	90.000000
_cell_angle_gamma	90.000000
_symmetry_Int_Tables_number 1

loop_
_symmetry_equiv_pos_as_xyz
'x,y,z'

loop_
_atom_site_label
_atom_site_type_symbol
_atom_site_fract_x
_atom_site_fract_y
_atom_site_fract_z
Cu11	Cu1	0.490640	0.755970	0.996370
Cu21	Cu2	0.990640	0.744030	0.503630
Cu31	Cu3	0.009360	0.244030	0.996370
Cu41	Cu4	0.509360	0.255970	0.503630
H11	H1	0.817400	0.904500	0.247600
H21	H2	0.842300	0.967000	0.201000
H31	H3	0.754900	0.894400	0.036000
H41	H4	0.655700	0.828000	0.982700
H51	H5	0.497500	0.796300	0.110900
H61	H6	0.596400	0.856300	0.168000
H71	H7	0.792900	0.077800	0.311300
H81	H8	0.870700	0.050500	0.267100
H91	H9	0.812000	0.900700	0.392900
H101	H10	0.842200	0.810600	0.456000
H111	H11	0.101100	0.846000	0.445000
H121	H12	0.078100	0.939200	0.384700
H131	H13	0.641800	0.068100	0.773400
H141	H14	0.717200	0.073200	0.823400
H151	H15	0.476600	0.008000	0.941700
H161	H16	0.438000	0.908000	0.995400
H171	H17	0.552700	0.774500	0.889700
H181	H18	0.597800	0.870900	0.836000
H191	H19	0.650500	0.971600	0.709900
H201	H20	0.677800	0.907300	0.754800
H211	H21	0.898600	0.908300	0.648300
H221	H22	0.994300	0.864600	0.582400
H231	H23	0.815000	0.723100	0.534800
H241	H24	0.716800	0.759500	0.602200
H251	H25	0.317400	0.595500	0.252400
H261	H26	0.342300	0.533000	0.299000
H271	H27	0.254900	0.605600	0.464000
H281	H28	0.155700	0.672000	0.517300
H291	H29	0.997500	0.703700	0.389100
H301	H30	0.096400	0.643700	0.332000
H311	H31	0.292900	0.422200	0.188700
H321	H32	0.370700	0.449500	0.232900
H331	H33	0.312000	0.599300	0.107100
H341	H34	0.342200	0.689400	0.044000
H351	H35	0.601100	0.654000	0.055000
H361	H36	0.578100	0.560800	0.115300
H371	H37	0.141800	0.431900	0.726600
H381	H38	0.217200	0.426800	0.676600
H391	H39	0.976600	0.492000	0.558300
H401	H40	0.938000	0.592000	0.504600
H411	H41	0.052700	0.725500	0.610300
H421	H42	0.097800	0.629100	0.664000
H431	H43	0.150500	0.528400	0.790100
H441	H44	0.177800	0.592700	0.745200
H451	H45	0.398600	0.591700	0.851700
H461	H46	0.494300	0.635400	0.917600
H471	H47	0.315000	0.776900	0.965200
H481	H48	0.216800	0.740500	0.897800
H491	H49	0.682600	0.095500	0.247600
H501	H50	0.657700	0.033000	0.201000
H511	H51	0.745100	0.105600	0.036000
H521	H52	0.844300	0.172000	0.982700
H531	H53	0.002500	0.203700	0.110900
H541	H54	0.903600	0.143700	0.168000
H551	H55	0.707100	0.922200	0.311300
H561	H56	0.629300	0.949500	0.267100
H571	H57	0.688000	0.099300	0.392900
H581	H58	0.657800	0.189400	0.456000
H591	H59	0.398900	0.154000	0.445000
H601	H60	0.421900	0.060800	0.384700
H611	H61	0.858200	0.931900	0.773400
H621	H62	0.782800	0.926800	0.823400
H631	H63	0.023400	0.992000	0.941700
H641	H64	0.062000	0.092000	0.995400
H651	H65	0.947300	0.225500	0.889700
H661	H66	0.902200	0.129100	0.836000
H671	H67	0.849500	0.028400	0.709900
H681	H68	0.822200	0.092700	0.754800
H691	H69	0.601400	0.091700	0.648300
H701	H70	0.505700	0.135400	0.582400
H711	H71	0.685000	0.276900	0.534800
H721	H72	0.783200	0.240500	0.602200
H731	H73	0.182600	0.404500	0.252400
H741	H74	0.157700	0.467000	0.299000
H751	H75	0.245100	0.394400	0.464000
H761	H76	0.344300	0.328000	0.517300
H771	H77	0.502500	0.296300	0.389100
H781	H78	0.403600	0.356300	0.332000
H791	H79	0.207100	0.577800	0.188700
H801	H80	0.129300	0.550500	0.232900
H811	H81	0.188000	0.400700	0.107100
H821	H82	0.157800	0.310600	0.044000
H831	H83	0.898900	0.346000	0.055000
H841	H84	0.921900	0.439200	0.115300
H851	H85	0.358200	0.568100	0.726600
H861	H86	0.282800	0.573200	0.676600
H871	H87	0.523400	0.508000	0.558300
H881	H88	0.562000	0.408000	0.504600
H891	H89	0.447300	0.274500	0.610300
H901	H90	0.402200	0.370900	0.664000
H911	H91	0.349500	0.471600	0.790100
H921	H92	0.322200	0.407300	0.745200
H931	H93	0.101400	0.408300	0.851700
H941	H94	0.005700	0.364600	0.917600
H951	H95	0.185000	0.223100	0.965200
H961	H96	0.283200	0.259500	0.897800
C11	C1	0.791300	0.944700	0.223300
C21	C2	0.750300	0.911900	0.138200
C31	C3	0.683600	0.878000	0.107000
C41	C4	0.699500	0.871300	0.053400
C51	C5	0.643100	0.834800	0.023700
C61	C6	0.555600	0.816400	0.094800
C71	C7	0.610700	0.850800	0.127100
C81	C8	0.818500	0.033700	0.291100
C91	C9	0.927500	0.982300	0.343100
C101	C10	0.943200	0.926100	0.382100
C111	C11	0.876700	0.889400	0.403800
C121	C12	0.894100	0.839000	0.438900
C131	C13	0.037100	0.858400	0.433500
C141	C14	0.024600	0.910200	0.399100
C151	C15	0.685000	0.038600	0.797100
C161	C16	0.580400	0.006200	0.857000
C171	C17	0.546200	0.946900	0.886900
C181	C18	0.497100	0.957000	0.930800
C191	C19	0.474800	0.900700	0.960300
C201	C20	0.539000	0.826400	0.902000
C211	C21	0.563900	0.880300	0.871900
C221	C22	0.702700	0.947500	0.730100
C231	C23	0.734000	0.865900	0.666400
C241	C24	0.798700	0.839100	0.629000
C251	C25	0.878500	0.866700	0.623400
C261	C26	0.932300	0.841600	0.586400
C271	C27	0.833800	0.763700	0.561000
C281	C28	0.777200	0.785000	0.597800
C291	C29	0.291300	0.555300	0.276700
C301	C30	0.250300	0.588100	0.361800
C311	C31	0.183600	0.622000	0.393000
C321	C32	0.199500	0.628700	0.446600
C331	C33	0.143100	0.665200	0.476300
C341	C34	0.055600	0.683600	0.405200
C351	C35	0.110700	0.649200	0.372900
C361	C36	0.318500	0.466300	0.208900
C371	C37	0.427500	0.517700	0.156900
C381	C38	0.443200	0.573900	0.117900
C391	C39	0.376700	0.610600	0.096200
C401	C40	0.394100	0.661000	0.061100
C411	C41	0.537100	0.641600	0.066500
C421	C42	0.524600	0.589800	0.100900
C431	C43	0.185000	0.461400	0.702900
C441	C44	0.080400	0.493800	0.643000
C451	C45	0.046200	0.553100	0.613100
C461	C46	0.997100	0.543000	0.569200
C471	C47	0.974800	0.599300	0.539700
C481	C48	0.039000	0.673600	0.598000
C491	C49	0.063900	0.619700	0.628100
C501	C50	0.202700	0.552500	0.769900
C511	C51	0.234000	0.634100	0.833600
C521	C52	0.298700	0.660900	0.871000
C531	C53	0.378500	0.633300	0.876600
C541	C54	0.432300	0.658400	0.913600
C551	C55	0.333800	0.736300	0.939000
C561	C56	0.277200	0.715000	0.902200
C571	C57	0.708700	0.055300	0.223300
C581	C58	0.749700	0.088100	0.138200
C591	C59	0.816400	0.122000	0.107000
C601	C60	0.800500	0.128700	0.053400
C611	C61	0.856900	0.165200	0.023700
C621	C62	0.944400	0.183600	0.094800
C631	C63	0.889300	0.149200	0.127100
C641	C64	0.681500	0.966300	0.291100
C651	C65	0.572500	0.017700	0.343100
C661	C66	0.556800	0.073900	0.382100
C671	C67	0.623300	0.110600	0.403800
C681	C68	0.605900	0.161000	0.438900
C691	C69	0.462900	0.141600	0.433500
C701	C70	0.475400	0.089800	0.399100
C711	C71	0.815000	0.961400	0.797100
C721	C72	0.919600	0.993800	0.857000
C731	C73	0.953800	0.053100	0.886900
C741	C74	0.002900	0.043000	0.930800
C751	C75	0.025200	0.099300	0.960300
C761	C76	0.961000	0.173600	0.902000
C771	C77	0.936100	0.119700	0.871900
C781	C78	0.797300	0.052500	0.730100
C791	C79	0.766000	0.134100	0.666400
C801	C80	0.701300	0.160900	0.629000
C811	C81	0.621500	0.133300	0.623400
C821	C82	0.567700	0.158400	0.586400
C831	C83	0.666200	0.236300	0.561000
C841	C84	0.722800	0.215000	0.597800
C851	C85	0.208700	0.444700	0.276700
C861	C86	0.249700	0.411900	0.361800
C871	C87	0.316400	0.378000	0.393000
C881	C88	0.300500	0.371300	0.446600
C891	C89	0.356900	0.334800	0.476300
C901	C90	0.444400	0.316400	0.405200
C911	C91	0.389300	0.350800	0.372900
C921	C92	0.181500	0.533700	0.208900
C931	C93	0.072500	0.482300	0.156900
C941	C94	0.056800	0.426100	0.117900
C951	C95	0.123300	0.389400	0.096200
C961	C96	0.105900	0.339000	0.061100
C971	C97	0.962900	0.358400	0.066500
C981	C98	0.975400	0.410200	0.100900
C991	C99	0.315000	0.538600	0.702900
C1001	C100	0.419600	0.506200	0.643000
C1011	C101	0.453800	0.446900	0.613100
C1021	C102	0.502900	0.457000	0.569200
C1031	C103	0.525200	0.400700	0.539700
C1041	C104	0.461000	0.326400	0.598000
C1051	C105	0.436100	0.380300	0.628100
C1061	C106	0.297300	0.447500	0.769900
C1071	C107	0.266000	0.365900	0.833600
C1081	C108	0.201300	0.339100	0.871000
C1091	C109	0.121500	0.366700	0.876600
C1101	C110	0.067700	0.341600	0.913600
C1111	C111	0.166200	0.263700	0.939000
C1121	C112	0.222800	0.285000	0.902200
C1131	C113	0.750000	0.000000	0.257600
C1141	C114	0.750000	0.000000	0.762400
C1151	C115	0.250000	0.500000	0.242400
C1161	C116	0.250000	0.500000	0.737600
N11	N1	0.571200	0.806900	0.044600
N21	N2	0.975000	0.823200	0.453200
N31	N3	0.498100	0.837100	0.946400
N41	N4	0.911500	0.790600	0.555700
N51	N5	0.071200	0.693100	0.455400
N61	N6	0.475000	0.676800	0.046800
N71	N7	0.998100	0.662900	0.553600
N81	N8	0.411500	0.709400	0.944300
N91	N9	0.928800	0.193100	0.044600
N101	N10	0.525000	0.176800	0.453200
N111	N11	0.001900	0.162900	0.946400
N121	N12	0.588500	0.209400	0.555700
N131	N13	0.428800	0.306900	0.455400
N141	N14	0.025000	0.323200	0.046800
N151	N15	0.501900	0.337100	0.553600
N161	N16	0.088500	0.290600	0.944300
O11	O1	0.728600	0.916200	0.188800
O21	O2	0.815500	0.932700	0.122200
O31	O3	0.847000	0.982700	0.328100
O41	O4	0.981400	0.018900	0.326600
O51	O5	0.640000	0.987000	0.825700
O61	O6	0.558900	0.063900	0.863300
O71	O7	0.762400	0.919200	0.693100
O81	O8	0.665400	0.839700	0.670600
O91	O9	0.228600	0.583800	0.311200
O101	O10	0.315500	0.567300	0.377800
O111	O11	0.347000	0.517300	0.171900
O121	O12	0.481400	0.481100	0.173400
O131	O13	0.140000	0.513000	0.674300
O141	O14	0.058900	0.436100	0.636700
O151	O15	0.262400	0.580800	0.806900
O161	O16	0.165400	0.660300	0.829400
O171	O17	0.771400	0.083800	0.188800
O181	O18	0.684500	0.067300	0.122200
O191	O19	0.653000	0.017300	0.328100
O201	O20	0.518600	0.981100	0.326600
O211	O21	0.860000	0.013000	0.825700
O221	O22	0.941100	0.936100	0.863300
O231	O23	0.737600	0.080800	0.693100
O241	O24	0.834600	0.160300	0.670600
O251	O25	0.271400	0.416200	0.311200
O261	O26	0.184500	0.432700	0.377800
O271	O27	0.153000	0.482700	0.171900
O281	O28	0.018600	0.518900	0.173400
O291	O29	0.360000	0.487000	0.674300
O301	O30	0.441100	0.563900	0.636700
O311	O31	0.237600	0.419200	0.806900
O321	O32	0.334600	0.339700	0.829400
Cu51	Cu5	0.509360	0.244030	0.003630
Cu61	Cu6	0.009360	0.255970	0.496370
Cu71	Cu7	0.990640	0.755970	0.003630
Cu81	Cu8	0.490640	0.744030	0.496370
H971	H97	0.182600	0.095500	0.752400
H981	H98	0.157700	0.033000	0.799000
H991	H99	0.245100	0.105600	0.964000
H1001	H100	0.344300	0.172000	0.017300
H1011	H101	0.502500	0.203700	0.889100
H1021	H102	0.403600	0.143700	0.832000
H1031	H103	0.207100	0.922200	0.688700
H1041	H104	0.129300	0.949500	0.732900
H1051	H105	0.188000	0.099300	0.607100
H1061	H106	0.157800	0.189400	0.544000
H1071	H107	0.898900	0.154000	0.555000
H1081	H108	0.921900	0.060800	0.615300
H1091	H109	0.358200	0.931900	0.226600
H1101	H110	0.282800	0.926800	0.176600
H1111	H111	0.523400	0.992000	0.058300
H1121	H112	0.562000	0.092000	0.004600
H1131	H113	0.447300	0.225500	0.110300
H1141	H114	0.402200	0.129100	0.164000
H1151	H115	0.349500	0.028400	0.290100
H1161	H116	0.322200	0.092700	0.245200
H1171	H117	0.101400	0.091700	0.351700
H1181	H118	0.005700	0.135400	0.417600
H1191	H119	0.185000	0.276900	0.465200
H1201	H120	0.283200	0.240500	0.397800
H1211	H121	0.682600	0.404500	0.747600
H1221	H122	0.657700	0.467000	0.701000
H1231	H123	0.745100	0.394400	0.536000
H1241	H124	0.844300	0.328000	0.482700
H1251	H125	0.002500	0.296300	0.610900
H1261	H126	0.903600	0.356300	0.668000
H1271	H127	0.707100	0.577800	0.811300
H1281	H128	0.629300	0.550500	0.767100
H1291	H129	0.688000	0.400700	0.892900
H1301	H130	0.657800	0.310600	0.956000
H1311	H131	0.398900	0.346000	0.945000
H1321	H132	0.421900	0.439200	0.884700
H1331	H133	0.858200	0.568100	0.273400
H1341	H134	0.782800	0.573200	0.323400
H1351	H135	0.023400	0.508000	0.441700
H1361	H136	0.062000	0.408000	0.495400
H1371	H137	0.947300	0.274500	0.389700
H1381	H138	0.902200	0.370900	0.336000
H1391	H139	0.849500	0.471600	0.209900
H1401	H140	0.822200	0.407300	0.254800
H1411	H141	0.601400	0.408300	0.148300
H1421	H142	0.505700	0.364600	0.082400
H1431	H143	0.685000	0.223100	0.034800
H1441	H144	0.783200	0.259500	0.102200
H1451	H145	0.317400	0.904500	0.752400
H1461	H146	0.342300	0.967000	0.799000
H1471	H147	0.254900	0.894400	0.964000
H1481	H148	0.155700	0.828000	0.017300
H1491	H149	0.997500	0.796300	0.889100
H1501	H150	0.096400	0.856300	0.832000
H1511	H151	0.292900	0.077800	0.688700
H1521	H152	0.370700	0.050500	0.732900
H1531	H153	0.312000	0.900700	0.607100
H1541	H154	0.342200	0.810600	0.544000
H1551	H155	0.601100	0.846000	0.555000
H1561	H156	0.578100	0.939200	0.615300
H1571	H157	0.141800	0.068100	0.226600
H1581	H158	0.217200	0.073200	0.176600
H1591	H159	0.976600	0.008000	0.058300
H1601	H160	0.938000	0.908000	0.004600
H1611	H161	0.052700	0.774500	0.110300
H1621	H162	0.097800	0.870900	0.164000
H1631	H163	0.150500	0.971600	0.290100
H1641	H164	0.177800	0.907300	0.245200
H1651	H165	0.398600	0.908300	0.351700
H1661	H166	0.494300	0.864600	0.417600
H1671	H167	0.315000	0.723100	0.465200
H1681	H168	0.216800	0.759500	0.397800
H1691	H169	0.817400	0.595500	0.747600
H1701	H170	0.842300	0.533000	0.701000
H1711	H171	0.754900	0.605600	0.536000
H1721	H172	0.655700	0.672000	0.482700
H1731	H173	0.497500	0.703700	0.610900
H1741	H174	0.596400	0.643700	0.668000
H1751	H175	0.792900	0.422200	0.811300
H1761	H176	0.870700	0.449500	0.767100
H1771	H177	0.812000	0.599300	0.892900
H1781	H178	0.842200	0.689400	0.956000
H1791	H179	0.101100	0.654000	0.945000
H1801	H180	0.078100	0.560800	0.884700
H1811	H181	0.641800	0.431900	0.273400
H1821	H182	0.717200	0.426800	0.323400
H1831	H183	0.476600	0.492000	0.441700
H1841	H184	0.438000	0.592000	0.495400
H1851	H185	0.552700	0.725500	0.389700
H1861	H186	0.597800	0.629100	0.336000
H1871	H187	0.650500	0.528400	0.209900
H1881	H188	0.677800	0.592700	0.254800
H1891	H189	0.898600	0.591700	0.148300
H1901	H190	0.994300	0.635400	0.082400
H1911	H191	0.815000	0.776900	0.034800
H1921	H192	0.716800	0.740500	0.102200
C1171	C117	0.208700	0.055300	0.776700
C1181	C118	0.249700	0.088100	0.861800
C1191	C119	0.316400	0.122000	0.893000
C1201	C120	0.300500	0.128700	0.946600
C1211	C121	0.356900	0.165200	0.976300
C1221	C122	0.444400	0.183600	0.905200
C1231	C123	0.389300	0.149200	0.872900
C1241	C124	0.181500	0.966300	0.708900
C1251	C125	0.072500	0.017700	0.656900
C1261	C126	0.056800	0.073900	0.617900
C1271	C127	0.123300	0.110600	0.596200
C1281	C128	0.105900	0.161000	0.561100
C1291	C129	0.962900	0.141600	0.566500
C1301	C130	0.975400	0.089800	0.600900
C1311	C131	0.315000	0.961400	0.202900
C1321	C132	0.419600	0.993800	0.143000
C1331	C133	0.453800	0.053100	0.113100
C1341	C134	0.502900	0.043000	0.069200
C1351	C135	0.525200	0.099300	0.039700
C1361	C136	0.461000	0.173600	0.098000
C1371	C137	0.436100	0.119700	0.128100
C1381	C138	0.297300	0.052500	0.269900
C1391	C139	0.266000	0.134100	0.333600
C1401	C140	0.201300	0.160900	0.371000
C1411	C141	0.121500	0.133300	0.376600
C1421	C142	0.067700	0.158400	0.413600
C1431	C143	0.166200	0.236300	0.439000
C1441	C144	0.222800	0.215000	0.402200
C1451	C145	0.708700	0.444700	0.723300
C1461	C146	0.749700	0.411900	0.638200
C1471	C147	0.816400	0.378000	0.607000
C1481	C148	0.800500	0.371300	0.553400
C1491	C149	0.856900	0.334800	0.523700
C1501	C150	0.944400	0.316400	0.594800
C1511	C151	0.889300	0.350800	0.627100
C1521	C152	0.681500	0.533700	0.791100
C1531	C153	0.572500	0.482300	0.843100
C1541	C154	0.556800	0.426100	0.882100
C1551	C155	0.623300	0.389400	0.903800
C1561	C156	0.605900	0.339000	0.938900
C1571	C157	0.462900	0.358400	0.933500
C1581	C158	0.475400	0.410200	0.899100
C1591	C159	0.815000	0.538600	0.297100
C1601	C160	0.919600	0.506200	0.357000
C1611	C161	0.953800	0.446900	0.386900
C1621	C162	0.002900	0.457000	0.430800
C1631	C163	0.025200	0.400700	0.460300
C1641	C164	0.961000	0.326400	0.402000
C1651	C165	0.936100	0.380300	0.371900
C1661	C166	0.797300	0.447500	0.230100
C1671	C167	0.766000	0.365900	0.166400
C1681	C168	0.701300	0.339100	0.129000
C1691	C169	0.621500	0.366700	0.123400
C1701	C170	0.567700	0.341600	0.086400
C1711	C171	0.666200	0.263700	0.061000
C1721	C172	0.722800	0.285000	0.097800
C1731	C173	0.291300	0.944700	0.776700
C1741	C174	0.250300	0.911900	0.861800
C1751	C175	0.183600	0.878000	0.893000
C1761	C176	0.199500	0.871300	0.946600
C1771	C177	0.143100	0.834800	0.976300
C1781	C178	0.055600	0.816400	0.905200
C1791	C179	0.110700	0.850800	0.872900
C1801	C180	0.318500	0.033700	0.708900
C1811	C181	0.427500	0.982300	0.656900
C1821	C182	0.443200	0.926100	0.617900
C1831	C183	0.376700	0.889400	0.596200
C1841	C184	0.394100	0.839000	0.561100
C1851	C185	0.537100	0.858400	0.566500
C1861	C186	0.524600	0.910200	0.600900
C1871	C187	0.185000	0.038600	0.202900
C1881	C188	0.080400	0.006200	0.143000
C1891	C189	0.046200	0.946900	0.113100
C1901	C190	0.997100	0.957000	0.069200
C1911	C191	0.974800	0.900700	0.039700
C1921	C192	0.039000	0.826400	0.098000
C1931	C193	0.063900	0.880300	0.128100
C1941	C194	0.202700	0.947500	0.269900
C1951	C195	0.234000	0.865900	0.333600
C1961	C196	0.298700	0.839100	0.371000
C1971	C197	0.378500	0.866700	0.376600
C1981	C198	0.432300	0.841600	0.413600
C1991	C199	0.333800	0.763700	0.439000
C2001	C200	0.277200	0.785000	0.402200
C2011	C201	0.791300	0.555300	0.723300
C2021	C202	0.750300	0.588100	0.638200
C2031	C203	0.683600	0.622000	0.607000
C2041	C204	0.699500	0.628700	0.553400
C2051	C205	0.643100	0.665200	0.523700
C2061	C206	0.555600	0.683600	0.594800
C2071	C207	0.610700	0.649200	0.627100
C2081	C208	0.818500	0.466300	0.791100
C2091	C209	0.927500	0.517700	0.843100
C2101	C210	0.943200	0.573900	0.882100
C2111	C211	0.876700	0.610600	0.903800
C2121	C212	0.894100	0.661000	0.938900
C2131	C213	0.037100	0.641600	0.933500
C2141	C214	0.024600	0.589800	0.899100
C2151	C215	0.685000	0.461400	0.297100
C2161	C216	0.580400	0.493800	0.357000
C2171	C217	0.546200	0.553100	0.386900
C2181	C218	0.497100	0.543000	0.430800
C2191	C219	0.474800	0.599300	0.460300
C2201	C220	0.539000	0.673600	0.402000
C2211	C221	0.563900	0.619700	0.371900
C2221	C222	0.702700	0.552500	0.230100
C2231	C223	0.734000	0.634100	0.166400
C2241	C224	0.798700	0.660900	0.129000
C2251	C225	0.878500	0.633300	0.123400
C2261	C226	0.932300	0.658400	0.086400
C2271	C227	0.833800	0.736300	0.061000
C2281	C228	0.777200	0.715000	0.097800
C2291	C229	0.250000	0.000000	0.742400
C2301	C230	0.250000	0.000000	0.237600
C2311	C231	0.750000	0.500000	0.757600
C2321	C232	0.750000	0.500000	0.262400
N171	N17	0.428800	0.193100	0.955400
N181	N18	0.025000	0.176800	0.546800
N191	N19	0.501900	0.162900	0.053600
N201	N20	0.088500	0.209400	0.444300
N211	N21	0.928800	0.306900	0.544600
N221	N22	0.525000	0.323200	0.953200
N231	N23	0.001900	0.337100	0.446400
N241	N24	0.588500	0.290600	0.055700
N251	N25	0.071200	0.806900	0.955400
N261	N26	0.475000	0.823200	0.546800
N271	N27	0.998100	0.837100	0.053600
N281	N28	0.411500	0.790600	0.444300
N291	N29	0.571200	0.693100	0.544600
N301	N30	0.975000	0.676800	0.953200
N311	N31	0.498100	0.662900	0.446400
N321	N32	0.911500	0.709400	0.055700
O331	O33	0.271400	0.083800	0.811200
O341	O34	0.184500	0.067300	0.877800
O351	O35	0.153000	0.017300	0.671900
O361	O36	0.018600	0.981100	0.673400
O371	O37	0.360000	0.013000	0.174300
O381	O38	0.441100	0.936100	0.136700
O391	O39	0.237600	0.080800	0.306900
O401	O40	0.334600	0.160300	0.329400
O411	O41	0.771400	0.416200	0.688800
O421	O42	0.684500	0.432700	0.622200
O431	O43	0.653000	0.482700	0.828100
O441	O44	0.518600	0.518900	0.826600
O451	O45	0.860000	0.487000	0.325700
O461	O46	0.941100	0.563900	0.363300
O471	O47	0.737600	0.419200	0.193100
O481	O48	0.834600	0.339700	0.170600
O491	O49	0.228600	0.916200	0.811200
O501	O50	0.315500	0.932700	0.877800
O511	O51	0.347000	0.982700	0.671900
O521	O52	0.481400	0.018900	0.673400
O531	O53	0.140000	0.987000	0.174300
O541	O54	0.058900	0.063900	0.136700
O551	O55	0.262400	0.919200	0.306900
O561	O56	0.165400	0.839700	0.329400
O571	O57	0.728600	0.583800	0.688800
O581	O58	0.815500	0.567300	0.622200
O591	O59	0.847000	0.517300	0.828100
O601	O60	0.981400	0.481100	0.826600
O611	O61	0.640000	0.513000	0.325700
O621	O62	0.558900	0.436100	0.363300
O631	O63	0.762400	0.580800	0.193100
O641	O64	0.665400	0.660300	0.170600
