data_IKOSUW_charged_PM
_symmetry_space_group_name_H-M	'P1'
_cell_length_a	10.815000
_cell_length_b	16.413000
_cell_length_c	22.786100
_cell_angle_alpha	90.000000
_cell_angle_beta	90.000000
_cell_angle_gamma	90.000000
_symmetry_Int_Tables_number 1

loop_
_symmetry_equiv_pos_as_xyz
'x,y,z'

loop_
_atom_site_label
_atom_site_type_symbol
_atom_site_fract_x
_atom_site_fract_y
_atom_site_fract_z
Cu11	Cu1	0.500000	0.975760	0.250000
Cu21	Cu2	0.500000	0.524240	0.750000
Cu31	Cu3	0.500000	0.024240	0.750000
Cu41	Cu4	0.500000	0.475760	0.250000
H11	H1	0.835900	0.341800	0.016500
H21	H2	0.952100	0.337700	0.070300
H31	H3	0.767800	0.227900	0.243500
H41	H4	0.658200	0.114100	0.289200
H51	H5	0.563300	0.022000	0.124800
H61	H6	0.678800	0.130100	0.075400
H71	H7	0.118400	0.341700	0.993800
H81	H8	0.999500	0.352700	0.941900
H91	H9	0.466700	0.278400	0.873700
H101	H10	0.569800	0.174400	0.816100
H111	H11	0.234200	0.060200	0.781100
H121	H12	0.122200	0.158500	0.841900
H131	H13	0.164100	0.341800	0.483500
H141	H14	0.047900	0.337700	0.429700
H151	H15	0.232200	0.227900	0.256500
H161	H16	0.341800	0.114100	0.210800
H171	H17	0.436700	0.022000	0.375200
H181	H18	0.321200	0.130100	0.424600
H191	H19	0.881600	0.341700	0.506200
H201	H20	0.000500	0.352700	0.558100
H211	H21	0.533300	0.278400	0.626300
H221	H22	0.430200	0.174400	0.683900
H231	H23	0.765800	0.060200	0.718900
H241	H24	0.877800	0.158500	0.658100
H251	H25	0.835900	0.158200	0.983500
H261	H26	0.952100	0.162300	0.929700
H271	H27	0.767800	0.272100	0.756500
H281	H28	0.658200	0.385900	0.710800
H291	H29	0.563300	0.478000	0.875200
H301	H30	0.678800	0.369900	0.924600
H311	H31	0.118400	0.158300	0.006200
H321	H32	0.999500	0.147300	0.058100
H331	H33	0.466700	0.221600	0.126300
H341	H34	0.569800	0.325600	0.183900
H351	H35	0.234200	0.439800	0.218900
H361	H36	0.122200	0.341500	0.158100
H371	H37	0.164100	0.158200	0.516500
H381	H38	0.047900	0.162300	0.570300
H391	H39	0.232200	0.272100	0.743500
H401	H40	0.341800	0.385900	0.789200
H411	H41	0.436700	0.478000	0.624800
H421	H42	0.321200	0.369900	0.575400
H431	H43	0.881600	0.158300	0.493800
H441	H44	0.000500	0.147300	0.441900
H451	H45	0.533300	0.221600	0.373700
H461	H46	0.430200	0.325600	0.316100
H471	H47	0.765800	0.439800	0.281100
H481	H48	0.877800	0.341500	0.341900
H491	H49	0.164100	0.658200	0.983500
H501	H50	0.047900	0.662300	0.929700
H511	H51	0.232200	0.772100	0.756500
H521	H52	0.341800	0.885900	0.710800
H531	H53	0.436700	0.978000	0.875200
H541	H54	0.321200	0.869900	0.924600
H551	H55	0.881600	0.658300	0.006200
H561	H56	0.000500	0.647300	0.058100
H571	H57	0.533300	0.721600	0.126300
H581	H58	0.430200	0.825600	0.183900
H591	H59	0.765800	0.939800	0.218900
H601	H60	0.877800	0.841500	0.158100
H611	H61	0.835900	0.658200	0.516500
H621	H62	0.952100	0.662300	0.570300
H631	H63	0.767800	0.772100	0.743500
H641	H64	0.658200	0.885900	0.789200
H651	H65	0.563300	0.978000	0.624800
H661	H66	0.678800	0.869900	0.575400
H671	H67	0.118400	0.658300	0.493800
H681	H68	0.999500	0.647300	0.441900
H691	H69	0.466700	0.721600	0.373700
H701	H70	0.569800	0.825600	0.316100
H711	H71	0.234200	0.939800	0.281100
H721	H72	0.122200	0.841500	0.341900
H731	H73	0.164100	0.841800	0.016500
H741	H74	0.047900	0.837700	0.070300
H751	H75	0.232200	0.727900	0.243500
H761	H76	0.341800	0.614100	0.289200
H771	H77	0.436700	0.522000	0.124800
H781	H78	0.321200	0.630100	0.075400
H791	H79	0.881600	0.841700	0.993800
H801	H80	0.000500	0.852700	0.941900
H811	H81	0.533300	0.778400	0.873700
H821	H82	0.430200	0.674400	0.816100
H831	H83	0.765800	0.560200	0.781100
H841	H84	0.877800	0.658500	0.841900
H851	H85	0.835900	0.841800	0.483500
H861	H86	0.952100	0.837700	0.429700
H871	H87	0.767800	0.727900	0.256500
H881	H88	0.658200	0.614100	0.210800
H891	H89	0.563300	0.522000	0.375200
H901	H90	0.678800	0.630100	0.424600
H911	H91	0.118400	0.841700	0.506200
H921	H92	0.999500	0.852700	0.558100
H931	H93	0.466700	0.778400	0.626300
H941	H94	0.569800	0.674400	0.683900
H951	H95	0.234200	0.560200	0.718900
H961	H96	0.122200	0.658500	0.658100
C11	C1	0.895200	0.301600	0.041300
C21	C2	0.805000	0.253000	0.123300
C31	C3	0.733300	0.186700	0.156300
C41	C4	0.724300	0.182200	0.216400
C51	C5	0.659900	0.119400	0.242000
C61	C6	0.608500	0.068100	0.150900
C71	C7	0.673900	0.128400	0.122700
C81	C8	0.056200	0.309200	0.965000
C91	C9	0.224300	0.287100	0.901000
C101	C10	0.287300	0.224700	0.863800
C111	C11	0.413800	0.229200	0.854700
C121	C12	0.470700	0.171600	0.821700
C131	C13	0.285000	0.108100	0.802900
C141	C14	0.221200	0.163100	0.836700
C151	C15	0.104800	0.301600	0.458700
C161	C16	0.195000	0.253000	0.376700
C171	C17	0.266700	0.186700	0.343700
C181	C18	0.275700	0.182200	0.283600
C191	C19	0.340100	0.119400	0.258000
C201	C20	0.391500	0.068100	0.349100
C211	C21	0.326100	0.128400	0.377300
C221	C22	0.943800	0.309200	0.535000
C231	C23	0.775700	0.287100	0.599000
C241	C24	0.712700	0.224700	0.636200
C251	C25	0.586200	0.229200	0.645300
C261	C26	0.529300	0.171600	0.678300
C271	C27	0.715000	0.108100	0.697100
C281	C28	0.778800	0.163100	0.663300
C291	C29	0.895200	0.198400	0.958700
C301	C30	0.805000	0.247000	0.876700
C311	C31	0.733300	0.313300	0.843700
C321	C32	0.724300	0.317800	0.783600
C331	C33	0.659900	0.380600	0.758000
C341	C34	0.608500	0.431900	0.849100
C351	C35	0.673900	0.371600	0.877300
C361	C36	0.056200	0.190800	0.035000
C371	C37	0.224300	0.212900	0.099000
C381	C38	0.287300	0.275300	0.136200
C391	C39	0.413800	0.270800	0.145300
C401	C40	0.470700	0.328400	0.178300
C411	C41	0.285000	0.391900	0.197100
C421	C42	0.221200	0.336900	0.163300
C431	C43	0.104800	0.198400	0.541300
C441	C44	0.195000	0.247000	0.623300
C451	C45	0.266700	0.313300	0.656300
C461	C46	0.275700	0.317800	0.716400
C471	C47	0.340100	0.380600	0.742000
C481	C48	0.391500	0.431900	0.650900
C491	C49	0.326100	0.371600	0.622700
C501	C50	0.943800	0.190800	0.465000
C511	C51	0.775700	0.212900	0.401000
C521	C52	0.712700	0.275300	0.363800
C531	C53	0.586200	0.270800	0.354700
C541	C54	0.529300	0.328400	0.321700
C551	C55	0.715000	0.391900	0.302900
C561	C56	0.778800	0.336900	0.336700
C571	C57	0.104800	0.698400	0.958700
C581	C58	0.195000	0.747000	0.876700
C591	C59	0.266700	0.813300	0.843700
C601	C60	0.275700	0.817800	0.783600
C611	C61	0.340100	0.880600	0.758000
C621	C62	0.391500	0.931900	0.849100
C631	C63	0.326100	0.871600	0.877300
C641	C64	0.943800	0.690800	0.035000
C651	C65	0.775700	0.712900	0.099000
C661	C66	0.712700	0.775300	0.136200
C671	C67	0.586200	0.770800	0.145300
C681	C68	0.529300	0.828400	0.178300
C691	C69	0.715000	0.891900	0.197100
C701	C70	0.778800	0.836900	0.163300
C711	C71	0.895200	0.698400	0.541300
C721	C72	0.805000	0.747000	0.623300
C731	C73	0.733300	0.813300	0.656300
C741	C74	0.724300	0.817800	0.716400
C751	C75	0.659900	0.880600	0.742000
C761	C76	0.608500	0.931900	0.650900
C771	C77	0.673900	0.871600	0.622700
C781	C78	0.056200	0.690800	0.465000
C791	C79	0.224300	0.712900	0.401000
C801	C80	0.287300	0.775300	0.363800
C811	C81	0.413800	0.770800	0.354700
C821	C82	0.470700	0.828400	0.321700
C831	C83	0.285000	0.891900	0.302900
C841	C84	0.221200	0.836900	0.336700
C851	C85	0.104800	0.801600	0.041300
C861	C86	0.195000	0.753000	0.123300
C871	C87	0.266700	0.686700	0.156300
C881	C88	0.275700	0.682200	0.216400
C891	C89	0.340100	0.619400	0.242000
C901	C90	0.391500	0.568100	0.150900
C911	C91	0.326100	0.628400	0.122700
C921	C92	0.943800	0.809200	0.965000
C931	C93	0.775700	0.787100	0.901000
C941	C94	0.712700	0.724700	0.863800
C951	C95	0.586200	0.729200	0.854700
C961	C96	0.529300	0.671600	0.821700
C971	C97	0.715000	0.608100	0.802900
C981	C98	0.778800	0.663100	0.836700
C991	C99	0.895200	0.801600	0.458700
C1001	C100	0.805000	0.753000	0.376700
C1011	C101	0.733300	0.686700	0.343700
C1021	C102	0.724300	0.682200	0.283600
C1031	C103	0.659900	0.619400	0.258000
C1041	C104	0.608500	0.568100	0.349100
C1051	C105	0.673900	0.628400	0.377300
C1061	C106	0.056200	0.809200	0.535000
C1071	C107	0.224300	0.787100	0.599000
C1081	C108	0.287300	0.724700	0.636200
C1091	C109	0.413800	0.729200	0.645300
C1101	C110	0.470700	0.671600	0.678300
C1111	C111	0.285000	0.608100	0.697100
C1121	C112	0.221200	0.663100	0.663300
C1131	C113	0.976000	0.250000	0.000000
C1141	C114	0.024000	0.250000	0.500000
C1151	C115	0.024000	0.750000	0.000000
C1161	C116	0.976000	0.750000	0.500000
N11	N1	0.598700	0.064200	0.209000
N21	N2	0.408000	0.111500	0.796000
N31	N3	0.401300	0.064200	0.291000
N41	N4	0.592000	0.111500	0.704000
N51	N5	0.598700	0.435800	0.791000
N61	N6	0.408000	0.388500	0.204000
N71	N7	0.401300	0.435800	0.709000
N81	N8	0.592000	0.388500	0.296000
N91	N9	0.401300	0.935800	0.791000
N101	N10	0.592000	0.888500	0.204000
N111	N11	0.598700	0.935800	0.709000
N121	N12	0.408000	0.888500	0.296000
N131	N13	0.401300	0.564200	0.209000
N141	N14	0.592000	0.611500	0.796000
N151	N15	0.598700	0.564200	0.291000
N161	N16	0.408000	0.611500	0.704000
O11	O1	0.798400	0.322300	0.149200
O21	O2	0.823300	0.243800	0.074040
O31	O3	0.124900	0.259100	0.924080
O41	O4	0.260600	0.356700	0.905200
O51	O5	0.201600	0.322300	0.350800
O61	O6	0.176700	0.243800	0.425960
O71	O7	0.875100	0.259100	0.575920
O81	O8	0.739400	0.356700	0.594800
O91	O9	0.798400	0.177700	0.850800
O101	O10	0.823300	0.256200	0.925960
O111	O11	0.124900	0.240900	0.075920
O121	O12	0.260600	0.143300	0.094800
O131	O13	0.201600	0.177700	0.649200
O141	O14	0.176700	0.256200	0.574040
O151	O15	0.875100	0.240900	0.424080
O161	O16	0.739400	0.143300	0.405200
O171	O17	0.201600	0.677700	0.850800
O181	O18	0.176700	0.756200	0.925960
O191	O19	0.875100	0.740900	0.075920
O201	O20	0.739400	0.643300	0.094800
O211	O21	0.798400	0.677700	0.649200
O221	O22	0.823300	0.756200	0.574040
O231	O23	0.124900	0.740900	0.424080
O241	O24	0.260600	0.643300	0.405200
O251	O25	0.201600	0.822300	0.149200
O261	O26	0.176700	0.743800	0.074040
O271	O27	0.875100	0.759100	0.924080
O281	O28	0.739400	0.856700	0.905200
O291	O29	0.798400	0.822300	0.350800
O301	O30	0.823300	0.743800	0.425960
O311	O31	0.124900	0.759100	0.575920
O321	O32	0.260600	0.856700	0.594800
N171	N17	0.000000	0.188000	0.250000
O331	O33	0.020200	0.194400	0.191800
O341	O34	0.979800	0.194400	0.308200
O351	O35	0.000000	0.094000	0.250000
N181	N18	0.000000	0.312000	0.750000
O361	O36	0.020200	0.305600	0.808200
O371	O37	0.979800	0.305600	0.691800
O381	O38	0.000000	0.406000	0.750000
N191	N19	0.000000	0.812000	0.750000
O391	O39	0.979800	0.805600	0.808200
O401	O40	0.020200	0.805600	0.691800
O411	O41	0.000000	0.906000	0.750000
N201	N20	0.000000	0.688000	0.250000
O421	O42	0.979800	0.694400	0.191800
O431	O43	0.020200	0.694400	0.308200
O441	O44	0.000000	0.594000	0.250000
