data_ILAGUY_charged_PM
_symmetry_space_group_name_H-M	'P1'
_cell_length_a	18.319600
_cell_length_b	21.444800
_cell_length_c	22.385400
_cell_angle_alpha	90.000000
_cell_angle_beta	90.000000
_cell_angle_gamma	90.000000
_symmetry_Int_Tables_number 1

loop_
_symmetry_equiv_pos_as_xyz
'x,y,z'

loop_
_atom_site_label
_atom_site_type_symbol
_atom_site_fract_x
_atom_site_fract_y
_atom_site_fract_z
Cd11	Cd1	0.344450	0.772510	0.567670
Cd21	Cd2	0.405540	0.742380	0.402720
Cd31	Cd3	0.451700	0.755410	0.232160
Cd41	Cd4	0.655550	0.227490	0.067670
Cd51	Cd5	0.594460	0.257620	0.902720
Cd61	Cd6	0.548300	0.244590	0.732160
Cd71	Cd7	0.155550	0.272510	0.567670
Cd81	Cd8	0.094460	0.242380	0.402720
Cd91	Cd9	0.048300	0.255410	0.232160
Cd101	Cd10	0.844450	0.727490	0.067670
Cd111	Cd11	0.905540	0.757620	0.902720
Cd121	Cd12	0.951700	0.744590	0.732160
H11	H1	0.398000	0.671800	0.625800
H21	H2	0.395000	0.715000	0.674400
H31	H3	0.397000	0.674000	0.141200
H41	H4	0.415000	0.641100	0.196200
H51	H5	0.396800	0.457000	0.660000
H61	H6	0.101800	0.736500	0.226000
H71	H7	0.191100	0.721700	0.083600
H81	H8	0.181600	0.881800	0.435500
H91	H9	0.143100	0.923800	0.345100
H101	H10	0.227800	0.956300	0.275000
H111	H11	0.352500	0.951700	0.297600
H121	H12	0.590100	0.902200	0.350700
H131	H13	0.614200	0.966900	0.432900
H141	H14	0.517500	0.999000	0.494200
H151	H15	0.398600	0.973400	0.469600
H161	H16	0.455200	0.368900	0.734900
H171	H17	0.238700	0.339200	0.724800
H181	H18	0.368600	0.454300	0.757200
H191	H19	0.284700	0.445100	0.739500
H201	H20	0.261500	0.232600	0.727500
H211	H21	0.381100	0.196800	0.733900
H221	H22	0.374900	0.549600	0.633800
H231	H23	0.377900	0.546800	0.705300
H241	H24	0.293700	0.395500	0.621500
H251	H25	0.321900	0.450700	0.579200
H261	H26	0.248800	0.544300	0.709300
H271	H27	0.275800	0.605500	0.674600
H281	H28	0.194200	0.457800	0.588600
H291	H29	0.200800	0.460200	0.660000
H301	H30	0.136100	0.565200	0.656100
H311	H31	0.129700	0.545600	0.587400
H321	H32	0.270500	0.643000	0.580100
H331	H33	0.053200	0.652500	0.608300
H341	H34	0.057900	0.757200	0.579100
H351	H35	0.168700	0.803200	0.558200
H361	H36	0.297400	0.776300	0.299800
H371	H37	0.252500	0.703100	0.456500
H381	H38	0.129200	0.707400	0.437900
H391	H39	0.088100	0.748500	0.346600
H401	H40	0.128500	0.827300	0.262900
H411	H41	0.210400	0.819800	0.239400
H421	H42	0.210100	0.679200	0.230300
H431	H43	0.243600	0.725000	0.180900
H441	H44	0.162400	0.811000	0.139700
H451	H45	0.080800	0.816400	0.165000
H461	H46	0.211000	0.630400	0.135600
H471	H47	0.129000	0.637200	0.159800
H481	H48	0.050500	0.720100	0.121400
H491	H49	0.080400	0.766600	0.071000
H501	H50	0.171500	0.625000	0.033500
H511	H51	0.087700	0.630200	0.053100
H521	H52	0.004900	0.693600	0.997700
H531	H53	0.217800	0.696600	0.952000
H541	H54	0.185300	0.749900	0.865300
H551	H55	0.065600	0.780700	0.851600
H561	H56	0.281100	0.909300	0.188600
H571	H57	0.446900	0.901400	0.977000
H581	H58	0.516700	0.836500	0.917800
H591	H59	0.364600	0.553800	0.498700
H601	H60	0.251200	0.594100	0.317300
H611	H61	0.241200	0.538800	0.489600
H621	H62	0.182600	0.559900	0.398300
H631	H63	0.420400	0.686200	0.989800
H641	H64	0.498400	0.936500	0.581100
H651	H65	0.557900	0.026700	0.611600
H661	H66	0.483800	0.998700	0.778500
H671	H67	0.551000	0.056900	0.711400
H681	H68	0.350000	0.974400	0.792700
H691	H69	0.278300	0.927200	0.866500
H701	H70	0.374000	0.761300	0.829500
H711	H71	0.221000	0.988500	0.136600
H721	H72	0.241600	0.000200	0.032700
H731	H73	0.313900	0.930300	0.984400
H741	H74	0.507200	0.730300	0.925200
H751	H75	0.291500	0.820800	0.885100
H761	H76	0.594400	0.636600	0.513800
H771	H77	0.667400	0.587200	0.442800
H781	H78	0.615100	0.537200	0.362200
H791	H79	0.489700	0.539600	0.347800
H801	H80	0.602000	0.328200	0.125800
H811	H81	0.605000	0.285000	0.174400
H821	H82	0.603000	0.326000	0.641200
H831	H83	0.585000	0.358900	0.696200
H841	H84	0.603200	0.543000	0.160000
H851	H85	0.898200	0.263500	0.726000
H861	H86	0.808900	0.278300	0.583600
H871	H87	0.818400	0.118200	0.935500
H881	H88	0.856900	0.076200	0.845100
H891	H89	0.772200	0.043700	0.775000
H901	H90	0.647500	0.048300	0.797600
H911	H91	0.409900	0.097800	0.850700
H921	H92	0.385800	0.033100	0.932900
H931	H93	0.482500	0.001000	0.994200
H941	H94	0.601400	0.026600	0.969600
H951	H95	0.544800	0.631100	0.234900
H961	H96	0.761300	0.660800	0.224800
H971	H97	0.631400	0.545700	0.257200
H981	H98	0.715300	0.554900	0.239500
H991	H99	0.738500	0.767400	0.227500
H1001	H100	0.618900	0.803200	0.233900
H1011	H101	0.625100	0.450400	0.133800
H1021	H102	0.622100	0.453200	0.205300
H1031	H103	0.706300	0.604500	0.121500
H1041	H104	0.678100	0.549300	0.079200
H1051	H105	0.751200	0.455700	0.209300
H1061	H106	0.724200	0.394500	0.174600
H1071	H107	0.805800	0.542200	0.088600
H1081	H108	0.799200	0.539800	0.160000
H1091	H109	0.863900	0.434800	0.156100
H1101	H110	0.870300	0.454400	0.087400
H1111	H111	0.729500	0.357000	0.080100
H1121	H112	0.946800	0.347500	0.108300
H1131	H113	0.942100	0.242800	0.079100
H1141	H114	0.831300	0.196800	0.058200
H1151	H115	0.702600	0.223700	0.799800
H1161	H116	0.747500	0.296900	0.956500
H1171	H117	0.870800	0.292600	0.937900
H1181	H118	0.911900	0.251500	0.846600
H1191	H119	0.871500	0.172700	0.762900
H1201	H120	0.789600	0.180200	0.739400
H1211	H121	0.789900	0.320800	0.730300
H1221	H122	0.756400	0.275000	0.680900
H1231	H123	0.837600	0.189000	0.639700
H1241	H124	0.919200	0.183600	0.665000
H1251	H125	0.789000	0.369600	0.635600
H1261	H126	0.871000	0.362800	0.659800
H1271	H127	0.949500	0.279900	0.621400
H1281	H128	0.919600	0.233400	0.571000
H1291	H129	0.828500	0.375000	0.533500
H1301	H130	0.912300	0.369800	0.553100
H1311	H131	0.995100	0.306400	0.497700
H1321	H132	0.782200	0.303400	0.452000
H1331	H133	0.814700	0.250100	0.365300
H1341	H134	0.934400	0.219300	0.351600
H1351	H135	0.718900	0.090700	0.688600
H1361	H136	0.553100	0.098600	0.477000
H1371	H137	0.483300	0.163500	0.417800
H1381	H138	0.635400	0.446200	0.998700
H1391	H139	0.748800	0.405900	0.817300
H1401	H140	0.758800	0.461200	0.989600
H1411	H141	0.817400	0.440100	0.898300
H1421	H142	0.579600	0.313800	0.489800
H1431	H143	0.501600	0.063500	0.081100
H1441	H144	0.442100	0.973300	0.111600
H1451	H145	0.516200	0.001300	0.278500
H1461	H146	0.449000	0.943100	0.211400
H1471	H147	0.650000	0.025600	0.292700
H1481	H148	0.721700	0.072800	0.366500
H1491	H149	0.626000	0.238700	0.329500
H1501	H150	0.779000	0.011500	0.636600
H1511	H151	0.758400	0.999800	0.532700
H1521	H152	0.686100	0.069700	0.484400
H1531	H153	0.492800	0.269700	0.425200
H1541	H154	0.708500	0.179200	0.385100
H1551	H155	0.405600	0.363400	0.013800
H1561	H156	0.332600	0.412800	0.942800
H1571	H157	0.384900	0.462800	0.862200
H1581	H158	0.510300	0.460400	0.847800
H1591	H159	0.102000	0.171800	0.625800
H1601	H160	0.105000	0.215000	0.674400
H1611	H161	0.103000	0.174000	0.141200
H1621	H162	0.085000	0.141100	0.196200
H1631	H163	0.103200	0.957000	0.660000
H1641	H164	0.398200	0.236500	0.226000
H1651	H165	0.308900	0.221700	0.083600
H1661	H166	0.318400	0.381800	0.435500
H1671	H167	0.356900	0.423800	0.345100
H1681	H168	0.272200	0.456300	0.275000
H1691	H169	0.147500	0.451700	0.297600
H1701	H170	0.909900	0.402200	0.350700
H1711	H171	0.885800	0.466900	0.432900
H1721	H172	0.982500	0.499000	0.494200
H1731	H173	0.101400	0.473400	0.469600
H1741	H174	0.044800	0.868900	0.734900
H1751	H175	0.261300	0.839200	0.724800
H1761	H176	0.131400	0.954300	0.757200
H1771	H177	0.215300	0.945100	0.739500
H1781	H178	0.238500	0.732600	0.727500
H1791	H179	0.118900	0.696800	0.733900
H1801	H180	0.125100	0.049600	0.633800
H1811	H181	0.122100	0.046800	0.705300
H1821	H182	0.206300	0.895500	0.621500
H1831	H183	0.178100	0.950700	0.579200
H1841	H184	0.251200	0.044300	0.709300
H1851	H185	0.224200	0.105500	0.674600
H1861	H186	0.305800	0.957800	0.588600
H1871	H187	0.299200	0.960200	0.660000
H1881	H188	0.363900	0.065200	0.656100
H1891	H189	0.370300	0.045600	0.587400
H1901	H190	0.229500	0.143000	0.580100
H1911	H191	0.446800	0.152500	0.608300
H1921	H192	0.442100	0.257200	0.579100
H1931	H193	0.331300	0.303200	0.558200
H1941	H194	0.202600	0.276300	0.299800
H1951	H195	0.247500	0.203100	0.456500
H1961	H196	0.370800	0.207400	0.437900
H1971	H197	0.411900	0.248500	0.346600
H1981	H198	0.371500	0.327300	0.262900
H1991	H199	0.289600	0.319800	0.239400
H2001	H200	0.289900	0.179200	0.230300
H2011	H201	0.256400	0.225000	0.180900
H2021	H202	0.337600	0.311000	0.139700
H2031	H203	0.419200	0.316400	0.165000
H2041	H204	0.289000	0.130400	0.135600
H2051	H205	0.371000	0.137200	0.159800
H2061	H206	0.449500	0.220100	0.121400
H2071	H207	0.419600	0.266600	0.071000
H2081	H208	0.328500	0.125000	0.033500
H2091	H209	0.412300	0.130200	0.053100
H2101	H210	0.495100	0.193600	0.997700
H2111	H211	0.282200	0.196600	0.952000
H2121	H212	0.314700	0.249900	0.865300
H2131	H213	0.434400	0.280700	0.851600
H2141	H214	0.218900	0.409300	0.188600
H2151	H215	0.053100	0.401400	0.977000
H2161	H216	0.983300	0.336500	0.917800
H2171	H217	0.135400	0.053800	0.498700
H2181	H218	0.248800	0.094100	0.317300
H2191	H219	0.258800	0.038800	0.489600
H2201	H220	0.317400	0.059900	0.398300
H2211	H221	0.079600	0.186200	0.989800
H2221	H222	0.001600	0.436500	0.581100
H2231	H223	0.942100	0.526700	0.611600
H2241	H224	0.016200	0.498700	0.778500
H2251	H225	0.949000	0.556900	0.711400
H2261	H226	0.150000	0.474400	0.792700
H2271	H227	0.221700	0.427200	0.866500
H2281	H228	0.126000	0.261300	0.829500
H2291	H229	0.279000	0.488500	0.136600
H2301	H230	0.258400	0.500200	0.032700
H2311	H231	0.186100	0.430300	0.984400
H2321	H232	0.992800	0.230300	0.925200
H2331	H233	0.208500	0.320800	0.885100
H2341	H234	0.905600	0.136600	0.513800
H2351	H235	0.832600	0.087200	0.442800
H2361	H236	0.884900	0.037200	0.362200
H2371	H237	0.010300	0.039600	0.347800
H2381	H238	0.898000	0.828200	0.125800
H2391	H239	0.895000	0.785000	0.174400
H2401	H240	0.897000	0.826000	0.641200
H2411	H241	0.915000	0.858900	0.696200
H2421	H242	0.896800	0.043000	0.160000
H2431	H243	0.601800	0.763500	0.726000
H2441	H244	0.691100	0.778300	0.583600
H2451	H245	0.681600	0.618200	0.935500
H2461	H246	0.643100	0.576200	0.845100
H2471	H247	0.727800	0.543700	0.775000
H2481	H248	0.852500	0.548300	0.797600
H2491	H249	0.090100	0.597800	0.850700
H2501	H250	0.114200	0.533100	0.932900
H2511	H251	0.017500	0.501000	0.994200
H2521	H252	0.898600	0.526600	0.969600
H2531	H253	0.955200	0.131100	0.234900
H2541	H254	0.738700	0.160800	0.224800
H2551	H255	0.868600	0.045700	0.257200
H2561	H256	0.784700	0.054900	0.239500
H2571	H257	0.761500	0.267400	0.227500
H2581	H258	0.881100	0.303200	0.233900
H2591	H259	0.874900	0.950400	0.133800
H2601	H260	0.877900	0.953200	0.205300
H2611	H261	0.793700	0.104500	0.121500
H2621	H262	0.821900	0.049300	0.079200
H2631	H263	0.748800	0.955700	0.209300
H2641	H264	0.775800	0.894500	0.174600
H2651	H265	0.694200	0.042200	0.088600
H2661	H266	0.700800	0.039800	0.160000
H2671	H267	0.636100	0.934800	0.156100
H2681	H268	0.629700	0.954400	0.087400
H2691	H269	0.770500	0.857000	0.080100
H2701	H270	0.553200	0.847500	0.108300
H2711	H271	0.557900	0.742800	0.079100
H2721	H272	0.668700	0.696800	0.058200
H2731	H273	0.797400	0.723700	0.799800
H2741	H274	0.752500	0.796900	0.956500
H2751	H275	0.629200	0.792600	0.937900
H2761	H276	0.588100	0.751500	0.846600
H2771	H277	0.628500	0.672700	0.762900
H2781	H278	0.710400	0.680200	0.739400
H2791	H279	0.710100	0.820800	0.730300
H2801	H280	0.743600	0.775000	0.680900
H2811	H281	0.662400	0.689000	0.639700
H2821	H282	0.580800	0.683600	0.665000
H2831	H283	0.711000	0.869600	0.635600
H2841	H284	0.629000	0.862800	0.659800
H2851	H285	0.550500	0.779900	0.621400
H2861	H286	0.580400	0.733400	0.571000
H2871	H287	0.671500	0.875000	0.533500
H2881	H288	0.587700	0.869800	0.553100
H2891	H289	0.504900	0.806400	0.497700
H2901	H290	0.717800	0.803400	0.452000
H2911	H291	0.685300	0.750100	0.365300
H2921	H292	0.565600	0.719300	0.351600
H2931	H293	0.781100	0.590700	0.688600
H2941	H294	0.946900	0.598600	0.477000
H2951	H295	0.016700	0.663500	0.417800
H2961	H296	0.864600	0.946200	0.998700
H2971	H297	0.751200	0.905900	0.817300
H2981	H298	0.741200	0.961200	0.989600
H2991	H299	0.682600	0.940100	0.898300
H3001	H300	0.920400	0.813800	0.489800
H3011	H301	0.998400	0.563500	0.081100
H3021	H302	0.057900	0.473300	0.111600
H3031	H303	0.983800	0.501300	0.278500
H3041	H304	0.051000	0.443100	0.211400
H3051	H305	0.850000	0.525600	0.292700
H3061	H306	0.778300	0.572800	0.366500
H3071	H307	0.874000	0.738700	0.329500
H3081	H308	0.721000	0.511500	0.636600
H3091	H309	0.741600	0.499800	0.532700
H3101	H310	0.813900	0.569700	0.484400
H3111	H311	0.007200	0.769700	0.425200
H3121	H312	0.791500	0.679200	0.385100
H3131	H313	0.094400	0.863400	0.013800
H3141	H314	0.167400	0.912800	0.942800
H3151	H315	0.115100	0.962800	0.862200
H3161	H316	0.989700	0.960400	0.847800
C11	C1	0.216700	0.895260	0.407000
C21	C2	0.193700	0.920400	0.353400
C31	C3	0.243500	0.940300	0.312400
C41	C4	0.318100	0.937000	0.325900
C51	C5	0.342600	0.912790	0.379220
C61	C6	0.291200	0.889480	0.419870
C71	C7	0.421700	0.921160	0.396030
C81	C8	0.479700	0.898540	0.362200
C91	C9	0.469700	0.851220	0.313350
C101	C10	0.551100	0.916300	0.375200
C111	C11	0.565600	0.954600	0.424100
C121	C12	0.508000	0.974400	0.459800
C131	C13	0.437500	0.958500	0.445400
C141	C14	0.312500	0.855140	0.475100
C151	C15	0.415200	0.340860	0.732830
C161	C16	0.345400	0.365620	0.728850
C171	C17	0.287400	0.324200	0.727100
C181	C18	0.335400	0.435110	0.727500
C191	C19	0.300800	0.261500	0.728800
C201	C20	0.372200	0.240380	0.732400
C211	C21	0.350000	0.533000	0.669700
C221	C22	0.299700	0.441320	0.618500
C231	C23	0.273600	0.559440	0.672800
C241	C24	0.225000	0.472240	0.622200
C251	C25	0.159900	0.568800	0.616600
C261	C26	0.161900	0.636400	0.598640
C271	C27	0.226800	0.666810	0.582260
C281	C28	0.098500	0.671140	0.597800
C291	C29	0.101500	0.733300	0.581300
C301	C30	0.167100	0.760190	0.568400
C311	C31	0.262200	0.762210	0.327900
C321	C32	0.236200	0.719300	0.419400
C331	C33	0.189100	0.766700	0.313700
C341	C34	0.163000	0.721900	0.408900
C351	C35	0.138800	0.746100	0.355000
C361	C36	0.167900	0.796700	0.255350
C371	C37	0.198400	0.703900	0.194200
C381	C38	0.120300	0.786730	0.154770
C391	C39	0.172100	0.660730	0.145560
C401	C40	0.094300	0.742650	0.107000
C411	C41	0.131200	0.654670	0.041110
C421	C42	0.114500	0.689300	0.984830
C431	C43	0.042700	0.706140	0.971230
C441	C44	0.168100	0.706900	0.944600
C451	C45	0.149300	0.739200	0.894100
C461	C46	0.077800	0.756100	0.885400
C471	C47	0.333600	0.871600	0.117500
C481	C48	0.342700	0.876600	0.054900
C491	C49	0.373600	0.825300	0.155100
C501	C50	0.387400	0.832700	0.019100
C511	C51	0.414400	0.858880	0.634390
C521	C52	0.288100	0.913300	0.146700
C531	C53	0.440500	0.857500	0.979500
C541	C54	0.482600	0.818900	0.944900
C551	C55	0.318100	0.736800	0.054700
C561	C56	0.379300	0.768400	0.021400
C571	C57	0.452200	0.655060	0.517100
C581	C58	0.495900	0.620750	0.471300
C591	C59	0.464500	0.590900	0.421800
C601	C60	0.383900	0.585570	0.415300
C611	C61	0.348600	0.598200	0.360300
C621	C62	0.341700	0.563100	0.461700
C631	C63	0.274400	0.587100	0.354700
C641	C64	0.268500	0.553700	0.456500
C651	C65	0.233700	0.566000	0.402300
C661	C66	0.387400	0.626300	0.307700
C671	C67	0.424700	0.730200	0.987000
C681	C68	0.454500	0.912890	0.661040
C691	C69	0.495100	0.949080	0.621700
C701	C70	0.450000	0.930760	0.721400
C711	C71	0.530800	0.002600	0.639500
C721	C72	0.486600	0.985300	0.738100
C731	C73	0.407100	0.896600	0.767120
C741	C74	0.526500	0.020300	0.698200
C751	C75	0.355600	0.931100	0.800400
C761	C76	0.414000	0.832300	0.779550
C771	C77	0.312400	0.903200	0.844300
C781	C78	0.370200	0.804800	0.822300
C791	C79	0.473100	0.792500	0.752250
C801	C80	0.252600	0.960700	0.116100
C811	C81	0.264000	0.967200	0.054300
C821	C82	0.307200	0.925800	0.026200
C831	C83	0.476500	0.756400	0.948600
C841	C84	0.320300	0.840300	0.855100
C851	C85	0.572700	0.617900	0.479700
C861	C86	0.615900	0.587700	0.438000
C871	C87	0.585000	0.558600	0.390100
C881	C88	0.510300	0.560000	0.381500
C891	C89	0.783300	0.104740	0.907000
C901	C90	0.806300	0.079600	0.853400
C911	C91	0.756500	0.059700	0.812400
C921	C92	0.681900	0.063000	0.825900
C931	C93	0.657400	0.087210	0.879220
C941	C94	0.708800	0.110520	0.919870
C951	C95	0.578300	0.078840	0.896030
C961	C96	0.520300	0.101460	0.862200
C971	C97	0.530300	0.148780	0.813350
C981	C98	0.448900	0.083700	0.875200
C991	C99	0.434400	0.045400	0.924100
C1001	C100	0.492000	0.025600	0.959800
C1011	C101	0.562500	0.041500	0.945400
C1021	C102	0.687500	0.144860	0.975100
C1031	C103	0.584800	0.659140	0.232830
C1041	C104	0.654600	0.634380	0.228850
C1051	C105	0.712600	0.675800	0.227100
C1061	C106	0.664600	0.564890	0.227500
C1071	C107	0.699200	0.738500	0.228800
C1081	C108	0.627800	0.759620	0.232400
C1091	C109	0.650000	0.467000	0.169700
C1101	C110	0.700300	0.558680	0.118500
C1111	C111	0.726400	0.440560	0.172800
C1121	C112	0.775000	0.527760	0.122200
C1131	C113	0.840100	0.431200	0.116600
C1141	C114	0.838100	0.363600	0.098640
C1151	C115	0.773200	0.333190	0.082260
C1161	C116	0.901500	0.328860	0.097800
C1171	C117	0.898500	0.266700	0.081300
C1181	C118	0.832900	0.239810	0.068400
C1191	C119	0.737800	0.237790	0.827900
C1201	C120	0.763800	0.280700	0.919400
C1211	C121	0.810900	0.233300	0.813700
C1221	C122	0.837000	0.278100	0.908900
C1231	C123	0.861200	0.253900	0.855000
C1241	C124	0.832100	0.203300	0.755350
C1251	C125	0.801600	0.296100	0.694200
C1261	C126	0.879700	0.213270	0.654770
C1271	C127	0.827900	0.339270	0.645560
C1281	C128	0.905700	0.257350	0.607000
C1291	C129	0.868800	0.345330	0.541110
C1301	C130	0.885500	0.310700	0.484830
C1311	C131	0.957300	0.293860	0.471230
C1321	C132	0.831900	0.293100	0.444600
C1331	C133	0.850700	0.260800	0.394100
C1341	C134	0.922200	0.243900	0.385400
C1351	C135	0.666400	0.128400	0.617500
C1361	C136	0.657300	0.123400	0.554900
C1371	C137	0.626400	0.174700	0.655100
C1381	C138	0.612600	0.167300	0.519100
C1391	C139	0.585600	0.141120	0.134390
C1401	C140	0.711900	0.086700	0.646700
C1411	C141	0.559500	0.142500	0.479500
C1421	C142	0.517400	0.181100	0.444900
C1431	C143	0.681900	0.263200	0.554700
C1441	C144	0.620700	0.231600	0.521400
C1451	C145	0.547800	0.344940	0.017100
C1461	C146	0.504100	0.379250	0.971300
C1471	C147	0.535500	0.409100	0.921800
C1481	C148	0.616100	0.414430	0.915300
C1491	C149	0.651400	0.401800	0.860300
C1501	C150	0.658300	0.436900	0.961700
C1511	C151	0.725600	0.412900	0.854700
C1521	C152	0.731500	0.446300	0.956500
C1531	C153	0.766300	0.434000	0.902300
C1541	C154	0.612600	0.373700	0.807700
C1551	C155	0.575300	0.269800	0.487000
C1561	C156	0.545500	0.087110	0.161040
C1571	C157	0.504900	0.050920	0.121700
C1581	C158	0.550000	0.069240	0.221400
C1591	C159	0.469200	0.997400	0.139500
C1601	C160	0.513400	0.014700	0.238100
C1611	C161	0.592900	0.103400	0.267120
C1621	C162	0.473500	0.979700	0.198200
C1631	C163	0.644400	0.068900	0.300400
C1641	C164	0.586000	0.167700	0.279550
C1651	C165	0.687600	0.096800	0.344300
C1661	C166	0.629800	0.195200	0.322300
C1671	C167	0.526900	0.207500	0.252250
C1681	C168	0.747400	0.039300	0.616100
C1691	C169	0.736000	0.032800	0.554300
C1701	C170	0.692800	0.074200	0.526200
C1711	C171	0.523500	0.243600	0.448600
C1721	C172	0.679700	0.159700	0.355100
C1731	C173	0.427300	0.382100	0.979700
C1741	C174	0.384100	0.412300	0.938000
C1751	C175	0.415000	0.441400	0.890100
C1761	C176	0.489700	0.440000	0.881500
C1771	C177	0.283300	0.395260	0.407000
C1781	C178	0.306300	0.420400	0.353400
C1791	C179	0.256500	0.440300	0.312400
C1801	C180	0.181900	0.437000	0.325900
C1811	C181	0.157400	0.412790	0.379220
C1821	C182	0.208800	0.389480	0.419870
C1831	C183	0.078300	0.421160	0.396030
C1841	C184	0.020300	0.398540	0.362200
C1851	C185	0.030300	0.351220	0.313350
C1861	C186	0.948900	0.416300	0.375200
C1871	C187	0.934400	0.454600	0.424100
C1881	C188	0.992000	0.474400	0.459800
C1891	C189	0.062500	0.458500	0.445400
C1901	C190	0.187500	0.355140	0.475100
C1911	C191	0.084800	0.840860	0.732830
C1921	C192	0.154600	0.865620	0.728850
C1931	C193	0.212600	0.824200	0.727100
C1941	C194	0.164600	0.935110	0.727500
C1951	C195	0.199200	0.761500	0.728800
C1961	C196	0.127800	0.740380	0.732400
C1971	C197	0.150000	0.033000	0.669700
C1981	C198	0.200300	0.941320	0.618500
C1991	C199	0.226400	0.059440	0.672800
C2001	C200	0.275000	0.972240	0.622200
C2011	C201	0.340100	0.068800	0.616600
C2021	C202	0.338100	0.136400	0.598640
C2031	C203	0.273200	0.166810	0.582260
C2041	C204	0.401500	0.171140	0.597800
C2051	C205	0.398500	0.233300	0.581300
C2061	C206	0.332900	0.260190	0.568400
C2071	C207	0.237800	0.262210	0.327900
C2081	C208	0.263800	0.219300	0.419400
C2091	C209	0.310900	0.266700	0.313700
C2101	C210	0.337000	0.221900	0.408900
C2111	C211	0.361200	0.246100	0.355000
C2121	C212	0.332100	0.296700	0.255350
C2131	C213	0.301600	0.203900	0.194200
C2141	C214	0.379700	0.286730	0.154770
C2151	C215	0.327900	0.160730	0.145560
C2161	C216	0.405700	0.242650	0.107000
C2171	C217	0.368800	0.154670	0.041110
C2181	C218	0.385500	0.189300	0.984830
C2191	C219	0.457300	0.206140	0.971230
C2201	C220	0.331900	0.206900	0.944600
C2211	C221	0.350700	0.239200	0.894100
C2221	C222	0.422200	0.256100	0.885400
C2231	C223	0.166400	0.371600	0.117500
C2241	C224	0.157300	0.376600	0.054900
C2251	C225	0.126400	0.325300	0.155100
C2261	C226	0.112600	0.332700	0.019100
C2271	C227	0.085600	0.358880	0.634390
C2281	C228	0.211900	0.413300	0.146700
C2291	C229	0.059500	0.357500	0.979500
C2301	C230	0.017400	0.318900	0.944900
C2311	C231	0.181900	0.236800	0.054700
C2321	C232	0.120700	0.268400	0.021400
C2331	C233	0.047800	0.155060	0.517100
C2341	C234	0.004100	0.120750	0.471300
C2351	C235	0.035500	0.090900	0.421800
C2361	C236	0.116100	0.085570	0.415300
C2371	C237	0.151400	0.098200	0.360300
C2381	C238	0.158300	0.063100	0.461700
C2391	C239	0.225600	0.087100	0.354700
C2401	C240	0.231500	0.053700	0.456500
C2411	C241	0.266300	0.066000	0.402300
C2421	C242	0.112600	0.126300	0.307700
C2431	C243	0.075300	0.230200	0.987000
C2441	C244	0.045500	0.412890	0.661040
C2451	C245	0.004900	0.449080	0.621700
C2461	C246	0.050000	0.430760	0.721400
C2471	C247	0.969200	0.502600	0.639500
C2481	C248	0.013400	0.485300	0.738100
C2491	C249	0.092900	0.396600	0.767120
C2501	C250	0.973500	0.520300	0.698200
C2511	C251	0.144400	0.431100	0.800400
C2521	C252	0.086000	0.332300	0.779550
C2531	C253	0.187600	0.403200	0.844300
C2541	C254	0.129800	0.304800	0.822300
C2551	C255	0.026900	0.292500	0.752250
C2561	C256	0.247400	0.460700	0.116100
C2571	C257	0.236000	0.467200	0.054300
C2581	C258	0.192800	0.425800	0.026200
C2591	C259	0.023500	0.256400	0.948600
C2601	C260	0.179700	0.340300	0.855100
C2611	C261	0.927300	0.117900	0.479700
C2621	C262	0.884100	0.087700	0.438000
C2631	C263	0.915000	0.058600	0.390100
C2641	C264	0.989700	0.060000	0.381500
C2651	C265	0.716700	0.604740	0.907000
C2661	C266	0.693700	0.579600	0.853400
C2671	C267	0.743500	0.559700	0.812400
C2681	C268	0.818100	0.563000	0.825900
C2691	C269	0.842600	0.587210	0.879220
C2701	C270	0.791200	0.610520	0.919870
C2711	C271	0.921700	0.578840	0.896030
C2721	C272	0.979700	0.601460	0.862200
C2731	C273	0.969700	0.648780	0.813350
C2741	C274	0.051100	0.583700	0.875200
C2751	C275	0.065600	0.545400	0.924100
C2761	C276	0.008000	0.525600	0.959800
C2771	C277	0.937500	0.541500	0.945400
C2781	C278	0.812500	0.644860	0.975100
C2791	C279	0.915200	0.159140	0.232830
C2801	C280	0.845400	0.134380	0.228850
C2811	C281	0.787400	0.175800	0.227100
C2821	C282	0.835400	0.064890	0.227500
C2831	C283	0.800800	0.238500	0.228800
C2841	C284	0.872200	0.259620	0.232400
C2851	C285	0.850000	0.967000	0.169700
C2861	C286	0.799700	0.058680	0.118500
C2871	C287	0.773600	0.940560	0.172800
C2881	C288	0.725000	0.027760	0.122200
C2891	C289	0.659900	0.931200	0.116600
C2901	C290	0.661900	0.863600	0.098640
C2911	C291	0.726800	0.833190	0.082260
C2921	C292	0.598500	0.828860	0.097800
C2931	C293	0.601500	0.766700	0.081300
C2941	C294	0.667100	0.739810	0.068400
C2951	C295	0.762200	0.737790	0.827900
C2961	C296	0.736200	0.780700	0.919400
C2971	C297	0.689100	0.733300	0.813700
C2981	C298	0.663000	0.778100	0.908900
C2991	C299	0.638800	0.753900	0.855000
C3001	C300	0.667900	0.703300	0.755350
C3011	C301	0.698400	0.796100	0.694200
C3021	C302	0.620300	0.713270	0.654770
C3031	C303	0.672100	0.839270	0.645560
C3041	C304	0.594300	0.757350	0.607000
C3051	C305	0.631200	0.845330	0.541110
C3061	C306	0.614500	0.810700	0.484830
C3071	C307	0.542700	0.793860	0.471230
C3081	C308	0.668100	0.793100	0.444600
C3091	C309	0.649300	0.760800	0.394100
C3101	C310	0.577800	0.743900	0.385400
C3111	C311	0.833600	0.628400	0.617500
C3121	C312	0.842700	0.623400	0.554900
C3131	C313	0.873600	0.674700	0.655100
C3141	C314	0.887400	0.667300	0.519100
C3151	C315	0.914400	0.641120	0.134390
C3161	C316	0.788100	0.586700	0.646700
C3171	C317	0.940500	0.642500	0.479500
C3181	C318	0.982600	0.681100	0.444900
C3191	C319	0.818100	0.763200	0.554700
C3201	C320	0.879300	0.731600	0.521400
C3211	C321	0.952200	0.844940	0.017100
C3221	C322	0.995900	0.879250	0.971300
C3231	C323	0.964500	0.909100	0.921800
C3241	C324	0.883900	0.914430	0.915300
C3251	C325	0.848600	0.901800	0.860300
C3261	C326	0.841700	0.936900	0.961700
C3271	C327	0.774400	0.912900	0.854700
C3281	C328	0.768500	0.946300	0.956500
C3291	C329	0.733700	0.934000	0.902300
C3301	C330	0.887400	0.873700	0.807700
C3311	C331	0.924700	0.769800	0.487000
C3321	C332	0.954500	0.587110	0.161040
C3331	C333	0.995100	0.550920	0.121700
C3341	C334	0.950000	0.569240	0.221400
C3351	C335	0.030800	0.497400	0.139500
C3361	C336	0.986600	0.514700	0.238100
C3371	C337	0.907100	0.603400	0.267120
C3381	C338	0.026500	0.479700	0.198200
C3391	C339	0.855600	0.568900	0.300400
C3401	C340	0.914000	0.667700	0.279550
C3411	C341	0.812400	0.596800	0.344300
C3421	C342	0.870200	0.695200	0.322300
C3431	C343	0.973100	0.707500	0.252250
C3441	C344	0.752600	0.539300	0.616100
C3451	C345	0.764000	0.532800	0.554300
C3461	C346	0.807200	0.574200	0.526200
C3471	C347	0.976500	0.743600	0.448600
C3481	C348	0.820300	0.659700	0.355100
C3491	C349	0.072700	0.882100	0.979700
C3501	C350	0.115900	0.912300	0.938000
C3511	C351	0.085000	0.941400	0.890100
C3521	C352	0.010300	0.940000	0.881500
N11	N1	0.429070	0.279740	0.733970
N21	N2	0.350140	0.463190	0.667220
N31	N3	0.232400	0.539800	0.619660
N41	N4	0.230070	0.727110	0.569690
N51	N5	0.285520	0.738360	0.380530
N61	N6	0.142390	0.751420	0.209210
N71	N7	0.152350	0.696980	0.091370
N81	N8	0.024680	0.738940	0.923010
N91	N9	0.570930	0.720260	0.233970
N101	N10	0.649860	0.536810	0.167220
N111	N11	0.767600	0.460200	0.119660
N121	N12	0.769930	0.272890	0.069690
N131	N13	0.714480	0.261640	0.880530
N141	N14	0.857610	0.248580	0.709210
N151	N15	0.847650	0.303020	0.591370
N161	N16	0.975320	0.261060	0.423010
N171	N17	0.070930	0.779740	0.733970
N181	N18	0.149860	0.963190	0.667220
N191	N19	0.267600	0.039800	0.619660
N201	N20	0.269930	0.227110	0.569690
N211	N21	0.214480	0.238360	0.380530
N221	N22	0.357610	0.251420	0.209210
N231	N23	0.347650	0.196980	0.091370
N241	N24	0.475320	0.238940	0.923010
N251	N25	0.929070	0.220260	0.233970
N261	N26	0.850140	0.036810	0.167220
N271	N27	0.732400	0.960200	0.119660
N281	N28	0.730070	0.772890	0.069690
N291	N29	0.785520	0.761640	0.880530
N301	N30	0.642390	0.748580	0.709210
N311	N31	0.652350	0.803020	0.591370
N321	N32	0.524680	0.761060	0.423010
O11	O1	0.422960	0.807950	0.321010
O21	O2	0.509050	0.852840	0.268080
O31	O3	0.366250	0.816770	0.472120
O41	O4	0.276280	0.860730	0.521930
O51	O5	0.438880	0.812960	0.142960
O61	O6	0.341010	0.801510	0.199200
O71	O7	0.351500	0.844430	0.651810
O81	O8	0.445360	0.830790	0.591250
O91	O9	0.403450	0.694290	0.499980
O101	O10	0.372020	0.700180	0.643090
O111	O11	0.468460	0.646140	0.570410
O121	O12	0.421100	0.678270	0.314750
O131	O13	0.383000	0.598850	0.258430
O141	O14	0.256940	0.764140	0.052830
O151	O15	0.327710	0.685470	0.079430
O161	O16	0.459390	0.738260	0.736730
O171	O17	0.536260	0.817330	0.748210
O181	O18	0.427800	0.669360	0.169620
O191	O19	0.577040	0.192050	0.821010
O201	O20	0.490950	0.147160	0.768080
O211	O21	0.633750	0.183230	0.972120
O221	O22	0.723720	0.139270	0.021930
O231	O23	0.561120	0.187040	0.642960
O241	O24	0.658990	0.198490	0.699200
O251	O25	0.648500	0.155570	0.151810
O261	O26	0.554640	0.169210	0.091250
O271	O27	0.596550	0.305710	0.999980
O281	O28	0.627980	0.299820	0.143090
O291	O29	0.531540	0.353860	0.070410
O301	O30	0.578900	0.321730	0.814750
O311	O31	0.617000	0.401150	0.758430
O321	O32	0.743060	0.235860	0.552830
O331	O33	0.672290	0.314530	0.579430
O341	O34	0.540610	0.261740	0.236730
O351	O35	0.463740	0.182670	0.248210
O361	O36	0.572200	0.330640	0.669620
O371	O37	0.077040	0.307950	0.321010
O381	O38	0.990950	0.352840	0.268080
O391	O39	0.133750	0.316770	0.472120
O401	O40	0.223720	0.360730	0.521930
O411	O41	0.061120	0.312960	0.142960
O421	O42	0.158990	0.301510	0.199200
O431	O43	0.148500	0.344430	0.651810
O441	O44	0.054640	0.330790	0.591250
O451	O45	0.096550	0.194290	0.499980
O461	O46	0.127980	0.200180	0.643090
O471	O47	0.031540	0.146140	0.570410
O481	O48	0.078900	0.178270	0.314750
O491	O49	0.117000	0.098850	0.258430
O501	O50	0.243060	0.264140	0.052830
O511	O51	0.172290	0.185470	0.079430
O521	O52	0.040610	0.238260	0.736730
O531	O53	0.963740	0.317330	0.748210
O541	O54	0.072200	0.169360	0.169620
O551	O55	0.922960	0.692050	0.821010
O561	O56	0.009050	0.647160	0.768080
O571	O57	0.866250	0.683230	0.972120
O581	O58	0.776280	0.639270	0.021930
O591	O59	0.938880	0.687040	0.642960
O601	O60	0.841010	0.698490	0.699200
O611	O61	0.851500	0.655570	0.151810
O621	O62	0.945360	0.669210	0.091250
O631	O63	0.903450	0.805710	0.999980
O641	O64	0.872020	0.799820	0.143090
O651	O65	0.968460	0.853860	0.070410
O661	O66	0.921100	0.821730	0.814750
O671	O67	0.883000	0.901150	0.758430
O681	O68	0.756940	0.735860	0.552830
O691	O69	0.827710	0.814530	0.579430
O701	O70	0.959390	0.761740	0.236730
O711	O71	0.036260	0.682670	0.248210
O721	O72	0.927800	0.830640	0.669620
Cl11	Cl1	0.284040	0.595450	0.849810
O731	O73	0.320900	0.640500	0.879500
O741	O74	0.329100	0.560500	0.814200
O751	O75	0.227300	0.625700	0.814800
O761	O76	0.251600	0.556600	0.890400
Cl21	Cl2	0.715960	0.404550	0.349810
O771	O77	0.679100	0.359500	0.379500
O781	O78	0.670900	0.439500	0.314200
O791	O79	0.772700	0.374300	0.314800
O801	O80	0.748400	0.443400	0.390400
Cl31	Cl3	0.215960	0.095450	0.849810
O811	O81	0.179100	0.140500	0.879500
O821	O82	0.170900	0.060500	0.814200
O831	O83	0.272700	0.125700	0.814800
O841	O84	0.248400	0.056600	0.890400
Cl41	Cl4	0.784040	0.904550	0.349810
O851	O85	0.820900	0.859500	0.379500
O861	O86	0.829100	0.939500	0.314200
O871	O87	0.727300	0.874300	0.314800
O881	O88	0.751600	0.943400	0.390400
