data_ILECIN_freeONLY_PM
_symmetry_space_group_name_H-M	'P1'
_cell_length_a	12.124600
_cell_length_b	12.208700
_cell_length_c	12.499100
_cell_angle_alpha	90.000000
_cell_angle_beta	91.394000
_cell_angle_gamma	90.000000
_symmetry_Int_Tables_number 1

loop_
_symmetry_equiv_pos_as_xyz
'x,y,z'

loop_
_atom_site_label
_atom_site_type_symbol
_atom_site_fract_x
_atom_site_fract_y
_atom_site_fract_z
Mg11	Mg1	0.258580	0.248870	0.994220
Mg21	Mg2	0.758570	0.250820	0.995180
O11	O1	0.919330	0.195220	0.026800
O21	O2	0.418810	0.299860	0.986010
O31	O3	0.202580	0.409130	0.983510
O41	O4	0.314460	0.089040	0.001230
O51	O5	0.285810	0.263780	0.158810
O61	O6	0.100700	0.193450	0.020800
O71	O7	0.735140	0.240650	0.157420
O81	O8	0.599060	0.301540	0.971510
O91	O9	0.288910	0.257090	0.334160
O101	O10	0.190790	0.589280	0.990700
O111	O11	0.292480	0.910950	0.017610
O121	O12	0.728800	0.250110	0.331980
C11	C1	0.009400	0.225600	0.991200
H11	H1	0.007100	0.277700	0.936900
C21	C2	0.755900	0.282500	0.243600
H21	H2	0.797200	0.346700	0.242500
C31	C3	0.273200	0.999200	0.976100
H31	H3	0.222200	0.999400	0.919400
C41	C4	0.232700	0.501000	0.016400
H41	H4	0.292300	0.503100	0.064700
C51	C5	0.256200	0.227000	0.245400
H51	H5	0.204000	0.171200	0.243100
C61	C6	0.506600	0.262500	0.959300
H61	H6	0.503200	0.195000	0.925000
Mg31	Mg3	0.241420	0.748870	0.505780
Mg41	Mg4	0.741430	0.750820	0.504820
O131	O13	0.580670	0.695220	0.473200
O141	O14	0.081190	0.799860	0.513990
O151	O15	0.297420	0.909130	0.516490
O161	O16	0.185540	0.589040	0.498770
O171	O17	0.214190	0.763780	0.341190
O181	O18	0.399300	0.693450	0.479200
O191	O19	0.764860	0.740650	0.342580
O201	O20	0.900940	0.801540	0.528490
O211	O21	0.211090	0.757090	0.165840
O221	O22	0.309210	0.089280	0.509300
O231	O23	0.207520	0.410950	0.482390
O241	O24	0.771200	0.750110	0.168020
C71	C7	0.490600	0.725600	0.508800
H71	H7	0.492900	0.777700	0.563100
C81	C8	0.744100	0.782500	0.256400
H81	H8	0.702800	0.846700	0.257500
C91	C9	0.226800	0.499200	0.523900
H91	H9	0.277800	0.499400	0.580600
C101	C10	0.267300	0.001000	0.483600
H101	H10	0.207700	0.003100	0.435300
C111	C11	0.243800	0.727000	0.254600
H111	H11	0.296000	0.671200	0.256900
C121	C12	0.993400	0.762500	0.540700
H121	H12	0.996800	0.695000	0.575000
Mg51	Mg5	0.741420	0.751130	0.005780
Mg61	Mg6	0.241430	0.749180	0.004820
O251	O25	0.080670	0.804780	0.973200
O261	O26	0.581190	0.700140	0.013990
O271	O27	0.797420	0.590870	0.016490
O281	O28	0.685540	0.910960	0.998770
O291	O29	0.714190	0.736220	0.841190
O301	O30	0.899300	0.806550	0.979200
O311	O31	0.264860	0.759350	0.842580
O321	O32	0.400940	0.698460	0.028490
O331	O33	0.711090	0.742910	0.665840
O341	O34	0.809210	0.410720	0.009300
O351	O35	0.707520	0.089050	0.982390
O361	O36	0.271200	0.749890	0.668020
C131	C13	0.990600	0.774400	0.008800
H131	H13	0.992900	0.722300	0.063100
C141	C14	0.244100	0.717500	0.756400
H141	H14	0.202800	0.653300	0.757500
C151	C15	0.726800	0.000800	0.023900
H151	H15	0.777800	0.000600	0.080600
C161	C16	0.767300	0.499000	0.983600
H161	H16	0.707700	0.496900	0.935300
C171	C17	0.743800	0.773000	0.754600
H171	H17	0.796000	0.828800	0.756900
C181	C18	0.493400	0.737500	0.040700
H181	H18	0.496800	0.805000	0.075000
Mg71	Mg7	0.758580	0.251130	0.494220
Mg81	Mg8	0.258570	0.249180	0.495180
O371	O37	0.419330	0.304780	0.526800
O381	O38	0.918810	0.200140	0.486010
O391	O39	0.702580	0.090870	0.483510
O401	O40	0.814460	0.410960	0.501230
O411	O41	0.785810	0.236220	0.658810
O421	O42	0.600700	0.306550	0.520800
O431	O43	0.235140	0.259350	0.657420
O441	O44	0.099060	0.198460	0.471510
O451	O45	0.788910	0.242910	0.834160
O461	O46	0.690790	0.910720	0.490700
O471	O47	0.792480	0.589050	0.517610
O481	O48	0.228800	0.249890	0.831980
C191	C19	0.509400	0.274400	0.491200
H191	H19	0.507100	0.222300	0.436900
C201	C20	0.255900	0.217500	0.743600
H201	H20	0.297200	0.153300	0.742500
C211	C21	0.773200	0.500800	0.476100
H211	H21	0.722200	0.500600	0.419400
C221	C22	0.732700	0.999000	0.516400
H221	H22	0.792300	0.996900	0.564700
C231	C23	0.756200	0.273000	0.745400
H231	H23	0.704000	0.328800	0.743100
C241	C24	0.006600	0.237500	0.459300
H241	H24	0.003200	0.305000	0.425000
