data_ILEHUD_freeONLY_PM
_symmetry_space_group_name_H-M	'P1'
_cell_length_a	20.438000
_cell_length_b	9.502000
_cell_length_c	22.808000
_cell_angle_alpha	90.000000
_cell_angle_beta	90.136000
_cell_angle_gamma	90.000000
_symmetry_Int_Tables_number 1

loop_
_symmetry_equiv_pos_as_xyz
'x,y,z'

loop_
_atom_site_label
_atom_site_type_symbol
_atom_site_fract_x
_atom_site_fract_y
_atom_site_fract_z
Zn11	Zn1	0.104620	0.963590	0.028270
Zn21	Zn2	0.155850	0.254220	0.877710
Zn31	Zn3	0.219880	0.725710	0.824140
P11	P1	0.026820	0.144300	0.930230
P21	P2	0.129840	0.930100	0.896890
P31	P3	0.232560	0.034300	0.104030
P41	P4	0.291150	0.080100	0.226470
O11	O1	0.049900	0.114700	0.993100
O21	O2	0.953400	0.163200	0.927600
O31	O3	0.062600	0.269700	0.902600
O41	O4	0.002300	0.875000	0.898500
H11	H1	0.988200	0.884300	0.931900
O51	O5	0.174500	0.057000	0.891500
O61	O6	0.142300	0.821000	0.850900
O71	O7	0.132400	0.865300	0.958000
O81	O8	0.172800	0.065600	0.067500
O91	O9	0.292100	0.108100	0.077200
O101	O10	0.242600	0.877700	0.112400
O111	O11	0.350700	0.145700	0.197100
O121	O12	0.278700	0.147000	0.286300
O131	O13	0.298400	0.920900	0.234000
O141	O14	0.223400	0.264700	0.163900
H21	H2	0.217000	0.309100	0.194200
C11	C1	0.045300	0.989300	0.885200
C21	C2	0.034100	0.027400	0.819800
H31	H3	0.043600	0.947100	0.795800
H41	H4	0.062300	0.103900	0.809100
H51	H5	0.989300	0.054900	0.814100
C31	C3	0.222100	0.117500	0.176300
C41	C4	0.155800	0.071600	0.203200
H61	H6	0.150600	0.114700	0.241000
H71	H7	0.155000	0.971100	0.207400
H81	H8	0.120700	0.100700	0.177900
Zn41	Zn4	0.604620	0.463590	0.028270
Zn51	Zn5	0.655850	0.754220	0.877710
Zn61	Zn6	0.719880	0.225710	0.824140
P51	P5	0.526820	0.644300	0.930230
P61	P6	0.629840	0.430100	0.896890
P71	P7	0.732560	0.534300	0.104030
P81	P8	0.791150	0.580100	0.226470
O151	O15	0.549900	0.614700	0.993100
O161	O16	0.453400	0.663200	0.927600
O171	O17	0.562600	0.769700	0.902600
O181	O18	0.502300	0.375000	0.898500
H91	H9	0.488200	0.384300	0.931900
O191	O19	0.674500	0.557000	0.891500
O201	O20	0.642300	0.321000	0.850900
O211	O21	0.632400	0.365300	0.958000
O221	O22	0.672800	0.565600	0.067500
O231	O23	0.792100	0.608100	0.077200
O241	O24	0.742600	0.377700	0.112400
O251	O25	0.850700	0.645700	0.197100
O261	O26	0.778700	0.647000	0.286300
O271	O27	0.798400	0.420900	0.234000
O281	O28	0.723400	0.764700	0.163900
H101	H10	0.717000	0.809100	0.194200
C51	C5	0.545300	0.489300	0.885200
C61	C6	0.534100	0.527400	0.819800
H111	H11	0.543600	0.447100	0.795800
H121	H12	0.562300	0.603900	0.809100
H131	H13	0.489300	0.554900	0.814100
C71	C7	0.722100	0.617500	0.176300
C81	C8	0.655800	0.571600	0.203200
H141	H14	0.650600	0.614700	0.241000
H151	H15	0.655000	0.471100	0.207400
H161	H16	0.620700	0.600700	0.177900
Zn71	Zn7	0.895380	0.963590	0.471730
Zn81	Zn8	0.844150	0.254220	0.622290
Zn91	Zn9	0.780120	0.725710	0.675860
P91	P9	0.973180	0.144300	0.569770
P101	P10	0.870160	0.930100	0.603110
P111	P11	0.767440	0.034300	0.395970
P121	P12	0.708850	0.080100	0.273530
O291	O29	0.950100	0.114700	0.506900
O301	O30	0.046600	0.163200	0.572400
O311	O31	0.937400	0.269700	0.597400
O321	O32	0.997700	0.875000	0.601500
H171	H17	0.011800	0.884300	0.568100
O331	O33	0.825500	0.057000	0.608500
O341	O34	0.857700	0.821000	0.649100
O351	O35	0.867600	0.865300	0.542000
O361	O36	0.827200	0.065600	0.432500
O371	O37	0.707900	0.108100	0.422800
O381	O38	0.757400	0.877700	0.387600
O391	O39	0.649300	0.145700	0.302900
O401	O40	0.721300	0.147000	0.213700
O411	O41	0.701600	0.920900	0.266000
O421	O42	0.776600	0.264700	0.336100
H181	H18	0.783000	0.309100	0.305800
C91	C9	0.954700	0.989300	0.614800
C101	C10	0.965900	0.027400	0.680200
H191	H19	0.956400	0.947100	0.704200
H201	H20	0.937700	0.103900	0.690900
H211	H21	0.010700	0.054900	0.685900
C111	C11	0.777900	0.117500	0.323700
C121	C12	0.844200	0.071600	0.296800
H221	H22	0.849400	0.114700	0.259000
H231	H23	0.845000	0.971100	0.292600
H241	H24	0.879300	0.100700	0.322100
Zn101	Zn10	0.395380	0.463590	0.471730
Zn111	Zn11	0.344150	0.754220	0.622290
Zn121	Zn12	0.280120	0.225710	0.675860
P131	P13	0.473180	0.644300	0.569770
P141	P14	0.370160	0.430100	0.603110
P151	P15	0.267440	0.534300	0.395970
P161	P16	0.208850	0.580100	0.273530
O431	O43	0.450100	0.614700	0.506900
O441	O44	0.546600	0.663200	0.572400
O451	O45	0.437400	0.769700	0.597400
O461	O46	0.497700	0.375000	0.601500
H251	H25	0.511800	0.384300	0.568100
O471	O47	0.325500	0.557000	0.608500
O481	O48	0.357700	0.321000	0.649100
O491	O49	0.367600	0.365300	0.542000
O501	O50	0.327200	0.565600	0.432500
O511	O51	0.207900	0.608100	0.422800
O521	O52	0.257400	0.377700	0.387600
O531	O53	0.149300	0.645700	0.302900
O541	O54	0.221300	0.647000	0.213700
O551	O55	0.201600	0.420900	0.266000
O561	O56	0.276600	0.764700	0.336100
H261	H26	0.283000	0.809100	0.305800
C131	C13	0.454700	0.489300	0.614800
C141	C14	0.465900	0.527400	0.680200
H271	H27	0.456400	0.447100	0.704200
H281	H28	0.437700	0.603900	0.690900
H291	H29	0.510700	0.554900	0.685900
C151	C15	0.277900	0.617500	0.323700
C161	C16	0.344200	0.571600	0.296800
H301	H30	0.349400	0.614700	0.259000
H311	H31	0.345000	0.471100	0.292600
H321	H32	0.379300	0.600700	0.322100
Zn131	Zn13	0.895380	0.036410	0.971730
Zn141	Zn14	0.844150	0.745780	0.122290
Zn151	Zn15	0.780120	0.274290	0.175860
P171	P17	0.973180	0.855700	0.069770
P181	P18	0.870160	0.069900	0.103110
P191	P19	0.767440	0.965700	0.895970
P201	P20	0.708850	0.919900	0.773530
O571	O57	0.950100	0.885300	0.006900
O581	O58	0.046600	0.836800	0.072400
O591	O59	0.937400	0.730300	0.097400
O601	O60	0.997700	0.125000	0.101500
H331	H33	0.011800	0.115700	0.068100
O611	O61	0.825500	0.943000	0.108500
O621	O62	0.857700	0.179000	0.149100
O631	O63	0.867600	0.134700	0.042000
O641	O64	0.827200	0.934400	0.932500
O651	O65	0.707900	0.891900	0.922800
O661	O66	0.757400	0.122300	0.887600
O671	O67	0.649300	0.854300	0.802900
O681	O68	0.721300	0.853000	0.713700
O691	O69	0.701600	0.079100	0.766000
O701	O70	0.776600	0.735300	0.836100
H341	H34	0.783000	0.690900	0.805800
C171	C17	0.954700	0.010700	0.114800
C181	C18	0.965900	0.972600	0.180200
H351	H35	0.956400	0.052900	0.204200
H361	H36	0.937700	0.896100	0.190900
H371	H37	0.010700	0.945100	0.185900
C191	C19	0.777900	0.882500	0.823700
C201	C20	0.844200	0.928400	0.796800
H381	H38	0.849400	0.885300	0.759000
H391	H39	0.845000	0.028900	0.792600
H401	H40	0.879300	0.899300	0.822100
Zn161	Zn16	0.395380	0.536410	0.971730
Zn171	Zn17	0.344150	0.245780	0.122290
Zn181	Zn18	0.280120	0.774290	0.175860
P211	P21	0.473180	0.355700	0.069770
P221	P22	0.370160	0.569900	0.103110
P231	P23	0.267440	0.465700	0.895970
P241	P24	0.208850	0.419900	0.773530
O711	O71	0.450100	0.385300	0.006900
O721	O72	0.546600	0.336800	0.072400
O731	O73	0.437400	0.230300	0.097400
O741	O74	0.497700	0.625000	0.101500
H411	H41	0.511800	0.615700	0.068100
O751	O75	0.325500	0.443000	0.108500
O761	O76	0.357700	0.679000	0.149100
O771	O77	0.367600	0.634700	0.042000
O781	O78	0.327200	0.434400	0.932500
O791	O79	0.207900	0.391900	0.922800
O801	O80	0.257400	0.622300	0.887600
O811	O81	0.149300	0.354300	0.802900
O821	O82	0.221300	0.353000	0.713700
O831	O83	0.201600	0.579100	0.766000
O841	O84	0.276600	0.235300	0.836100
H421	H42	0.283000	0.190900	0.805800
C211	C21	0.454700	0.510700	0.114800
C221	C22	0.465900	0.472600	0.180200
H431	H43	0.456400	0.552900	0.204200
H441	H44	0.437700	0.396100	0.190900
H451	H45	0.510700	0.445100	0.185900
C231	C23	0.277900	0.382500	0.823700
C241	C24	0.344200	0.428400	0.796800
H461	H46	0.349400	0.385300	0.759000
H471	H47	0.345000	0.528900	0.792600
H481	H48	0.379300	0.399300	0.822100
Zn191	Zn19	0.104620	0.036410	0.528270
Zn201	Zn20	0.155850	0.745780	0.377710
Zn211	Zn21	0.219880	0.274290	0.324140
P251	P25	0.026820	0.855700	0.430230
P261	P26	0.129840	0.069900	0.396890
P271	P27	0.232560	0.965700	0.604030
P281	P28	0.291150	0.919900	0.726470
O851	O85	0.049900	0.885300	0.493100
O861	O86	0.953400	0.836800	0.427600
O871	O87	0.062600	0.730300	0.402600
O881	O88	0.002300	0.125000	0.398500
H491	H49	0.988200	0.115700	0.431900
O891	O89	0.174500	0.943000	0.391500
O901	O90	0.142300	0.179000	0.350900
O911	O91	0.132400	0.134700	0.458000
O921	O92	0.172800	0.934400	0.567500
O931	O93	0.292100	0.891900	0.577200
O941	O94	0.242600	0.122300	0.612400
O951	O95	0.350700	0.854300	0.697100
O961	O96	0.278700	0.853000	0.786300
O971	O97	0.298400	0.079100	0.734000
O981	O98	0.223400	0.735300	0.663900
H501	H50	0.217000	0.690900	0.694200
C251	C25	0.045300	0.010700	0.385200
C261	C26	0.034100	0.972600	0.319800
H511	H51	0.043600	0.052900	0.295800
H521	H52	0.062300	0.896100	0.309100
H531	H53	0.989300	0.945100	0.314100
C271	C27	0.222100	0.882500	0.676300
C281	C28	0.155800	0.928400	0.703200
H541	H54	0.150600	0.885300	0.741000
H551	H55	0.155000	0.028900	0.707400
H561	H56	0.120700	0.899300	0.677900
Zn221	Zn22	0.604620	0.536410	0.528270
Zn231	Zn23	0.655850	0.245780	0.377710
Zn241	Zn24	0.719880	0.774290	0.324140
P291	P29	0.526820	0.355700	0.430230
P301	P30	0.629840	0.569900	0.396890
P311	P31	0.732560	0.465700	0.604030
P321	P32	0.791150	0.419900	0.726470
O991	O99	0.549900	0.385300	0.493100
O1001	O100	0.453400	0.336800	0.427600
O1011	O101	0.562600	0.230300	0.402600
O1021	O102	0.502300	0.625000	0.398500
H571	H57	0.488200	0.615700	0.431900
O1031	O103	0.674500	0.443000	0.391500
O1041	O104	0.642300	0.679000	0.350900
O1051	O105	0.632400	0.634700	0.458000
O1061	O106	0.672800	0.434400	0.567500
O1071	O107	0.792100	0.391900	0.577200
O1081	O108	0.742600	0.622300	0.612400
O1091	O109	0.850700	0.354300	0.697100
O1101	O110	0.778700	0.353000	0.786300
O1111	O111	0.798400	0.579100	0.734000
O1121	O112	0.723400	0.235300	0.663900
H581	H58	0.717000	0.190900	0.694200
C291	C29	0.545300	0.510700	0.385200
C301	C30	0.534100	0.472600	0.319800
H591	H59	0.543600	0.552900	0.295800
H601	H60	0.562300	0.396100	0.309100
H611	H61	0.489300	0.445100	0.314100
C311	C31	0.722100	0.382500	0.676300
C321	C32	0.655800	0.428400	0.703200
H621	H62	0.650600	0.385300	0.741000
H631	H63	0.655000	0.528900	0.707400
H641	H64	0.620700	0.399300	0.677900
