data_ILUFOL_freeONLY_PM
_symmetry_space_group_name_H-M	'P1'
_cell_length_a	15.219600
_cell_length_b	15.219600
_cell_length_c	15.473700
_cell_angle_alpha	90.000000
_cell_angle_beta	90.000000
_cell_angle_gamma	120.000000
_symmetry_Int_Tables_number 1

loop_
_symmetry_equiv_pos_as_xyz
'x,y,z'

loop_
_atom_site_label
_atom_site_type_symbol
_atom_site_fract_x
_atom_site_fract_y
_atom_site_fract_z
Dy11	Dy1	0.666670	0.333340	0.750000
Dy21	Dy2	0.333330	0.666660	0.750000
Dy31	Dy3	0.333330	0.666660	0.250000
Dy41	Dy4	0.666670	0.333340	0.250000
Co11	Co1	0.500000	0.000000	0.500000
Co21	Co2	0.500000	0.500000	0.500000
Co31	Co3	0.000000	0.500000	0.500000
Co41	Co4	0.500000	0.000000	0.000000
Co51	Co5	0.000000	0.500000	0.000000
Co61	Co6	0.500000	0.500000	0.000000
H11	H1	0.487100	0.836100	0.453100
H21	H2	0.766100	0.054500	0.655100
H31	H3	0.349000	0.512900	0.453100
H41	H4	0.288400	0.233900	0.655100
H51	H5	0.163900	0.651000	0.453100
H61	H6	0.945500	0.711600	0.655100
H71	H7	0.512900	0.163900	0.453100
H81	H8	0.233900	0.945500	0.655100
H91	H9	0.651000	0.487100	0.453100
H101	H10	0.711600	0.766100	0.655100
H111	H11	0.836100	0.349000	0.453100
H121	H12	0.054500	0.288400	0.655100
H131	H13	0.651000	0.163900	0.046900
H141	H14	0.711600	0.945500	0.844900
H151	H15	0.836100	0.487100	0.046900
H161	H16	0.054500	0.766100	0.844900
H171	H17	0.512900	0.349000	0.046900
H181	H18	0.233900	0.288400	0.844900
H191	H19	0.349000	0.836100	0.046900
H201	H20	0.288400	0.054500	0.844900
H211	H21	0.163900	0.512900	0.046900
H221	H22	0.945500	0.233900	0.844900
H231	H23	0.487100	0.651000	0.046900
H241	H24	0.766100	0.711600	0.844900
H251	H25	0.512900	0.163900	0.546900
H261	H26	0.233900	0.945500	0.344900
H271	H27	0.651000	0.487100	0.546900
H281	H28	0.711600	0.766100	0.344900
H291	H29	0.836100	0.349000	0.546900
H301	H30	0.054500	0.288400	0.344900
H311	H31	0.487100	0.836100	0.546900
H321	H32	0.766100	0.054500	0.344900
H331	H33	0.349000	0.512900	0.546900
H341	H34	0.288400	0.233900	0.344900
H351	H35	0.163900	0.651000	0.546900
H361	H36	0.945500	0.711600	0.344900
H371	H37	0.349000	0.836100	0.953100
H381	H38	0.288400	0.054500	0.155100
H391	H39	0.163900	0.512900	0.953100
H401	H40	0.945500	0.233900	0.155100
H411	H41	0.487100	0.651000	0.953100
H421	H42	0.766100	0.711600	0.155100
H431	H43	0.651000	0.163900	0.953100
H441	H44	0.711600	0.945500	0.155100
H451	H45	0.836100	0.487100	0.953100
H461	H46	0.054500	0.766100	0.155100
H471	H47	0.512900	0.349000	0.953100
H481	H48	0.233900	0.288400	0.155100
H491	H49	0.900500	0.099500	0.750000
H501	H50	0.199000	0.099500	0.750000
H511	H51	0.900500	0.801000	0.750000
H521	H52	0.099500	0.900500	0.750000
H531	H53	0.801000	0.900500	0.750000
H541	H54	0.099500	0.199000	0.750000
H551	H55	0.099500	0.900500	0.250000
H561	H56	0.801000	0.900500	0.250000
H571	H57	0.099500	0.199000	0.250000
H581	H58	0.900500	0.099500	0.250000
H591	H59	0.199000	0.099500	0.250000
H601	H60	0.900500	0.801000	0.250000
C11	C1	0.645300	0.138000	0.639200
C21	C2	0.733900	0.161300	0.696400
C31	C3	0.785200	0.107800	0.693800
C41	C4	0.492700	0.354700	0.639200
C51	C5	0.427400	0.266100	0.696400
C61	C6	0.322600	0.214800	0.693800
C71	C7	0.862000	0.507300	0.639200
C81	C8	0.838700	0.572600	0.696400
C91	C9	0.892200	0.677400	0.693800
C101	C10	0.354700	0.862000	0.639200
C111	C11	0.266100	0.838700	0.696400
C121	C12	0.214800	0.892200	0.693800
C131	C13	0.507300	0.645300	0.639200
C141	C14	0.572600	0.733900	0.696400
C151	C15	0.677400	0.785200	0.693800
C161	C16	0.138000	0.492700	0.639200
C171	C17	0.161300	0.427400	0.696400
C181	C18	0.107800	0.322600	0.693800
C191	C19	0.507300	0.862000	0.860800
C201	C20	0.572600	0.838700	0.803600
C211	C21	0.677400	0.892200	0.806200
C221	C22	0.138000	0.645300	0.860800
C231	C23	0.161300	0.733900	0.803600
C241	C24	0.107800	0.785200	0.806200
C251	C25	0.354700	0.492700	0.860800
C261	C26	0.266100	0.427400	0.803600
C271	C27	0.214800	0.322600	0.806200
C281	C28	0.492700	0.138000	0.860800
C291	C29	0.427400	0.161300	0.803600
C301	C30	0.322600	0.107800	0.806200
C311	C31	0.862000	0.354700	0.860800
C321	C32	0.838700	0.266100	0.803600
C331	C33	0.892200	0.214800	0.806200
C341	C34	0.645300	0.507300	0.860800
C351	C35	0.733900	0.572600	0.803600
C361	C36	0.785200	0.677400	0.806200
C371	C37	0.354700	0.862000	0.360800
C381	C38	0.266100	0.838700	0.303600
C391	C39	0.214800	0.892200	0.306200
C401	C40	0.507300	0.645300	0.360800
C411	C41	0.572600	0.733900	0.303600
C421	C42	0.677400	0.785200	0.306200
C431	C43	0.138000	0.492700	0.360800
C441	C44	0.161300	0.427400	0.303600
C451	C45	0.107800	0.322600	0.306200
C461	C46	0.645300	0.138000	0.360800
C471	C47	0.733900	0.161300	0.303600
C481	C48	0.785200	0.107800	0.306200
C491	C49	0.492700	0.354700	0.360800
C501	C50	0.427400	0.266100	0.303600
C511	C51	0.322600	0.214800	0.306200
C521	C52	0.862000	0.507300	0.360800
C531	C53	0.838700	0.572600	0.303600
C541	C54	0.892200	0.677400	0.306200
C551	C55	0.492700	0.138000	0.139200
C561	C56	0.427400	0.161300	0.196400
C571	C57	0.322600	0.107800	0.193800
C581	C58	0.862000	0.354700	0.139200
C591	C59	0.838700	0.266100	0.196400
C601	C60	0.892200	0.214800	0.193800
C611	C61	0.645300	0.507300	0.139200
C621	C62	0.733900	0.572600	0.196400
C631	C63	0.785200	0.677400	0.193800
C641	C64	0.507300	0.862000	0.139200
C651	C65	0.572600	0.838700	0.196400
C661	C66	0.677400	0.892200	0.193800
C671	C67	0.138000	0.645300	0.139200
C681	C68	0.161300	0.733900	0.196400
C691	C69	0.107800	0.785200	0.193800
C701	C70	0.354700	0.492700	0.139200
C711	C71	0.266100	0.427400	0.196400
C721	C72	0.214800	0.322600	0.193800
C731	C73	0.865250	0.134750	0.750000
C741	C74	0.269500	0.134750	0.750000
C751	C75	0.865250	0.730500	0.750000
C761	C76	0.134750	0.865250	0.750000
C771	C77	0.730500	0.865250	0.750000
C781	C78	0.134750	0.269500	0.750000
C791	C79	0.134750	0.865250	0.250000
C801	C80	0.730500	0.865250	0.250000
C811	C81	0.134750	0.269500	0.250000
C821	C82	0.865250	0.134750	0.250000
C831	C83	0.269500	0.134750	0.250000
C841	C84	0.865250	0.730500	0.250000
N11	N1	0.760600	0.239400	0.750000
N21	N2	0.478800	0.239400	0.750000
N31	N3	0.760600	0.521200	0.750000
N41	N4	0.239400	0.760600	0.750000
N51	N5	0.521200	0.760600	0.750000
N61	N6	0.239400	0.478800	0.750000
N71	N7	0.239400	0.760600	0.250000
N81	N8	0.521200	0.760600	0.250000
N91	N9	0.239400	0.478800	0.250000
N101	N10	0.760600	0.239400	0.250000
N111	N11	0.478800	0.239400	0.250000
N121	N12	0.760600	0.521200	0.250000
O11	O1	0.612900	0.061600	0.592500
O21	O2	0.611200	0.199000	0.643380
O31	O3	0.448700	0.387100	0.592500
O41	O4	0.587800	0.388800	0.643380
O51	O5	0.938400	0.551300	0.592500
O61	O6	0.801000	0.412200	0.643380
O71	O7	0.387100	0.938400	0.592500
O81	O8	0.388800	0.801000	0.643380
O91	O9	0.551300	0.612900	0.592500
O101	O10	0.412200	0.611200	0.643380
O111	O11	0.061600	0.448700	0.592500
O121	O12	0.199000	0.587800	0.643380
O131	O13	0.551300	0.938400	0.907500
O141	O14	0.412200	0.801000	0.856620
O151	O15	0.061600	0.612900	0.907500
O161	O16	0.199000	0.611200	0.856620
O171	O17	0.387100	0.448700	0.907500
O181	O18	0.388800	0.587800	0.856620
O191	O19	0.448700	0.061600	0.907500
O201	O20	0.587800	0.199000	0.856620
O211	O21	0.938400	0.387100	0.907500
O221	O22	0.801000	0.388800	0.856620
O231	O23	0.612900	0.551300	0.907500
O241	O24	0.611200	0.412200	0.856620
O251	O25	0.387100	0.938400	0.407500
O261	O26	0.388800	0.801000	0.356620
O271	O27	0.551300	0.612900	0.407500
O281	O28	0.412200	0.611200	0.356620
O291	O29	0.061600	0.448700	0.407500
O301	O30	0.199000	0.587800	0.356620
O311	O31	0.612900	0.061600	0.407500
O321	O32	0.611200	0.199000	0.356620
O331	O33	0.448700	0.387100	0.407500
O341	O34	0.587800	0.388800	0.356620
O351	O35	0.938400	0.551300	0.407500
O361	O36	0.801000	0.412200	0.356620
O371	O37	0.448700	0.061600	0.092500
O381	O38	0.587800	0.199000	0.143380
O391	O39	0.938400	0.387100	0.092500
O401	O40	0.801000	0.388800	0.143380
O411	O41	0.612900	0.551300	0.092500
O421	O42	0.611200	0.412200	0.143380
O431	O43	0.551300	0.938400	0.092500
O441	O44	0.412200	0.801000	0.143380
O451	O45	0.061600	0.612900	0.092500
O461	O46	0.199000	0.611200	0.143380
O471	O47	0.387100	0.448700	0.092500
O481	O48	0.388800	0.587800	0.143380
O491	O49	0.514400	0.865100	0.500000
O501	O50	0.350700	0.485600	0.500000
O511	O51	0.134900	0.649300	0.500000
O521	O52	0.485600	0.134900	0.500000
O531	O53	0.649300	0.514400	0.500000
O541	O54	0.865100	0.350700	0.500000
O551	O55	0.649300	0.134900	0.000000
O561	O56	0.865100	0.514400	0.000000
O571	O57	0.485600	0.350700	0.000000
O581	O58	0.350700	0.865100	0.000000
O591	O59	0.134900	0.485600	0.000000
O601	O60	0.514400	0.649300	0.000000
