data_ILUGOM_freeONLY_PM
_symmetry_space_group_name_H-M	'P1'
_cell_length_a	15.165000
_cell_length_b	15.165000
_cell_length_c	15.713000
_cell_angle_alpha	90.000000
_cell_angle_beta	90.000000
_cell_angle_gamma	120.000000
_symmetry_Int_Tables_number 1

loop_
_symmetry_equiv_pos_as_xyz
'x,y,z'

loop_
_atom_site_label
_atom_site_type_symbol
_atom_site_fract_x
_atom_site_fract_y
_atom_site_fract_z
Er11	Er1	0.666670	0.333340	0.750000
Er21	Er2	0.333330	0.666660	0.750000
Er31	Er3	0.333330	0.666660	0.250000
Er41	Er4	0.666670	0.333340	0.250000
Fe11	Fe1	0.500000	0.000000	0.000000
Fe21	Fe2	0.500000	0.500000	0.000000
Fe31	Fe3	0.000000	0.500000	0.000000
Fe41	Fe4	0.500000	0.000000	0.500000
Fe51	Fe5	0.000000	0.500000	0.500000
Fe61	Fe6	0.500000	0.500000	0.500000
H11	H1	0.288500	0.056500	0.845600
H21	H2	0.768000	0.711500	0.845600
H31	H3	0.943500	0.232000	0.845600
H41	H4	0.711500	0.943500	0.845600
H51	H5	0.232000	0.288500	0.845600
H61	H6	0.056500	0.768000	0.845600
H71	H7	0.232000	0.943500	0.654400
H81	H8	0.056500	0.288500	0.654400
H91	H9	0.711500	0.768000	0.654400
H101	H10	0.768000	0.056500	0.654400
H111	H11	0.943500	0.711500	0.654400
H121	H12	0.288500	0.232000	0.654400
H131	H13	0.711500	0.943500	0.154400
H141	H14	0.232000	0.288500	0.154400
H151	H15	0.056500	0.768000	0.154400
H161	H16	0.288500	0.056500	0.154400
H171	H17	0.768000	0.711500	0.154400
H181	H18	0.943500	0.232000	0.154400
H191	H19	0.768000	0.056500	0.345600
H201	H20	0.943500	0.711500	0.345600
H211	H21	0.288500	0.232000	0.345600
H221	H22	0.232000	0.943500	0.345600
H231	H23	0.056500	0.288500	0.345600
H241	H24	0.711500	0.768000	0.345600
H251	H25	0.199900	0.099950	0.750000
H261	H26	0.900050	0.800100	0.750000
H271	H27	0.900050	0.099950	0.750000
H281	H28	0.800100	0.900050	0.750000
H291	H29	0.099950	0.199900	0.750000
H301	H30	0.099950	0.900050	0.750000
H311	H31	0.800100	0.900050	0.250000
H321	H32	0.099950	0.199900	0.250000
H331	H33	0.099950	0.900050	0.250000
H341	H34	0.199900	0.099950	0.250000
H351	H35	0.900050	0.800100	0.250000
H361	H36	0.900050	0.099950	0.250000
C11	C1	0.322900	0.108900	0.806600
C21	C2	0.427300	0.162400	0.803600
C31	C3	0.493400	0.140000	0.860700
C41	C4	0.786000	0.677100	0.806600
C51	C5	0.735100	0.572700	0.803600
C61	C6	0.646600	0.506600	0.860700
C71	C7	0.891100	0.214000	0.806600
C81	C8	0.837600	0.264900	0.803600
C91	C9	0.860000	0.353400	0.860700
C101	C10	0.677100	0.891100	0.806600
C111	C11	0.572700	0.837600	0.803600
C121	C12	0.506600	0.860000	0.860700
C131	C13	0.214000	0.322900	0.806600
C141	C14	0.264900	0.427300	0.803600
C151	C15	0.353400	0.493400	0.860700
C161	C16	0.108900	0.786000	0.806600
C171	C17	0.162400	0.735100	0.803600
C181	C18	0.140000	0.646600	0.860700
C191	C19	0.214000	0.891100	0.693400
C201	C20	0.264900	0.837600	0.696400
C211	C21	0.353400	0.860000	0.639300
C221	C22	0.108900	0.322900	0.693400
C231	C23	0.162400	0.427300	0.696400
C241	C24	0.140000	0.493400	0.639300
C251	C25	0.677100	0.786000	0.693400
C261	C26	0.572700	0.735100	0.696400
C271	C27	0.506600	0.646600	0.639300
C281	C28	0.786000	0.108900	0.693400
C291	C29	0.735100	0.162400	0.696400
C301	C30	0.646600	0.140000	0.639300
C311	C31	0.891100	0.677100	0.693400
C321	C32	0.837600	0.572700	0.696400
C331	C33	0.860000	0.506600	0.639300
C341	C34	0.322900	0.214000	0.693400
C351	C35	0.427300	0.264900	0.696400
C361	C36	0.493400	0.353400	0.639300
C371	C37	0.677100	0.891100	0.193400
C381	C38	0.572700	0.837600	0.196400
C391	C39	0.506600	0.860000	0.139300
C401	C40	0.214000	0.322900	0.193400
C411	C41	0.264900	0.427300	0.196400
C421	C42	0.353400	0.493400	0.139300
C431	C43	0.108900	0.786000	0.193400
C441	C44	0.162400	0.735100	0.196400
C451	C45	0.140000	0.646600	0.139300
C461	C46	0.322900	0.108900	0.193400
C471	C47	0.427300	0.162400	0.196400
C481	C48	0.493400	0.140000	0.139300
C491	C49	0.786000	0.677100	0.193400
C501	C50	0.735100	0.572700	0.196400
C511	C51	0.646600	0.506600	0.139300
C521	C52	0.891100	0.214000	0.193400
C531	C53	0.837600	0.264900	0.196400
C541	C54	0.860000	0.353400	0.139300
C551	C55	0.786000	0.108900	0.306600
C561	C56	0.735100	0.162400	0.303600
C571	C57	0.646600	0.140000	0.360700
C581	C58	0.891100	0.677100	0.306600
C591	C59	0.837600	0.572700	0.303600
C601	C60	0.860000	0.506600	0.360700
C611	C61	0.322900	0.214000	0.306600
C621	C62	0.427300	0.264900	0.303600
C631	C63	0.493400	0.353400	0.360700
C641	C64	0.214000	0.891100	0.306600
C651	C65	0.264900	0.837600	0.303600
C661	C66	0.353400	0.860000	0.360700
C671	C67	0.108900	0.322900	0.306600
C681	C68	0.162400	0.427300	0.303600
C691	C69	0.140000	0.493400	0.360700
C701	C70	0.677100	0.786000	0.306600
C711	C71	0.572700	0.735100	0.303600
C721	C72	0.506600	0.646600	0.360700
C731	C73	0.270700	0.135350	0.750000
C741	C74	0.864650	0.729300	0.750000
C751	C75	0.864650	0.135350	0.750000
C761	C76	0.729300	0.864650	0.750000
C771	C77	0.135350	0.270700	0.750000
C781	C78	0.135350	0.864650	0.750000
C791	C79	0.729300	0.864650	0.250000
C801	C80	0.135350	0.270700	0.250000
C811	C81	0.135350	0.864650	0.250000
C821	C82	0.270700	0.135350	0.250000
C831	C83	0.864650	0.729300	0.250000
C841	C84	0.864650	0.135350	0.250000
N11	N1	0.479100	0.239550	0.750000
N21	N2	0.760450	0.520900	0.750000
N31	N3	0.760450	0.239550	0.750000
N41	N4	0.520900	0.760450	0.750000
N51	N5	0.239550	0.479100	0.750000
N61	N6	0.239550	0.760450	0.750000
N71	N7	0.520900	0.760450	0.250000
N81	N8	0.239550	0.479100	0.250000
N91	N9	0.239550	0.760450	0.250000
N101	N10	0.479100	0.239550	0.250000
N111	N11	0.760450	0.520900	0.250000
N121	N12	0.760450	0.239550	0.250000
O11	O1	0.589300	0.199700	0.855500
O21	O2	0.449200	0.064900	0.908800
O31	O3	0.610400	0.410700	0.855500
O41	O4	0.615700	0.550800	0.908800
O51	O5	0.800300	0.389600	0.855500
O61	O6	0.935100	0.384300	0.908800
O71	O7	0.410700	0.800300	0.855500
O81	O8	0.550800	0.935100	0.908800
O91	O9	0.389600	0.589300	0.855500
O101	O10	0.384300	0.449200	0.908800
O111	O11	0.199700	0.610400	0.855500
O121	O12	0.064900	0.615700	0.908800
O131	O13	0.389600	0.800300	0.644500
O141	O14	0.384300	0.935100	0.591200
O151	O15	0.199700	0.589300	0.644500
O161	O16	0.064900	0.449200	0.591200
O171	O17	0.410700	0.610400	0.644500
O181	O18	0.550800	0.615700	0.591200
O191	O19	0.610400	0.199700	0.644500
O201	O20	0.615700	0.064900	0.591200
O211	O21	0.800300	0.410700	0.644500
O221	O22	0.935100	0.550800	0.591200
O231	O23	0.589300	0.389600	0.644500
O241	O24	0.449200	0.384300	0.591200
O251	O25	0.410700	0.800300	0.144500
O261	O26	0.550800	0.935100	0.091200
O271	O27	0.389600	0.589300	0.144500
O281	O28	0.384300	0.449200	0.091200
O291	O29	0.199700	0.610400	0.144500
O301	O30	0.064900	0.615700	0.091200
O311	O31	0.589300	0.199700	0.144500
O321	O32	0.449200	0.064900	0.091200
O331	O33	0.610400	0.410700	0.144500
O341	O34	0.615700	0.550800	0.091200
O351	O35	0.800300	0.389600	0.144500
O361	O36	0.935100	0.384300	0.091200
O371	O37	0.610400	0.199700	0.355500
O381	O38	0.615700	0.064900	0.408800
O391	O39	0.800300	0.410700	0.355500
O401	O40	0.935100	0.550800	0.408800
O411	O41	0.589300	0.389600	0.355500
O421	O42	0.449200	0.384300	0.408800
O431	O43	0.389600	0.800300	0.355500
O441	O44	0.384300	0.935100	0.408800
O451	O45	0.199700	0.589300	0.355500
O461	O46	0.064900	0.449200	0.408800
O471	O47	0.410700	0.610400	0.355500
O481	O48	0.550800	0.615700	0.408800
O491	O49	0.347600	0.860100	0.000000
O501	O50	0.512500	0.652400	0.000000
O511	O51	0.139900	0.487500	0.000000
O521	O52	0.652400	0.139900	0.000000
O531	O53	0.487500	0.347600	0.000000
O541	O54	0.860100	0.512500	0.000000
O551	O55	0.487500	0.139900	0.500000
O561	O56	0.860100	0.347600	0.500000
O571	O57	0.652400	0.512500	0.500000
O581	O58	0.512500	0.860100	0.500000
O591	O59	0.139900	0.652400	0.500000
O601	O60	0.347600	0.487500	0.500000
