data_ILUGAY_freeONLY_PM
_symmetry_space_group_name_H-M	'P1'
_cell_length_a	15.014400
_cell_length_b	15.014400
_cell_length_c	15.616500
_cell_angle_alpha	90.000000
_cell_angle_beta	90.000000
_cell_angle_gamma	120.000000
_symmetry_Int_Tables_number 1

loop_
_symmetry_equiv_pos_as_xyz
'x,y,z'

loop_
_atom_site_label
_atom_site_type_symbol
_atom_site_fract_x
_atom_site_fract_y
_atom_site_fract_z
Yb11	Yb1	0.666670	0.333340	0.250000
Yb21	Yb2	0.333330	0.666660	0.250000
Yb31	Yb3	0.333330	0.666660	0.750000
Yb41	Yb4	0.666670	0.333340	0.750000
Co11	Co1	0.500000	0.000000	0.500000
Co21	Co2	0.500000	0.500000	0.500000
Co31	Co3	0.000000	0.500000	0.500000
Co41	Co4	0.500000	0.000000	0.000000
Co51	Co5	0.000000	0.500000	0.000000
Co61	Co6	0.500000	0.500000	0.000000
H11	H1	0.767800	0.055000	0.346800
H21	H2	0.287200	0.232200	0.346800
H31	H3	0.945000	0.712800	0.346800
H41	H4	0.232200	0.945000	0.346800
H51	H5	0.712800	0.767800	0.346800
H61	H6	0.055000	0.287200	0.346800
H71	H7	0.712800	0.945000	0.153200
H81	H8	0.055000	0.767800	0.153200
H91	H9	0.232200	0.287200	0.153200
H101	H10	0.287200	0.055000	0.153200
H111	H11	0.945000	0.232200	0.153200
H121	H12	0.767800	0.712800	0.153200
H131	H13	0.232200	0.945000	0.653200
H141	H14	0.712800	0.767800	0.653200
H151	H15	0.055000	0.287200	0.653200
H161	H16	0.767800	0.055000	0.653200
H171	H17	0.287200	0.232200	0.653200
H181	H18	0.945000	0.712800	0.653200
H191	H19	0.287200	0.055000	0.846800
H201	H20	0.945000	0.232200	0.846800
H211	H21	0.767800	0.712800	0.846800
H221	H22	0.712800	0.945000	0.846800
H231	H23	0.055000	0.767800	0.846800
H241	H24	0.232200	0.287200	0.846800
H251	H25	0.901600	0.098400	0.250000
H261	H26	0.196800	0.098400	0.250000
H271	H27	0.901600	0.803200	0.250000
H281	H28	0.098400	0.901600	0.250000
H291	H29	0.803200	0.901600	0.250000
H301	H30	0.098400	0.196800	0.250000
H311	H31	0.098400	0.901600	0.750000
H321	H32	0.803200	0.901600	0.750000
H331	H33	0.098400	0.196800	0.750000
H341	H34	0.901600	0.098400	0.750000
H351	H35	0.196800	0.098400	0.750000
H361	H36	0.901600	0.803200	0.750000
C11	C1	0.785800	0.107600	0.307300
C21	C2	0.734000	0.161600	0.303900
C31	C3	0.644400	0.138500	0.361300
C41	C4	0.321800	0.214200	0.307300
C51	C5	0.427600	0.266000	0.303900
C61	C6	0.494100	0.355600	0.361300
C71	C7	0.892400	0.678200	0.307300
C81	C8	0.838400	0.572400	0.303900
C91	C9	0.861500	0.505900	0.361300
C101	C10	0.214200	0.892400	0.307300
C111	C11	0.266000	0.838400	0.303900
C121	C12	0.355600	0.861500	0.361300
C131	C13	0.678200	0.785800	0.307300
C141	C14	0.572400	0.734000	0.303900
C151	C15	0.505900	0.644400	0.361300
C161	C16	0.107600	0.321800	0.307300
C171	C17	0.161600	0.427600	0.303900
C181	C18	0.138500	0.494100	0.361300
C191	C19	0.678200	0.892400	0.192700
C201	C20	0.572400	0.838400	0.196100
C211	C21	0.505900	0.861500	0.138700
C221	C22	0.107600	0.785800	0.192700
C231	C23	0.161600	0.734000	0.196100
C241	C24	0.138500	0.644400	0.138700
C251	C25	0.214200	0.321800	0.192700
C261	C26	0.266000	0.427600	0.196100
C271	C27	0.355600	0.494100	0.138700
C281	C28	0.321800	0.107600	0.192700
C291	C29	0.427600	0.161600	0.196100
C301	C30	0.494100	0.138500	0.138700
C311	C31	0.892400	0.214200	0.192700
C321	C32	0.838400	0.266000	0.196100
C331	C33	0.861500	0.355600	0.138700
C341	C34	0.785800	0.678200	0.192700
C351	C35	0.734000	0.572400	0.196100
C361	C36	0.644400	0.505900	0.138700
C371	C37	0.214200	0.892400	0.692700
C381	C38	0.266000	0.838400	0.696100
C391	C39	0.355600	0.861500	0.638700
C401	C40	0.678200	0.785800	0.692700
C411	C41	0.572400	0.734000	0.696100
C421	C42	0.505900	0.644400	0.638700
C431	C43	0.107600	0.321800	0.692700
C441	C44	0.161600	0.427600	0.696100
C451	C45	0.138500	0.494100	0.638700
C461	C46	0.785800	0.107600	0.692700
C471	C47	0.734000	0.161600	0.696100
C481	C48	0.644400	0.138500	0.638700
C491	C49	0.321800	0.214200	0.692700
C501	C50	0.427600	0.266000	0.696100
C511	C51	0.494100	0.355600	0.638700
C521	C52	0.892400	0.678200	0.692700
C531	C53	0.838400	0.572400	0.696100
C541	C54	0.861500	0.505900	0.638700
C551	C55	0.321800	0.107600	0.807300
C561	C56	0.427600	0.161600	0.803900
C571	C57	0.494100	0.138500	0.861300
C581	C58	0.892400	0.214200	0.807300
C591	C59	0.838400	0.266000	0.803900
C601	C60	0.861500	0.355600	0.861300
C611	C61	0.785800	0.678200	0.807300
C621	C62	0.734000	0.572400	0.803900
C631	C63	0.644400	0.505900	0.861300
C641	C64	0.678200	0.892400	0.807300
C651	C65	0.572400	0.838400	0.803900
C661	C66	0.505900	0.861500	0.861300
C671	C67	0.107600	0.785800	0.807300
C681	C68	0.161600	0.734000	0.803900
C691	C69	0.138500	0.644400	0.861300
C701	C70	0.214200	0.321800	0.807300
C711	C71	0.266000	0.427600	0.803900
C721	C72	0.355600	0.494100	0.861300
C731	C73	0.865800	0.134200	0.250000
C741	C74	0.268400	0.134200	0.250000
C751	C75	0.865800	0.731600	0.250000
C761	C76	0.134200	0.865800	0.250000
C771	C77	0.731600	0.865800	0.250000
C781	C78	0.134200	0.268400	0.250000
C791	C79	0.134200	0.865800	0.750000
C801	C80	0.731600	0.865800	0.750000
C811	C81	0.134200	0.268400	0.750000
C821	C82	0.865800	0.134200	0.750000
C831	C83	0.268400	0.134200	0.750000
C841	C84	0.865800	0.731600	0.750000
N11	N1	0.760000	0.240000	0.250000
N21	N2	0.480000	0.240000	0.250000
N31	N3	0.760000	0.520000	0.250000
N41	N4	0.240000	0.760000	0.250000
N51	N5	0.520000	0.760000	0.250000
N61	N6	0.240000	0.480000	0.250000
N71	N7	0.240000	0.760000	0.750000
N81	N8	0.520000	0.760000	0.750000
N91	N9	0.240000	0.480000	0.750000
N101	N10	0.760000	0.240000	0.750000
N111	N11	0.480000	0.240000	0.750000
N121	N12	0.760000	0.520000	0.750000
O11	O1	0.609200	0.199600	0.355400
O21	O2	0.613000	0.062500	0.408400
O31	O3	0.590400	0.390800	0.355400
O41	O4	0.449500	0.387000	0.408400
O51	O5	0.800400	0.409600	0.355400
O61	O6	0.937500	0.550500	0.408400
O71	O7	0.390800	0.800400	0.355400
O81	O8	0.387000	0.937500	0.408400
O91	O9	0.409600	0.609200	0.355400
O101	O10	0.550500	0.613000	0.408400
O111	O11	0.199600	0.590400	0.355400
O121	O12	0.062500	0.449500	0.408400
O131	O13	0.409600	0.800400	0.144600
O141	O14	0.550500	0.937500	0.091600
O151	O15	0.199600	0.609200	0.144600
O161	O16	0.062500	0.613000	0.091600
O171	O17	0.390800	0.590400	0.144600
O181	O18	0.387000	0.449500	0.091600
O191	O19	0.590400	0.199600	0.144600
O201	O20	0.449500	0.062500	0.091600
O211	O21	0.800400	0.390800	0.144600
O221	O22	0.937500	0.387000	0.091600
O231	O23	0.609200	0.409600	0.144600
O241	O24	0.613000	0.550500	0.091600
O251	O25	0.390800	0.800400	0.644600
O261	O26	0.387000	0.937500	0.591600
O271	O27	0.409600	0.609200	0.644600
O281	O28	0.550500	0.613000	0.591600
O291	O29	0.199600	0.590400	0.644600
O301	O30	0.062500	0.449500	0.591600
O311	O31	0.609200	0.199600	0.644600
O321	O32	0.613000	0.062500	0.591600
O331	O33	0.590400	0.390800	0.644600
O341	O34	0.449500	0.387000	0.591600
O351	O35	0.800400	0.409600	0.644600
O361	O36	0.937500	0.550500	0.591600
O371	O37	0.590400	0.199600	0.855400
O381	O38	0.449500	0.062500	0.908400
O391	O39	0.800400	0.390800	0.855400
O401	O40	0.937500	0.387000	0.908400
O411	O41	0.609200	0.409600	0.855400
O421	O42	0.613000	0.550500	0.908400
O431	O43	0.409600	0.800400	0.855400
O441	O44	0.550500	0.937500	0.908400
O451	O45	0.199600	0.609200	0.855400
O461	O46	0.062500	0.613000	0.908400
O471	O47	0.390800	0.590400	0.855400
O481	O48	0.387000	0.449500	0.908400
O491	O49	0.485600	0.136300	0.500000
O501	O50	0.650700	0.514400	0.500000
O511	O51	0.863700	0.349300	0.500000
O521	O52	0.514400	0.863700	0.500000
O531	O53	0.349300	0.485600	0.500000
O541	O54	0.136300	0.650700	0.500000
O551	O55	0.349300	0.863700	0.000000
O561	O56	0.136300	0.485600	0.000000
O571	O57	0.514400	0.650700	0.000000
O581	O58	0.650700	0.136300	0.000000
O591	O59	0.863700	0.514400	0.000000
O601	O60	0.485600	0.349300	0.000000
