data_ILUHON_freeONLY_PM
_symmetry_space_group_name_H-M	'P1'
_cell_length_a	15.329000
_cell_length_b	15.329000
_cell_length_c	15.403000
_cell_angle_alpha	90.000000
_cell_angle_beta	90.000000
_cell_angle_gamma	120.000000
_symmetry_Int_Tables_number 1

loop_
_symmetry_equiv_pos_as_xyz
'x,y,z'

loop_
_atom_site_label
_atom_site_type_symbol
_atom_site_fract_x
_atom_site_fract_y
_atom_site_fract_z
Nd11	Nd1	0.333330	0.666660	0.750000
Nd21	Nd2	0.666670	0.333340	0.750000
Nd31	Nd3	0.666670	0.333340	0.250000
Nd41	Nd4	0.333330	0.666660	0.250000
Fe11	Fe1	0.000000	0.500000	0.000000
Fe21	Fe2	0.500000	0.000000	0.000000
Fe31	Fe3	0.500000	0.500000	0.000000
Fe41	Fe4	0.500000	0.500000	0.500000
Fe51	Fe5	0.500000	0.000000	0.500000
Fe61	Fe6	0.000000	0.500000	0.500000
H11	H1	0.054000	0.767700	0.844500
H21	H2	0.713700	0.946000	0.844500
H31	H3	0.232300	0.286300	0.844500
H41	H4	0.946000	0.232300	0.844500
H51	H5	0.286300	0.054000	0.844500
H61	H6	0.767700	0.713700	0.844500
H71	H7	0.286300	0.232300	0.655500
H81	H8	0.767700	0.054000	0.655500
H91	H9	0.946000	0.713700	0.655500
H101	H10	0.713700	0.767700	0.655500
H111	H11	0.232300	0.946000	0.655500
H121	H12	0.054000	0.286300	0.655500
H131	H13	0.946000	0.232300	0.155500
H141	H14	0.286300	0.054000	0.155500
H151	H15	0.767700	0.713700	0.155500
H161	H16	0.054000	0.767700	0.155500
H171	H17	0.713700	0.946000	0.155500
H181	H18	0.232300	0.286300	0.155500
H191	H19	0.713700	0.767700	0.344500
H201	H20	0.232300	0.946000	0.344500
H211	H21	0.054000	0.286300	0.344500
H221	H22	0.286300	0.232300	0.344500
H231	H23	0.767700	0.054000	0.344500
H241	H24	0.946000	0.713700	0.344500
H251	H25	0.099250	0.900750	0.750000
H261	H26	0.801500	0.900750	0.750000
H271	H27	0.099250	0.198500	0.750000
H281	H28	0.900750	0.099250	0.750000
H291	H29	0.198500	0.099250	0.750000
H301	H30	0.900750	0.801500	0.750000
H311	H31	0.900750	0.099250	0.250000
H321	H32	0.198500	0.099250	0.250000
H331	H33	0.900750	0.801500	0.250000
H341	H34	0.099250	0.900750	0.250000
H351	H35	0.801500	0.900750	0.250000
H361	H36	0.099250	0.198500	0.250000
C11	C1	0.136500	0.648800	0.861300
C21	C2	0.160000	0.736900	0.803900
C31	C3	0.107200	0.786800	0.805900
C41	C4	0.512300	0.863500	0.861300
C51	C5	0.576900	0.840000	0.803900
C61	C6	0.679600	0.892800	0.805900
C71	C7	0.351200	0.487700	0.861300
C81	C8	0.263100	0.423100	0.803900
C91	C9	0.213200	0.320400	0.805900
C101	C10	0.863500	0.351200	0.861300
C111	C11	0.840000	0.263100	0.803900
C121	C12	0.892800	0.213200	0.805900
C131	C13	0.487700	0.136500	0.861300
C141	C14	0.423100	0.160000	0.803900
C151	C15	0.320400	0.107200	0.805900
C161	C16	0.648800	0.512300	0.861300
C171	C17	0.736900	0.576900	0.803900
C181	C18	0.786800	0.679600	0.805900
C191	C19	0.487700	0.351200	0.638700
C201	C20	0.423100	0.263100	0.696100
C211	C21	0.320400	0.213200	0.694100
C221	C22	0.648800	0.136500	0.638700
C231	C23	0.736900	0.160000	0.696100
C241	C24	0.786800	0.107200	0.694100
C251	C25	0.863500	0.512300	0.638700
C261	C26	0.840000	0.576900	0.696100
C271	C27	0.892800	0.679600	0.694100
C281	C28	0.512300	0.648800	0.638700
C291	C29	0.576900	0.736900	0.696100
C301	C30	0.679600	0.786800	0.694100
C311	C31	0.351200	0.863500	0.638700
C321	C32	0.263100	0.840000	0.696100
C331	C33	0.213200	0.892800	0.694100
C341	C34	0.136500	0.487700	0.638700
C351	C35	0.160000	0.423100	0.696100
C361	C36	0.107200	0.320400	0.694100
C371	C37	0.863500	0.351200	0.138700
C381	C38	0.840000	0.263100	0.196100
C391	C39	0.892800	0.213200	0.194100
C401	C40	0.487700	0.136500	0.138700
C411	C41	0.423100	0.160000	0.196100
C421	C42	0.320400	0.107200	0.194100
C431	C43	0.648800	0.512300	0.138700
C441	C44	0.736900	0.576900	0.196100
C451	C45	0.786800	0.679600	0.194100
C461	C46	0.136500	0.648800	0.138700
C471	C47	0.160000	0.736900	0.196100
C481	C48	0.107200	0.786800	0.194100
C491	C49	0.512300	0.863500	0.138700
C501	C50	0.576900	0.840000	0.196100
C511	C51	0.679600	0.892800	0.194100
C521	C52	0.351200	0.487700	0.138700
C531	C53	0.263100	0.423100	0.196100
C541	C54	0.213200	0.320400	0.194100
C551	C55	0.512300	0.648800	0.361300
C561	C56	0.576900	0.736900	0.303900
C571	C57	0.679600	0.786800	0.305900
C581	C58	0.351200	0.863500	0.361300
C591	C59	0.263100	0.840000	0.303900
C601	C60	0.213200	0.892800	0.305900
C611	C61	0.136500	0.487700	0.361300
C621	C62	0.160000	0.423100	0.303900
C631	C63	0.107200	0.320400	0.305900
C641	C64	0.487700	0.351200	0.361300
C651	C65	0.423100	0.263100	0.303900
C661	C66	0.320400	0.213200	0.305900
C671	C67	0.648800	0.136500	0.361300
C681	C68	0.736900	0.160000	0.303900
C691	C69	0.786800	0.107200	0.305900
C701	C70	0.863500	0.512300	0.361300
C711	C71	0.840000	0.576900	0.303900
C721	C72	0.892800	0.679600	0.305900
C731	C73	0.134250	0.865750	0.750000
C741	C74	0.731500	0.865750	0.750000
C751	C75	0.134250	0.268500	0.750000
C761	C76	0.865750	0.134250	0.750000
C771	C77	0.268500	0.134250	0.750000
C781	C78	0.865750	0.731500	0.750000
C791	C79	0.865750	0.134250	0.250000
C801	C80	0.268500	0.134250	0.250000
C811	C81	0.865750	0.731500	0.250000
C821	C82	0.134250	0.865750	0.250000
C831	C83	0.731500	0.865750	0.250000
C841	C84	0.134250	0.268500	0.250000
N11	N1	0.237200	0.762800	0.750000
N21	N2	0.525600	0.762800	0.750000
N31	N3	0.237200	0.474400	0.750000
N41	N4	0.762800	0.237200	0.750000
N51	N5	0.474400	0.237200	0.750000
N61	N6	0.762800	0.525600	0.750000
N71	N7	0.762800	0.237200	0.250000
N81	N8	0.474400	0.237200	0.250000
N91	N9	0.762800	0.525600	0.250000
N101	N10	0.237200	0.762800	0.250000
N111	N11	0.525600	0.762800	0.250000
N121	N12	0.237200	0.474400	0.250000
O11	O1	0.196300	0.614600	0.858100
O21	O2	0.060300	0.616100	0.907300
O31	O3	0.418300	0.803700	0.858100
O41	O4	0.555800	0.939700	0.907300
O51	O5	0.385400	0.581700	0.858100
O61	O6	0.383900	0.444200	0.907300
O71	O7	0.803700	0.385400	0.858100
O81	O8	0.939700	0.383900	0.907300
O91	O9	0.581700	0.196300	0.858100
O101	O10	0.444200	0.060300	0.907300
O111	O11	0.614600	0.418300	0.858100
O121	O12	0.616100	0.555800	0.907300
O131	O13	0.581700	0.385400	0.641900
O141	O14	0.444200	0.383900	0.592700
O151	O15	0.614600	0.196300	0.641900
O161	O16	0.616100	0.060300	0.592700
O171	O17	0.803700	0.418300	0.641900
O181	O18	0.939700	0.555800	0.592700
O191	O19	0.418300	0.614600	0.641900
O201	O20	0.555800	0.616100	0.592700
O211	O21	0.385400	0.803700	0.641900
O221	O22	0.383900	0.939700	0.592700
O231	O23	0.196300	0.581700	0.641900
O241	O24	0.060300	0.444200	0.592700
O251	O25	0.803700	0.385400	0.141900
O261	O26	0.939700	0.383900	0.092700
O271	O27	0.581700	0.196300	0.141900
O281	O28	0.444200	0.060300	0.092700
O291	O29	0.614600	0.418300	0.141900
O301	O30	0.616100	0.555800	0.092700
O311	O31	0.196300	0.614600	0.141900
O321	O32	0.060300	0.616100	0.092700
O331	O33	0.418300	0.803700	0.141900
O341	O34	0.555800	0.939700	0.092700
O351	O35	0.385400	0.581700	0.141900
O361	O36	0.383900	0.444200	0.092700
O371	O37	0.418300	0.614600	0.358100
O381	O38	0.555800	0.616100	0.407300
O391	O39	0.385400	0.803700	0.358100
O401	O40	0.383900	0.939700	0.407300
O411	O41	0.196300	0.581700	0.358100
O421	O42	0.060300	0.444200	0.407300
O431	O43	0.581700	0.385400	0.358100
O441	O44	0.444200	0.383900	0.407300
O451	O45	0.614600	0.196300	0.358100
O461	O46	0.616100	0.060300	0.407300
O471	O47	0.803700	0.418300	0.358100
O481	O48	0.939700	0.555800	0.407300
O491	O49	0.862200	0.510300	0.000000
O501	O50	0.648100	0.137800	0.000000
O511	O51	0.489700	0.351900	0.000000
O521	O52	0.137800	0.489700	0.000000
O531	O53	0.351900	0.862200	0.000000
O541	O54	0.510300	0.648100	0.000000
O551	O55	0.351900	0.489700	0.500000
O561	O56	0.510300	0.862200	0.500000
O571	O57	0.137800	0.648100	0.500000
O581	O58	0.648100	0.510300	0.500000
O591	O59	0.489700	0.137800	0.500000
O601	O60	0.862200	0.351900	0.500000
