data_ILUJAB_freeONLY_PM
_symmetry_space_group_name_H-M	'P1'
_cell_length_a	15.354000
_cell_length_b	15.514000
_cell_length_c	15.514000
_cell_angle_alpha	120.000000
_cell_angle_beta	90.000000
_cell_angle_gamma	90.000000
_symmetry_Int_Tables_number 1

loop_
_symmetry_equiv_pos_as_xyz
'x,y,z'

loop_
_atom_site_label
_atom_site_type_symbol
_atom_site_fract_x
_atom_site_fract_y
_atom_site_fract_z
Pr11	Pr1	0.750000	0.666670	0.333340
Pr21	Pr2	0.750000	0.333330	0.666660
Pr31	Pr3	0.250000	0.333330	0.666660
Pr41	Pr4	0.250000	0.666670	0.333340
Fe11	Fe1	0.000000	0.500000	0.500000
Fe21	Fe2	0.000000	0.000000	0.500000
Fe31	Fe3	0.000000	0.500000	0.000000
Fe41	Fe4	0.500000	0.000000	0.500000
Fe51	Fe5	0.500000	0.500000	0.500000
Fe61	Fe6	0.500000	0.500000	0.000000
H11	H1	0.844400	0.766300	0.712800
H21	H2	0.844400	0.946500	0.233700
H31	H3	0.844400	0.287200	0.053500
H41	H4	0.844400	0.233700	0.287200
H51	H5	0.844400	0.053500	0.766300
H61	H6	0.844400	0.712800	0.946500
H71	H7	0.655600	0.053500	0.287200
H81	H8	0.655600	0.712800	0.766300
H91	H9	0.655600	0.233700	0.946500
H101	H10	0.655600	0.946500	0.712800
H111	H11	0.655600	0.287200	0.233700
H121	H12	0.655600	0.766300	0.053500
H131	H13	0.155600	0.233700	0.287200
H141	H14	0.155600	0.053500	0.766300
H151	H15	0.155600	0.712800	0.946500
H161	H16	0.155600	0.766300	0.712800
H171	H17	0.155600	0.946500	0.233700
H181	H18	0.155600	0.287200	0.053500
H191	H19	0.344400	0.946500	0.712800
H201	H20	0.344400	0.287200	0.233700
H211	H21	0.344400	0.766300	0.053500
H221	H22	0.344400	0.053500	0.287200
H231	H23	0.344400	0.712800	0.766300
H241	H24	0.344400	0.233700	0.946500
H251	H25	0.750000	0.899900	0.799800
H261	H26	0.750000	0.899900	0.100100
H271	H27	0.750000	0.200200	0.100100
H281	H28	0.750000	0.100100	0.200200
H291	H29	0.750000	0.100100	0.899900
H301	H30	0.750000	0.799800	0.899900
H311	H31	0.250000	0.100100	0.200200
H321	H32	0.250000	0.100100	0.899900
H331	H33	0.250000	0.799800	0.899900
H341	H34	0.250000	0.899900	0.799800
H351	H35	0.250000	0.899900	0.100100
H361	H36	0.250000	0.200200	0.100100
C11	C1	0.803600	0.735700	0.576500
C21	C2	0.806100	0.785600	0.679100
C31	C3	0.861000	0.647000	0.512400
C41	C4	0.803600	0.840800	0.264300
C51	C5	0.806100	0.893500	0.214400
C61	C6	0.861000	0.865400	0.353000
C71	C7	0.803600	0.423500	0.159200
C81	C8	0.806100	0.320900	0.106500
C91	C9	0.861000	0.487600	0.134600
C101	C10	0.803600	0.264300	0.423500
C111	C11	0.806100	0.214400	0.320900
C121	C12	0.861000	0.353000	0.487600
C131	C13	0.803600	0.159200	0.735700
C141	C14	0.806100	0.106500	0.785600
C151	C15	0.861000	0.134600	0.647000
C161	C16	0.803600	0.576500	0.840800
C171	C17	0.806100	0.679100	0.893500
C181	C18	0.861000	0.512400	0.865400
C191	C19	0.696400	0.159200	0.423500
C201	C20	0.693900	0.106500	0.320900
C211	C21	0.639000	0.134600	0.487600
C221	C22	0.696400	0.576500	0.735700
C231	C23	0.693900	0.679100	0.785600
C241	C24	0.639000	0.512400	0.647000
C251	C25	0.696400	0.264300	0.840800
C261	C26	0.693900	0.214400	0.893500
C271	C27	0.639000	0.353000	0.865400
C281	C28	0.696400	0.840800	0.576500
C291	C29	0.693900	0.893500	0.679100
C301	C30	0.639000	0.865400	0.512400
C311	C31	0.696400	0.423500	0.264300
C321	C32	0.693900	0.320900	0.214400
C331	C33	0.639000	0.487600	0.353000
C341	C34	0.696400	0.735700	0.159200
C351	C35	0.693900	0.785600	0.106500
C361	C36	0.639000	0.647000	0.134600
C371	C37	0.196400	0.264300	0.423500
C381	C38	0.193900	0.214400	0.320900
C391	C39	0.139000	0.353000	0.487600
C401	C40	0.196400	0.159200	0.735700
C411	C41	0.193900	0.106500	0.785600
C421	C42	0.139000	0.134600	0.647000
C431	C43	0.196400	0.576500	0.840800
C441	C44	0.193900	0.679100	0.893500
C451	C45	0.139000	0.512400	0.865400
C461	C46	0.196400	0.735700	0.576500
C471	C47	0.193900	0.785600	0.679100
C481	C48	0.139000	0.647000	0.512400
C491	C49	0.196400	0.840800	0.264300
C501	C50	0.193900	0.893500	0.214400
C511	C51	0.139000	0.865400	0.353000
C521	C52	0.196400	0.423500	0.159200
C531	C53	0.193900	0.320900	0.106500
C541	C54	0.139000	0.487600	0.134600
C551	C55	0.303600	0.840800	0.576500
C561	C56	0.306100	0.893500	0.679100
C571	C57	0.361000	0.865400	0.512400
C581	C58	0.303600	0.423500	0.264300
C591	C59	0.306100	0.320900	0.214400
C601	C60	0.361000	0.487600	0.353000
C611	C61	0.303600	0.735700	0.159200
C621	C62	0.306100	0.785600	0.106500
C631	C63	0.361000	0.647000	0.134600
C641	C64	0.303600	0.159200	0.423500
C651	C65	0.306100	0.106500	0.320900
C661	C66	0.361000	0.134600	0.487600
C671	C67	0.303600	0.576500	0.735700
C681	C68	0.306100	0.679100	0.785600
C691	C69	0.361000	0.512400	0.647000
C701	C70	0.303600	0.264300	0.840800
C711	C71	0.306100	0.214400	0.893500
C721	C72	0.361000	0.353000	0.865400
C731	C73	0.750000	0.865300	0.730600
C741	C74	0.750000	0.865300	0.134700
C751	C75	0.750000	0.269400	0.134700
C761	C76	0.750000	0.134700	0.269400
C771	C77	0.750000	0.134700	0.865300
C781	C78	0.750000	0.730600	0.865300
C791	C79	0.250000	0.134700	0.269400
C801	C80	0.250000	0.134700	0.865300
C811	C81	0.250000	0.730600	0.865300
C821	C82	0.250000	0.865300	0.730600
C831	C83	0.250000	0.865300	0.134700
C841	C84	0.250000	0.269400	0.134700
N11	N1	0.750000	0.762910	0.525820
N21	N2	0.750000	0.762910	0.237090
N31	N3	0.750000	0.474180	0.237090
N41	N4	0.750000	0.237090	0.474180
N51	N5	0.750000	0.237090	0.762910
N61	N6	0.750000	0.525820	0.762910
N71	N7	0.250000	0.237090	0.474180
N81	N8	0.250000	0.237090	0.762910
N91	N9	0.250000	0.525820	0.762910
N101	N10	0.250000	0.762910	0.525820
N111	N11	0.250000	0.762910	0.237090
N121	N12	0.250000	0.474180	0.237090
O11	O1	0.858980	0.614000	0.418600
O21	O2	0.905700	0.612600	0.555000
O31	O3	0.858980	0.804600	0.386000
O41	O4	0.905700	0.942400	0.387400
O51	O5	0.858980	0.581400	0.195400
O61	O6	0.905700	0.445000	0.057600
O71	O7	0.858980	0.386000	0.581400
O81	O8	0.905700	0.387400	0.445000
O91	O9	0.858980	0.195400	0.614000
O101	O10	0.905700	0.057600	0.612600
O111	O11	0.858980	0.418600	0.804600
O121	O12	0.905700	0.555000	0.942400
O131	O13	0.641020	0.195400	0.581400
O141	O14	0.594300	0.057600	0.445000
O151	O15	0.641020	0.418600	0.614000
O161	O16	0.594300	0.555000	0.612600
O171	O17	0.641020	0.386000	0.804600
O181	O18	0.594300	0.387400	0.942400
O191	O19	0.641020	0.804600	0.418600
O201	O20	0.594300	0.942400	0.555000
O211	O21	0.641020	0.581400	0.386000
O221	O22	0.594300	0.445000	0.387400
O231	O23	0.641020	0.614000	0.195400
O241	O24	0.594300	0.612600	0.057600
O251	O25	0.141020	0.386000	0.581400
O261	O26	0.094300	0.387400	0.445000
O271	O27	0.141020	0.195400	0.614000
O281	O28	0.094300	0.057600	0.612600
O291	O29	0.141020	0.418600	0.804600
O301	O30	0.094300	0.555000	0.942400
O311	O31	0.141020	0.614000	0.418600
O321	O32	0.094300	0.612600	0.555000
O331	O33	0.141020	0.804600	0.386000
O341	O34	0.094300	0.942400	0.387400
O351	O35	0.141020	0.581400	0.195400
O361	O36	0.094300	0.445000	0.057600
O371	O37	0.358980	0.804600	0.418600
O381	O38	0.405700	0.942400	0.555000
O391	O39	0.358980	0.581400	0.386000
O401	O40	0.405700	0.445000	0.387400
O411	O41	0.358980	0.614000	0.195400
O421	O42	0.405700	0.612600	0.057600
O431	O43	0.358980	0.195400	0.581400
O441	O44	0.405700	0.057600	0.445000
O451	O45	0.358980	0.418600	0.614000
O461	O46	0.405700	0.555000	0.612600
O471	O47	0.358980	0.386000	0.804600
O481	O48	0.405700	0.387400	0.942400
O491	O49	0.000000	0.510800	0.644700
O501	O50	0.000000	0.133900	0.489200
O511	O51	0.000000	0.355300	0.866100
O521	O52	0.000000	0.489200	0.355300
O531	O53	0.000000	0.866100	0.510800
O541	O54	0.000000	0.644700	0.133900
O551	O55	0.500000	0.866100	0.355300
O561	O56	0.500000	0.644700	0.510800
O571	O57	0.500000	0.489200	0.133900
O581	O58	0.500000	0.133900	0.644700
O591	O59	0.500000	0.355300	0.489200
O601	O60	0.500000	0.510800	0.866100
