data_ILUJIJ_freeONLY_PM
_symmetry_space_group_name_H-M	'P1'
_cell_length_a	15.405000
_cell_length_b	15.405000
_cell_length_c	15.456000
_cell_angle_alpha	90.000000
_cell_angle_beta	90.000000
_cell_angle_gamma	120.000000
_symmetry_Int_Tables_number 1

loop_
_symmetry_equiv_pos_as_xyz
'x,y,z'

loop_
_atom_site_label
_atom_site_type_symbol
_atom_site_fract_x
_atom_site_fract_y
_atom_site_fract_z
Sm11	Sm1	0.333330	0.666660	0.750000
Sm21	Sm2	0.666670	0.333340	0.750000
Sm31	Sm3	0.666670	0.333340	0.250000
Sm41	Sm4	0.333330	0.666660	0.250000
Fe11	Fe1	0.500000	0.000000	0.000000
Fe21	Fe2	0.500000	0.500000	0.000000
Fe31	Fe3	0.000000	0.500000	0.000000
Fe41	Fe4	0.500000	0.000000	0.500000
Fe51	Fe5	0.000000	0.500000	0.500000
Fe61	Fe6	0.500000	0.500000	0.500000
H11	H1	0.712800	0.946300	0.844500
H21	H2	0.233500	0.287200	0.844500
H31	H3	0.053700	0.766500	0.844500
H41	H4	0.287200	0.053700	0.844500
H51	H5	0.766500	0.712800	0.844500
H61	H6	0.946300	0.233500	0.844500
H71	H7	0.766500	0.053700	0.655500
H81	H8	0.946300	0.712800	0.655500
H91	H9	0.287200	0.233500	0.655500
H101	H10	0.233500	0.946300	0.655500
H111	H11	0.053700	0.287200	0.655500
H121	H12	0.712800	0.766500	0.655500
H131	H13	0.287200	0.053700	0.155500
H141	H14	0.766500	0.712800	0.155500
H151	H15	0.946300	0.233500	0.155500
H161	H16	0.712800	0.946300	0.155500
H171	H17	0.233500	0.287200	0.155500
H181	H18	0.053700	0.766500	0.155500
H191	H19	0.233500	0.946300	0.344500
H201	H20	0.053700	0.287200	0.344500
H211	H21	0.712800	0.766500	0.344500
H221	H22	0.766500	0.053700	0.344500
H231	H23	0.946300	0.712800	0.344500
H241	H24	0.287200	0.233500	0.344500
H251	H25	0.800100	0.900050	0.750000
H261	H26	0.099950	0.199900	0.750000
H271	H27	0.099950	0.900050	0.750000
H281	H28	0.199900	0.099950	0.750000
H291	H29	0.900050	0.800100	0.750000
H301	H30	0.900050	0.099950	0.750000
H311	H31	0.199900	0.099950	0.250000
H321	H32	0.900050	0.800100	0.250000
H331	H33	0.900050	0.099950	0.250000
H341	H34	0.800100	0.900050	0.250000
H351	H35	0.099950	0.199900	0.250000
H361	H36	0.099950	0.900050	0.250000
C11	C1	0.510000	0.864000	0.861600
C21	C2	0.575300	0.840100	0.803500
C31	C3	0.678800	0.893200	0.806200
C41	C4	0.354000	0.490000	0.861600
C51	C5	0.264800	0.424700	0.803500
C61	C6	0.214400	0.321200	0.806200
C71	C7	0.136000	0.646000	0.861600
C81	C8	0.159900	0.735200	0.803500
C91	C9	0.106800	0.785600	0.806200
C101	C10	0.490000	0.136000	0.861600
C111	C11	0.424700	0.159900	0.803500
C121	C12	0.321200	0.106800	0.806200
C131	C13	0.646000	0.510000	0.861600
C141	C14	0.735200	0.575300	0.803500
C151	C15	0.785600	0.678800	0.806200
C161	C16	0.864000	0.354000	0.861600
C171	C17	0.840100	0.264800	0.803500
C181	C18	0.893200	0.214400	0.806200
C191	C19	0.646000	0.136000	0.638400
C201	C20	0.735200	0.159900	0.696500
C211	C21	0.785600	0.106800	0.693800
C221	C22	0.864000	0.510000	0.638400
C231	C23	0.840100	0.575300	0.696500
C241	C24	0.893200	0.678800	0.693800
C251	C25	0.490000	0.354000	0.638400
C261	C26	0.424700	0.264800	0.696500
C271	C27	0.321200	0.214400	0.693800
C281	C28	0.354000	0.864000	0.638400
C291	C29	0.264800	0.840100	0.696500
C301	C30	0.214400	0.893200	0.693800
C311	C31	0.136000	0.490000	0.638400
C321	C32	0.159900	0.424700	0.696500
C331	C33	0.106800	0.321200	0.693800
C341	C34	0.510000	0.646000	0.638400
C351	C35	0.575300	0.735200	0.696500
C361	C36	0.678800	0.785600	0.693800
C371	C37	0.490000	0.136000	0.138400
C381	C38	0.424700	0.159900	0.196500
C391	C39	0.321200	0.106800	0.193800
C401	C40	0.646000	0.510000	0.138400
C411	C41	0.735200	0.575300	0.196500
C421	C42	0.785600	0.678800	0.193800
C431	C43	0.864000	0.354000	0.138400
C441	C44	0.840100	0.264800	0.196500
C451	C45	0.893200	0.214400	0.193800
C461	C46	0.510000	0.864000	0.138400
C471	C47	0.575300	0.840100	0.196500
C481	C48	0.678800	0.893200	0.193800
C491	C49	0.354000	0.490000	0.138400
C501	C50	0.264800	0.424700	0.196500
C511	C51	0.214400	0.321200	0.193800
C521	C52	0.136000	0.646000	0.138400
C531	C53	0.159900	0.735200	0.196500
C541	C54	0.106800	0.785600	0.193800
C551	C55	0.354000	0.864000	0.361600
C561	C56	0.264800	0.840100	0.303500
C571	C57	0.214400	0.893200	0.306200
C581	C58	0.136000	0.490000	0.361600
C591	C59	0.159900	0.424700	0.303500
C601	C60	0.106800	0.321200	0.306200
C611	C61	0.510000	0.646000	0.361600
C621	C62	0.575300	0.735200	0.303500
C631	C63	0.678800	0.785600	0.306200
C641	C64	0.646000	0.136000	0.361600
C651	C65	0.735200	0.159900	0.303500
C661	C66	0.785600	0.106800	0.306200
C671	C67	0.864000	0.510000	0.361600
C681	C68	0.840100	0.575300	0.303500
C691	C69	0.893200	0.678800	0.306200
C701	C70	0.490000	0.354000	0.361600
C711	C71	0.424700	0.264800	0.303500
C721	C72	0.321200	0.214400	0.306200
C731	C73	0.730400	0.865200	0.750000
C741	C74	0.134800	0.269600	0.750000
C751	C75	0.134800	0.865200	0.750000
C761	C76	0.269600	0.134800	0.750000
C771	C77	0.865200	0.730400	0.750000
C781	C78	0.865200	0.134800	0.750000
C791	C79	0.269600	0.134800	0.250000
C801	C80	0.865200	0.730400	0.250000
C811	C81	0.865200	0.134800	0.250000
C821	C82	0.730400	0.865200	0.250000
C831	C83	0.134800	0.269600	0.250000
C841	C84	0.134800	0.865200	0.250000
N11	N1	0.524300	0.762150	0.750000
N21	N2	0.237850	0.475700	0.750000
N31	N3	0.237850	0.762150	0.750000
N41	N4	0.475700	0.237850	0.750000
N51	N5	0.762150	0.524300	0.750000
N61	N6	0.762150	0.237850	0.750000
N71	N7	0.475700	0.237850	0.250000
N81	N8	0.762150	0.524300	0.250000
N91	N9	0.762150	0.237850	0.250000
N101	N10	0.524300	0.762150	0.250000
N111	N11	0.237850	0.475700	0.250000
N121	N12	0.237850	0.762150	0.250000
O11	O1	0.553400	0.940600	0.906600
O21	O2	0.415400	0.803300	0.857100
O31	O3	0.387200	0.446600	0.906600
O41	O4	0.387900	0.584600	0.857100
O51	O5	0.059400	0.612800	0.906600
O61	O6	0.196700	0.612100	0.857100
O71	O7	0.446600	0.059400	0.906600
O81	O8	0.584600	0.196700	0.857100
O91	O9	0.612800	0.553400	0.906600
O101	O10	0.612100	0.415400	0.857100
O111	O11	0.940600	0.387200	0.906600
O121	O12	0.803300	0.387900	0.857100
O131	O13	0.612800	0.059400	0.593400
O141	O14	0.612100	0.196700	0.642900
O151	O15	0.940600	0.553400	0.593400
O161	O16	0.803300	0.415400	0.642900
O171	O17	0.446600	0.387200	0.593400
O181	O18	0.584600	0.387900	0.642900
O191	O19	0.387200	0.940600	0.593400
O201	O20	0.387900	0.803300	0.642900
O211	O21	0.059400	0.446600	0.593400
O221	O22	0.196700	0.584600	0.642900
O231	O23	0.553400	0.612800	0.593400
O241	O24	0.415400	0.612100	0.642900
O251	O25	0.446600	0.059400	0.093400
O261	O26	0.584600	0.196700	0.142900
O271	O27	0.612800	0.553400	0.093400
O281	O28	0.612100	0.415400	0.142900
O291	O29	0.940600	0.387200	0.093400
O301	O30	0.803300	0.387900	0.142900
O311	O31	0.553400	0.940600	0.093400
O321	O32	0.415400	0.803300	0.142900
O331	O33	0.387200	0.446600	0.093400
O341	O34	0.387900	0.584600	0.142900
O351	O35	0.059400	0.612800	0.093400
O361	O36	0.196700	0.612100	0.142900
O371	O37	0.387200	0.940600	0.406600
O381	O38	0.387900	0.803300	0.357100
O391	O39	0.059400	0.446600	0.406600
O401	O40	0.196700	0.584600	0.357100
O411	O41	0.553400	0.612800	0.406600
O421	O42	0.415400	0.612100	0.357100
O431	O43	0.612800	0.059400	0.406600
O441	O44	0.612100	0.196700	0.357100
O451	O45	0.940600	0.553400	0.406600
O461	O46	0.803300	0.415400	0.357100
O471	O47	0.446600	0.387200	0.406600
O481	O48	0.584600	0.387900	0.357100
O491	O49	0.353000	0.865500	0.000000
O501	O50	0.512500	0.647000	0.000000
O511	O51	0.134500	0.487500	0.000000
O521	O52	0.647000	0.134500	0.000000
O531	O53	0.487500	0.353000	0.000000
O541	O54	0.865500	0.512500	0.000000
O551	O55	0.487500	0.134500	0.500000
O561	O56	0.865500	0.353000	0.500000
O571	O57	0.647000	0.512500	0.500000
O581	O58	0.512500	0.865500	0.500000
O591	O59	0.134500	0.647000	0.500000
O601	O60	0.353000	0.487500	0.500000
