data_IMAGAG_freeONLY_PM
_symmetry_space_group_name_H-M	'P1'
_cell_length_a	9.434000
_cell_length_b	16.599000
_cell_length_c	18.562000
_cell_angle_alpha	90.000000
_cell_angle_beta	97.731000
_cell_angle_gamma	90.000000
_symmetry_Int_Tables_number 1

loop_
_symmetry_equiv_pos_as_xyz
'x,y,z'

loop_
_atom_site_label
_atom_site_type_symbol
_atom_site_fract_x
_atom_site_fract_y
_atom_site_fract_z
Zn11	Zn1	0.338200	0.036870	0.983210
C11	C1	0.459600	0.106400	0.124900
H11	H1	0.553200	0.081800	0.126200
H21	H2	0.448700	0.123900	0.173700
C21	C2	0.447400	0.177800	0.074100
H31	H3	0.355400	0.203600	0.074800
H41	H4	0.521400	0.216600	0.090800
C31	C3	0.423600	0.220100	0.947000
H51	H5	0.325600	0.236200	0.949500
H61	H6	0.428600	0.200300	0.898200
C41	C4	0.520300	0.294000	0.960600
C51	C5	0.479800	0.362900	0.990500
H71	H7	0.390100	0.366200	0.005800
C61	C6	0.570900	0.429300	0.998600
H81	H8	0.538800	0.476300	0.018500
C71	C7	0.655900	0.293400	0.939400
H91	H9	0.689700	0.247600	0.918400
C81	C8	0.739600	0.361200	0.949800
H101	H10	0.830000	0.359400	0.935100
C91	C9	0.368800	0.969500	0.138600
H111	H11	0.461300	0.948100	0.130900
H121	H12	0.296500	0.931800	0.117400
C101	C10	0.363200	0.973500	0.219500
C111	C11	0.476900	0.947800	0.267900
H131	H13	0.560200	0.930000	0.251300
C121	C12	0.466800	0.948600	0.341100
H141	H14	0.546100	0.932200	0.373000
C131	C13	0.244800	0.998300	0.247900
H151	H15	0.165900	0.017400	0.217100
C141	C14	0.240800	0.995400	0.321800
H161	H16	0.157200	0.011000	0.339400
N11	N1	0.346800	0.046600	0.099310
H171	H17	0.261700	0.067100	0.108600
N21	N2	0.461700	0.153440	0.999410
H181	H18	0.555500	0.141500	0.998200
N31	N3	0.350500	0.971400	0.368800
N41	N4	0.701100	0.428700	0.979260
O11	O1	0.541100	0.969550	0.996850
H191	H19	0.548400	0.940000	0.034600
H201	H20	0.612600	0.001200	0.999800
O21	O2	0.150900	0.111430	0.963990
H211	H21	0.104100	0.108400	0.000000
H221	H22	0.097400	0.095100	0.926300
Zn21	Zn2	0.838200	0.536870	0.983210
C151	C15	0.959600	0.606400	0.124900
H231	H23	0.053200	0.581800	0.126200
H241	H24	0.948700	0.623900	0.173700
C161	C16	0.947400	0.677800	0.074100
H251	H25	0.855400	0.703600	0.074800
H261	H26	0.021400	0.716600	0.090800
C171	C17	0.923600	0.720100	0.947000
H271	H27	0.825600	0.736200	0.949500
H281	H28	0.928600	0.700300	0.898200
C181	C18	0.020300	0.794000	0.960600
C191	C19	0.979800	0.862900	0.990500
H291	H29	0.890100	0.866200	0.005800
C201	C20	0.070900	0.929300	0.998600
H301	H30	0.038800	0.976300	0.018500
C211	C21	0.155900	0.793400	0.939400
H311	H31	0.189700	0.747600	0.918400
C221	C22	0.239600	0.861200	0.949800
H321	H32	0.330000	0.859400	0.935100
C231	C23	0.868800	0.469500	0.138600
H331	H33	0.961300	0.448100	0.130900
H341	H34	0.796500	0.431800	0.117400
C241	C24	0.863200	0.473500	0.219500
C251	C25	0.976900	0.447800	0.267900
H351	H35	0.060200	0.430000	0.251300
C261	C26	0.966800	0.448600	0.341100
H361	H36	0.046100	0.432200	0.373000
C271	C27	0.744800	0.498300	0.247900
H371	H37	0.665900	0.517400	0.217100
C281	C28	0.740800	0.495400	0.321800
H381	H38	0.657200	0.511000	0.339400
N51	N5	0.846800	0.546600	0.099310
H391	H39	0.761700	0.567100	0.108600
N61	N6	0.961700	0.653440	0.999410
H401	H40	0.055500	0.641500	0.998200
N71	N7	0.850500	0.471400	0.368800
N81	N8	0.201100	0.928700	0.979260
O31	O3	0.041100	0.469550	0.996850
H411	H41	0.048400	0.440000	0.034600
H421	H42	0.112600	0.501200	0.999800
O41	O4	0.650900	0.611430	0.963990
H431	H43	0.604100	0.608400	0.000000
H441	H44	0.597400	0.595100	0.926300
Zn31	Zn3	0.338200	0.963130	0.483210
C291	C29	0.459600	0.893600	0.624900
H451	H45	0.553200	0.918200	0.626200
H461	H46	0.448700	0.876100	0.673700
C301	C30	0.447400	0.822200	0.574100
H471	H47	0.355400	0.796400	0.574800
H481	H48	0.521400	0.783400	0.590800
C311	C31	0.423600	0.779900	0.447000
H491	H49	0.325600	0.763800	0.449500
H501	H50	0.428600	0.799700	0.398200
C321	C32	0.520300	0.706000	0.460600
C331	C33	0.479800	0.637100	0.490500
H511	H51	0.390100	0.633800	0.505800
C341	C34	0.570900	0.570700	0.498600
H521	H52	0.538800	0.523700	0.518500
C351	C35	0.655900	0.706600	0.439400
H531	H53	0.689700	0.752400	0.418400
C361	C36	0.739600	0.638800	0.449800
H541	H54	0.830000	0.640600	0.435100
C371	C37	0.368800	0.030500	0.638600
H551	H55	0.461300	0.051900	0.630900
H561	H56	0.296500	0.068200	0.617400
C381	C38	0.363200	0.026500	0.719500
C391	C39	0.476900	0.052200	0.767900
H571	H57	0.560200	0.070000	0.751300
C401	C40	0.466800	0.051400	0.841100
H581	H58	0.546100	0.067800	0.873000
C411	C41	0.244800	0.001700	0.747900
H591	H59	0.165900	0.982600	0.717100
C421	C42	0.240800	0.004600	0.821800
H601	H60	0.157200	0.989000	0.839400
N91	N9	0.346800	0.953400	0.599310
H611	H61	0.261700	0.932900	0.608600
N101	N10	0.461700	0.846560	0.499410
H621	H62	0.555500	0.858500	0.498200
N111	N11	0.350500	0.028600	0.868800
N121	N12	0.701100	0.571300	0.479260
O51	O5	0.541100	0.030450	0.496850
H631	H63	0.548400	0.060000	0.534600
H641	H64	0.612600	0.998800	0.499800
O61	O6	0.150900	0.888570	0.463990
H651	H65	0.104100	0.891600	0.500000
H661	H66	0.097400	0.904900	0.426300
Zn41	Zn4	0.838200	0.463130	0.483210
C431	C43	0.959600	0.393600	0.624900
H671	H67	0.053200	0.418200	0.626200
H681	H68	0.948700	0.376100	0.673700
C441	C44	0.947400	0.322200	0.574100
H691	H69	0.855400	0.296400	0.574800
H701	H70	0.021400	0.283400	0.590800
C451	C45	0.923600	0.279900	0.447000
H711	H71	0.825600	0.263800	0.449500
H721	H72	0.928600	0.299700	0.398200
C461	C46	0.020300	0.206000	0.460600
C471	C47	0.979800	0.137100	0.490500
H731	H73	0.890100	0.133800	0.505800
C481	C48	0.070900	0.070700	0.498600
H741	H74	0.038800	0.023700	0.518500
C491	C49	0.155900	0.206600	0.439400
H751	H75	0.189700	0.252400	0.418400
C501	C50	0.239600	0.138800	0.449800
H761	H76	0.330000	0.140600	0.435100
C511	C51	0.868800	0.530500	0.638600
H771	H77	0.961300	0.551900	0.630900
H781	H78	0.796500	0.568200	0.617400
C521	C52	0.863200	0.526500	0.719500
C531	C53	0.976900	0.552200	0.767900
H791	H79	0.060200	0.570000	0.751300
C541	C54	0.966800	0.551400	0.841100
H801	H80	0.046100	0.567800	0.873000
C551	C55	0.744800	0.501700	0.747900
H811	H81	0.665900	0.482600	0.717100
C561	C56	0.740800	0.504600	0.821800
H821	H82	0.657200	0.489000	0.839400
N131	N13	0.846800	0.453400	0.599310
H831	H83	0.761700	0.432900	0.608600
N141	N14	0.961700	0.346560	0.499410
H841	H84	0.055500	0.358500	0.498200
N151	N15	0.850500	0.528600	0.868800
N161	N16	0.201100	0.071300	0.479260
O71	O7	0.041100	0.530450	0.496850
H851	H85	0.048400	0.560000	0.534600
H861	H86	0.112600	0.498800	0.499800
O81	O8	0.650900	0.388570	0.463990
H871	H87	0.604100	0.391600	0.500000
H881	H88	0.597400	0.404900	0.426300
