data_IMIQIF_freeONLY_PM
_symmetry_space_group_name_H-M	'P1'
_cell_length_a	11.715200
_cell_length_b	13.592200
_cell_length_c	20.653200
_cell_angle_alpha	89.218000
_cell_angle_beta	76.358000
_cell_angle_gamma	67.393000
_symmetry_Int_Tables_number 1

loop_
_symmetry_equiv_pos_as_xyz
'x,y,z'

loop_
_atom_site_label
_atom_site_type_symbol
_atom_site_fract_x
_atom_site_fract_y
_atom_site_fract_z
W11	W1	0.795620	0.967240	0.910060
W21	W2	0.002120	0.742450	0.971590
W31	W3	0.737150	0.940490	0.083010
W41	W4	0.256450	0.808190	0.882670
W51	W5	0.781630	0.226240	0.944850
W61	W6	0.048300	0.041320	0.827930
Cu11	Cu1	0.683600	0.939200	0.763400
Cu21	Cu2	0.292900	0.851100	0.608900
Cu31	Cu3	0.509900	0.316200	0.719600
Cu41	Cu4	0.870500	0.520600	0.845100
Cu51	Cu5	0.524300	0.191600	0.871800
Cl11	Cl1	0.616100	0.141800	0.768600
N11	N1	0.541000	0.919000	0.740100
N21	N2	0.389000	0.880000	0.671500
N31	N3	0.373000	0.803000	0.514800
N41	N4	0.446000	0.736000	0.380300
N51	N5	0.619000	0.379000	0.752300
N61	N6	0.770000	0.458000	0.807400
N71	N7	0.251000	0.386000	0.076200
N81	N8	0.422000	0.269000	0.952800
N91	N9	0.864000	0.893000	0.716000
N101	N10	0.121000	0.858000	0.648800
N111	N11	0.323000	0.377000	0.768800
N121	N12	0.060000	0.460000	0.820900
O11	O1	0.913000	0.925000	0.993000
O21	O2	0.935000	0.042000	0.945000
O31	O3	0.098000	0.873000	0.983000
O41	O4	0.900000	0.020000	0.072000
O51	O5	0.855000	0.799000	0.044400
O61	O6	0.112000	0.710000	0.026100
O71	O7	0.683000	0.332000	0.919600
O81	O8	0.699000	0.948000	0.867500
O91	O9	0.701000	0.969000	0.999500
O101	O10	0.899000	0.822000	0.914800
O111	O11	0.724000	0.117000	0.924000
O121	O12	0.002000	0.624000	0.955800
O131	O13	0.918000	0.983000	0.839500
O141	O14	0.162000	0.898000	0.827000
O151	O15	0.149000	0.734000	0.898800
O161	O16	0.381000	0.717000	0.828500
O171	O17	0.619000	0.909000	0.120300
O181	O18	0.676000	0.086000	0.107900
O191	O19	0.703000	0.237000	0.036300
O201	O20	0.060000	0.064000	0.748100
O211	O21	0.837000	0.910000	0.145600
O221	O22	0.911000	0.179000	0.863400
C11	C1	0.539000	0.823000	0.739000
H11	H1	0.584100	0.771800	0.764000
C21	C2	0.464000	0.794000	0.698000
H21	H2	0.468600	0.725100	0.691500
C31	C3	0.384000	0.973000	0.683000
H31	H3	0.323600	0.030000	0.668900
C41	C4	0.461000	0.997000	0.715000
H41	H4	0.457100	0.066600	0.719300
C51	C5	0.439000	0.699000	0.487000
H51	H5	0.456000	0.643500	0.514900
C61	C6	0.479000	0.675000	0.419000
H61	H6	0.535300	0.605200	0.403400
C71	C7	0.394000	0.837000	0.397000
H71	H7	0.383100	0.885000	0.364100
C81	C8	0.349000	0.880000	0.470000
H81	H8	0.309200	0.952900	0.483900
C91	C9	0.746000	0.327000	0.743000
H91	H9	0.788000	0.262800	0.716200
C101	C10	0.814000	0.366000	0.773000
H101	H10	0.899400	0.323100	0.768500
C111	C11	0.572000	0.478000	0.783000
H111	H11	0.488600	0.523000	0.783300
C121	C12	0.638000	0.514000	0.812000
H121	H12	0.595800	0.579200	0.837700
C131	C13	0.322000	0.290000	0.070000
H131	H13	0.313200	0.256700	0.109900
C141	C14	0.413000	0.222000	0.017000
H141	H14	0.464500	0.151900	0.021100
C151	C15	0.351000	0.376000	0.957000
H151	H15	0.362200	0.413500	0.919400
C161	C16	0.250000	0.436000	0.022000
H161	H16	0.190700	0.505400	0.022700
C171	C17	0.958000	0.833000	0.734000
H171	H17	0.943800	0.797300	0.772200
C181	C18	0.893000	0.938000	0.660000
H181	H18	0.826300	0.986300	0.644100
C191	C19	0.023000	0.916000	0.623000
H191	H19	0.038700	0.942100	0.581100
C201	C20	0.091000	0.813000	0.700000
H201	H20	0.156200	0.764700	0.716100
C211	C21	0.266000	0.321000	0.800000
H211	H21	0.315700	0.250800	0.804600
C221	C22	0.253000	0.479000	0.762000
H221	H22	0.293600	0.519600	0.738400
C231	C23	0.129000	0.523000	0.787000
H231	H23	0.085000	0.595000	0.782300
C241	C24	0.130000	0.360000	0.828000
H241	H24	0.092600	0.315900	0.850700
W71	W7	0.204380	0.032760	0.089940
W81	W8	0.997880	0.257550	0.028410
W91	W9	0.262850	0.059510	0.916990
W101	W10	0.743550	0.191810	0.117330
W111	W11	0.218370	0.773760	0.055150
W121	W12	0.951700	0.958680	0.172070
Cu61	Cu6	0.316400	0.060800	0.236600
Cu71	Cu7	0.707100	0.148900	0.391100
Cu81	Cu8	0.490100	0.683800	0.280400
Cu91	Cu9	0.129500	0.479400	0.154900
Cu101	Cu10	0.475700	0.808400	0.128200
Cl21	Cl2	0.383900	0.858200	0.231400
N131	N13	0.459000	0.081000	0.259900
N141	N14	0.611000	0.120000	0.328500
N151	N15	0.627000	0.197000	0.485200
N161	N16	0.554000	0.264000	0.619700
N171	N17	0.381000	0.621000	0.247700
N181	N18	0.230000	0.542000	0.192600
N191	N19	0.749000	0.614000	0.923800
N201	N20	0.578000	0.731000	0.047200
N211	N21	0.136000	0.107000	0.284000
N221	N22	0.879000	0.142000	0.351200
N231	N23	0.677000	0.623000	0.231200
N241	N24	0.940000	0.540000	0.179100
O231	O23	0.087000	0.075000	0.007000
O241	O24	0.065000	0.958000	0.055000
O251	O25	0.902000	0.127000	0.017000
O261	O26	0.100000	0.980000	0.928000
O271	O27	0.145000	0.201000	0.955600
O281	O28	0.888000	0.290000	0.973900
O291	O29	0.317000	0.668000	0.080400
O301	O30	0.301000	0.052000	0.132500
O311	O31	0.299000	0.031000	0.000500
O321	O32	0.101000	0.178000	0.085200
O331	O33	0.276000	0.883000	0.076000
O341	O34	0.998000	0.376000	0.044200
O351	O35	0.082000	0.017000	0.160500
O361	O36	0.838000	0.102000	0.173000
O371	O37	0.851000	0.266000	0.101200
O381	O38	0.619000	0.283000	0.171500
O391	O39	0.381000	0.091000	0.879700
O401	O40	0.324000	0.914000	0.892100
O411	O41	0.297000	0.763000	0.963700
O421	O42	0.940000	0.936000	0.251900
O431	O43	0.163000	0.090000	0.854400
O441	O44	0.089000	0.821000	0.136600
C251	C25	0.461000	0.177000	0.261000
H251	H25	0.415900	0.228200	0.236000
C261	C26	0.536000	0.206000	0.302000
H261	H26	0.531400	0.274900	0.308500
C271	C27	0.616000	0.027000	0.317000
H271	H27	0.676400	0.970000	0.331100
C281	C28	0.539000	0.003000	0.285000
H281	H28	0.542900	0.933400	0.280700
C291	C29	0.561000	0.301000	0.513000
H291	H29	0.544000	0.356500	0.485100
C301	C30	0.521000	0.325000	0.581000
H301	H30	0.464700	0.394800	0.596600
C311	C31	0.606000	0.163000	0.603000
H311	H31	0.616900	0.115000	0.635900
C321	C32	0.651000	0.120000	0.530000
H321	H32	0.690800	0.047100	0.516100
C331	C33	0.254000	0.673000	0.257000
H331	H33	0.212000	0.737200	0.283800
C341	C34	0.186000	0.634000	0.227000
H341	H34	0.100600	0.676900	0.231500
C351	C35	0.428000	0.522000	0.217000
H351	H35	0.511400	0.477000	0.216700
C361	C36	0.362000	0.486000	0.188000
H361	H36	0.404200	0.420800	0.162300
C371	C37	0.678000	0.710000	0.930000
H371	H37	0.686800	0.743300	0.890100
C381	C38	0.587000	0.778000	0.983000
H381	H38	0.535500	0.848100	0.978900
C391	C39	0.649000	0.624000	0.043000
H391	H39	0.637800	0.586500	0.080600
C401	C40	0.750000	0.564000	0.978000
H401	H40	0.809300	0.494600	0.977300
C411	C41	0.042000	0.167000	0.266000
H411	H41	0.056200	0.202700	0.227800
C421	C42	0.107000	0.062000	0.340000
H421	H42	0.173700	0.013700	0.355900
C431	C43	0.977000	0.084000	0.377000
H431	H43	0.961300	0.057900	0.418900
C441	C44	0.909000	0.187000	0.300000
H441	H44	0.843800	0.235300	0.283900
C451	C45	0.734000	0.679000	0.200000
H451	H45	0.684300	0.749200	0.195400
C461	C46	0.747000	0.521000	0.238000
H461	H46	0.706400	0.480400	0.261600
C471	C47	0.871000	0.477000	0.213000
H471	H47	0.915000	0.405000	0.217700
C481	C48	0.870000	0.640000	0.172000
H481	H48	0.907400	0.684100	0.149300
Si11	Si1	0.000000	0.000000	0.000000
