data_INIXOT_freeONLY_PM
_symmetry_space_group_name_H-M	'P1'
_cell_length_a	9.446200
_cell_length_b	9.446200
_cell_length_c	15.759000
_cell_angle_alpha	90.000000
_cell_angle_beta	90.000000
_cell_angle_gamma	120.000000
_symmetry_Int_Tables_number 1

loop_
_symmetry_equiv_pos_as_xyz
'x,y,z'

loop_
_atom_site_label
_atom_site_type_symbol
_atom_site_fract_x
_atom_site_fract_y
_atom_site_fract_z
P11	P1	0.169960	0.387040	0.919150
O11	O1	0.021900	0.211900	0.934470
O21	O2	0.180200	0.415500	0.820870
O31	O3	0.139900	0.514500	0.958440
O41	O4	0.802400	0.509200	0.885760
H11	H1	0.827200	0.551000	0.836400
O51	O5	0.318300	0.383900	0.951540
H21	H2	0.883200	0.553600	0.920100
P21	P2	0.612960	0.782920	0.252480
O61	O6	0.788100	0.810000	0.267800
O71	O7	0.584500	0.764700	0.154200
O81	O8	0.485500	0.625400	0.291770
O91	O9	0.490800	0.293200	0.219090
H31	H3	0.449000	0.276200	0.169730
O101	O10	0.616100	0.934400	0.284870
H41	H4	0.446400	0.329600	0.253430
P31	P3	0.217080	0.830040	0.585820
O111	O11	0.190000	0.978100	0.601140
O121	O12	0.235300	0.819800	0.487540
O131	O13	0.374600	0.860100	0.625110
O141	O14	0.706800	0.197600	0.552430
H51	H5	0.723800	0.172800	0.503070
O151	O15	0.065600	0.681700	0.618210
H61	H6	0.670400	0.116800	0.586770
P41	P4	0.830040	0.612960	0.419150
O161	O16	0.978100	0.788100	0.434470
O171	O17	0.819800	0.584500	0.320870
O181	O18	0.860100	0.485500	0.458440
O191	O19	0.197600	0.490800	0.385760
H71	H7	0.172800	0.449000	0.336400
O201	O20	0.681700	0.616100	0.451540
H81	H8	0.116800	0.446400	0.420100
P51	P5	0.387040	0.217080	0.752480
O211	O21	0.211900	0.190000	0.767800
O221	O22	0.415500	0.235300	0.654200
O231	O23	0.514500	0.374600	0.791770
O241	O24	0.509200	0.706800	0.719090
H91	H9	0.551000	0.723800	0.669730
O251	O25	0.383900	0.065600	0.784870
H101	H10	0.553600	0.670400	0.753430
P61	P6	0.782920	0.169960	0.085820
O261	O26	0.810000	0.021900	0.101140
O271	O27	0.764700	0.180200	0.987540
O281	O28	0.625400	0.139900	0.125110
O291	O29	0.293200	0.802400	0.052430
H111	H11	0.276200	0.827200	0.003070
O301	O30	0.934400	0.318300	0.118210
H121	H12	0.329600	0.883200	0.086770
P71	P7	0.387040	0.169960	0.414180
O311	O31	0.211900	0.021900	0.398860
O321	O32	0.415500	0.180200	0.512460
O331	O33	0.514500	0.139900	0.374890
O341	O34	0.509200	0.802400	0.447570
H131	H13	0.551000	0.827200	0.496930
O351	O35	0.383900	0.318300	0.381790
H141	H14	0.553600	0.883200	0.413230
P81	P8	0.782920	0.612960	0.080850
O361	O36	0.810000	0.788100	0.065530
O371	O37	0.764700	0.584500	0.179130
O381	O38	0.625400	0.485500	0.041560
O391	O39	0.293200	0.490800	0.114240
H151	H15	0.276200	0.449000	0.163600
O401	O40	0.934400	0.616100	0.048460
H161	H16	0.329600	0.446400	0.079900
P91	P9	0.830040	0.217080	0.747520
O411	O41	0.978100	0.190000	0.732200
O421	O42	0.819800	0.235300	0.845800
O431	O43	0.860100	0.374600	0.708230
O441	O44	0.197600	0.706800	0.780910
H171	H17	0.172800	0.723800	0.830270
O451	O45	0.681700	0.065600	0.715130
H181	H18	0.116800	0.670400	0.746570
P101	P10	0.612960	0.830040	0.914180
O461	O46	0.788100	0.978100	0.898860
O471	O47	0.584500	0.819800	0.012460
O481	O48	0.485500	0.860100	0.874890
O491	O49	0.490800	0.197600	0.947570
H191	H19	0.449000	0.172800	0.996930
O501	O50	0.616100	0.681700	0.881790
H201	H20	0.446400	0.116800	0.913230
P111	P11	0.217080	0.387040	0.580850
O511	O51	0.190000	0.211900	0.565530
O521	O52	0.235300	0.415500	0.679130
O531	O53	0.374600	0.514500	0.541560
O541	O54	0.706800	0.509200	0.614240
H211	H21	0.723800	0.551000	0.663600
O551	O55	0.065600	0.383900	0.548460
H221	H22	0.670400	0.553600	0.579900
P121	P12	0.169960	0.782920	0.247520
O561	O56	0.021900	0.810000	0.232200
O571	O57	0.180200	0.764700	0.345800
O581	O58	0.139900	0.625400	0.208230
O591	O59	0.802400	0.293200	0.280910
H231	H23	0.827200	0.276200	0.330270
O601	O60	0.318300	0.934400	0.215130
H241	H24	0.883200	0.329600	0.246570
Mg11	Mg1	0.551640	0.448360	0.916670
Mg21	Mg2	0.551640	0.103290	0.250000
Mg31	Mg3	0.896710	0.448360	0.583330
Mg41	Mg4	0.448360	0.551640	0.416670
Mg51	Mg5	0.448360	0.896710	0.750000
Mg61	Mg6	0.103290	0.551640	0.083330
B11	B1	0.151000	0.302000	0.750000
B21	B2	0.698000	0.849000	0.083330
B31	B3	0.151000	0.849000	0.416670
B41	B4	0.849000	0.698000	0.250000
B51	B5	0.302000	0.151000	0.583330
B61	B6	0.849000	0.151000	0.916670
