data_INOMIJ_freeONLY_PM
_symmetry_space_group_name_H-M	'P1'
_cell_length_a	22.650500
_cell_length_b	11.235200
_cell_length_c	12.796100
_cell_angle_alpha	90.000000
_cell_angle_beta	90.000000
_cell_angle_gamma	90.000000
_symmetry_Int_Tables_number 1

loop_
_symmetry_equiv_pos_as_xyz
'x,y,z'

loop_
_atom_site_label
_atom_site_type_symbol
_atom_site_fract_x
_atom_site_fract_y
_atom_site_fract_z
Ca11	Ca1	0.434050	0.622100	0.076900
Ca21	Ca2	0.508570	0.493760	0.312740
S11	S1	0.508790	0.032550	0.226850
S21	S2	0.274890	0.487430	0.407680
C11	C1	0.283000	0.499700	0.207900
H11	H1	0.298500	0.502800	0.138900
C21	C2	0.222390	0.509500	0.231700
H21	H2	0.192500	0.517900	0.180100
O11	O1	0.485100	0.449300	0.992000
O21	O2	0.410510	0.496100	0.217000
C31	C3	0.495550	0.786200	0.235700
C41	C4	0.382050	0.473500	0.299500
O31	O3	0.509290	0.290700	0.252800
O41	O4	0.495040	0.789900	0.136900
O51	O5	0.486400	0.694800	0.289300
O61	O6	0.530300	0.523200	0.129600
C51	C5	0.316800	0.485100	0.295300
O71	O7	0.406580	0.443300	0.383200
O81	O8	0.529250	0.298700	0.422800
O91	O9	0.109310	0.494800	0.326600
O101	O10	0.148910	0.548500	0.480300
O111	O11	0.363870	0.754500	0.143400
C61	C6	0.506830	0.899300	0.293000
C71	C7	0.210890	0.505900	0.336700
C81	C8	0.520900	0.109600	0.341300
C91	C9	0.265800	0.784400	0.066300
H31	H3	0.257400	0.866000	0.043800
H41	H4	0.229300	0.746700	0.090800
H51	H5	0.281800	0.739100	0.007300
N11	N1	0.292300	0.826100	0.246100
C101	C10	0.151500	0.517400	0.386100
C111	C11	0.334600	0.823600	0.333900
H61	H6	0.325700	0.755800	0.379400
H71	H7	0.331400	0.897700	0.373900
H81	H8	0.374800	0.815700	0.306500
C121	C12	0.523400	0.034900	0.426100
H91	H9	0.530100	0.061200	0.495700
C131	C13	0.520700	0.241500	0.338100
C141	C14	0.514800	0.914500	0.398500
H101	H10	0.514600	0.851000	0.447500
C151	C15	0.312600	0.786600	0.158100
C161	C16	0.229400	0.857700	0.264100
H111	H11	0.207400	0.786200	0.284200
H121	H12	0.212600	0.890700	0.199700
H131	H13	0.226800	0.916900	0.320100
C171	C17	0.527440	0.447400	0.056600
C181	C18	0.574200	0.352900	0.046500
H141	H14	0.612700	0.386400	0.065600
H151	H15	0.575500	0.324400	0.974100
H161	H16	0.564800	0.286400	0.093100
Ca31	Ca3	0.565950	0.377900	0.576900
Ca41	Ca4	0.491430	0.506240	0.812740
S31	S3	0.491210	0.967450	0.726850
S41	S4	0.725110	0.512570	0.907680
C191	C19	0.717000	0.500300	0.707900
H171	H17	0.701500	0.497200	0.638900
C201	C20	0.777610	0.490500	0.731700
H181	H18	0.807500	0.482100	0.680100
O121	O12	0.514900	0.550700	0.492000
O131	O13	0.589490	0.503900	0.717000
C211	C21	0.504450	0.213800	0.735700
C221	C22	0.617950	0.526500	0.799500
O141	O14	0.490710	0.709300	0.752800
O151	O15	0.504960	0.210100	0.636900
O161	O16	0.513600	0.305200	0.789300
O171	O17	0.469700	0.476800	0.629600
C231	C23	0.683200	0.514900	0.795300
O181	O18	0.593420	0.556700	0.883200
O191	O19	0.470750	0.701300	0.922800
O201	O20	0.890690	0.505200	0.826600
O211	O21	0.851090	0.451500	0.980300
O221	O22	0.636130	0.245500	0.643400
C241	C24	0.493170	0.100700	0.793000
C251	C25	0.789110	0.494100	0.836700
C261	C26	0.479100	0.890400	0.841300
C271	C27	0.734200	0.215600	0.566300
H191	H19	0.742600	0.134000	0.543800
H201	H20	0.770700	0.253300	0.590800
H211	H21	0.718200	0.260900	0.507300
N21	N2	0.707700	0.173900	0.746100
C281	C28	0.848500	0.482600	0.886100
C291	C29	0.665400	0.176400	0.833900
H221	H22	0.674300	0.244200	0.879400
H231	H23	0.668600	0.102300	0.873900
H241	H24	0.625200	0.184300	0.806500
C301	C30	0.476600	0.965100	0.926100
H251	H25	0.469900	0.938800	0.995700
C311	C31	0.479300	0.758500	0.838100
C321	C32	0.485200	0.085500	0.898500
H261	H26	0.485400	0.149000	0.947500
C331	C33	0.687400	0.213400	0.658100
C341	C34	0.770600	0.142300	0.764100
H271	H27	0.792600	0.213800	0.784200
H281	H28	0.787400	0.109300	0.699700
H291	H29	0.773200	0.083100	0.820100
C351	C35	0.472560	0.552600	0.556600
C361	C36	0.425800	0.647100	0.546500
H301	H30	0.387300	0.613600	0.565600
H311	H31	0.424500	0.675600	0.474100
H321	H32	0.435200	0.713600	0.593100
Ca51	Ca5	0.934050	0.377900	0.076900
Ca61	Ca6	0.008570	0.506240	0.312740
S51	S5	0.008790	0.967450	0.226850
S61	S6	0.774890	0.512570	0.407680
C371	C37	0.783000	0.500300	0.207900
H331	H33	0.798500	0.497200	0.138900
C381	C38	0.722390	0.490500	0.231700
H341	H34	0.692500	0.482100	0.180100
O231	O23	0.985100	0.550700	0.992000
O241	O24	0.910510	0.503900	0.217000
C391	C39	0.995550	0.213800	0.235700
C401	C40	0.882050	0.526500	0.299500
O251	O25	0.009290	0.709300	0.252800
O261	O26	0.995040	0.210100	0.136900
O271	O27	0.986400	0.305200	0.289300
O281	O28	0.030300	0.476800	0.129600
C411	C41	0.816800	0.514900	0.295300
O291	O29	0.906580	0.556700	0.383200
O301	O30	0.029250	0.701300	0.422800
O311	O31	0.609310	0.505200	0.326600
O321	O32	0.648910	0.451500	0.480300
O331	O33	0.863870	0.245500	0.143400
C421	C42	0.006830	0.100700	0.293000
C431	C43	0.710890	0.494100	0.336700
C441	C44	0.020900	0.890400	0.341300
C451	C45	0.765800	0.215600	0.066300
H351	H35	0.757400	0.134000	0.043800
H361	H36	0.729300	0.253300	0.090800
H371	H37	0.781800	0.260900	0.007300
N31	N3	0.792300	0.173900	0.246100
C461	C46	0.651500	0.482600	0.386100
C471	C47	0.834600	0.176400	0.333900
H381	H38	0.825700	0.244200	0.379400
H391	H39	0.831400	0.102300	0.373900
H401	H40	0.874800	0.184300	0.306500
C481	C48	0.023400	0.965100	0.426100
H411	H41	0.030100	0.938800	0.495700
C491	C49	0.020700	0.758500	0.338100
C501	C50	0.014800	0.085500	0.398500
H421	H42	0.014600	0.149000	0.447500
C511	C51	0.812600	0.213400	0.158100
C521	C52	0.729400	0.142300	0.264100
H431	H43	0.707400	0.213800	0.284200
H441	H44	0.712600	0.109300	0.199700
H451	H45	0.726800	0.083100	0.320100
C531	C53	0.027440	0.552600	0.056600
C541	C54	0.074200	0.647100	0.046500
H461	H46	0.112700	0.613600	0.065600
H471	H47	0.075500	0.675600	0.974100
H481	H48	0.064800	0.713600	0.093100
Ca71	Ca7	0.065950	0.622100	0.576900
Ca81	Ca8	0.991430	0.493760	0.812740
S71	S7	0.991210	0.032550	0.726850
S81	S8	0.225110	0.487430	0.907680
C551	C55	0.217000	0.499700	0.707900
H491	H49	0.201500	0.502800	0.638900
C561	C56	0.277610	0.509500	0.731700
H501	H50	0.307500	0.517900	0.680100
O341	O34	0.014900	0.449300	0.492000
O351	O35	0.089490	0.496100	0.717000
C571	C57	0.004450	0.786200	0.735700
C581	C58	0.117950	0.473500	0.799500
O361	O36	0.990710	0.290700	0.752800
O371	O37	0.004960	0.789900	0.636900
O381	O38	0.013600	0.694800	0.789300
O391	O39	0.969700	0.523200	0.629600
C591	C59	0.183200	0.485100	0.795300
O401	O40	0.093420	0.443300	0.883200
O411	O41	0.970750	0.298700	0.922800
O421	O42	0.390690	0.494800	0.826600
O431	O43	0.351090	0.548500	0.980300
O441	O44	0.136130	0.754500	0.643400
C601	C60	0.993170	0.899300	0.793000
C611	C61	0.289110	0.505900	0.836700
C621	C62	0.979100	0.109600	0.841300
C631	C63	0.234200	0.784400	0.566300
H511	H51	0.242600	0.866000	0.543800
H521	H52	0.270700	0.746700	0.590800
H531	H53	0.218200	0.739100	0.507300
N41	N4	0.207700	0.826100	0.746100
C641	C64	0.348500	0.517400	0.886100
C651	C65	0.165400	0.823600	0.833900
H541	H54	0.174300	0.755800	0.879400
H551	H55	0.168600	0.897700	0.873900
H561	H56	0.125200	0.815700	0.806500
C661	C66	0.976600	0.034900	0.926100
H571	H57	0.969900	0.061200	0.995700
C671	C67	0.979300	0.241500	0.838100
C681	C68	0.985200	0.914500	0.898500
H581	H58	0.985400	0.851000	0.947500
C691	C69	0.187400	0.786600	0.658100
C701	C70	0.270600	0.857700	0.764100
H591	H59	0.292600	0.786200	0.784200
H601	H60	0.287400	0.890700	0.699700
H611	H61	0.273200	0.916900	0.820100
C711	C71	0.972560	0.447400	0.556600
C721	C72	0.925800	0.352900	0.546500
H621	H62	0.887300	0.386400	0.565600
H631	H63	0.924500	0.324400	0.474100
H641	H64	0.935200	0.286400	0.593100
