data_IPIDUH_freeONLY_PM
_symmetry_space_group_name_H-M	'P1'
_cell_length_a	11.161400
_cell_length_b	12.567500
_cell_length_c	31.057700
_cell_angle_alpha	90.000000
_cell_angle_beta	90.000000
_cell_angle_gamma	90.000000
_symmetry_Int_Tables_number 1

loop_
_symmetry_equiv_pos_as_xyz
'x,y,z'

loop_
_atom_site_label
_atom_site_type_symbol
_atom_site_fract_x
_atom_site_fract_y
_atom_site_fract_z
Ag11	Ag1	0.676330	0.621680	0.734360
Ag21	Ag2	0.817840	0.441550	0.913800
Ag31	Ag3	0.323670	0.878320	0.234360
Ag41	Ag4	0.182160	0.058450	0.413800
Ag51	Ag5	0.176330	0.378320	0.765640
Ag61	Ag6	0.317840	0.558450	0.586200
Ag71	Ag7	0.823670	0.121680	0.265640
Ag81	Ag8	0.682160	0.941550	0.086200
Ag91	Ag9	0.323670	0.378320	0.265640
Ag101	Ag10	0.182160	0.558450	0.086200
Ag111	Ag11	0.676330	0.121680	0.765640
Ag121	Ag12	0.817840	0.941550	0.586200
Ag131	Ag13	0.823670	0.621680	0.234360
Ag141	Ag14	0.682160	0.441550	0.413800
Ag151	Ag15	0.176330	0.878320	0.734360
Ag161	Ag16	0.317840	0.058450	0.913800
H11	H1	0.700800	0.079100	0.003100
H21	H2	0.410000	0.254000	0.978300
H31	H3	0.321100	0.181600	0.039200
H41	H4	0.425900	0.062000	0.080400
H51	H5	0.488400	0.527000	0.664800
H61	H6	0.491500	0.650000	0.656200
H71	H7	0.412600	0.730000	0.760000
H81	H8	0.445000	0.773700	0.714100
H91	H9	0.411100	0.538400	0.772700
H101	H10	0.440200	0.460100	0.734800
H111	H11	0.306600	0.751100	0.655200
H121	H12	0.183600	0.693300	0.662500
H131	H13	0.224300	0.639400	0.772000
H141	H14	0.133200	0.624600	0.733900
H151	H15	0.297600	0.437700	0.675900
H161	H16	0.178400	0.503900	0.675500
H171	H17	0.299200	0.420900	0.503100
H181	H18	0.590000	0.246000	0.478300
H191	H19	0.678900	0.318400	0.539200
H201	H20	0.574100	0.438000	0.580400
H211	H21	0.511600	0.973000	0.164800
H221	H22	0.508500	0.850000	0.156200
H231	H23	0.587400	0.770000	0.260000
H241	H24	0.555000	0.726300	0.214100
H251	H25	0.588900	0.961600	0.272700
H261	H26	0.559800	0.039900	0.234800
H271	H27	0.693400	0.748900	0.155200
H281	H28	0.816400	0.806700	0.162500
H291	H29	0.775700	0.860600	0.272000
H301	H30	0.866800	0.875400	0.233900
H311	H31	0.702400	0.062300	0.175900
H321	H32	0.821600	0.996100	0.175500
H331	H33	0.200800	0.920900	0.496900
H341	H34	0.910000	0.746000	0.521700
H351	H35	0.821100	0.818400	0.460800
H361	H36	0.925900	0.938000	0.419600
H371	H37	0.988400	0.473000	0.835200
H381	H38	0.991500	0.350000	0.843800
H391	H39	0.912600	0.270000	0.740000
H401	H40	0.945000	0.226300	0.785900
H411	H41	0.911100	0.461600	0.727300
H421	H42	0.940200	0.539900	0.765200
H431	H43	0.806600	0.248900	0.844800
H441	H44	0.683600	0.306700	0.837500
H451	H45	0.724300	0.360600	0.728000
H461	H46	0.633200	0.375400	0.766100
H471	H47	0.797600	0.562300	0.824100
H481	H48	0.678400	0.496100	0.824500
H491	H49	0.799200	0.579100	0.996900
H501	H50	0.090000	0.754000	0.021700
H511	H51	0.178900	0.681600	0.960800
H521	H52	0.074100	0.562000	0.919600
H531	H53	0.011600	0.027000	0.335200
H541	H54	0.008500	0.150000	0.343800
H551	H55	0.087400	0.230000	0.240000
H561	H56	0.055000	0.273700	0.285900
H571	H57	0.088900	0.038400	0.227300
H581	H58	0.059800	0.960100	0.265200
H591	H59	0.193400	0.251100	0.344800
H601	H60	0.316400	0.193300	0.337500
H611	H61	0.275700	0.139400	0.228000
H621	H62	0.366800	0.124600	0.266100
H631	H63	0.202400	0.937700	0.324100
H641	H64	0.321600	0.003900	0.324500
H651	H65	0.299200	0.920900	0.996900
H661	H66	0.590000	0.746000	0.021700
H671	H67	0.678900	0.818400	0.960800
H681	H68	0.574100	0.938000	0.919600
H691	H69	0.511600	0.473000	0.335200
H701	H70	0.508500	0.350000	0.343800
H711	H71	0.587400	0.270000	0.240000
H721	H72	0.555000	0.226300	0.285900
H731	H73	0.588900	0.461600	0.227300
H741	H74	0.559800	0.539900	0.265200
H751	H75	0.693400	0.248900	0.344800
H761	H76	0.816400	0.306700	0.337500
H771	H77	0.775700	0.360600	0.228000
H781	H78	0.866800	0.375400	0.266100
H791	H79	0.702400	0.562300	0.324100
H801	H80	0.821600	0.496100	0.324500
H811	H81	0.700800	0.579100	0.496900
H821	H82	0.410000	0.754000	0.521700
H831	H83	0.321100	0.681600	0.460800
H841	H84	0.425900	0.562000	0.419600
H851	H85	0.488400	0.027000	0.835200
H861	H86	0.491500	0.150000	0.843800
H871	H87	0.412600	0.230000	0.740000
H881	H88	0.445000	0.273700	0.785900
H891	H89	0.411100	0.038400	0.727300
H901	H90	0.440200	0.960100	0.765200
H911	H91	0.306600	0.251100	0.844800
H921	H92	0.183600	0.193300	0.837500
H931	H93	0.224300	0.139400	0.728000
H941	H94	0.133200	0.124600	0.766100
H951	H95	0.297600	0.937700	0.824100
H961	H96	0.178400	0.003900	0.824500
H971	H97	0.799200	0.079100	0.503100
H981	H98	0.090000	0.254000	0.478300
H991	H99	0.178900	0.181600	0.539200
H1001	H100	0.074100	0.062000	0.580400
H1011	H101	0.011600	0.527000	0.164800
H1021	H102	0.008500	0.650000	0.156200
H1031	H103	0.087400	0.730000	0.260000
H1041	H104	0.055000	0.773700	0.214100
H1051	H105	0.088900	0.538400	0.272700
H1061	H106	0.059800	0.460100	0.234800
H1071	H107	0.193400	0.751100	0.155200
H1081	H108	0.316400	0.693300	0.162500
H1091	H109	0.275700	0.639400	0.272000
H1101	H110	0.366800	0.624600	0.233900
H1111	H111	0.202400	0.437700	0.175900
H1121	H112	0.321600	0.503900	0.175500
H1131	H113	0.200800	0.420900	0.003100
H1141	H114	0.910000	0.246000	0.978300
H1151	H115	0.821100	0.318400	0.039200
H1161	H116	0.925900	0.438000	0.080400
H1171	H117	0.988400	0.973000	0.664800
H1181	H118	0.991500	0.850000	0.656200
H1191	H119	0.912600	0.770000	0.760000
H1201	H120	0.945000	0.726300	0.714100
H1211	H121	0.911100	0.961600	0.772700
H1221	H122	0.940200	0.039900	0.734800
H1231	H123	0.806600	0.748900	0.655200
H1241	H124	0.683600	0.806700	0.662500
H1251	H125	0.724300	0.860600	0.772000
H1261	H126	0.633200	0.875400	0.733900
H1271	H127	0.797600	0.062300	0.675900
H1281	H128	0.678400	0.996100	0.675500
C11	C1	0.623500	0.099900	0.010450
C21	C2	0.565000	0.172300	0.984400
C31	C3	0.450700	0.204600	0.995170
C41	C4	0.398400	0.162000	0.031340
C51	C5	0.462000	0.089900	0.055880
C61	C6	0.450800	0.594200	0.672120
C71	C7	0.405200	0.716400	0.729370
C81	C8	0.402800	0.527400	0.741910
C91	C9	0.267400	0.694100	0.670880
C101	C10	0.217700	0.626600	0.741260
C111	C11	0.262500	0.505700	0.683430
C121	C12	0.376500	0.400100	0.510450
C131	C13	0.435000	0.327700	0.484400
C141	C14	0.549300	0.295400	0.495170
C151	C15	0.601600	0.338000	0.531340
C161	C16	0.538000	0.410100	0.555880
C171	C17	0.549200	0.905800	0.172120
C181	C18	0.594800	0.783600	0.229370
C191	C19	0.597200	0.972600	0.241910
C201	C20	0.732600	0.805900	0.170880
C211	C21	0.782300	0.873400	0.241260
C221	C22	0.737500	0.994300	0.183430
C231	C23	0.123500	0.900100	0.489550
C241	C24	0.065000	0.827700	0.515600
C251	C25	0.950700	0.795400	0.504830
C261	C26	0.898400	0.838000	0.468660
C271	C27	0.962000	0.910100	0.444120
C281	C28	0.950800	0.405800	0.827880
C291	C29	0.905200	0.283600	0.770630
C301	C30	0.902800	0.472600	0.758090
C311	C31	0.767400	0.305900	0.829120
C321	C32	0.717700	0.373400	0.758740
C331	C33	0.762500	0.494300	0.816570
C341	C34	0.876500	0.599900	0.989550
C351	C35	0.935000	0.672300	0.015600
C361	C36	0.049300	0.704600	0.004830
C371	C37	0.101600	0.662000	0.968660
C381	C38	0.038000	0.589900	0.944120
C391	C39	0.049200	0.094200	0.327880
C401	C40	0.094800	0.216400	0.270630
C411	C41	0.097200	0.027400	0.258090
C421	C42	0.232600	0.194100	0.329120
C431	C43	0.282300	0.126600	0.258740
C441	C44	0.237500	0.005700	0.316570
C451	C45	0.376500	0.900100	0.989550
C461	C46	0.435000	0.827700	0.015600
C471	C47	0.549300	0.795400	0.004830
C481	C48	0.601600	0.838000	0.968660
C491	C49	0.538000	0.910100	0.944120
C501	C50	0.549200	0.405800	0.327880
C511	C51	0.594800	0.283600	0.270630
C521	C52	0.597200	0.472600	0.258090
C531	C53	0.732600	0.305900	0.329120
C541	C54	0.782300	0.373400	0.258740
C551	C55	0.737500	0.494300	0.316570
C561	C56	0.623500	0.599900	0.489550
C571	C57	0.565000	0.672300	0.515600
C581	C58	0.450700	0.704600	0.504830
C591	C59	0.398400	0.662000	0.468660
C601	C60	0.462000	0.589900	0.444120
C611	C61	0.450800	0.094200	0.827880
C621	C62	0.405200	0.216400	0.770630
C631	C63	0.402800	0.027400	0.758090
C641	C64	0.267400	0.194100	0.829120
C651	C65	0.217700	0.126600	0.758740
C661	C66	0.262500	0.005700	0.816570
C671	C67	0.876500	0.099900	0.510450
C681	C68	0.935000	0.172300	0.484400
C691	C69	0.049300	0.204600	0.495170
C701	C70	0.101600	0.162000	0.531340
C711	C71	0.038000	0.089900	0.555880
C721	C72	0.049200	0.594200	0.172120
C731	C73	0.094800	0.716400	0.229370
C741	C74	0.097200	0.527400	0.241910
C751	C75	0.232600	0.694100	0.170880
C761	C76	0.282300	0.626600	0.241260
C771	C77	0.237500	0.505700	0.183430
C781	C78	0.123500	0.400100	0.010450
C791	C79	0.065000	0.327700	0.984400
C801	C80	0.950700	0.295400	0.995170
C811	C81	0.898400	0.338000	0.031340
C821	C82	0.962000	0.410100	0.055880
C831	C83	0.950800	0.905800	0.672120
C841	C84	0.905200	0.783600	0.729370
C851	C85	0.902800	0.972600	0.741910
C861	C86	0.767400	0.805900	0.670880
C871	C87	0.717700	0.873400	0.741260
C881	C88	0.762500	0.994300	0.683430
S11	S1	0.636040	0.221160	0.937520
S21	S2	0.363960	0.278840	0.437520
S31	S3	0.136040	0.778840	0.562480
S41	S4	0.863960	0.721160	0.062480
S51	S5	0.363960	0.778840	0.062480
S61	S6	0.636040	0.721160	0.562480
S71	S7	0.863960	0.221160	0.437520
S81	S8	0.136040	0.278840	0.937520
N11	N1	0.572700	0.058200	0.046050
N21	N2	0.464500	0.613950	0.718770
N31	N3	0.323300	0.591200	0.659120
N41	N4	0.273400	0.522700	0.730670
N51	N5	0.276500	0.714950	0.717400
N61	N6	0.427300	0.441800	0.546050
N71	N7	0.535500	0.886050	0.218770
N81	N8	0.676700	0.908800	0.159120
N91	N9	0.726600	0.977300	0.230670
N101	N10	0.723500	0.785050	0.217400
N111	N11	0.072700	0.941800	0.453950
N121	N12	0.964500	0.386050	0.781230
N131	N13	0.823300	0.408800	0.840880
N141	N14	0.773400	0.477300	0.769330
N151	N15	0.776500	0.285050	0.782600
N161	N16	0.927300	0.558200	0.953950
N171	N17	0.035500	0.113950	0.281230
N181	N18	0.176700	0.091200	0.340880
N191	N19	0.226600	0.022700	0.269330
N201	N20	0.223500	0.214950	0.282600
N211	N21	0.427300	0.941800	0.953950
N221	N22	0.535500	0.386050	0.281230
N231	N23	0.676700	0.408800	0.340880
N241	N24	0.726600	0.477300	0.269330
N251	N25	0.723500	0.285050	0.282600
N261	N26	0.572700	0.558200	0.453950
N271	N27	0.464500	0.113950	0.781230
N281	N28	0.323300	0.091200	0.840880
N291	N29	0.273400	0.022700	0.769330
N301	N30	0.276500	0.214950	0.782600
N311	N31	0.927300	0.058200	0.546050
N321	N32	0.035500	0.613950	0.218770
N331	N33	0.176700	0.591200	0.159120
N341	N34	0.226600	0.522700	0.230670
N351	N35	0.223500	0.714950	0.217400
N361	N36	0.072700	0.441800	0.046050
N371	N37	0.964500	0.886050	0.718770
N381	N38	0.823300	0.908800	0.659120
N391	N39	0.773400	0.977300	0.730670
N401	N40	0.776500	0.785050	0.717400
O11	O1	0.710200	0.135000	0.921870
O21	O2	0.540500	0.251200	0.908560
O31	O3	0.705600	0.310800	0.952520
O41	O4	0.289800	0.365000	0.421870
O51	O5	0.459500	0.248800	0.408560
O61	O6	0.294400	0.189200	0.452520
O71	O7	0.210200	0.865000	0.578130
O81	O8	0.040500	0.748800	0.591440
O91	O9	0.205600	0.689200	0.547480
O101	O10	0.789800	0.635000	0.078130
O111	O11	0.959500	0.751200	0.091440
O121	O12	0.794400	0.810800	0.047480
O131	O13	0.289800	0.865000	0.078130
O141	O14	0.459500	0.748800	0.091440
O151	O15	0.294400	0.689200	0.047480
O161	O16	0.710200	0.635000	0.578130
O171	O17	0.540500	0.751200	0.591440
O181	O18	0.705600	0.810800	0.547480
O191	O19	0.789800	0.135000	0.421870
O201	O20	0.959500	0.251200	0.408560
O211	O21	0.794400	0.310800	0.452520
O221	O22	0.210200	0.365000	0.921870
O231	O23	0.040500	0.248800	0.908560
O241	O24	0.205600	0.189200	0.952520
