data_IPIHIA_freeONLY_PM
_symmetry_space_group_name_H-M	'P1'
_cell_length_a	27.108000
_cell_length_b	10.673000
_cell_length_c	16.641000
_cell_angle_alpha	90.000000
_cell_angle_beta	104.241000
_cell_angle_gamma	90.000000
_symmetry_Int_Tables_number 1

loop_
_symmetry_equiv_pos_as_xyz
'x,y,z'

loop_
_atom_site_label
_atom_site_type_symbol
_atom_site_fract_x
_atom_site_fract_y
_atom_site_fract_z
Cd11	Cd1	0.287080	0.790050	0.167130
O11	O1	0.229500	0.413600	0.457500
O21	O2	0.218300	0.509200	0.338100
O31	O3	0.270700	0.790000	0.294300
O41	O4	0.318600	0.628300	0.351800
O51	O5	0.302500	0.613400	0.100700
H11	H1	0.305000	0.557000	0.141400
H21	H2	0.270600	0.603000	0.070000
N11	N1	0.122700	0.716800	0.060700
N21	N2	0.129700	0.638200	0.127500
N31	N3	0.201900	0.740100	0.127300
N41	N4	0.934200	0.693800	0.839000
N51	N5	0.947200	0.787900	0.794600
N61	N6	0.872300	0.710900	0.728900
C11	C1	0.061400	0.607700	0.948300
C21	C2	0.011100	0.577000	0.909900
C31	C3	0.001700	0.467200	0.865400
H31	H3	0.968200	0.445100	0.840800
C41	C4	0.040500	0.388600	0.856100
H41	H4	0.033100	0.314900	0.825700
C51	C5	0.090100	0.420400	0.892200
H51	H5	0.116600	0.369100	0.885900
C61	C6	0.100200	0.529900	0.938300
H61	H6	0.133800	0.551400	0.962900
C71	C7	0.073600	0.722200	0.001700
H71	H7	0.072900	0.794700	0.966300
H81	H8	0.047500	0.733500	0.031600
C81	C8	0.967000	0.657200	0.920200
H91	H9	0.947000	0.611100	0.951200
H101	H10	0.980100	0.731900	0.951500
C91	C9	0.178100	0.658100	0.164100
H111	H11	0.194400	0.617100	0.212700
C101	C10	0.165800	0.773500	0.062800
H121	H12	0.170300	0.830800	0.023100
C111	C11	0.908600	0.795200	0.728000
H131	H13	0.907000	0.852600	0.685400
C121	C12	0.889800	0.650000	0.799700
H141	H14	0.872800	0.585100	0.818800
C131	C13	0.241500	0.634200	0.459000
C141	C14	0.266400	0.730500	0.427500
C151	C15	0.273600	0.842800	0.468600
H151	H15	0.289500	0.907100	0.446800
C161	C16	0.229100	0.512600	0.415100
C171	C17	0.286700	0.711400	0.351900
Cd21	Cd2	0.787080	0.290050	0.167130
O61	O6	0.729500	0.913600	0.457500
O71	O7	0.718300	0.009200	0.338100
O81	O8	0.770700	0.290000	0.294300
O91	O9	0.818600	0.128300	0.351800
O101	O10	0.802500	0.113400	0.100700
H161	H16	0.805000	0.057000	0.141400
H171	H17	0.770600	0.103000	0.070000
N71	N7	0.622700	0.216800	0.060700
N81	N8	0.629700	0.138200	0.127500
N91	N9	0.701900	0.240100	0.127300
N101	N10	0.434200	0.193800	0.839000
N111	N11	0.447200	0.287900	0.794600
N121	N12	0.372300	0.210900	0.728900
C181	C18	0.561400	0.107700	0.948300
C191	C19	0.511100	0.077000	0.909900
C201	C20	0.501700	0.967200	0.865400
H181	H18	0.468200	0.945100	0.840800
C211	C21	0.540500	0.888600	0.856100
H191	H19	0.533100	0.814900	0.825700
C221	C22	0.590100	0.920400	0.892200
H201	H20	0.616600	0.869100	0.885900
C231	C23	0.600200	0.029900	0.938300
H211	H21	0.633800	0.051400	0.962900
C241	C24	0.573600	0.222200	0.001700
H221	H22	0.572900	0.294700	0.966300
H231	H23	0.547500	0.233500	0.031600
C251	C25	0.467000	0.157200	0.920200
H241	H24	0.447000	0.111100	0.951200
H251	H25	0.480100	0.231900	0.951500
C261	C26	0.678100	0.158100	0.164100
H261	H26	0.694400	0.117100	0.212700
C271	C27	0.665800	0.273500	0.062800
H271	H27	0.670300	0.330800	0.023100
C281	C28	0.408600	0.295200	0.728000
H281	H28	0.407000	0.352600	0.685400
C291	C29	0.389800	0.150000	0.799700
H291	H29	0.372800	0.085100	0.818800
C301	C30	0.741500	0.134200	0.459000
C311	C31	0.766400	0.230500	0.427500
C321	C32	0.773600	0.342800	0.468600
H301	H30	0.789500	0.407100	0.446800
C331	C33	0.729100	0.012600	0.415100
C341	C34	0.786700	0.211400	0.351900
Cd31	Cd3	0.712920	0.790050	0.332870
O111	O11	0.770500	0.413600	0.042500
O121	O12	0.781700	0.509200	0.161900
O131	O13	0.729300	0.790000	0.205700
O141	O14	0.681400	0.628300	0.148200
O151	O15	0.697500	0.613400	0.399300
H311	H31	0.695000	0.557000	0.358600
H321	H32	0.729400	0.603000	0.430000
N131	N13	0.877300	0.716800	0.439300
N141	N14	0.870300	0.638200	0.372500
N151	N15	0.798100	0.740100	0.372700
N161	N16	0.065800	0.693800	0.661000
N171	N17	0.052800	0.787900	0.705400
N181	N18	0.127700	0.710900	0.771100
C351	C35	0.938600	0.607700	0.551700
C361	C36	0.988900	0.577000	0.590100
C371	C37	0.998300	0.467200	0.634600
H331	H33	0.031800	0.445100	0.659200
C381	C38	0.959500	0.388600	0.643900
H341	H34	0.966900	0.314900	0.674300
C391	C39	0.909900	0.420400	0.607800
H351	H35	0.883400	0.369100	0.614100
C401	C40	0.899800	0.529900	0.561700
H361	H36	0.866200	0.551400	0.537100
C411	C41	0.926400	0.722200	0.498300
H371	H37	0.927100	0.794700	0.533700
H381	H38	0.952500	0.733500	0.468400
C421	C42	0.033000	0.657200	0.579800
H391	H39	0.053000	0.611100	0.548800
H401	H40	0.019900	0.731900	0.548500
C431	C43	0.821900	0.658100	0.335900
H411	H41	0.805600	0.617100	0.287300
C441	C44	0.834200	0.773500	0.437200
H421	H42	0.829700	0.830800	0.476900
C451	C45	0.091400	0.795200	0.772000
H431	H43	0.093000	0.852600	0.814600
C461	C46	0.110200	0.650000	0.700300
H441	H44	0.127200	0.585100	0.681200
C471	C47	0.758500	0.634200	0.041000
C481	C48	0.733600	0.730500	0.072500
C491	C49	0.726400	0.842800	0.031400
H451	H45	0.710500	0.907100	0.053200
C501	C50	0.770900	0.512600	0.084900
C511	C51	0.713300	0.711400	0.148100
Cd41	Cd4	0.212920	0.290050	0.332870
O161	O16	0.270500	0.913600	0.042500
O171	O17	0.281700	0.009200	0.161900
O181	O18	0.229300	0.290000	0.205700
O191	O19	0.181400	0.128300	0.148200
O201	O20	0.197500	0.113400	0.399300
H461	H46	0.195000	0.057000	0.358600
H471	H47	0.229400	0.103000	0.430000
N191	N19	0.377300	0.216800	0.439300
N201	N20	0.370300	0.138200	0.372500
N211	N21	0.298100	0.240100	0.372700
N221	N22	0.565800	0.193800	0.661000
N231	N23	0.552800	0.287900	0.705400
N241	N24	0.627700	0.210900	0.771100
C521	C52	0.438600	0.107700	0.551700
C531	C53	0.488900	0.077000	0.590100
C541	C54	0.498300	0.967200	0.634600
H481	H48	0.531800	0.945100	0.659200
C551	C55	0.459500	0.888600	0.643900
H491	H49	0.466900	0.814900	0.674300
C561	C56	0.409900	0.920400	0.607800
H501	H50	0.383400	0.869100	0.614100
C571	C57	0.399800	0.029900	0.561700
H511	H51	0.366200	0.051400	0.537100
C581	C58	0.426400	0.222200	0.498300
H521	H52	0.427100	0.294700	0.533700
H531	H53	0.452500	0.233500	0.468400
C591	C59	0.533000	0.157200	0.579800
H541	H54	0.553000	0.111100	0.548800
H551	H55	0.519900	0.231900	0.548500
C601	C60	0.321900	0.158100	0.335900
H561	H56	0.305600	0.117100	0.287300
C611	C61	0.334200	0.273500	0.437200
H571	H57	0.329700	0.330800	0.476900
C621	C62	0.591400	0.295200	0.772000
H581	H58	0.593000	0.352600	0.814600
C631	C63	0.610200	0.150000	0.700300
H591	H59	0.627200	0.085100	0.681200
C641	C64	0.258500	0.134200	0.041000
C651	C65	0.233600	0.230500	0.072500
C661	C66	0.226400	0.342800	0.031400
H601	H60	0.210500	0.407100	0.053200
C671	C67	0.270900	0.012600	0.084900
C681	C68	0.213300	0.211400	0.148100
Cd51	Cd5	0.712920	0.209950	0.832870
O211	O21	0.770500	0.586400	0.542500
O221	O22	0.781700	0.490800	0.661900
O231	O23	0.729300	0.210000	0.705700
O241	O24	0.681400	0.371700	0.648200
O251	O25	0.697500	0.386600	0.899300
H611	H61	0.695000	0.443000	0.858600
H621	H62	0.729400	0.397000	0.930000
N251	N25	0.877300	0.283200	0.939300
N261	N26	0.870300	0.361800	0.872500
N271	N27	0.798100	0.259900	0.872700
N281	N28	0.065800	0.306200	0.161000
N291	N29	0.052800	0.212100	0.205400
N301	N30	0.127700	0.289100	0.271100
C691	C69	0.938600	0.392300	0.051700
C701	C70	0.988900	0.423000	0.090100
C711	C71	0.998300	0.532800	0.134600
H631	H63	0.031800	0.554900	0.159200
C721	C72	0.959500	0.611400	0.143900
H641	H64	0.966900	0.685100	0.174300
C731	C73	0.909900	0.579600	0.107800
H651	H65	0.883400	0.630900	0.114100
C741	C74	0.899800	0.470100	0.061700
H661	H66	0.866200	0.448600	0.037100
C751	C75	0.926400	0.277800	0.998300
H671	H67	0.927100	0.205300	0.033700
H681	H68	0.952500	0.266500	0.968400
C761	C76	0.033000	0.342800	0.079800
H691	H69	0.053000	0.388900	0.048800
H701	H70	0.019900	0.268100	0.048500
C771	C77	0.821900	0.341900	0.835900
H711	H71	0.805600	0.382900	0.787300
C781	C78	0.834200	0.226500	0.937200
H721	H72	0.829700	0.169200	0.976900
C791	C79	0.091400	0.204800	0.272000
H731	H73	0.093000	0.147400	0.314600
C801	C80	0.110200	0.350000	0.200300
H741	H74	0.127200	0.414900	0.181200
C811	C81	0.758500	0.365800	0.541000
C821	C82	0.733600	0.269500	0.572500
C831	C83	0.726400	0.157200	0.531400
H751	H75	0.710500	0.092900	0.553200
C841	C84	0.770900	0.487400	0.584900
C851	C85	0.713300	0.288600	0.648100
Cd61	Cd6	0.212920	0.709950	0.832870
O261	O26	0.270500	0.086400	0.542500
O271	O27	0.281700	0.990800	0.661900
O281	O28	0.229300	0.710000	0.705700
O291	O29	0.181400	0.871700	0.648200
O301	O30	0.197500	0.886600	0.899300
H761	H76	0.195000	0.943000	0.858600
H771	H77	0.229400	0.897000	0.930000
N311	N31	0.377300	0.783200	0.939300
N321	N32	0.370300	0.861800	0.872500
N331	N33	0.298100	0.759900	0.872700
N341	N34	0.565800	0.806200	0.161000
N351	N35	0.552800	0.712100	0.205400
N361	N36	0.627700	0.789100	0.271100
C861	C86	0.438600	0.892300	0.051700
C871	C87	0.488900	0.923000	0.090100
C881	C88	0.498300	0.032800	0.134600
H781	H78	0.531800	0.054900	0.159200
C891	C89	0.459500	0.111400	0.143900
H791	H79	0.466900	0.185100	0.174300
C901	C90	0.409900	0.079600	0.107800
H801	H80	0.383400	0.130900	0.114100
C911	C91	0.399800	0.970100	0.061700
H811	H81	0.366200	0.948600	0.037100
C921	C92	0.426400	0.777800	0.998300
H821	H82	0.427100	0.705300	0.033700
H831	H83	0.452500	0.766500	0.968400
C931	C93	0.533000	0.842800	0.079800
H841	H84	0.553000	0.888900	0.048800
H851	H85	0.519900	0.768100	0.048500
C941	C94	0.321900	0.841900	0.835900
H861	H86	0.305600	0.882900	0.787300
C951	C95	0.334200	0.726500	0.937200
H871	H87	0.329700	0.669200	0.976900
C961	C96	0.591400	0.704800	0.272000
H881	H88	0.593000	0.647400	0.314600
C971	C97	0.610200	0.850000	0.200300
H891	H89	0.627200	0.914900	0.181200
C981	C98	0.258500	0.865800	0.541000
C991	C99	0.233600	0.769500	0.572500
C1001	C100	0.226400	0.657200	0.531400
H901	H90	0.210500	0.592900	0.553200
C1011	C101	0.270900	0.987400	0.584900
C1021	C102	0.213300	0.788600	0.648100
Cd71	Cd7	0.287080	0.209950	0.667130
O311	O31	0.229500	0.586400	0.957500
O321	O32	0.218300	0.490800	0.838100
O331	O33	0.270700	0.210000	0.794300
O341	O34	0.318600	0.371700	0.851800
O351	O35	0.302500	0.386600	0.600700
H911	H91	0.305000	0.443000	0.641400
H921	H92	0.270600	0.397000	0.570000
N371	N37	0.122700	0.283200	0.560700
N381	N38	0.129700	0.361800	0.627500
N391	N39	0.201900	0.259900	0.627300
N401	N40	0.934200	0.306200	0.339000
N411	N41	0.947200	0.212100	0.294600
N421	N42	0.872300	0.289100	0.228900
C1031	C103	0.061400	0.392300	0.448300
C1041	C104	0.011100	0.423000	0.409900
C1051	C105	0.001700	0.532800	0.365400
H931	H93	0.968200	0.554900	0.340800
C1061	C106	0.040500	0.611400	0.356100
H941	H94	0.033100	0.685100	0.325700
C1071	C107	0.090100	0.579600	0.392200
H951	H95	0.116600	0.630900	0.385900
C1081	C108	0.100200	0.470100	0.438300
H961	H96	0.133800	0.448600	0.462900
C1091	C109	0.073600	0.277800	0.501700
H971	H97	0.072900	0.205300	0.466300
H981	H98	0.047500	0.266500	0.531600
C1101	C110	0.967000	0.342800	0.420200
H991	H99	0.947000	0.388900	0.451200
H1001	H100	0.980100	0.268100	0.451500
C1111	C111	0.178100	0.341900	0.664100
H1011	H101	0.194400	0.382900	0.712700
C1121	C112	0.165800	0.226500	0.562800
H1021	H102	0.170300	0.169200	0.523100
C1131	C113	0.908600	0.204800	0.228000
H1031	H103	0.907000	0.147400	0.185400
C1141	C114	0.889800	0.350000	0.299700
H1041	H104	0.872800	0.414900	0.318800
C1151	C115	0.241500	0.365800	0.959000
C1161	C116	0.266400	0.269500	0.927500
C1171	C117	0.273600	0.157200	0.968600
H1051	H105	0.289500	0.092900	0.946800
C1181	C118	0.229100	0.487400	0.915100
C1191	C119	0.286700	0.288600	0.851900
Cd81	Cd8	0.787080	0.709950	0.667130
O361	O36	0.729500	0.086400	0.957500
O371	O37	0.718300	0.990800	0.838100
O381	O38	0.770700	0.710000	0.794300
O391	O39	0.818600	0.871700	0.851800
O401	O40	0.802500	0.886600	0.600700
H1061	H106	0.805000	0.943000	0.641400
H1071	H107	0.770600	0.897000	0.570000
N431	N43	0.622700	0.783200	0.560700
N441	N44	0.629700	0.861800	0.627500
N451	N45	0.701900	0.759900	0.627300
N461	N46	0.434200	0.806200	0.339000
N471	N47	0.447200	0.712100	0.294600
N481	N48	0.372300	0.789100	0.228900
C1201	C120	0.561400	0.892300	0.448300
C1211	C121	0.511100	0.923000	0.409900
C1221	C122	0.501700	0.032800	0.365400
H1081	H108	0.468200	0.054900	0.340800
C1231	C123	0.540500	0.111400	0.356100
H1091	H109	0.533100	0.185100	0.325700
C1241	C124	0.590100	0.079600	0.392200
H1101	H110	0.616600	0.130900	0.385900
C1251	C125	0.600200	0.970100	0.438300
H1111	H111	0.633800	0.948600	0.462900
C1261	C126	0.573600	0.777800	0.501700
H1121	H112	0.572900	0.705300	0.466300
H1131	H113	0.547500	0.766500	0.531600
C1271	C127	0.467000	0.842800	0.420200
H1141	H114	0.447000	0.888900	0.451200
H1151	H115	0.480100	0.768100	0.451500
C1281	C128	0.678100	0.841900	0.664100
H1161	H116	0.694400	0.882900	0.712700
C1291	C129	0.665800	0.726500	0.562800
H1171	H117	0.670300	0.669200	0.523100
C1301	C130	0.408600	0.704800	0.228000
H1181	H118	0.407000	0.647400	0.185400
C1311	C131	0.389800	0.850000	0.299700
H1191	H119	0.372800	0.914900	0.318800
C1321	C132	0.741500	0.865800	0.959000
C1331	C133	0.766400	0.769500	0.927500
C1341	C134	0.773600	0.657200	0.968600
H1201	H120	0.789500	0.592900	0.946800
C1351	C135	0.729100	0.987400	0.915100
C1361	C136	0.786700	0.788600	0.851900
