data_IQEWOQ_freeONLY_PM
_symmetry_space_group_name_H-M	'P1'
_cell_length_a	10.248000
_cell_length_b	11.715000
_cell_length_c	15.159000
_cell_angle_alpha	91.810000
_cell_angle_beta	90.000000
_cell_angle_gamma	90.000000
_symmetry_Int_Tables_number 1

loop_
_symmetry_equiv_pos_as_xyz
'x,y,z'

loop_
_atom_site_label
_atom_site_type_symbol
_atom_site_fract_x
_atom_site_fract_y
_atom_site_fract_z
Mn11	Mn1	0.923060	0.243090	0.867860
Mn21	Mn2	0.112060	0.261550	0.690350
Mn31	Mn3	0.423060	0.256910	0.632140
Mn41	Mn4	0.612060	0.238450	0.809650
Mn51	Mn5	0.076940	0.756910	0.132140
Mn61	Mn6	0.887940	0.738450	0.309650
Mn71	Mn7	0.576940	0.743090	0.367860
Mn81	Mn8	0.387940	0.761550	0.190350
Mn91	Mn9	0.000000	0.500000	0.000000
Mn101	Mn10	0.500000	0.000000	0.500000
Mn111	Mn11	0.000000	0.000000	0.000000
Mn121	Mn12	0.500000	0.500000	0.500000
H11	H1	0.042900	0.519300	0.742600
H21	H2	0.710900	0.000200	0.973800
H31	H3	0.207200	0.032200	0.782000
H41	H4	0.764600	0.148300	0.632400
H51	H5	0.138100	0.302300	0.078600
H61	H6	0.625300	0.446900	0.945800
H71	H7	0.542900	0.980700	0.757400
H81	H8	0.210900	0.499800	0.526200
H91	H9	0.707200	0.467800	0.718000
H101	H10	0.264600	0.351700	0.867600
H111	H11	0.638100	0.197700	0.421400
H121	H12	0.125300	0.053100	0.554200
H131	H13	0.957100	0.480700	0.257400
H141	H14	0.289100	0.999800	0.026200
H151	H15	0.792800	0.967800	0.218000
H161	H16	0.235400	0.851700	0.367600
H171	H17	0.861900	0.697700	0.921400
H181	H18	0.374700	0.553100	0.054200
H191	H19	0.457100	0.019300	0.242600
H201	H20	0.789100	0.500200	0.473800
H211	H21	0.292800	0.532200	0.282000
H221	H22	0.735400	0.648300	0.132400
H231	H23	0.361900	0.802300	0.578600
H241	H24	0.874700	0.946900	0.445800
C11	C1	0.024200	0.479600	0.794100
C21	C2	0.727600	0.062500	0.937800
C31	C3	0.141000	0.056200	0.821300
C41	C4	0.831900	0.176500	0.669100
C51	C5	0.090900	0.258200	0.036700
C61	C6	0.714200	0.427600	0.941700
C71	C7	0.524200	0.020400	0.705900
C81	C8	0.227600	0.437500	0.562200
C91	C9	0.641000	0.443800	0.678700
C101	C10	0.331900	0.323500	0.830900
C111	C11	0.590900	0.241800	0.463300
C121	C12	0.214200	0.072400	0.558300
C131	C13	0.975800	0.520400	0.205900
C141	C14	0.272400	0.937500	0.062200
C151	C15	0.859000	0.943800	0.178700
C161	C16	0.168100	0.823500	0.330900
C171	C17	0.909100	0.741800	0.963300
C181	C18	0.285800	0.572400	0.058300
C191	C19	0.475800	0.979600	0.294100
C201	C20	0.772400	0.562500	0.437800
C211	C21	0.359000	0.556200	0.321300
C221	C22	0.668100	0.676500	0.169100
C231	C23	0.409100	0.758200	0.536700
C241	C24	0.785800	0.927600	0.441700
O11	O1	0.084500	0.149600	0.804960
O21	O2	0.011800	0.372400	0.785290
O31	O3	0.804500	0.193900	0.750470
O41	O4	0.025400	0.312500	0.980590
O51	O5	0.744600	0.344000	0.889750
O61	O6	0.938600	0.193300	0.634310
O71	O7	0.844600	0.098000	0.935120
O81	O8	0.791200	0.485200	0.987000
O91	O9	0.633800	0.101800	0.897870
O101	O10	0.098900	0.154600	0.041900
O111	O11	0.014400	0.536500	0.862130
O121	O12	0.118200	0.994000	0.882800
O131	O13	0.584500	0.350400	0.695040
O141	O14	0.511800	0.127600	0.714710
O151	O15	0.304500	0.306100	0.749530
O161	O16	0.525400	0.187500	0.519410
O171	O17	0.244600	0.156000	0.610250
O181	O18	0.438600	0.306700	0.865690
O191	O19	0.344600	0.402000	0.564880
O201	O20	0.291200	0.014800	0.513000
O211	O21	0.133800	0.398200	0.602130
O221	O22	0.598900	0.345400	0.458100
O231	O23	0.514400	0.963500	0.637870
O241	O24	0.618200	0.506000	0.617200
O251	O25	0.915500	0.850400	0.195040
O261	O26	0.988200	0.627600	0.214710
O271	O27	0.195500	0.806100	0.249530
O281	O28	0.974600	0.687500	0.019410
O291	O29	0.255400	0.656000	0.110250
O301	O30	0.061400	0.806700	0.365690
O311	O31	0.155400	0.902000	0.064880
O321	O32	0.208800	0.514800	0.013000
O331	O33	0.366200	0.898200	0.102130
O341	O34	0.901100	0.845400	0.958100
O351	O35	0.985600	0.463500	0.137870
O361	O36	0.881800	0.006000	0.117200
O371	O37	0.415500	0.649600	0.304960
O381	O38	0.488200	0.872400	0.285290
O391	O39	0.695500	0.693900	0.250470
O401	O40	0.474600	0.812500	0.480590
O411	O41	0.755400	0.844000	0.389750
O421	O42	0.561400	0.693300	0.134310
O431	O43	0.655400	0.598000	0.435120
O441	O44	0.708800	0.985200	0.487000
O451	O45	0.866200	0.601800	0.397870
O461	O46	0.401100	0.654600	0.541900
O471	O47	0.485600	0.036500	0.362130
O481	O48	0.381800	0.494000	0.382800
