data_IQIJIC_freeONLY_PM
_symmetry_space_group_name_H-M	'P1'
_cell_length_a	13.644000
_cell_length_b	13.644000
_cell_length_c	26.609000
_cell_angle_alpha	99.288600
_cell_angle_beta	99.288600
_cell_angle_gamma	104.464000
_symmetry_Int_Tables_number 1

loop_
_symmetry_equiv_pos_as_xyz
'x,y,z'

loop_
_atom_site_label
_atom_site_type_symbol
_atom_site_fract_x
_atom_site_fract_y
_atom_site_fract_z
Co11	Co1	0.422320	0.460840	0.556950
Co21	Co2	0.539160	0.577680	0.943050
Co31	Co3	0.577680	0.539160	0.443050
Co41	Co4	0.460840	0.422320	0.056950
Co51	Co5	0.500000	0.000000	0.000000
Co61	Co6	0.000000	0.500000	0.500000
H11	H1	0.188800	0.283600	0.437300
H21	H2	0.060000	0.174200	0.369800
H31	H3	0.196800	0.308200	0.267800
H41	H4	0.321600	0.421000	0.335700
H51	H5	0.946500	0.083900	0.307900
H61	H6	0.322100	0.601300	0.497000
H71	H7	0.332100	0.770700	0.500000
H81	H8	0.510700	0.986300	0.593800
H91	H9	0.550700	0.844300	0.630100
H101	H10	0.530100	0.672100	0.624500
H111	H11	0.552300	0.322500	0.598000
H121	H12	0.548000	0.151400	0.591500
H131	H13	0.345000	0.936200	0.514600
H141	H14	0.271500	0.075100	0.499100
H151	H15	0.284200	0.247400	0.507100
H161	H16	0.113900	0.351500	0.610800
H171	H17	0.013500	0.307700	0.668400
H181	H18	0.247200	0.472400	0.785400
H191	H19	0.349600	0.503600	0.727900
H201	H20	0.746400	0.273600	0.847000
H211	H21	0.659600	0.200600	0.906800
H221	H22	0.891900	0.086500	0.952400
H231	H23	0.978600	0.155200	0.893100
H241	H24	0.347800	0.796800	0.930500
H251	H25	0.475600	0.053600	0.890800
H261	H26	0.398400	0.985200	0.805600
H271	H27	0.276400	0.720000	0.845000
H281	H28	0.314700	0.827900	0.735300
H291	H29	0.052800	0.238800	0.836300
H301	H30	0.964100	0.141100	0.804100
H311	H31	0.049800	0.205600	0.745800
H321	H32	0.944100	0.233300	0.736700
H331	H33	0.716400	0.811200	0.062700
H341	H34	0.825800	0.940000	0.130200
H351	H35	0.691800	0.803200	0.232200
H361	H36	0.579000	0.678400	0.164300
H371	H37	0.916100	0.053500	0.192100
H381	H38	0.398700	0.677900	0.003000
H391	H39	0.229300	0.667900	0.000000
H401	H40	0.013700	0.489300	0.906200
H411	H41	0.155700	0.449300	0.869900
H421	H42	0.327900	0.469900	0.875500
H431	H43	0.677500	0.447700	0.902000
H441	H44	0.848600	0.452000	0.908500
H451	H45	0.063800	0.655000	0.985400
H461	H46	0.924900	0.728500	0.000900
H471	H47	0.752600	0.715800	0.992900
H481	H48	0.648500	0.886100	0.889200
H491	H49	0.692300	0.986500	0.831600
H501	H50	0.527600	0.752800	0.714600
H511	H51	0.496400	0.650400	0.772100
H521	H52	0.726400	0.253600	0.653000
H531	H53	0.799400	0.340400	0.593200
H541	H54	0.913500	0.108100	0.547600
H551	H55	0.844800	0.021400	0.606900
H561	H56	0.203200	0.652200	0.569500
H571	H57	0.946400	0.524400	0.609200
H581	H58	0.014800	0.601600	0.694400
H591	H59	0.280000	0.723600	0.655000
H601	H60	0.172100	0.685300	0.764700
H611	H61	0.761200	0.947200	0.663700
H621	H62	0.858900	0.035900	0.695900
H631	H63	0.794400	0.950200	0.754200
H641	H64	0.766700	0.055900	0.763300
H651	H65	0.811200	0.716400	0.562700
H661	H66	0.940000	0.825800	0.630200
H671	H67	0.803200	0.691800	0.732200
H681	H68	0.678400	0.579000	0.664300
H691	H69	0.053500	0.916100	0.692100
H701	H70	0.677900	0.398700	0.503000
H711	H71	0.667900	0.229300	0.500000
H721	H72	0.489300	0.013700	0.406200
H731	H73	0.449300	0.155700	0.369900
H741	H74	0.469900	0.327900	0.375500
H751	H75	0.447700	0.677500	0.402000
H761	H76	0.452000	0.848600	0.408500
H771	H77	0.655000	0.063800	0.485400
H781	H78	0.728500	0.924900	0.500900
H791	H79	0.715800	0.752600	0.492900
H801	H80	0.886100	0.648500	0.389200
H811	H81	0.986500	0.692300	0.331600
H821	H82	0.752800	0.527600	0.214600
H831	H83	0.650400	0.496400	0.272100
H841	H84	0.253600	0.726400	0.153000
H851	H85	0.340400	0.799400	0.093200
H861	H86	0.108100	0.913500	0.047600
H871	H87	0.021400	0.844800	0.106900
H881	H88	0.652200	0.203200	0.069500
H891	H89	0.524400	0.946400	0.109200
H901	H90	0.601600	0.014800	0.194400
H911	H91	0.723600	0.280000	0.155000
H921	H92	0.685300	0.172100	0.264700
H931	H93	0.947200	0.761200	0.163700
H941	H94	0.035900	0.858900	0.195900
H951	H95	0.950200	0.794400	0.254200
H961	H96	0.055900	0.766700	0.263300
H971	H97	0.283600	0.188800	0.937300
H981	H98	0.174200	0.060000	0.869800
H991	H99	0.308200	0.196800	0.767800
H1001	H100	0.421000	0.321600	0.835700
H1011	H101	0.083900	0.946500	0.807900
H1021	H102	0.601300	0.322100	0.997000
H1031	H103	0.770700	0.332100	0.000000
H1041	H104	0.986300	0.510700	0.093800
H1051	H105	0.844300	0.550700	0.130100
H1061	H106	0.672100	0.530100	0.124500
H1071	H107	0.322500	0.552300	0.098000
H1081	H108	0.151400	0.548000	0.091500
H1091	H109	0.936200	0.345000	0.014600
H1101	H110	0.075100	0.271500	0.999100
H1111	H111	0.247400	0.284200	0.007100
H1121	H112	0.351500	0.113900	0.110800
H1131	H113	0.307700	0.013500	0.168400
H1141	H114	0.472400	0.247200	0.285400
H1151	H115	0.503600	0.349600	0.227900
H1161	H116	0.273600	0.746400	0.347000
H1171	H117	0.200600	0.659600	0.406800
H1181	H118	0.086500	0.891900	0.452400
H1191	H119	0.155200	0.978600	0.393100
H1201	H120	0.796800	0.347800	0.430500
H1211	H121	0.053600	0.475600	0.390800
H1221	H122	0.985200	0.398400	0.305600
H1231	H123	0.720000	0.276400	0.345000
H1241	H124	0.827900	0.314700	0.235300
H1251	H125	0.238800	0.052800	0.336300
H1261	H126	0.141100	0.964100	0.304100
H1271	H127	0.205600	0.049800	0.245800
H1281	H128	0.233300	0.944100	0.236700
C11	C1	0.338600	0.228400	0.525400
C21	C2	0.330500	0.123900	0.520000
C31	C3	0.493700	0.272100	0.577800
C41	C4	0.491300	0.168300	0.573900
C51	C5	0.407700	0.091500	0.545100
C61	C6	0.355000	0.431800	0.436100
C71	C7	0.267900	0.363300	0.392800
C81	C8	0.190300	0.289500	0.403100
C91	C9	0.113800	0.223200	0.362600
C101	C10	0.117200	0.229600	0.313000
C111	C11	0.194500	0.303300	0.302100
C121	C12	0.269200	0.370200	0.342800
C131	C13	0.963600	0.095200	0.276500
C141	C14	0.368700	0.650900	0.524200
C151	C15	0.374800	0.752800	0.525700
C161	C16	0.443700	0.829700	0.565000
C171	C17	0.455800	0.941000	0.568600
C181	C18	0.503200	0.796600	0.602600
C191	C19	0.490800	0.692800	0.598520
C201	C20	0.398300	0.981700	0.540600
C211	C21	0.313500	0.449500	0.625700
C221	C22	0.245600	0.431200	0.662670
C231	C23	0.142200	0.373400	0.646400
C241	C24	0.081800	0.348000	0.680400
C251	C25	0.121400	0.382000	0.732900
C261	C26	0.221200	0.444400	0.750100
C271	C27	0.280800	0.464800	0.715500
C281	C28	0.870800	0.217600	0.864600
C291	C29	0.774800	0.234800	0.867800
C301	C30	0.723700	0.191100	0.903800
C311	C31	0.766500	0.134100	0.934900
C321	C32	0.861700	0.122900	0.930800
C331	C33	0.914100	0.164100	0.895500
C341	C34	0.707600	0.080000	0.970600
C351	C35	0.359600	0.835200	0.905100
C361	C36	0.433100	0.985700	0.881780
C371	C37	0.388400	0.944400	0.830200
C381	C38	0.328500	0.842900	0.814700
C391	C39	0.315600	0.789000	0.853600
C401	C40	0.282800	0.796600	0.759300
C411	C41	0.989000	0.216000	0.810000
C421	C42	0.009300	0.246700	0.761200
C431	C43	0.771600	0.661400	0.974600
C441	C44	0.876100	0.669500	0.980000
C451	C45	0.727900	0.506300	0.922200
C461	C46	0.831700	0.508700	0.926100
C471	C47	0.908500	0.592300	0.954900
C481	C48	0.568200	0.645000	0.063900
C491	C49	0.636700	0.732100	0.107200
C501	C50	0.710500	0.809700	0.096900
C511	C51	0.776800	0.886200	0.137400
C521	C52	0.770400	0.882800	0.187000
C531	C53	0.696700	0.805500	0.197900
C541	C54	0.629800	0.730800	0.157200
C551	C55	0.904800	0.036400	0.223500
C561	C56	0.349100	0.631300	0.975800
C571	C57	0.247200	0.625200	0.974300
C581	C58	0.170300	0.556300	0.935000
C591	C59	0.059000	0.544200	0.931400
C601	C60	0.203400	0.496800	0.897400
C611	C61	0.307200	0.509200	0.901480
C621	C62	0.018300	0.601700	0.959400
C631	C63	0.550500	0.686500	0.874300
C641	C64	0.568800	0.754400	0.837330
C651	C65	0.626600	0.857800	0.853600
C661	C66	0.652000	0.918200	0.819600
C671	C67	0.618000	0.878600	0.767100
C681	C68	0.555600	0.778800	0.749900
C691	C69	0.535200	0.719200	0.784500
C701	C70	0.782400	0.129200	0.635400
C711	C71	0.765200	0.225200	0.632200
C721	C72	0.808900	0.276300	0.596200
C731	C73	0.865900	0.233500	0.565100
C741	C74	0.877100	0.138300	0.569200
C751	C75	0.835900	0.085900	0.604500
C761	C76	0.920000	0.292400	0.529400
C771	C77	0.164800	0.640400	0.594900
C781	C78	0.014300	0.566900	0.618220
C791	C79	0.055600	0.611600	0.669800
C801	C80	0.157100	0.671500	0.685300
C811	C81	0.211000	0.684400	0.646400
C821	C82	0.203400	0.717200	0.740700
C831	C83	0.784000	0.011000	0.690000
C841	C84	0.753300	0.990700	0.738800
C851	C85	0.661400	0.771600	0.474600
C861	C86	0.669500	0.876100	0.480000
C871	C87	0.506300	0.727900	0.422200
C881	C88	0.508700	0.831700	0.426100
C891	C89	0.592300	0.908500	0.454900
C901	C90	0.645000	0.568200	0.563900
C911	C91	0.732100	0.636700	0.607200
C921	C92	0.809700	0.710500	0.596900
C931	C93	0.886200	0.776800	0.637400
C941	C94	0.882800	0.770400	0.687000
C951	C95	0.805500	0.696700	0.697900
C961	C96	0.730800	0.629800	0.657200
C971	C97	0.036400	0.904800	0.723500
C981	C98	0.631300	0.349100	0.475800
C991	C99	0.625200	0.247200	0.474300
C1001	C100	0.556300	0.170300	0.435000
C1011	C101	0.544200	0.059000	0.431400
C1021	C102	0.496800	0.203400	0.397400
C1031	C103	0.509200	0.307200	0.401480
C1041	C104	0.601700	0.018300	0.459400
C1051	C105	0.686500	0.550500	0.374300
C1061	C106	0.754400	0.568800	0.337330
C1071	C107	0.857800	0.626600	0.353600
C1081	C108	0.918200	0.652000	0.319600
C1091	C109	0.878600	0.618000	0.267100
C1101	C110	0.778800	0.555600	0.249900
C1111	C111	0.719200	0.535200	0.284500
C1121	C112	0.129200	0.782400	0.135400
C1131	C113	0.225200	0.765200	0.132200
C1141	C114	0.276300	0.808900	0.096200
C1151	C115	0.233500	0.865900	0.065100
C1161	C116	0.138300	0.877100	0.069200
C1171	C117	0.085900	0.835900	0.104500
C1181	C118	0.292400	0.920000	0.029400
C1191	C119	0.640400	0.164800	0.094900
C1201	C120	0.566900	0.014300	0.118220
C1211	C121	0.611600	0.055600	0.169800
C1221	C122	0.671500	0.157100	0.185300
C1231	C123	0.684400	0.211000	0.146400
C1241	C124	0.717200	0.203400	0.240700
C1251	C125	0.011000	0.784000	0.190000
C1261	C126	0.990700	0.753300	0.238800
C1271	C127	0.228400	0.338600	0.025400
C1281	C128	0.123900	0.330500	0.020000
C1291	C129	0.272100	0.493700	0.077800
C1301	C130	0.168300	0.491300	0.073900
C1311	C131	0.091500	0.407700	0.045100
C1321	C132	0.431800	0.355000	0.936100
C1331	C133	0.363300	0.267900	0.892800
C1341	C134	0.289500	0.190300	0.903100
C1351	C135	0.223200	0.113800	0.862600
C1361	C136	0.229600	0.117200	0.813000
C1371	C137	0.303300	0.194500	0.802100
C1381	C138	0.370200	0.269200	0.842800
C1391	C139	0.095200	0.963600	0.776500
C1401	C140	0.650900	0.368700	0.024200
C1411	C141	0.752800	0.374800	0.025700
C1421	C142	0.829700	0.443700	0.065000
C1431	C143	0.941000	0.455800	0.068600
C1441	C144	0.796600	0.503200	0.102600
C1451	C145	0.692800	0.490800	0.098520
C1461	C146	0.981700	0.398300	0.040600
C1471	C147	0.449500	0.313500	0.125700
C1481	C148	0.431200	0.245600	0.162670
C1491	C149	0.373400	0.142200	0.146400
C1501	C150	0.348000	0.081800	0.180400
C1511	C151	0.382000	0.121400	0.232900
C1521	C152	0.444400	0.221200	0.250100
C1531	C153	0.464800	0.280800	0.215500
C1541	C154	0.217600	0.870800	0.364600
C1551	C155	0.234800	0.774800	0.367800
C1561	C156	0.191100	0.723700	0.403800
C1571	C157	0.134100	0.766500	0.434900
C1581	C158	0.122900	0.861700	0.430800
C1591	C159	0.164100	0.914100	0.395500
C1601	C160	0.080000	0.707600	0.470600
C1611	C161	0.835200	0.359600	0.405100
C1621	C162	0.985700	0.433100	0.381780
C1631	C163	0.944400	0.388400	0.330200
C1641	C164	0.842900	0.328500	0.314700
C1651	C165	0.789000	0.315600	0.353600
C1661	C166	0.796600	0.282800	0.259300
C1671	C167	0.216000	0.989000	0.310000
C1681	C168	0.246700	0.009300	0.261200
N11	N1	0.418250	0.302750	0.554460
N21	N2	0.426790	0.619810	0.560040
N31	N3	0.419340	0.934060	0.919620
N41	N4	0.697250	0.581750	0.945540
N51	N5	0.380190	0.573210	0.939960
N61	N6	0.065940	0.580660	0.580380
N71	N7	0.581750	0.697250	0.445540
N81	N8	0.573210	0.380190	0.439960
N91	N9	0.580660	0.065940	0.080380
N101	N10	0.302750	0.418250	0.054460
N111	N11	0.619810	0.426790	0.060040
N121	N12	0.934060	0.419340	0.419620
O11	O1	0.353120	0.415040	0.480740
O21	O2	0.423270	0.499650	0.424560
O31	O3	0.045400	0.167200	0.270640
O41	O4	0.274060	0.430880	0.577580
O51	O5	0.409370	0.482030	0.641490
O61	O6	0.917700	0.258300	0.827200
O71	O7	0.066500	0.358700	0.770930
O81	O8	0.747300	0.025100	0.994590
O91	O9	0.619230	0.093570	0.972230
O101	O10	0.422580	0.113260	0.998720
O111	O11	0.584960	0.646880	0.019260
O121	O12	0.500350	0.576730	0.075440
O131	O13	0.832800	0.954600	0.229360
O141	O14	0.569120	0.725940	0.922420
O151	O15	0.517970	0.590630	0.858510
O161	O16	0.741700	0.082300	0.672800
O171	O17	0.641300	0.933500	0.729070
O181	O18	0.974900	0.252700	0.505410
O191	O19	0.906430	0.380770	0.527770
O201	O20	0.886740	0.577420	0.501280
O211	O21	0.646880	0.584960	0.519260
O221	O22	0.576730	0.500350	0.575440
O231	O23	0.954600	0.832800	0.729360
O241	O24	0.725940	0.569120	0.422420
O251	O25	0.590630	0.517970	0.358510
O261	O26	0.082300	0.741700	0.172800
O271	O27	0.933500	0.641300	0.229070
O281	O28	0.252700	0.974900	0.005410
O291	O29	0.380770	0.906430	0.027770
O301	O30	0.577420	0.886740	0.001280
O311	O31	0.415040	0.353120	0.980740
O321	O32	0.499650	0.423270	0.924560
O331	O33	0.167200	0.045400	0.770640
O341	O34	0.430880	0.274060	0.077580
O351	O35	0.482030	0.409370	0.141490
O361	O36	0.258300	0.917700	0.327200
O371	O37	0.358700	0.066500	0.270930
O381	O38	0.025100	0.747300	0.494590
O391	O39	0.093570	0.619230	0.472230
O401	O40	0.113260	0.422580	0.498720
