data_IRAHUF_freeONLY_PM
_symmetry_space_group_name_H-M	'P1'
_cell_length_a	15.850000
_cell_length_b	10.135700
_cell_length_c	18.506000
_cell_angle_alpha	90.000000
_cell_angle_beta	90.000000
_cell_angle_gamma	90.000000
_symmetry_Int_Tables_number 1

loop_
_symmetry_equiv_pos_as_xyz
'x,y,z'

loop_
_atom_site_label
_atom_site_type_symbol
_atom_site_fract_x
_atom_site_fract_y
_atom_site_fract_z
Ga11	Ga1	0.149810	0.834350	0.174550
Ga21	Ga2	0.958750	0.684950	0.218000
Ga31	Ga3	0.991450	0.653190	0.405530
P11	P1	0.314480	0.649910	0.167510
P21	P2	0.984710	0.863390	0.078010
P31	P3	0.062670	0.878750	0.314580
O11	O1	0.235150	0.726700	0.145870
O21	O2	0.077250	0.877400	0.099980
O31	O3	0.145940	0.846500	0.275370
O41	O4	0.292600	0.502500	0.166840
F11	F1	0.076360	0.673000	0.186390
F21	F2	0.997060	0.591800	0.303340
O51	O5	0.987300	0.848200	0.266660
O61	O6	0.063500	0.024700	0.336310
O71	O7	0.345000	0.693200	0.242270
O81	O8	0.930410	0.786500	0.132130
O91	O9	0.378450	0.683900	0.107700
O101	O10	0.947620	0.003300	0.071100
O111	O11	0.060880	0.797300	0.385320
O121	O12	0.978800	0.793600	0.005180
Ga41	Ga4	0.350190	0.165650	0.674550
Ga51	Ga5	0.541250	0.315050	0.718000
Ga61	Ga6	0.508550	0.346810	0.905530
P41	P4	0.185520	0.350090	0.667510
P51	P5	0.515290	0.136610	0.578010
P61	P6	0.437330	0.121250	0.814580
O131	O13	0.264850	0.273300	0.645870
O141	O14	0.422750	0.122600	0.599980
O151	O15	0.354060	0.153500	0.775370
O161	O16	0.207400	0.497500	0.666840
F31	F3	0.423640	0.327000	0.686390
F41	F4	0.502940	0.408200	0.803340
O171	O17	0.512700	0.151800	0.766660
O181	O18	0.436500	0.975300	0.836310
O191	O19	0.155000	0.306800	0.742270
O201	O20	0.569590	0.213500	0.632130
O211	O21	0.121550	0.316100	0.607700
O221	O22	0.552380	0.996700	0.571100
O231	O23	0.439120	0.202700	0.885320
O241	O24	0.521200	0.206400	0.505180
Ga71	Ga7	0.850190	0.334350	0.325450
Ga81	Ga8	0.041250	0.184950	0.282000
Ga91	Ga9	0.008550	0.153190	0.094470
P71	P7	0.685520	0.149910	0.332490
P81	P8	0.015290	0.363390	0.421990
P91	P9	0.937330	0.378750	0.185420
O251	O25	0.764850	0.226700	0.354130
O261	O26	0.922750	0.377400	0.400020
O271	O27	0.854060	0.346500	0.224630
O281	O28	0.707400	0.002500	0.333160
F51	F5	0.923640	0.173000	0.313610
F61	F6	0.002940	0.091800	0.196660
O291	O29	0.012700	0.348200	0.233340
O301	O30	0.936500	0.524700	0.163690
O311	O31	0.655000	0.193200	0.257730
O321	O32	0.069590	0.286500	0.367870
O331	O33	0.621550	0.183900	0.392300
O341	O34	0.052380	0.503300	0.428900
O351	O35	0.939120	0.297300	0.114680
O361	O36	0.021200	0.293600	0.494820
Ga101	Ga10	0.649810	0.665650	0.825450
Ga111	Ga11	0.458750	0.815050	0.782000
Ga121	Ga12	0.491450	0.846810	0.594470
P101	P10	0.814480	0.850090	0.832490
P111	P11	0.484710	0.636610	0.921990
P121	P12	0.562670	0.621250	0.685420
O371	O37	0.735150	0.773300	0.854130
O381	O38	0.577250	0.622600	0.900020
O391	O39	0.645940	0.653500	0.724630
O401	O40	0.792600	0.997500	0.833160
F71	F7	0.576360	0.827000	0.813610
F81	F8	0.497060	0.908200	0.696660
O411	O41	0.487300	0.651800	0.733340
O421	O42	0.563500	0.475300	0.663690
O431	O43	0.845000	0.806800	0.757730
O441	O44	0.430410	0.713500	0.867870
O451	O45	0.878450	0.816100	0.892300
O461	O46	0.447620	0.496700	0.928900
O471	O47	0.560880	0.702700	0.614680
O481	O48	0.478800	0.706400	0.994820
Ga131	Ga13	0.850190	0.165650	0.825450
Ga141	Ga14	0.041250	0.315050	0.782000
Ga151	Ga15	0.008550	0.346810	0.594470
P131	P13	0.685520	0.350090	0.832490
P141	P14	0.015290	0.136610	0.921990
P151	P15	0.937330	0.121250	0.685420
O491	O49	0.764850	0.273300	0.854130
O501	O50	0.922750	0.122600	0.900020
O511	O51	0.854060	0.153500	0.724630
O521	O52	0.707400	0.497500	0.833160
F91	F9	0.923640	0.327000	0.813610
F101	F10	0.002940	0.408200	0.696660
O531	O53	0.012700	0.151800	0.733340
O541	O54	0.936500	0.975300	0.663690
O551	O55	0.655000	0.306800	0.757730
O561	O56	0.069590	0.213500	0.867870
O571	O57	0.621550	0.316100	0.892300
O581	O58	0.052380	0.996700	0.928900
O591	O59	0.939120	0.202700	0.614680
O601	O60	0.021200	0.206400	0.994820
Ga161	Ga16	0.649810	0.834350	0.325450
Ga171	Ga17	0.458750	0.684950	0.282000
Ga181	Ga18	0.491450	0.653190	0.094470
P161	P16	0.814480	0.649910	0.332490
P171	P17	0.484710	0.863390	0.421990
P181	P18	0.562670	0.878750	0.185420
O611	O61	0.735150	0.726700	0.354130
O621	O62	0.577250	0.877400	0.400020
O631	O63	0.645940	0.846500	0.224630
O641	O64	0.792600	0.502500	0.333160
F111	F11	0.576360	0.673000	0.313610
F121	F12	0.497060	0.591800	0.196660
O651	O65	0.487300	0.848200	0.233340
O661	O66	0.563500	0.024700	0.163690
O671	O67	0.845000	0.693200	0.257730
O681	O68	0.430410	0.786500	0.367870
O691	O69	0.878450	0.683900	0.392300
O701	O70	0.447620	0.003300	0.428900
O711	O71	0.560880	0.797300	0.114680
O721	O72	0.478800	0.793600	0.494820
Ga191	Ga19	0.149810	0.665650	0.674550
Ga201	Ga20	0.958750	0.815050	0.718000
Ga211	Ga21	0.991450	0.846810	0.905530
P191	P19	0.314480	0.850090	0.667510
P201	P20	0.984710	0.636610	0.578010
P211	P21	0.062670	0.621250	0.814580
O731	O73	0.235150	0.773300	0.645870
O741	O74	0.077250	0.622600	0.599980
O751	O75	0.145940	0.653500	0.775370
O761	O76	0.292600	0.997500	0.666840
F131	F13	0.076360	0.827000	0.686390
F141	F14	0.997060	0.908200	0.803340
O771	O77	0.987300	0.651800	0.766660
O781	O78	0.063500	0.475300	0.836310
O791	O79	0.345000	0.806800	0.742270
O801	O80	0.930410	0.713500	0.632130
O811	O81	0.378450	0.816100	0.607700
O821	O82	0.947620	0.496700	0.571100
O831	O83	0.060880	0.702700	0.885320
O841	O84	0.978800	0.706400	0.505180
Ga221	Ga22	0.350190	0.334350	0.174550
Ga231	Ga23	0.541250	0.184950	0.218000
Ga241	Ga24	0.508550	0.153190	0.405530
P221	P22	0.185520	0.149910	0.167510
P231	P23	0.515290	0.363390	0.078010
P241	P24	0.437330	0.378750	0.314580
O851	O85	0.264850	0.226700	0.145870
O861	O86	0.422750	0.377400	0.099980
O871	O87	0.354060	0.346500	0.275370
O881	O88	0.207400	0.002500	0.166840
F151	F15	0.423640	0.173000	0.186390
F161	F16	0.502940	0.091800	0.303340
O891	O89	0.512700	0.348200	0.266660
O901	O90	0.436500	0.524700	0.336310
O911	O91	0.155000	0.193200	0.242270
O921	O92	0.569590	0.286500	0.132130
O931	O93	0.121550	0.183900	0.107700
O941	O94	0.552380	0.503300	0.071100
O951	O95	0.439120	0.297300	0.385320
O961	O96	0.521200	0.293600	0.005180
