data_IRELAU_freeONLY_PM
_symmetry_space_group_name_H-M	'P1'
_cell_length_a	12.206000
_cell_length_b	17.833000
_cell_length_c	15.309000
_cell_angle_alpha	90.000000
_cell_angle_beta	111.229000
_cell_angle_gamma	90.000000
_symmetry_Int_Tables_number 1

loop_
_symmetry_equiv_pos_as_xyz
'x,y,z'

loop_
_atom_site_label
_atom_site_type_symbol
_atom_site_fract_x
_atom_site_fract_y
_atom_site_fract_z
O11	O1	0.821700	0.455940	0.782000
Zn11	Zn1	0.263970	0.376880	0.229240
Zn21	Zn2	0.033880	0.486620	0.205900
O21	O2	0.119300	0.342220	0.139300
O31	O3	0.995600	0.432900	0.093100
O41	O4	0.688000	0.528370	0.801200
O51	O5	0.377200	0.199100	0.767200
O61	O6	0.350000	0.211100	0.624000
O71	O7	0.248900	0.394800	0.349100
O81	O8	0.084100	0.451100	0.330700
O91	O9	0.946000	0.575600	0.195200
N11	N1	0.827700	0.669800	0.149200
C11	C1	0.031600	0.370300	0.083800
C21	C2	0.968100	0.327600	0.000700
C31	C3	0.012400	0.263400	0.981100
H11	H1	0.086000	0.246900	0.020500
C41	C4	0.950500	0.222700	0.904500
H21	H2	0.981400	0.178500	0.890900
C51	C5	0.843800	0.246800	0.848200
H31	H3	0.801700	0.219000	0.795400
C61	C6	0.796100	0.311300	0.867000
C71	C7	0.860200	0.351600	0.943500
H41	H4	0.829900	0.396000	0.957200
C81	C8	0.676800	0.332200	0.806500
C91	C9	0.645200	0.403400	0.773800
C101	C10	0.531200	0.417000	0.717900
H51	H5	0.509900	0.465600	0.696500
C111	C11	0.448900	0.363500	0.692700
C121	C12	0.481700	0.292200	0.728300
C131	C13	0.593400	0.279300	0.784600
H61	H6	0.613700	0.231500	0.809500
C141	C14	0.727700	0.466700	0.788800
C151	C15	0.395200	0.229700	0.703700
C161	C16	0.332900	0.382650	0.631590
C171	C17	0.309700	0.389220	0.536090
H71	H7	0.367200	0.376600	0.512100
C181	C18	0.200600	0.414600	0.476440
C191	C19	0.114630	0.433400	0.512310
H81	H8	0.041600	0.450400	0.472400
C201	C20	0.137800	0.426800	0.607810
H91	H9	0.080300	0.439400	0.631800
C211	C21	0.246900	0.401500	0.667460
H101	H10	0.262400	0.397100	0.731400
C221	C22	0.176100	0.420500	0.378200
C231	C23	0.862100	0.605700	0.135400
C241	C24	0.797800	0.567100	0.047000
H111	H11	0.851800	0.538100	0.028200
H121	H12	0.759700	0.603500	0.999400
H131	H13	0.739800	0.534500	0.055400
C251	C25	0.727900	0.706500	0.087700
H141	H14	0.751700	0.744700	0.054100
H151	H15	0.685400	0.729000	0.122800
H161	H16	0.678400	0.670900	0.044100
C261	C26	0.897900	0.711300	0.233500
H171	H17	0.854800	0.715600	0.274700
H181	H18	0.914800	0.760400	0.216100
H191	H19	0.970200	0.685000	0.264900
O101	O10	0.178300	0.955940	0.718000
Zn31	Zn3	0.736030	0.876880	0.270760
Zn41	Zn4	0.966120	0.986620	0.294100
O111	O11	0.880700	0.842220	0.360700
O121	O12	0.004400	0.932900	0.406900
O131	O13	0.312000	0.028370	0.698800
O141	O14	0.622800	0.699100	0.732800
O151	O15	0.650000	0.711100	0.876000
O161	O16	0.751100	0.894800	0.150900
O171	O17	0.915900	0.951100	0.169300
O181	O18	0.054000	0.075600	0.304800
N21	N2	0.172300	0.169800	0.350800
C271	C27	0.968400	0.870300	0.416200
C281	C28	0.031900	0.827600	0.499300
C291	C29	0.987600	0.763400	0.518900
H201	H20	0.914000	0.746900	0.479500
C301	C30	0.049500	0.722700	0.595500
H211	H21	0.018600	0.678500	0.609100
C311	C31	0.156200	0.746800	0.651800
H221	H22	0.198300	0.719000	0.704600
C321	C32	0.203900	0.811300	0.633000
C331	C33	0.139800	0.851600	0.556500
H231	H23	0.170100	0.896000	0.542800
C341	C34	0.323200	0.832200	0.693500
C351	C35	0.354800	0.903400	0.726200
C361	C36	0.468800	0.917000	0.782100
H241	H24	0.490100	0.965600	0.803500
C371	C37	0.551100	0.863500	0.807300
C381	C38	0.518300	0.792200	0.771700
C391	C39	0.406600	0.779300	0.715400
H251	H25	0.386300	0.731500	0.690500
C401	C40	0.272300	0.966700	0.711200
C411	C41	0.604800	0.729700	0.796300
C421	C42	0.667100	0.882650	0.868410
C431	C43	0.690300	0.889220	0.963910
H261	H26	0.632800	0.876600	0.987900
C441	C44	0.799400	0.914600	0.023560
C451	C45	0.885370	0.933400	0.987690
H271	H27	0.958400	0.950400	0.027600
C461	C46	0.862200	0.926800	0.892190
H281	H28	0.919700	0.939400	0.868200
C471	C47	0.753100	0.901500	0.832540
H291	H29	0.737600	0.897100	0.768600
C481	C48	0.823900	0.920500	0.121800
C491	C49	0.137900	0.105700	0.364600
C501	C50	0.202200	0.067100	0.453000
H301	H30	0.148200	0.038100	0.471800
H311	H31	0.240300	0.103500	0.500600
H321	H32	0.260200	0.034500	0.444600
C511	C51	0.272100	0.206500	0.412300
H331	H33	0.248300	0.244700	0.445900
H341	H34	0.314600	0.229000	0.377200
H351	H35	0.321600	0.170900	0.455900
C521	C52	0.102100	0.211300	0.266500
H361	H36	0.145200	0.215600	0.225300
H371	H37	0.085200	0.260400	0.283900
H381	H38	0.029800	0.185000	0.235100
O191	O19	0.178300	0.544060	0.218000
Zn51	Zn5	0.736030	0.623120	0.770760
Zn61	Zn6	0.966120	0.513380	0.794100
O201	O20	0.880700	0.657780	0.860700
O211	O21	0.004400	0.567100	0.906900
O221	O22	0.312000	0.471630	0.198800
O231	O23	0.622800	0.800900	0.232800
O241	O24	0.650000	0.788900	0.376000
O251	O25	0.751100	0.605200	0.650900
O261	O26	0.915900	0.548900	0.669300
O271	O27	0.054000	0.424400	0.804800
N31	N3	0.172300	0.330200	0.850800
C531	C53	0.968400	0.629700	0.916200
C541	C54	0.031900	0.672400	0.999300
C551	C55	0.987600	0.736600	0.018900
H391	H39	0.914000	0.753100	0.979500
C561	C56	0.049500	0.777300	0.095500
H401	H40	0.018600	0.821500	0.109100
C571	C57	0.156200	0.753200	0.151800
H411	H41	0.198300	0.781000	0.204600
C581	C58	0.203900	0.688700	0.133000
C591	C59	0.139800	0.648400	0.056500
H421	H42	0.170100	0.604000	0.042800
C601	C60	0.323200	0.667800	0.193500
C611	C61	0.354800	0.596600	0.226200
C621	C62	0.468800	0.583000	0.282100
H431	H43	0.490100	0.534400	0.303500
C631	C63	0.551100	0.636500	0.307300
C641	C64	0.518300	0.707800	0.271700
C651	C65	0.406600	0.720700	0.215400
H441	H44	0.386300	0.768500	0.190500
C661	C66	0.272300	0.533300	0.211200
C671	C67	0.604800	0.770300	0.296300
C681	C68	0.667100	0.617350	0.368410
C691	C69	0.690300	0.610780	0.463910
H451	H45	0.632800	0.623400	0.487900
C701	C70	0.799400	0.585400	0.523560
C711	C71	0.885370	0.566600	0.487690
H461	H46	0.958400	0.549600	0.527600
C721	C72	0.862200	0.573200	0.392190
H471	H47	0.919700	0.560600	0.368200
C731	C73	0.753100	0.598500	0.332540
H481	H48	0.737600	0.602900	0.268600
C741	C74	0.823900	0.579500	0.621800
C751	C75	0.137900	0.394300	0.864600
C761	C76	0.202200	0.432900	0.953000
H491	H49	0.148200	0.461900	0.971800
H501	H50	0.240300	0.396500	0.000600
H511	H51	0.260200	0.465500	0.944600
C771	C77	0.272100	0.293500	0.912300
H521	H52	0.248300	0.255300	0.945900
H531	H53	0.314600	0.271000	0.877200
H541	H54	0.321600	0.329100	0.955900
C781	C78	0.102100	0.288700	0.766500
H551	H55	0.145200	0.284400	0.725300
H561	H56	0.085200	0.239600	0.783900
H571	H57	0.029800	0.315000	0.735100
O281	O28	0.821700	0.044060	0.282000
Zn71	Zn7	0.263970	0.123120	0.729240
Zn81	Zn8	0.033880	0.013380	0.705900
O291	O29	0.119300	0.157780	0.639300
O301	O30	0.995600	0.067100	0.593100
O311	O31	0.688000	0.971630	0.301200
O321	O32	0.377200	0.300900	0.267200
O331	O33	0.350000	0.288900	0.124000
O341	O34	0.248900	0.105200	0.849100
O351	O35	0.084100	0.048900	0.830700
O361	O36	0.946000	0.924400	0.695200
N41	N4	0.827700	0.830200	0.649200
C791	C79	0.031600	0.129700	0.583800
C801	C80	0.968100	0.172400	0.500700
C811	C81	0.012400	0.236600	0.481100
H581	H58	0.086000	0.253100	0.520500
C821	C82	0.950500	0.277300	0.404500
H591	H59	0.981400	0.321500	0.390900
C831	C83	0.843800	0.253200	0.348200
H601	H60	0.801700	0.281000	0.295400
C841	C84	0.796100	0.188700	0.367000
C851	C85	0.860200	0.148400	0.443500
H611	H61	0.829900	0.104000	0.457200
C861	C86	0.676800	0.167800	0.306500
C871	C87	0.645200	0.096600	0.273800
C881	C88	0.531200	0.083000	0.217900
H621	H62	0.509900	0.034400	0.196500
C891	C89	0.448900	0.136500	0.192700
C901	C90	0.481700	0.207800	0.228300
C911	C91	0.593400	0.220700	0.284600
H631	H63	0.613700	0.268500	0.309500
C921	C92	0.727700	0.033300	0.288800
C931	C93	0.395200	0.270300	0.203700
C941	C94	0.332900	0.117350	0.131590
C951	C95	0.309700	0.110780	0.036090
H641	H64	0.367200	0.123400	0.012100
C961	C96	0.200600	0.085400	0.976440
C971	C97	0.114630	0.066600	0.012310
H651	H65	0.041600	0.049600	0.972400
C981	C98	0.137800	0.073200	0.107810
H661	H66	0.080300	0.060600	0.131800
C991	C99	0.246900	0.098500	0.167460
H671	H67	0.262400	0.102900	0.231400
C1001	C100	0.176100	0.079500	0.878200
C1011	C101	0.862100	0.894300	0.635400
C1021	C102	0.797800	0.932900	0.547000
H681	H68	0.851800	0.961900	0.528200
H691	H69	0.759700	0.896500	0.499400
H701	H70	0.739800	0.965500	0.555400
C1031	C103	0.727900	0.793500	0.587700
H711	H71	0.751700	0.755300	0.554100
H721	H72	0.685400	0.771000	0.622800
H731	H73	0.678400	0.829100	0.544100
C1041	C104	0.897900	0.788700	0.733500
H741	H74	0.854800	0.784400	0.774700
H751	H75	0.914800	0.739600	0.716100
H761	H76	0.970200	0.815000	0.764900
