data_ISACIP_freeONLY_PM
_symmetry_space_group_name_H-M	'P1'
_cell_length_a	11.687600
_cell_length_b	13.212600
_cell_length_c	15.869600
_cell_angle_alpha	71.506400
_cell_angle_beta	68.393000
_cell_angle_gamma	63.749900
_symmetry_Int_Tables_number 1

loop_
_symmetry_equiv_pos_as_xyz
'x,y,z'

loop_
_atom_site_label
_atom_site_type_symbol
_atom_site_fract_x
_atom_site_fract_y
_atom_site_fract_z
Cd11	Cd1	0.535810	0.025340	0.868020
Cd21	Cd2	0.929170	0.474660	0.631980
Cd31	Cd3	0.464190	0.974660	0.131980
Cd41	Cd4	0.070830	0.525340	0.368020
Cd51	Cd5	0.550870	0.750000	0.750000
Cd61	Cd6	0.449130	0.250000	0.250000
H11	H1	0.292900	0.288000	0.118400
H21	H2	0.290500	0.608700	0.046500
H31	H3	0.454500	0.407100	0.857500
H41	H4	0.257000	0.197200	0.828400
H51	H5	0.062400	0.200700	0.819500
H61	H6	0.171900	0.867300	0.931500
H71	H7	0.360800	0.871900	0.938500
H81	H8	0.692000	0.191000	0.823200
H91	H9	0.880300	0.201300	0.824500
H101	H10	0.014700	0.859900	0.908700
H111	H11	0.820800	0.860500	0.905100
H121	H12	0.199300	0.212000	0.381600
H131	H13	0.445700	0.891300	0.453500
H141	H14	0.219100	0.092900	0.642500
H151	H15	0.782600	0.302800	0.671600
H161	H16	0.582600	0.299300	0.680500
H171	H17	0.470700	0.632700	0.568500
H181	H18	0.671200	0.628100	0.561500
H191	H19	0.206200	0.309000	0.676800
H201	H20	0.406100	0.298700	0.675500
H211	H21	0.283300	0.640100	0.591300
H221	H22	0.086400	0.639500	0.594900
H231	H23	0.707100	0.712000	0.881600
H241	H24	0.709500	0.391300	0.953500
H251	H25	0.545500	0.592900	0.142500
H261	H26	0.743000	0.802800	0.171600
H271	H27	0.937600	0.799300	0.180500
H281	H28	0.828100	0.132700	0.068500
H291	H29	0.639200	0.128100	0.061500
H301	H30	0.308000	0.809000	0.176800
H311	H31	0.119700	0.798700	0.175500
H321	H32	0.985300	0.140100	0.091300
H331	H33	0.179200	0.139500	0.094900
H341	H34	0.800700	0.788000	0.618400
H351	H35	0.554300	0.108700	0.546500
H361	H36	0.780900	0.907100	0.357500
H371	H37	0.217400	0.697200	0.328400
H381	H38	0.417400	0.700700	0.319500
H391	H39	0.529300	0.367300	0.431500
H401	H40	0.328800	0.371900	0.438500
H411	H41	0.793800	0.691000	0.323200
H421	H42	0.593900	0.701300	0.324500
H431	H43	0.716700	0.359900	0.408700
H441	H44	0.913600	0.360500	0.405100
C11	C1	0.418700	0.219200	0.955400
C21	C2	0.377900	0.331000	0.983000
C31	C3	0.313500	0.347200	0.073400
C41	C4	0.279700	0.451500	0.096900
C51	C5	0.313400	0.538800	0.030800
C61	C6	0.381400	0.521900	0.940900
C71	C7	0.411200	0.417800	0.918000
C81	C8	0.434600	0.608500	0.870700
C91	C9	0.211500	0.469900	0.194500
C101	C10	0.239500	0.130000	0.849200
C111	C11	0.122300	0.132500	0.843100
C121	C12	0.095600	0.031500	0.872700
C131	C13	0.187000	0.935700	0.909300
C141	C14	0.300800	0.938900	0.913700
C151	C15	0.758700	0.123300	0.840300
C161	C16	0.871400	0.130500	0.840900
C171	C17	0.974200	0.029600	0.866600
C181	C18	0.950600	0.929200	0.890600
C191	C19	0.833100	0.929800	0.888200
C201	C20	0.093300	0.280800	0.544600
C211	C21	0.191900	0.169000	0.517000
C221	C22	0.234100	0.152800	0.426600
C231	C23	0.328100	0.048500	0.403100
C241	C24	0.383000	0.961200	0.469200
C251	C25	0.344200	0.978100	0.559100
C261	C26	0.247000	0.082200	0.582000
C271	C27	0.413800	0.891500	0.629300
C281	C28	0.375900	0.030100	0.305500
C291	C29	0.718700	0.370000	0.650800
C301	C30	0.597900	0.367500	0.656900
C311	C31	0.499800	0.468500	0.627300
C321	C32	0.532000	0.564300	0.590700
C331	C33	0.653400	0.561100	0.586300
C341	C34	0.222300	0.376700	0.659700
C351	C35	0.342800	0.369500	0.659100
C361	C36	0.370400	0.470400	0.633400
C371	C37	0.270400	0.570800	0.609400
C381	C38	0.151100	0.570200	0.611800
C391	C39	0.581300	0.780800	0.044600
C401	C40	0.622100	0.669000	0.017000
C411	C41	0.686500	0.652800	0.926600
C421	C42	0.720300	0.548500	0.903100
C431	C43	0.686600	0.461200	0.969200
C441	C44	0.618600	0.478100	0.059100
C451	C45	0.588800	0.582200	0.082000
C461	C46	0.565400	0.391500	0.129300
C471	C47	0.788500	0.530100	0.805500
C481	C48	0.760500	0.870000	0.150800
C491	C49	0.877700	0.867500	0.156900
C501	C50	0.904400	0.968500	0.127300
C511	C51	0.813000	0.064300	0.090700
C521	C52	0.699200	0.061100	0.086300
C531	C53	0.241300	0.876700	0.159700
C541	C54	0.128600	0.869500	0.159100
C551	C55	0.025800	0.970400	0.133400
C561	C56	0.049400	0.070800	0.109400
C571	C57	0.166900	0.070200	0.111800
C581	C58	0.906700	0.719200	0.455400
C591	C59	0.808100	0.831000	0.483000
C601	C60	0.765900	0.847200	0.573400
C611	C61	0.671900	0.951500	0.596900
C621	C62	0.617000	0.038800	0.530800
C631	C63	0.655800	0.021900	0.440900
C641	C64	0.753000	0.917800	0.418000
C651	C65	0.586200	0.108500	0.370700
C661	C66	0.624100	0.969900	0.694500
C671	C67	0.281300	0.630000	0.349200
C681	C68	0.402100	0.632500	0.343100
C691	C69	0.500200	0.531500	0.372700
C701	C70	0.468000	0.435700	0.409300
C711	C71	0.346600	0.438900	0.413700
C721	C72	0.777700	0.623300	0.340300
C731	C73	0.657200	0.630500	0.340900
C741	C74	0.629600	0.529600	0.366600
C751	C75	0.729600	0.429200	0.390600
C761	C76	0.848900	0.429800	0.388200
N11	N1	0.328700	0.033500	0.884100
N21	N2	0.737700	0.024300	0.862900
N31	N3	0.746300	0.466500	0.615900
N41	N4	0.124900	0.475700	0.637100
N51	N5	0.671300	0.966500	0.115900
N61	N6	0.262300	0.975700	0.137100
N71	N7	0.253700	0.533500	0.384100
N81	N8	0.875100	0.524300	0.362900
O11	O1	0.427400	0.129300	0.014700
O21	O2	0.447600	0.219100	0.870700
O31	O3	0.498000	0.587600	0.792200
O41	O4	0.418100	0.697800	0.894600
O51	O5	0.134600	0.568700	0.208300
O61	O6	0.233400	0.384900	0.259900
O71	O7	0.071400	0.370700	0.485300
O81	O8	0.037400	0.280900	0.629300
O91	O9	0.377800	0.912400	0.707800
O101	O10	0.510500	0.802200	0.605400
O111	O11	0.411600	0.931300	0.291700
O121	O12	0.378200	0.115100	0.240100
O131	O13	0.572600	0.870700	0.985300
O141	O14	0.552400	0.780900	0.129300
O151	O15	0.502000	0.412400	0.207800
O161	O16	0.581900	0.302200	0.105400
O171	O17	0.865400	0.431300	0.791700
O181	O18	0.766600	0.615100	0.740100
O191	O19	0.928600	0.629300	0.514700
O201	O20	0.962600	0.719100	0.370700
O211	O21	0.622200	0.087600	0.292200
O221	O22	0.489500	0.197800	0.394600
O231	O23	0.588400	0.068700	0.708300
O241	O24	0.621800	0.884900	0.759900
