data_ISENUQ_freeONLY_PM
_symmetry_space_group_name_H-M	'P1'
_cell_length_a	8.760200
_cell_length_b	21.220100
_cell_length_c	27.830800
_cell_angle_alpha	90.000000
_cell_angle_beta	90.000000
_cell_angle_gamma	97.680100
_symmetry_Int_Tables_number 1

loop_
_symmetry_equiv_pos_as_xyz
'x,y,z'

loop_
_atom_site_label
_atom_site_type_symbol
_atom_site_fract_x
_atom_site_fract_y
_atom_site_fract_z
Dy11	Dy1	0.814490	0.753780	0.311470
Dy21	Dy2	0.230060	0.748340	0.421700
Dy31	Dy3	0.185510	0.246220	0.811470
Dy41	Dy4	0.769940	0.251660	0.921700
Ni11	Ni1	0.275610	0.240130	0.313890
Ni21	Ni2	0.777400	0.263480	0.408010
Ni31	Ni3	0.724390	0.759870	0.813890
Ni41	Ni4	0.222600	0.736520	0.908010
H11	H1	0.344000	0.051400	0.209200
H21	H2	0.226000	0.124400	0.155200
H31	H3	0.187600	0.371900	0.167100
H41	H4	0.177700	0.445700	0.236100
H51	H5	0.060600	0.397500	0.420800
H61	H6	0.129300	0.316500	0.478100
H71	H7	0.502100	0.138900	0.456700
H81	H8	0.560400	0.071600	0.388500
H91	H9	0.953500	0.185700	0.157200
H101	H10	0.849400	0.187600	0.079600
H111	H11	0.229500	0.296000	0.033600
H121	H12	0.338700	0.294900	0.111800
H131	H13	0.920600	0.438200	0.291300
H141	H14	0.859900	0.542000	0.298100
H151	H15	0.219800	0.587000	0.385300
H161	H16	0.283600	0.484300	0.378400
H171	H17	0.188600	0.137300	0.495900
H181	H18	0.197500	0.128900	0.577900
H191	H19	0.445900	0.300600	0.583100
H201	H20	0.435000	0.309200	0.500500
H211	H21	0.274100	0.158700	0.695000
H221	H22	0.351900	0.997400	0.350700
H231	H23	0.440800	0.897600	0.348100
H241	H24	0.692300	0.954600	0.230700
H251	H25	0.617500	0.055100	0.237100
H261	H26	0.690100	0.443400	0.519600
H271	H27	0.789100	0.364500	0.573300
H281	H28	0.826300	0.118000	0.550100
H291	H29	0.877500	0.053600	0.478500
H301	H30	0.001800	0.113400	0.294300
H311	H31	0.906600	0.191000	0.241400
H321	H32	0.556300	0.374400	0.267400
H331	H33	0.507200	0.440300	0.337900
H341	H34	0.045100	0.290900	0.584400
H351	H35	0.079800	0.286100	0.667300
H361	H36	0.652500	0.181400	0.678600
H371	H37	0.629100	0.186400	0.595200
H381	H38	0.801700	0.027200	0.333400
H391	H39	0.867300	0.925100	0.323900
H401	H40	0.191800	0.963600	0.428800
H411	H41	0.138000	0.066500	0.434100
H421	H42	0.857600	0.370800	0.227800
H431	H43	0.831900	0.380600	0.143500
H441	H44	0.551300	0.212600	0.140000
H451	H45	0.589100	0.199600	0.223000
H461	H46	0.739400	0.351900	0.028900
H471	H47	0.729800	0.519000	0.382100
H481	H48	0.637100	0.614200	0.390600
H491	H49	0.332300	0.538500	0.491500
H501	H50	0.423500	0.440300	0.484300
H511	H51	0.446900	0.716600	0.245500
H521	H52	0.300100	0.615300	0.187400
H531	H53	0.212200	0.651200	0.227300
H541	H54	0.209100	0.575700	0.229900
H551	H55	0.413000	0.553900	0.300900
H561	H56	0.581900	0.580200	0.281900
H571	H57	0.466600	0.534200	0.248700
H581	H58	0.438400	0.820500	0.509400
H591	H59	0.752600	0.934700	0.447500
H601	H60	0.706200	0.866700	0.422800
H611	H61	0.845400	0.876900	0.460400
H621	H62	0.603500	0.873400	0.563100
H631	H63	0.723500	0.931000	0.543200
H641	H64	0.774300	0.861700	0.548600
H651	H65	0.659200	0.722900	0.401300
H661	H66	0.828800	0.734900	0.418100
H671	H67	0.424200	0.789300	0.339500
H681	H68	0.293400	0.778400	0.315000
H691	H69	0.656000	0.948600	0.709200
H701	H70	0.774000	0.875600	0.655200
H711	H71	0.812400	0.628100	0.667100
H721	H72	0.822300	0.554300	0.736100
H731	H73	0.939400	0.602500	0.920800
H741	H74	0.870700	0.683500	0.978100
H751	H75	0.497900	0.861100	0.956700
H761	H76	0.439600	0.928400	0.888500
H771	H77	0.046500	0.814300	0.657200
H781	H78	0.150600	0.812400	0.579600
H791	H79	0.770500	0.704000	0.533600
H801	H80	0.661300	0.705100	0.611800
H811	H81	0.079400	0.561800	0.791300
H821	H82	0.140100	0.458000	0.798100
H831	H83	0.780200	0.413000	0.885300
H841	H84	0.716400	0.515700	0.878400
H851	H85	0.811400	0.862700	0.995900
H861	H86	0.802500	0.871100	0.077900
H871	H87	0.554100	0.699400	0.083100
H881	H88	0.565000	0.690800	0.000500
H891	H89	0.725900	0.841300	0.195000
H901	H90	0.648100	0.002600	0.850700
H911	H91	0.559200	0.102400	0.848100
H921	H92	0.307700	0.045400	0.730700
H931	H93	0.382500	0.944900	0.737100
H941	H94	0.309900	0.556600	0.019600
H951	H95	0.210900	0.635500	0.073300
H961	H96	0.173700	0.882000	0.050100
H971	H97	0.122500	0.946400	0.978500
H981	H98	0.998200	0.886600	0.794300
H991	H99	0.093400	0.809000	0.741400
H1001	H100	0.443700	0.625600	0.767400
H1011	H101	0.492800	0.559700	0.837900
H1021	H102	0.954900	0.709100	0.084400
H1031	H103	0.920200	0.713900	0.167300
H1041	H104	0.347500	0.818600	0.178600
H1051	H105	0.370900	0.813600	0.095200
H1061	H106	0.198300	0.972800	0.833400
H1071	H107	0.132700	0.074900	0.823900
H1081	H108	0.808200	0.036400	0.928800
H1091	H109	0.862000	0.933500	0.934100
H1101	H110	0.142400	0.629200	0.727800
H1111	H111	0.168100	0.619400	0.643500
H1121	H112	0.448700	0.787400	0.640000
H1131	H113	0.410900	0.800400	0.723000
H1141	H114	0.260600	0.648100	0.528900
H1151	H115	0.270200	0.481000	0.882100
H1161	H116	0.362900	0.385800	0.890600
H1171	H117	0.667700	0.461500	0.991500
H1181	H118	0.576500	0.559700	0.984300
H1191	H119	0.553100	0.283400	0.745500
H1201	H120	0.699900	0.384700	0.687400
H1211	H121	0.787800	0.348800	0.727300
H1221	H122	0.790900	0.424300	0.729900
H1231	H123	0.587000	0.446100	0.800900
H1241	H124	0.418100	0.419800	0.781900
H1251	H125	0.533400	0.465800	0.748700
H1261	H126	0.561600	0.179500	0.009400
H1271	H127	0.247400	0.065300	0.947500
H1281	H128	0.293800	0.133300	0.922800
H1291	H129	0.154600	0.123100	0.960400
H1301	H130	0.396500	0.126600	0.063100
H1311	H131	0.276500	0.069000	0.043200
H1321	H132	0.225700	0.138300	0.048600
H1331	H133	0.340800	0.277100	0.901300
H1341	H134	0.171200	0.265100	0.918100
H1351	H135	0.575800	0.210700	0.839500
H1361	H136	0.706600	0.221600	0.815000
C11	C1	0.350400	0.124000	0.261500
C21	C2	0.322100	0.092800	0.217000
C31	C3	0.258000	0.132600	0.187500
C41	C4	0.248000	0.188900	0.214000
C51	C5	0.208700	0.245700	0.194000
C61	C6	0.215000	0.300900	0.220000
C71	C7	0.194400	0.361700	0.200200
C81	C8	0.186700	0.401600	0.237800
C91	C9	0.194800	0.365100	0.280800
C101	C10	0.156600	0.385100	0.326100
C111	C11	0.164100	0.348400	0.366000
C121	C12	0.112800	0.362400	0.412900
C131	C13	0.149600	0.318200	0.444600
C141	C14	0.225300	0.274900	0.416900
C151	C15	0.301400	0.227400	0.436300
C161	C16	0.369900	0.185500	0.407200
C171	C17	0.467200	0.141900	0.424500
C181	C18	0.501100	0.106000	0.387300
C191	C19	0.430700	0.129300	0.345600
C201	C20	0.422200	0.098700	0.300600
C211	C21	0.156800	0.243600	0.142900
C221	C22	0.010200	0.209400	0.132500
C231	C23	0.948300	0.210100	0.086200
C241	C24	0.030600	0.243300	0.050400
C251	C25	0.172400	0.274000	0.059000
C261	C26	0.237800	0.273800	0.106200
C271	C27	0.952600	0.244300	0.002400
C281	C28	0.112900	0.450200	0.331900
C291	C29	0.985200	0.468400	0.309900
C301	C30	0.947600	0.530600	0.314300
C311	C31	0.035200	0.574300	0.341500
C321	C32	0.159200	0.556900	0.365500
C331	C33	0.197800	0.495500	0.361100
C341	C34	0.997500	0.640300	0.346600
C351	C35	0.308700	0.223000	0.489700
C361	C36	0.241800	0.171500	0.513800
C371	C37	0.246700	0.165900	0.562200
C381	C38	0.324500	0.215200	0.588300
C391	C39	0.392100	0.266700	0.565100
C401	C40	0.386200	0.272100	0.516100
C411	C41	0.332800	0.213000	0.642800
C421	C42	0.477000	0.036900	0.295000
C431	C43	0.424600	0.989500	0.326800
C441	C44	0.475800	0.929300	0.325000
C451	C45	0.576800	0.916800	0.289600
C461	C46	0.626100	0.963500	0.256100
C471	C47	0.579200	0.023000	0.259500
C481	C48	0.644200	0.855100	0.291300
C491	C49	0.701900	0.375500	0.464000
C501	C50	0.714200	0.402700	0.510700
C511	C51	0.766700	0.359800	0.540000
C521	C52	0.781900	0.305500	0.510400
C531	C53	0.812100	0.247400	0.528800
C541	C54	0.820800	0.194900	0.500200
C551	C55	0.834900	0.132100	0.517700
C561	C56	0.862800	0.097100	0.478400
C571	C57	0.866400	0.137400	0.436800
C581	C58	0.910600	0.121200	0.391300
C591	C59	0.898700	0.159600	0.351600
C601	C60	0.945100	0.146500	0.303700
C611	C61	0.894800	0.188700	0.275300
C621	C62	0.819800	0.230200	0.304300
C631	C63	0.741300	0.278300	0.286500
C641	C64	0.679100	0.319400	0.316800
C651	C65	0.589100	0.368800	0.299500
C661	C66	0.562200	0.404600	0.337800
C671	C67	0.633400	0.378400	0.379000
C681	C68	0.638000	0.404600	0.424000
C691	C69	0.833100	0.242900	0.583000
C701	C70	0.965500	0.269500	0.603800
C711	C71	0.987600	0.266100	0.652800
C721	C72	0.868200	0.231900	0.681200
C731	C73	0.733100	0.203400	0.659700
C741	C74	0.718300	0.207600	0.610500
C751	C75	0.886000	0.230600	0.736000
C761	C76	0.961100	0.057200	0.384600
C771	C77	0.882200	0.014200	0.352300
C781	C78	0.918800	0.952900	0.347300
C791	C79	0.033000	0.931700	0.377000
C801	C80	0.113000	0.976500	0.409100
C811	C81	0.080600	0.037400	0.412800
C821	C82	0.056000	0.863800	0.376300
C831	C83	0.722700	0.283400	0.233900
C841	C84	0.796900	0.338400	0.210000
C851	C85	0.779900	0.344600	0.159700
C861	C86	0.687800	0.298300	0.134200
C871	C87	0.614800	0.244300	0.157600
C881	C88	0.635900	0.237100	0.207500
C891	C89	0.660000	0.306600	0.082600
C901	C90	0.582200	0.467500	0.430800
C911	C91	0.647600	0.522300	0.403900
C921	C92	0.593000	0.578900	0.409200
C931	C93	0.473700	0.586800	0.441200
C941	C94	0.412000	0.533900	0.469200
C951	C95	0.465300	0.475000	0.464700
C961	C96	0.400700	0.646500	0.441700
C971	C97	0.486500	0.681300	0.259500
C981	C98	0.271600	0.616000	0.221500
C991	C99	0.474000	0.568400	0.272600
C1001	C100	0.500800	0.834700	0.482600
C1011	C101	0.744000	0.888600	0.452300
C1021	C102	0.688800	0.885300	0.540700
C1031	C103	0.649600	0.876000	0.761500
C1041	C104	0.677900	0.907200	0.717000
C1051	C105	0.742000	0.867400	0.687500
C1061	C106	0.752000	0.811100	0.714000
C1071	C107	0.791300	0.754300	0.694000
C1081	C108	0.785000	0.699100	0.720000
C1091	C109	0.805600	0.638300	0.700200
C1101	C110	0.813300	0.598400	0.737800
C1111	C111	0.805200	0.634900	0.780800
C1121	C112	0.843400	0.614900	0.826100
C1131	C113	0.835900	0.651600	0.866000
C1141	C114	0.887200	0.637600	0.912900
C1151	C115	0.850400	0.681800	0.944600
C1161	C116	0.774700	0.725100	0.916900
C1171	C117	0.698600	0.772600	0.936300
C1181	C118	0.630100	0.814500	0.907200
C1191	C119	0.532800	0.858100	0.924500
C1201	C120	0.498900	0.894000	0.887300
C1211	C121	0.569300	0.870700	0.845600
C1221	C122	0.577800	0.901300	0.800600
C1231	C123	0.843200	0.756400	0.642900
C1241	C124	0.989800	0.790600	0.632500
C1251	C125	0.051700	0.789900	0.586200
C1261	C126	0.969400	0.756700	0.550400
C1271	C127	0.827600	0.726000	0.559000
C1281	C128	0.762200	0.726200	0.606200
C1291	C129	0.047400	0.755700	0.502400
C1301	C130	0.887100	0.549800	0.831900
C1311	C131	0.014800	0.531600	0.809900
C1321	C132	0.052400	0.469400	0.814300
C1331	C133	0.964800	0.425700	0.841500
C1341	C134	0.840800	0.443100	0.865500
C1351	C135	0.802200	0.504500	0.861100
C1361	C136	0.002500	0.359700	0.846600
C1371	C137	0.691300	0.777000	0.989700
C1381	C138	0.758200	0.828500	0.013800
C1391	C139	0.753300	0.834100	0.062200
C1401	C140	0.675500	0.784800	0.088300
C1411	C141	0.607900	0.733300	0.065100
C1421	C142	0.613800	0.727900	0.016100
C1431	C143	0.667200	0.787000	0.142800
C1441	C144	0.523000	0.963100	0.795000
C1451	C145	0.575400	0.010500	0.826800
C1461	C146	0.524200	0.070700	0.825000
C1471	C147	0.423200	0.083200	0.789600
C1481	C148	0.373900	0.036500	0.756100
C1491	C149	0.420800	0.977000	0.759500
C1501	C150	0.355800	0.144900	0.791300
C1511	C151	0.298100	0.624500	0.964000
C1521	C152	0.285800	0.597300	0.010700
C1531	C153	0.233300	0.640200	0.040000
C1541	C154	0.218100	0.694500	0.010400
C1551	C155	0.187900	0.752600	0.028800
C1561	C156	0.179200	0.805100	0.000200
C1571	C157	0.165100	0.867900	0.017700
C1581	C158	0.137200	0.902900	0.978400
C1591	C159	0.133600	0.862600	0.936800
C1601	C160	0.089400	0.878800	0.891300
C1611	C161	0.101300	0.840400	0.851600
C1621	C162	0.054900	0.853500	0.803700
C1631	C163	0.105200	0.811300	0.775300
C1641	C164	0.180200	0.769800	0.804300
C1651	C165	0.258700	0.721700	0.786500
C1661	C166	0.320900	0.680600	0.816800
C1671	C167	0.410900	0.631200	0.799500
C1681	C168	0.437800	0.595400	0.837800
C1691	C169	0.366600	0.621600	0.879000
C1701	C170	0.362000	0.595400	0.924000
C1711	C171	0.166900	0.757100	0.083000
C1721	C172	0.034500	0.730500	0.103800
C1731	C173	0.012400	0.733900	0.152800
C1741	C174	0.131800	0.768100	0.181200
C1751	C175	0.266900	0.796600	0.159700
C1761	C176	0.281700	0.792400	0.110500
C1771	C177	0.114000	0.769400	0.236000
C1781	C178	0.038900	0.942800	0.884600
C1791	C179	0.117800	0.985800	0.852300
C1801	C180	0.081200	0.047100	0.847300
C1811	C181	0.967000	0.068300	0.877000
C1821	C182	0.887000	0.023500	0.909100
C1831	C183	0.919400	0.962600	0.912800
C1841	C184	0.944000	0.136200	0.876300
C1851	C185	0.277300	0.716600	0.733900
C1861	C186	0.203100	0.661600	0.710000
C1871	C187	0.220100	0.655400	0.659700
C1881	C188	0.312200	0.701700	0.634200
C1891	C189	0.385200	0.755700	0.657600
C1901	C190	0.364100	0.762900	0.707500
C1911	C191	0.340000	0.693400	0.582600
C1921	C192	0.417800	0.532500	0.930800
C1931	C193	0.352400	0.477700	0.903900
C1941	C194	0.407000	0.421100	0.909200
C1951	C195	0.526300	0.413200	0.941200
C1961	C196	0.588000	0.466100	0.969200
C1971	C197	0.534700	0.525000	0.964700
C1981	C198	0.599300	0.353500	0.941700
C1991	C199	0.513500	0.318700	0.759500
C2001	C200	0.728400	0.384000	0.721500
C2011	C201	0.526000	0.431600	0.772600
C2021	C202	0.499200	0.165300	0.982600
C2031	C203	0.256000	0.111400	0.952300
C2041	C204	0.311200	0.114700	0.040700
N11	N1	0.299400	0.183900	0.260500
N21	N2	0.220700	0.303800	0.270000
N31	N3	0.226000	0.291700	0.367800
N41	N4	0.355400	0.180300	0.357800
N51	N5	0.746300	0.316300	0.462700
N61	N6	0.832200	0.197300	0.450700
N71	N7	0.828100	0.214900	0.352400
N81	N8	0.699800	0.325000	0.366300
N91	N9	0.413900	0.624700	0.251500
N101	N10	0.636700	0.870000	0.491400
N111	N11	0.700600	0.816100	0.760500
N121	N12	0.779300	0.696200	0.770000
N131	N13	0.774000	0.708300	0.867800
N141	N14	0.644600	0.819700	0.857800
N151	N15	0.253700	0.683700	0.962700
N161	N16	0.167800	0.802700	0.950700
N171	N17	0.171900	0.785100	0.852400
N181	N18	0.300200	0.675000	0.866300
N191	N19	0.586100	0.375300	0.751500
N201	N20	0.363300	0.130000	0.991400
O11	O1	0.814800	0.218300	0.999900
O21	O2	0.019100	0.271900	0.966700
O31	O3	0.883000	0.653300	0.323200
O41	O4	0.079400	0.678300	0.373900
O51	O5	0.277300	0.157800	0.662000
O61	O6	0.384800	0.259300	0.667400
O71	O7	0.620600	0.820500	0.328200
O81	O8	0.732300	0.840700	0.258100
O91	O9	0.765300	0.211300	0.758400
O101	O10	0.017600	0.246600	0.751900
O111	O11	0.988700	0.828100	0.344400
O121	O12	0.137800	0.844600	0.408800
O131	O13	0.563000	0.271600	0.060300
O141	O14	0.748800	0.353400	0.061900
O151	O15	0.453400	0.690100	0.413600
O161	O16	0.281300	0.651200	0.466800
O171	O17	0.605700	0.691400	0.284500
O181	O18	0.451400	0.819600	0.442600
O191	O19	0.757000	0.738500	0.395000
O201	O20	0.324800	0.773400	0.346000
O211	O21	0.185200	0.781700	0.499900
O221	O22	0.980900	0.728100	0.466700
O231	O23	0.117000	0.346700	0.823200
O241	O24	0.920600	0.321700	0.873900
O251	O25	0.722700	0.842200	0.162000
O261	O26	0.615200	0.740700	0.167400
O271	O27	0.379400	0.179500	0.828200
O281	O28	0.267700	0.159300	0.758100
O291	O29	0.234700	0.788700	0.258400
O301	O30	0.982400	0.753400	0.251900
O311	O31	0.011300	0.171900	0.844400
O321	O32	0.862200	0.155400	0.908800
O331	O33	0.437000	0.728400	0.560300
O341	O34	0.251200	0.646600	0.561900
O351	O35	0.546600	0.309900	0.913600
O361	O36	0.718700	0.348800	0.966800
O371	O37	0.394300	0.308600	0.784500
O381	O38	0.548600	0.180400	0.942600
O391	O39	0.243000	0.261500	0.895000
O401	O40	0.675200	0.226600	0.846000
