data_ISIKOL_freeONLY_PM
_symmetry_space_group_name_H-M	'P1'
_cell_length_a	7.276500
_cell_length_b	16.979100
_cell_length_c	17.066800
_cell_angle_alpha	90.000000
_cell_angle_beta	96.538000
_cell_angle_gamma	90.000000
_symmetry_Int_Tables_number 1

loop_
_symmetry_equiv_pos_as_xyz
'x,y,z'

loop_
_atom_site_label
_atom_site_type_symbol
_atom_site_fract_x
_atom_site_fract_y
_atom_site_fract_z
Co11	Co1	0.434700	0.798700	0.806620
Co21	Co2	0.065300	0.298700	0.693380
Co31	Co3	0.565300	0.201300	0.193380
Co41	Co4	0.934700	0.701300	0.306620
H11	H1	0.822300	0.480500	0.461700
H21	H2	0.927700	0.558900	0.446100
H31	H3	0.715000	0.632300	0.652600
H41	H4	0.235500	0.702100	0.536300
H51	H5	0.591300	0.573700	0.426900
H61	H6	0.604900	0.032700	0.631700
H71	H7	0.641700	0.042500	0.543500
H81	H8	0.845900	0.000100	0.732000
H91	H9	0.939400	0.082100	0.722400
H101	H10	0.372900	0.151200	0.488100
H111	H11	0.530600	0.986900	0.798600
H121	H12	0.103100	0.220300	0.524600
H131	H13	0.970900	0.054400	0.591100
H141	H14	0.889200	0.969700	0.600100
H151	H15	0.743900	0.168100	0.565300
H161	H16	0.744600	0.158700	0.656600
H171	H17	0.298900	0.086400	0.754900
H181	H18	0.475400	0.222800	0.707300
H191	H19	0.070100	0.877100	0.735000
H201	H20	0.677700	0.980500	0.038300
H211	H21	0.572300	0.058900	0.053900
H221	H22	0.785000	0.132300	0.847400
H231	H23	0.264500	0.202100	0.963700
H241	H24	0.908700	0.073700	0.073100
H251	H25	0.895100	0.532700	0.868300
H261	H26	0.858300	0.542500	0.956500
H271	H27	0.654100	0.500100	0.768000
H281	H28	0.560600	0.582100	0.777600
H291	H29	0.127100	0.651200	0.011900
H301	H30	0.969400	0.486900	0.701400
H311	H31	0.396900	0.720300	0.975400
H321	H32	0.529100	0.554400	0.908900
H331	H33	0.610800	0.469700	0.899900
H341	H34	0.756100	0.668100	0.934700
H351	H35	0.755400	0.658700	0.843400
H361	H36	0.201100	0.586400	0.745100
H371	H37	0.024600	0.722800	0.792700
H381	H38	0.429900	0.377100	0.765000
H391	H39	0.177700	0.519500	0.538300
H401	H40	0.072300	0.441100	0.553900
H411	H41	0.285000	0.367700	0.347400
H421	H42	0.764500	0.297900	0.463700
H431	H43	0.408700	0.426300	0.573100
H441	H44	0.395100	0.967300	0.368300
H451	H45	0.358300	0.957500	0.456500
H461	H46	0.154100	0.999900	0.268000
H471	H47	0.060600	0.917900	0.277600
H481	H48	0.627100	0.848800	0.511900
H491	H49	0.469400	0.013100	0.201400
H501	H50	0.896900	0.779700	0.475400
H511	H51	0.029100	0.945600	0.408900
H521	H52	0.110800	0.030300	0.399900
H531	H53	0.256100	0.831900	0.434700
H541	H54	0.255400	0.841300	0.343400
H551	H55	0.701100	0.913600	0.245100
H561	H56	0.524600	0.777200	0.292700
H571	H57	0.929900	0.122900	0.265000
H581	H58	0.322300	0.019500	0.961700
H591	H59	0.427700	0.941100	0.946100
H601	H60	0.215000	0.867700	0.152600
H611	H61	0.735500	0.797900	0.036300
H621	H62	0.091300	0.926300	0.926900
H631	H63	0.104900	0.467300	0.131700
H641	H64	0.141700	0.457500	0.043500
H651	H65	0.345900	0.499900	0.232000
H661	H66	0.439400	0.417900	0.222400
H671	H67	0.872900	0.348800	0.988100
H681	H68	0.030600	0.513100	0.298600
H691	H69	0.603100	0.279700	0.024600
H701	H70	0.470900	0.445600	0.091100
H711	H71	0.389200	0.530300	0.100100
H721	H72	0.243900	0.331900	0.065300
H731	H73	0.244600	0.341300	0.156600
H741	H74	0.798900	0.413600	0.254900
H751	H75	0.975400	0.277200	0.207300
H761	H76	0.570100	0.622900	0.235000
C11	C1	0.678000	0.594100	0.540800
C21	C2	0.909500	0.519300	0.485400
C31	C3	0.633200	0.633300	0.606500
C41	C4	0.348100	0.676080	0.537100
C51	C5	0.394200	0.639200	0.469400
C61	C6	0.264800	0.644000	0.394200
C71	C7	0.559800	0.598400	0.472100
C81	C8	0.468400	0.674300	0.605300
C91	C9	0.423900	0.718000	0.677700
C101	C10	0.686400	0.056700	0.597400
C111	C11	0.938500	0.027500	0.705700
C121	C12	0.361400	0.174300	0.536700
C131	C13	0.408300	0.976800	0.779100
C141	C14	0.212500	0.212200	0.557400
C151	C15	0.884400	0.023800	0.617900
C161	C16	0.679400	0.144100	0.606000
C171	C17	0.281300	0.032200	0.755000
C181	C18	0.415300	0.213900	0.657100
C191	C19	0.158400	0.916700	0.743900
C201	C20	0.822000	0.094100	0.959200
C211	C21	0.590500	0.019300	0.014600
C221	C22	0.866800	0.133300	0.893500
C231	C23	0.151900	0.176080	0.962900
C241	C24	0.105800	0.139200	0.030600
C251	C25	0.235200	0.144000	0.105800
C261	C26	0.940200	0.098400	0.027900
C271	C27	0.031600	0.174300	0.894700
C281	C28	0.076100	0.218000	0.822300
C291	C29	0.813600	0.556700	0.902600
C301	C30	0.561500	0.527500	0.794300
C311	C31	0.138600	0.674300	0.963300
C321	C32	0.091700	0.476800	0.720900
C331	C33	0.287500	0.712200	0.942600
C341	C34	0.615600	0.523800	0.882100
C351	C35	0.820600	0.644100	0.894000
C361	C36	0.218700	0.532200	0.745000
C371	C37	0.084700	0.713900	0.842900
C381	C38	0.341600	0.416700	0.756100
C391	C39	0.322000	0.405900	0.459200
C401	C40	0.090500	0.480700	0.514600
C411	C41	0.366800	0.366700	0.393500
C421	C42	0.651900	0.323920	0.462900
C431	C43	0.605800	0.360800	0.530600
C441	C44	0.735200	0.356000	0.605800
C451	C45	0.440200	0.401600	0.527900
C461	C46	0.531600	0.325700	0.394700
C471	C47	0.576100	0.282000	0.322300
C481	C48	0.313600	0.943300	0.402600
C491	C49	0.061500	0.972500	0.294300
C501	C50	0.638600	0.825700	0.463300
C511	C51	0.591700	0.023200	0.220900
C521	C52	0.787500	0.787800	0.442600
C531	C53	0.115600	0.976200	0.382100
C541	C54	0.320600	0.855900	0.394000
C551	C55	0.718700	0.967800	0.245000
C561	C56	0.584700	0.786100	0.342900
C571	C57	0.841600	0.083300	0.256100
C581	C58	0.178000	0.905900	0.040800
C591	C59	0.409500	0.980700	0.985400
C601	C60	0.133200	0.866700	0.106500
C611	C61	0.848100	0.823920	0.037100
C621	C62	0.894200	0.860800	0.969400
C631	C63	0.764800	0.856000	0.894200
C641	C64	0.059800	0.901600	0.972100
C651	C65	0.968400	0.825700	0.105300
C661	C66	0.923900	0.782000	0.177700
C671	C67	0.186400	0.443300	0.097400
C681	C68	0.438500	0.472500	0.205700
C691	C69	0.861400	0.325700	0.036700
C701	C70	0.908300	0.523200	0.279100
C711	C71	0.712500	0.287800	0.057400
C721	C72	0.384400	0.476200	0.117900
C731	C73	0.179400	0.355900	0.106000
C741	C74	0.781300	0.467800	0.255000
C751	C75	0.915300	0.286100	0.157100
C761	C76	0.658400	0.583300	0.243900
N11	N1	0.245900	0.237250	0.634200
N21	N2	0.330100	0.903510	0.770290
N31	N3	0.121800	0.992480	0.731000
N41	N4	0.492400	0.175890	0.600400
N51	N5	0.254100	0.737250	0.865800
N61	N6	0.169900	0.403510	0.729710
N71	N7	0.378200	0.492480	0.769000
N81	N8	0.007600	0.675890	0.899600
N91	N9	0.754100	0.762750	0.365800
N101	N10	0.669900	0.096490	0.229710
N111	N11	0.878200	0.007520	0.269000
N121	N12	0.507600	0.824110	0.399600
N131	N13	0.745900	0.262750	0.134200
N141	N14	0.830100	0.596490	0.270290
N151	N15	0.621800	0.507520	0.231000
N161	N16	0.992400	0.324110	0.100400
O11	O1	0.842500	0.554090	0.551170
O21	O2	0.115800	0.682980	0.398720
O31	O3	0.266900	0.743980	0.682530
O41	O4	0.305000	0.613200	0.333300
O51	O5	0.556000	0.729060	0.733140
O61	O6	0.657500	0.054090	0.948830
O71	O7	0.384200	0.182980	0.101280
O81	O8	0.233100	0.243980	0.817470
O91	O9	0.195000	0.113200	0.166700
O101	O10	0.944000	0.229060	0.766860
O111	O11	0.157500	0.445910	0.448830
O121	O12	0.884200	0.317020	0.601280
O131	O13	0.733100	0.256020	0.317470
O141	O14	0.695000	0.386800	0.666700
O151	O15	0.444000	0.270940	0.266860
O161	O16	0.342500	0.945910	0.051170
O171	O17	0.615800	0.817020	0.898720
O181	O18	0.766900	0.756020	0.182530
O191	O19	0.805000	0.886800	0.833300
O201	O20	0.056000	0.770940	0.233140
