data_ISIMAZ_freeONLY_PM
_symmetry_space_group_name_H-M	'P1'
_cell_length_a	7.216900
_cell_length_b	16.938900
_cell_length_c	17.089700
_cell_angle_alpha	90.000000
_cell_angle_beta	95.513000
_cell_angle_gamma	90.000000
_symmetry_Int_Tables_number 1

loop_
_symmetry_equiv_pos_as_xyz
'x,y,z'

loop_
_atom_site_label
_atom_site_type_symbol
_atom_site_fract_x
_atom_site_fract_y
_atom_site_fract_z
Zn11	Zn1	0.931820	0.799190	0.308640
Zn21	Zn2	0.568180	0.299190	0.191360
Zn31	Zn3	0.068180	0.200810	0.691360
Zn41	Zn4	0.431820	0.700810	0.808640
H11	H1	0.593700	0.927800	0.425700
H21	H2	0.932600	0.938900	0.447500
H31	H3	0.822500	0.017600	0.460100
H41	H4	0.246800	0.666700	0.436000
H51	H5	0.252800	0.657200	0.345100
H61	H6	0.227100	0.799300	0.534100
H71	H7	0.703500	0.868500	0.653000
H81	H8	0.470400	0.486200	0.198100
H91	H9	0.392600	0.531100	0.370800
H101	H10	0.348700	0.541000	0.458400
H111	H11	0.888000	0.724700	0.479300
H121	H12	0.614900	0.652500	0.516400
H131	H13	0.525600	0.721100	0.295300
H141	H14	0.020400	0.551400	0.410300
H151	H15	0.104700	0.467100	0.399400
H161	H16	0.153500	0.501100	0.269200
H171	H17	0.056200	0.582400	0.280800
H181	H18	0.925300	0.375100	0.272800
H191	H19	0.699200	0.586200	0.243500
H201	H20	0.906300	0.427800	0.074300
H211	H21	0.567400	0.438900	0.052500
H221	H22	0.677500	0.517600	0.039900
H231	H23	0.253200	0.166700	0.064000
H241	H24	0.247200	0.157200	0.154900
H251	H25	0.272900	0.299300	0.965900
H261	H26	0.796500	0.368500	0.847000
H271	H27	0.029600	0.986200	0.301900
H281	H28	0.107400	0.031100	0.129200
H291	H29	0.151300	0.041000	0.041600
H301	H30	0.612000	0.224700	0.020700
H311	H31	0.885100	0.152500	0.983600
H321	H32	0.974400	0.221100	0.204700
H331	H33	0.479600	0.051400	0.089700
H341	H34	0.395300	0.967100	0.100600
H351	H35	0.346500	0.001100	0.230800
H361	H36	0.443800	0.082400	0.219200
H371	H37	0.574700	0.875100	0.227200
H381	H38	0.800800	0.086200	0.256500
H391	H39	0.406300	0.072200	0.574300
H401	H40	0.067400	0.061100	0.552500
H411	H41	0.177500	0.982400	0.539900
H421	H42	0.753200	0.333300	0.564000
H431	H43	0.747200	0.342800	0.654900
H441	H44	0.772900	0.200700	0.465900
H451	H45	0.296500	0.131500	0.347000
H461	H46	0.529600	0.513800	0.801900
H471	H47	0.607400	0.468900	0.629200
H481	H48	0.651300	0.459000	0.541600
H491	H49	0.112000	0.275300	0.520700
H501	H50	0.385100	0.347500	0.483600
H511	H51	0.474400	0.278900	0.704700
H521	H52	0.979600	0.448600	0.589700
H531	H53	0.895300	0.532900	0.600600
H541	H54	0.846500	0.498900	0.730800
H551	H55	0.943800	0.417600	0.719200
H561	H56	0.074700	0.624900	0.727200
H571	H57	0.300800	0.413800	0.756500
H581	H58	0.093700	0.572200	0.925700
H591	H59	0.432600	0.561100	0.947500
H601	H60	0.322500	0.482400	0.960100
H611	H61	0.746800	0.833300	0.936000
H621	H62	0.752800	0.842800	0.845100
H631	H63	0.727100	0.700700	0.034100
H641	H64	0.203500	0.631500	0.153000
H651	H65	0.970400	0.013800	0.698100
H661	H66	0.892600	0.968900	0.870800
H671	H67	0.848700	0.959000	0.958400
H681	H68	0.388000	0.775300	0.979300
H691	H69	0.114900	0.847500	0.016400
H701	H70	0.025600	0.778900	0.795300
H711	H71	0.520400	0.948600	0.910300
H721	H72	0.604700	0.032900	0.899400
H731	H73	0.653500	0.998900	0.769200
H741	H74	0.556200	0.917600	0.780800
H751	H75	0.425300	0.124900	0.772800
H761	H76	0.199200	0.913800	0.743500
C11	C1	0.559500	0.902700	0.470600
C21	C2	0.674300	0.905700	0.541100
C31	C3	0.909900	0.979700	0.485200
C41	C4	0.315100	0.642700	0.395900
C51	C5	0.341200	0.825020	0.535640
C61	C6	0.624200	0.867200	0.606810
C71	C7	0.393300	0.861350	0.468880
C81	C8	0.268400	0.856500	0.392300
C91	C9	0.591500	0.476200	0.219500
C101	C10	0.457700	0.826600	0.605000
C111	C11	0.307600	0.555100	0.404500
C121	C12	0.406200	0.783100	0.676200
C131	C13	0.780600	0.714600	0.446300
C141	C14	0.629700	0.675000	0.467800
C151	C15	0.583300	0.713100	0.345700
C161	C16	0.109300	0.521800	0.382900
C171	C17	0.058300	0.527300	0.296200
C181	C18	0.839400	0.415100	0.260300
C191	C19	0.716600	0.531800	0.244200
C201	C20	0.940500	0.402700	0.029400
C211	C21	0.825700	0.405700	0.958900
C221	C22	0.590100	0.479700	0.014800
C231	C23	0.184900	0.142700	0.104100
C241	C24	0.158800	0.325020	0.964360
C251	C25	0.875800	0.367200	0.893190
C261	C26	0.106700	0.361350	0.031120
C271	C27	0.231600	0.356500	0.107700
C281	C28	0.908500	0.976200	0.280500
C291	C29	0.042300	0.326600	0.895000
C301	C30	0.192400	0.055100	0.095500
C311	C31	0.093800	0.283100	0.823800
C321	C32	0.719400	0.214600	0.053700
C331	C33	0.870300	0.175000	0.032200
C341	C34	0.916700	0.213100	0.154300
C351	C35	0.390700	0.021800	0.117100
C361	C36	0.441700	0.027300	0.203800
C371	C37	0.660600	0.915100	0.239700
C381	C38	0.783400	0.031800	0.255800
C391	C39	0.440500	0.097300	0.529400
C401	C40	0.325700	0.094300	0.458900
C411	C41	0.090100	0.020300	0.514800
C421	C42	0.684900	0.357300	0.604100
C431	C43	0.658800	0.174980	0.464360
C441	C44	0.375800	0.132800	0.393190
C451	C45	0.606700	0.138650	0.531120
C461	C46	0.731600	0.143500	0.607700
C471	C47	0.408500	0.523800	0.780500
C481	C48	0.542300	0.173400	0.395000
C491	C49	0.692400	0.444900	0.595500
C501	C50	0.593800	0.216900	0.323800
C511	C51	0.219400	0.285400	0.553700
C521	C52	0.370300	0.325000	0.532200
C531	C53	0.416700	0.286900	0.654300
C541	C54	0.890700	0.478200	0.617100
C551	C55	0.941700	0.472700	0.703800
C561	C56	0.160600	0.584900	0.739700
C571	C57	0.283400	0.468200	0.755800
C581	C58	0.059500	0.597300	0.970600
C591	C59	0.174300	0.594300	0.041100
C601	C60	0.409900	0.520300	0.985200
C611	C61	0.815100	0.857300	0.895900
C621	C62	0.841200	0.674980	0.035640
C631	C63	0.124200	0.632800	0.106810
C641	C64	0.893300	0.638650	0.968880
C651	C65	0.768400	0.643500	0.892300
C661	C66	0.091500	0.023800	0.719500
C671	C67	0.957700	0.673400	0.105000
C681	C68	0.807600	0.944900	0.904500
C691	C69	0.906200	0.716900	0.176200
C701	C70	0.280600	0.785400	0.946300
C711	C71	0.129700	0.825000	0.967800
C721	C72	0.083300	0.786900	0.845700
C731	C73	0.609300	0.978200	0.882900
C741	C74	0.558300	0.972700	0.796200
C751	C75	0.339400	0.084900	0.760300
C761	C76	0.216600	0.968200	0.744200
N11	N1	0.504000	0.675260	0.402460
N21	N2	0.752200	0.737490	0.369260
N31	N3	0.668100	0.403070	0.230260
N41	N4	0.875800	0.491480	0.270720
N51	N5	0.996000	0.175260	0.097540
N61	N6	0.747800	0.237490	0.130740
N71	N7	0.831900	0.903070	0.269740
N81	N8	0.624200	0.991480	0.229280
N91	N9	0.496000	0.324740	0.597540
N101	N10	0.247800	0.262510	0.630740
N111	N11	0.331900	0.596930	0.769740
N121	N12	0.124200	0.508520	0.729280
N131	N13	0.004000	0.824740	0.902460
N141	N14	0.252200	0.762510	0.869260
N151	N15	0.168100	0.096930	0.730260
N161	N16	0.375800	0.008520	0.770720
O11	O1	0.118900	0.815430	0.396710
O21	O2	0.839000	0.946670	0.551310
O31	O3	0.243900	0.760700	0.680080
O41	O4	0.310200	0.889070	0.332560
O51	O5	0.537000	0.770090	0.731530
O61	O6	0.381100	0.315430	0.103290
O71	O7	0.661000	0.446670	0.948690
O81	O8	0.256100	0.260700	0.819920
O91	O9	0.189800	0.389070	0.167440
O101	O10	0.963000	0.270090	0.768470
O111	O11	0.881100	0.184570	0.603290
O121	O12	0.161000	0.053330	0.448690
O131	O13	0.756100	0.239300	0.319920
O141	O14	0.689800	0.110930	0.667440
O151	O15	0.463000	0.229910	0.268470
O161	O16	0.618900	0.684570	0.896710
O171	O17	0.339000	0.553330	0.051310
O181	O18	0.743900	0.739300	0.180080
O191	O19	0.810200	0.610930	0.832560
O201	O20	0.037000	0.729910	0.231530
