data_ISIYUF01_freeONLY_PM
_symmetry_space_group_name_H-M	'P1'
_cell_length_a	14.616300
_cell_length_b	26.062500
_cell_length_c	12.678400
_cell_angle_alpha	90.000000
_cell_angle_beta	105.046000
_cell_angle_gamma	90.000000
_symmetry_Int_Tables_number 1

loop_
_symmetry_equiv_pos_as_xyz
'x,y,z'

loop_
_atom_site_label
_atom_site_type_symbol
_atom_site_fract_x
_atom_site_fract_y
_atom_site_fract_z
Er11	Er1	0.225330	0.465380	0.304760
Er21	Er2	0.248740	0.215810	0.181510
Er31	Er3	0.281690	0.714370	0.196050
Er41	Er4	0.243790	0.534730	0.808140
O11	O1	0.375600	0.470700	0.434100
O21	O2	0.375000	0.483100	0.265900
O31	O3	0.103600	0.255120	0.068500
O41	O4	0.101700	0.224780	0.228300
O51	O5	0.131100	0.720300	0.071900
O61	O6	0.134000	0.734750	0.239100
O71	O7	0.388600	0.499600	0.923900
O81	O8	0.391000	0.523670	0.760000
O91	O9	0.263700	0.384800	0.251900
O101	O10	0.266700	0.301080	0.230400
O111	O11	0.400500	0.192410	0.212200
O121	O12	0.553800	0.208860	0.259400
O131	O13	0.296700	0.802050	0.230800
O141	O14	0.274500	0.884710	0.245700
O151	O15	0.215400	0.553030	0.266300
O161	O16	0.246800	0.635080	0.258600
O171	O17	0.187000	0.467930	0.112500
O181	O18	0.191400	0.491030	0.946700
O191	O19	0.184100	0.512780	0.444800
O201	O20	0.188400	0.533820	0.615400
O211	O21	0.063100	0.456920	0.246700
O221	O22	0.910600	0.441860	0.225300
O231	O23	0.192200	0.405980	0.427300
O241	O24	0.202300	0.338190	0.532600
O251	O25	0.302600	0.217060	0.376100
O261	O26	0.302200	0.242040	0.542500
O271	O27	0.228500	0.133840	0.244100
O281	O28	0.229200	0.050140	0.260300
O291	O29	0.302300	0.652620	0.072600
O301	O30	0.277300	0.589020	0.955000
O311	O31	0.322400	0.759300	0.053600
O321	O32	0.327800	0.780280	0.887300
C11	C1	0.417400	0.483800	0.363700
H11	H1	0.481800	0.494200	0.385600
C21	C2	0.062300	0.246800	0.141700
H21	H2	0.998500	0.257800	0.130600
C31	C3	0.091500	0.734100	0.142200
H31	H3	0.027000	0.744400	0.120700
C41	C4	0.430500	0.504800	0.851800
H41	H4	0.494700	0.494300	0.866100
C51	C5	0.226100	0.341300	0.242500
H51	H5	0.161800	0.339100	0.244700
C61	C6	0.485700	0.181100	0.227000
H61	H6	0.498900	0.146600	0.211000
C71	C7	0.248400	0.839800	0.245700
H71	H7	0.187900	0.833300	0.257700
C81	C8	0.268000	0.589100	0.257500
H81	H8	0.329100	0.580900	0.249400
C91	C9	0.225200	0.489600	0.047700
H91	H9	0.284100	0.506300	0.077100
C101	C10	0.216300	0.509400	0.546500
H101	H10	0.266700	0.485800	0.572700
C111	C11	0.995700	0.430800	0.252300
H111	H11	0.010500	0.397300	0.281300
C121	C12	0.237000	0.375100	0.495100
H121	H12	0.303500	0.380100	0.520600
C131	C13	0.265900	0.240400	0.440300
H131	H13	0.207800	0.257900	0.411300
C141	C14	0.265600	0.091800	0.248900
H141	H14	0.329200	0.090900	0.243300
C151	C15	0.252000	0.626700	0.997600
H151	H15	0.187800	0.637100	0.970600
C161	C16	0.292300	0.757100	0.952600
H161	H16	0.238300	0.736200	0.923300
Er51	Er5	0.774670	0.965380	0.195240
Er61	Er6	0.751260	0.715810	0.318490
Er71	Er7	0.718310	0.214370	0.303950
Er81	Er8	0.756210	0.034730	0.691860
O331	O33	0.624400	0.970700	0.065900
O341	O34	0.625000	0.983100	0.234100
O351	O35	0.896400	0.755120	0.431500
O361	O36	0.898300	0.724780	0.271700
O371	O37	0.868900	0.220300	0.428100
O381	O38	0.866000	0.234750	0.260900
O391	O39	0.611400	0.999600	0.576100
O401	O40	0.609000	0.023670	0.740000
O411	O41	0.736300	0.884800	0.248100
O421	O42	0.733300	0.801080	0.269600
O431	O43	0.599500	0.692410	0.287800
O441	O44	0.446200	0.708860	0.240600
O451	O45	0.703300	0.302050	0.269200
O461	O46	0.725500	0.384710	0.254300
O471	O47	0.784600	0.053030	0.233700
O481	O48	0.753200	0.135080	0.241400
O491	O49	0.813000	0.967930	0.387500
O501	O50	0.808600	0.991030	0.553300
O511	O51	0.815900	0.012780	0.055200
O521	O52	0.811600	0.033820	0.884600
O531	O53	0.936900	0.956920	0.253300
O541	O54	0.089400	0.941860	0.274700
O551	O55	0.807800	0.905980	0.072700
O561	O56	0.797700	0.838190	0.967400
O571	O57	0.697400	0.717060	0.123900
O581	O58	0.697800	0.742040	0.957500
O591	O59	0.771500	0.633840	0.255900
O601	O60	0.770800	0.550140	0.239700
O611	O61	0.697700	0.152620	0.427400
O621	O62	0.722700	0.089020	0.545000
O631	O63	0.677600	0.259300	0.446400
O641	O64	0.672200	0.280280	0.612700
C171	C17	0.582600	0.983800	0.136300
H171	H17	0.518200	0.994200	0.114400
C181	C18	0.937700	0.746800	0.358300
H181	H18	0.001500	0.757800	0.369400
C191	C19	0.908500	0.234100	0.357800
H191	H19	0.973000	0.244400	0.379300
C201	C20	0.569500	0.004800	0.648200
H201	H20	0.505300	0.994300	0.633900
C211	C21	0.773900	0.841300	0.257500
H211	H21	0.838200	0.839100	0.255300
C221	C22	0.514300	0.681100	0.273000
H221	H22	0.501100	0.646600	0.289000
C231	C23	0.751600	0.339800	0.254300
H231	H23	0.812100	0.333300	0.242300
C241	C24	0.732000	0.089100	0.242500
H241	H24	0.670900	0.080900	0.250600
C251	C25	0.774800	0.989600	0.452300
H251	H25	0.715900	0.006300	0.422900
C261	C26	0.783700	0.009400	0.953500
H261	H26	0.733300	0.985800	0.927300
C271	C27	0.004300	0.930800	0.247700
H271	H27	0.989500	0.897300	0.218700
C281	C28	0.763000	0.875100	0.004900
H281	H28	0.696500	0.880100	0.979400
C291	C29	0.734100	0.740400	0.059700
H291	H29	0.792200	0.757900	0.088700
C301	C30	0.734400	0.591800	0.251100
H301	H30	0.670800	0.590900	0.256700
C311	C31	0.748000	0.126700	0.502400
H311	H31	0.812200	0.137100	0.529400
C321	C32	0.707700	0.257100	0.547400
H321	H32	0.761700	0.236200	0.576700
Er91	Er9	0.774670	0.534620	0.695240
Er101	Er10	0.751260	0.784190	0.818490
Er111	Er11	0.718310	0.285630	0.803950
Er121	Er12	0.756210	0.465270	0.191860
O651	O65	0.624400	0.529300	0.565900
O661	O66	0.625000	0.516900	0.734100
O671	O67	0.896400	0.744880	0.931500
O681	O68	0.898300	0.775220	0.771700
O691	O69	0.868900	0.279700	0.928100
O701	O70	0.866000	0.265250	0.760900
O711	O71	0.611400	0.500400	0.076100
O721	O72	0.609000	0.476330	0.240000
O731	O73	0.736300	0.615200	0.748100
O741	O74	0.733300	0.698920	0.769600
O751	O75	0.599500	0.807590	0.787800
O761	O76	0.446200	0.791140	0.740600
O771	O77	0.703300	0.197950	0.769200
O781	O78	0.725500	0.115290	0.754300
O791	O79	0.784600	0.446970	0.733700
O801	O80	0.753200	0.364920	0.741400
O811	O81	0.813000	0.532070	0.887500
O821	O82	0.808600	0.508970	0.053300
O831	O83	0.815900	0.487220	0.555200
O841	O84	0.811600	0.466180	0.384600
O851	O85	0.936900	0.543080	0.753300
O861	O86	0.089400	0.558140	0.774700
O871	O87	0.807800	0.594020	0.572700
O881	O88	0.797700	0.661810	0.467400
O891	O89	0.697400	0.782940	0.623900
O901	O90	0.697800	0.757960	0.457500
O911	O91	0.771500	0.866160	0.755900
O921	O92	0.770800	0.949860	0.739700
O931	O93	0.697700	0.347380	0.927400
O941	O94	0.722700	0.410980	0.045000
O951	O95	0.677600	0.240700	0.946400
O961	O96	0.672200	0.219720	0.112700
C331	C33	0.582600	0.516200	0.636300
H331	H33	0.518200	0.505800	0.614400
C341	C34	0.937700	0.753200	0.858300
H341	H34	0.001500	0.742200	0.869400
C351	C35	0.908500	0.265900	0.857800
H351	H35	0.973000	0.255600	0.879300
C361	C36	0.569500	0.495200	0.148200
H361	H36	0.505300	0.505700	0.133900
C371	C37	0.773900	0.658700	0.757500
H371	H37	0.838200	0.660900	0.755300
C381	C38	0.514300	0.818900	0.773000
H381	H38	0.501100	0.853400	0.789000
C391	C39	0.751600	0.160200	0.754300
H391	H39	0.812100	0.166700	0.742300
C401	C40	0.732000	0.410900	0.742500
H401	H40	0.670900	0.419100	0.750600
C411	C41	0.774800	0.510400	0.952300
H411	H41	0.715900	0.493700	0.922900
C421	C42	0.783700	0.490600	0.453500
H421	H42	0.733300	0.514200	0.427300
C431	C43	0.004300	0.569200	0.747700
H431	H43	0.989500	0.602700	0.718700
C441	C44	0.763000	0.624900	0.504900
H441	H44	0.696500	0.619900	0.479400
C451	C45	0.734100	0.759600	0.559700
H451	H45	0.792200	0.742100	0.588700
C461	C46	0.734400	0.908200	0.751100
H461	H46	0.670800	0.909100	0.756700
C471	C47	0.748000	0.373300	0.002400
H471	H47	0.812200	0.362900	0.029400
C481	C48	0.707700	0.242900	0.047400
H481	H48	0.761700	0.263800	0.076700
Er131	Er13	0.225330	0.034620	0.804760
Er141	Er14	0.248740	0.284190	0.681510
Er151	Er15	0.281690	0.785630	0.696050
Er161	Er16	0.243790	0.965270	0.308140
O971	O97	0.375600	0.029300	0.934100
O981	O98	0.375000	0.016900	0.765900
O991	O99	0.103600	0.244880	0.568500
O1001	O100	0.101700	0.275220	0.728300
O1011	O101	0.131100	0.779700	0.571900
O1021	O102	0.134000	0.765250	0.739100
O1031	O103	0.388600	0.000400	0.423900
O1041	O104	0.391000	0.976330	0.260000
O1051	O105	0.263700	0.115200	0.751900
O1061	O106	0.266700	0.198920	0.730400
O1071	O107	0.400500	0.307590	0.712200
O1081	O108	0.553800	0.291140	0.759400
O1091	O109	0.296700	0.697950	0.730800
O1101	O110	0.274500	0.615290	0.745700
O1111	O111	0.215400	0.946970	0.766300
O1121	O112	0.246800	0.864920	0.758600
O1131	O113	0.187000	0.032070	0.612500
O1141	O114	0.191400	0.008970	0.446700
O1151	O115	0.184100	0.987220	0.944800
O1161	O116	0.188400	0.966180	0.115400
O1171	O117	0.063100	0.043080	0.746700
O1181	O118	0.910600	0.058140	0.725300
O1191	O119	0.192200	0.094020	0.927300
O1201	O120	0.202300	0.161810	0.032600
O1211	O121	0.302600	0.282940	0.876100
O1221	O122	0.302200	0.257960	0.042500
O1231	O123	0.228500	0.366160	0.744100
O1241	O124	0.229200	0.449860	0.760300
O1251	O125	0.302300	0.847380	0.572600
O1261	O126	0.277300	0.910980	0.455000
O1271	O127	0.322400	0.740700	0.553600
O1281	O128	0.327800	0.719720	0.387300
C491	C49	0.417400	0.016200	0.863700
H491	H49	0.481800	0.005800	0.885600
C501	C50	0.062300	0.253200	0.641700
H501	H50	0.998500	0.242200	0.630600
C511	C51	0.091500	0.765900	0.642200
H511	H51	0.027000	0.755600	0.620700
C521	C52	0.430500	0.995200	0.351800
H521	H52	0.494700	0.005700	0.366100
C531	C53	0.226100	0.158700	0.742500
H531	H53	0.161800	0.160900	0.744700
C541	C54	0.485700	0.318900	0.727000
H541	H54	0.498900	0.353400	0.711000
C551	C55	0.248400	0.660200	0.745700
H551	H55	0.187900	0.666700	0.757700
C561	C56	0.268000	0.910900	0.757500
H561	H56	0.329100	0.919100	0.749400
C571	C57	0.225200	0.010400	0.547700
H571	H57	0.284100	0.993700	0.577100
C581	C58	0.216300	0.990600	0.046500
H581	H58	0.266700	0.014200	0.072700
C591	C59	0.995700	0.069200	0.752300
H591	H59	0.010500	0.102700	0.781300
C601	C60	0.237000	0.124900	0.995100
H601	H60	0.303500	0.119900	0.020600
C611	C61	0.265900	0.259600	0.940300
H611	H61	0.207800	0.242100	0.911300
C621	C62	0.265600	0.408200	0.748900
H621	H62	0.329200	0.409100	0.743300
C631	C63	0.252000	0.873300	0.497600
H631	H63	0.187800	0.862900	0.470600
C641	C64	0.292300	0.742900	0.452600
H641	H64	0.238300	0.763800	0.423300
