data_ITIWAK_freeONLY_PM
_symmetry_space_group_name_H-M	'P1'
_cell_length_a	15.834600
_cell_length_b	15.834600
_cell_length_c	21.463000
_cell_angle_alpha	90.000000
_cell_angle_beta	90.000000
_cell_angle_gamma	90.000000
_symmetry_Int_Tables_number 1

loop_
_symmetry_equiv_pos_as_xyz
'x,y,z'

loop_
_atom_site_label
_atom_site_type_symbol
_atom_site_fract_x
_atom_site_fract_y
_atom_site_fract_z
C11	C1	0.912700	0.859200	0.858000
H11	H1	0.962900	0.888300	0.846800
C21	C2	0.883200	0.797800	0.818700
H21	H2	0.913700	0.784400	0.781900
C31	C3	0.807700	0.754300	0.832700
C41	C4	0.765100	0.781800	0.885000
H31	H3	0.711300	0.758700	0.894800
C51	C5	0.799700	0.842600	0.922900
H41	H4	0.769300	0.858700	0.959100
C61	C6	0.778000	0.682200	0.794800
C71	C7	0.808100	0.663600	0.735900
H51	H5	0.849700	0.699000	0.717600
C81	C8	0.405700	0.221400	0.796500
H61	H6	0.416000	0.201000	0.837400
C91	C9	0.460400	0.279900	0.771000
H71	H7	0.509000	0.298100	0.793200
C101	C10	0.442700	0.311200	0.712800
C111	C11	0.372400	0.282900	0.679700
H81	H8	0.361200	0.305000	0.639400
C121	C12	0.496600	0.375300	0.681300
C131	C13	0.592200	0.425700	0.619200
C141	C14	0.663700	0.434400	0.575400
C151	C15	0.665100	0.506500	0.538700
H91	H9	0.620000	0.545900	0.540900
C161	C16	0.731700	0.520900	0.499000
H101	H10	0.736200	0.572700	0.476900
C171	C17	0.793700	0.456800	0.491700
H111	H11	0.835300	0.461700	0.460000
C181	C18	0.793400	0.388400	0.530000
C191	C19	0.726500	0.375300	0.570100
H121	H12	0.724000	0.325100	0.594300
C201	C20	0.860100	0.319900	0.522500
C211	C21	0.877000	0.264900	0.571300
H131	H13	0.850700	0.271500	0.610800
C221	C22	0.933600	0.200300	0.560200
H141	H14	0.942200	0.161100	0.593100
C231	C23	0.961100	0.244600	0.463900
H151	H15	0.990900	0.237900	0.425800
C241	C24	0.906300	0.311500	0.468000
H161	H16	0.900300	0.350600	0.434700
N11	N1	0.874500	0.880600	0.911600
N21	N2	0.491700	0.455900	0.683700
N31	N3	0.552700	0.489500	0.644600
N41	N4	0.559800	0.353000	0.641800
N51	N5	0.581200	0.269000	0.623300
H171	H17	0.583000	0.235200	0.657600
H181	H18	0.541000	0.249700	0.596600
N61	N6	0.976400	0.187500	0.509100
C251	C25	0.087300	0.140800	0.358000
H191	H19	0.037100	0.111700	0.346800
C261	C26	0.116800	0.202200	0.318700
H201	H20	0.086300	0.215600	0.281900
C271	C27	0.192300	0.245700	0.332700
C281	C28	0.234900	0.218200	0.385000
H211	H21	0.288700	0.241300	0.394800
C291	C29	0.200300	0.157400	0.422900
H221	H22	0.230700	0.141300	0.459100
C301	C30	0.222000	0.317800	0.294800
C311	C31	0.191900	0.336400	0.235900
H231	H23	0.150300	0.301000	0.217600
C321	C32	0.594300	0.778600	0.296500
H241	H24	0.584000	0.799000	0.337400
C331	C33	0.539600	0.720100	0.271000
H251	H25	0.491000	0.701900	0.293200
C341	C34	0.557300	0.688800	0.212800
C351	C35	0.627600	0.717100	0.179700
H261	H26	0.638800	0.695000	0.139400
C361	C36	0.503400	0.624700	0.181300
C371	C37	0.407800	0.574300	0.119200
C381	C38	0.336300	0.565600	0.075400
C391	C39	0.334900	0.493500	0.038700
H271	H27	0.380000	0.454100	0.040900
C401	C40	0.268300	0.479100	0.999000
H281	H28	0.263800	0.427300	0.976900
C411	C41	0.206300	0.543200	0.991700
H291	H29	0.164700	0.538300	0.960000
C421	C42	0.206600	0.611600	0.030000
C431	C43	0.273500	0.624700	0.070100
H301	H30	0.276000	0.674900	0.094300
C441	C44	0.139900	0.680100	0.022500
C451	C45	0.123000	0.735100	0.071300
H311	H31	0.149300	0.728500	0.110800
C461	C46	0.066400	0.799700	0.060200
H321	H32	0.057800	0.838900	0.093100
C471	C47	0.038900	0.755400	0.963900
H331	H33	0.009100	0.762100	0.925800
C481	C48	0.093700	0.688500	0.968000
H341	H34	0.099700	0.649400	0.934700
N71	N7	0.125500	0.119400	0.411600
N81	N8	0.508300	0.544100	0.183700
N91	N9	0.447300	0.510500	0.144600
N101	N10	0.440200	0.647000	0.141800
N111	N11	0.418800	0.731000	0.123300
H351	H35	0.417000	0.764800	0.157600
H361	H36	0.459000	0.750300	0.096600
N121	N12	0.023600	0.812500	0.009100
C491	C49	0.640800	0.412700	0.108000
H371	H37	0.611700	0.462900	0.096800
C501	C50	0.702200	0.383200	0.068700
H381	H38	0.715600	0.413700	0.031900
C511	C51	0.745700	0.307700	0.082700
C521	C52	0.718200	0.265100	0.135000
H391	H39	0.741300	0.211300	0.144800
C531	C53	0.657400	0.299700	0.172900
H401	H40	0.641300	0.269300	0.209100
C541	C54	0.817800	0.278000	0.044800
C551	C55	0.836400	0.308100	0.985900
H411	H41	0.801000	0.349700	0.967600
C561	C56	0.278600	0.905700	0.046500
H421	H42	0.299000	0.916000	0.087400
C571	C57	0.220100	0.960400	0.021000
H431	H43	0.201900	0.009000	0.043200
C581	C58	0.188800	0.942700	0.962800
C591	C59	0.217100	0.872400	0.929700
H441	H44	0.195000	0.861200	0.889400
C601	C60	0.124700	0.996600	0.931300
C611	C61	0.074300	0.092200	0.869200
C621	C62	0.065600	0.163700	0.825400
C631	C63	0.993500	0.165100	0.788700
H451	H45	0.954100	0.120000	0.790900
C641	C64	0.979100	0.231700	0.749000
H461	H46	0.927300	0.236200	0.726900
C651	C65	0.043200	0.293700	0.741700
H471	H47	0.038300	0.335300	0.710000
C661	C66	0.111600	0.293400	0.780000
C671	C67	0.124700	0.226500	0.820100
H481	H48	0.174900	0.224000	0.844300
C681	C68	0.180100	0.360100	0.772500
C691	C69	0.235100	0.377000	0.821300
H491	H49	0.228500	0.350700	0.860800
C701	C70	0.299700	0.433600	0.810200
H501	H50	0.338900	0.442200	0.843100
C711	C71	0.255400	0.461100	0.713900
H511	H51	0.262100	0.490900	0.675800
C721	C72	0.188500	0.406300	0.718000
H521	H52	0.149400	0.400300	0.684700
N131	N13	0.619400	0.374500	0.161600
N141	N14	0.044100	0.991700	0.933700
N151	N15	0.010500	0.052700	0.894600
N161	N16	0.147000	0.059800	0.891800
N171	N17	0.231000	0.081200	0.873300
H531	H53	0.264800	0.083000	0.907600
H541	H54	0.250300	0.041000	0.846600
N181	N18	0.312500	0.476400	0.759100
C731	C73	0.359200	0.587300	0.608000
H551	H55	0.388300	0.537100	0.596800
C741	C74	0.297800	0.616800	0.568700
H561	H56	0.284400	0.586300	0.531900
C751	C75	0.254300	0.692300	0.582700
C761	C76	0.281800	0.734900	0.635000
H571	H57	0.258700	0.788700	0.644800
C771	C77	0.342600	0.700300	0.672900
H581	H58	0.358700	0.730700	0.709100
C781	C78	0.182200	0.722000	0.544800
C791	C79	0.163600	0.691900	0.485900
H591	H59	0.199000	0.650300	0.467600
C801	C80	0.721400	0.094300	0.546500
H601	H60	0.701000	0.084000	0.587400
C811	C81	0.779900	0.039600	0.521000
H611	H61	0.798100	0.991000	0.543200
C821	C82	0.811200	0.057300	0.462800
C831	C83	0.782900	0.127600	0.429700
H621	H62	0.805000	0.138800	0.389400
C841	C84	0.875300	0.003400	0.431300
C851	C85	0.925700	0.907800	0.369200
C861	C86	0.934400	0.836300	0.325400
C871	C87	0.006500	0.834900	0.288700
H631	H63	0.045900	0.880000	0.290900
C881	C88	0.020900	0.768300	0.249000
H641	H64	0.072700	0.763800	0.226900
C891	C89	0.956800	0.706300	0.241700
H651	H65	0.961700	0.664700	0.210000
C901	C90	0.888400	0.706600	0.280000
C911	C91	0.875300	0.773500	0.320100
H661	H66	0.825100	0.776000	0.344300
C921	C92	0.819900	0.639900	0.272500
C931	C93	0.764900	0.623000	0.321300
H671	H67	0.771500	0.649300	0.360800
C941	C94	0.700300	0.566400	0.310200
H681	H68	0.661100	0.557800	0.343100
C951	C95	0.744600	0.538900	0.213900
H691	H69	0.737900	0.509100	0.175800
C961	C96	0.811500	0.593700	0.218000
H701	H70	0.850600	0.599700	0.184700
N191	N19	0.380600	0.625500	0.661600
N201	N20	0.955900	0.008300	0.433700
N211	N21	0.989500	0.947300	0.394600
N221	N22	0.853000	0.940200	0.391800
N231	N23	0.769000	0.918800	0.373300
H711	H71	0.735200	0.917000	0.407600
H721	H72	0.749700	0.959000	0.346600
N241	N24	0.687500	0.523600	0.259100
C971	C97	0.587300	0.359200	0.392000
H731	H73	0.537100	0.388300	0.403200
C981	C98	0.616800	0.297800	0.431300
H741	H74	0.586300	0.284400	0.468100
C991	C99	0.692300	0.254300	0.417300
C1001	C100	0.734900	0.281800	0.365000
H751	H75	0.788700	0.258700	0.355200
C1011	C101	0.700300	0.342600	0.327100
H761	H76	0.730700	0.358700	0.290900
C1021	C102	0.722000	0.182200	0.455200
C1031	C103	0.691900	0.163600	0.514100
H771	H77	0.650300	0.199000	0.532400
C1041	C104	0.094300	0.721400	0.453500
H781	H78	0.084000	0.701000	0.412600
C1051	C105	0.039600	0.779900	0.479000
H791	H79	0.991000	0.798100	0.456800
C1061	C106	0.057300	0.811200	0.537200
C1071	C107	0.127600	0.782900	0.570300
H801	H80	0.138800	0.805000	0.610600
C1081	C108	0.003400	0.875300	0.568700
C1091	C109	0.907800	0.925700	0.630800
C1101	C110	0.836300	0.934400	0.674600
C1111	C111	0.834900	0.006500	0.711300
H811	H81	0.880000	0.045900	0.709100
C1121	C112	0.768300	0.020900	0.751000
H821	H82	0.763800	0.072700	0.773100
C1131	C113	0.706300	0.956800	0.758300
H831	H83	0.664700	0.961700	0.790000
C1141	C114	0.706600	0.888400	0.720000
C1151	C115	0.773500	0.875300	0.679900
H841	H84	0.776000	0.825100	0.655700
C1161	C116	0.639900	0.819900	0.727500
C1171	C117	0.623000	0.764900	0.678700
H851	H85	0.649300	0.771500	0.639200
C1181	C118	0.566400	0.700300	0.689800
H861	H86	0.557800	0.661100	0.656900
C1191	C119	0.538900	0.744600	0.786100
H871	H87	0.509100	0.737900	0.824200
C1201	C120	0.593700	0.811500	0.782000
H881	H88	0.599700	0.850600	0.815300
N251	N25	0.625500	0.380600	0.338400
N261	N26	0.008300	0.955900	0.566300
N271	N27	0.947300	0.989500	0.605400
N281	N28	0.940200	0.853000	0.608200
N291	N29	0.918800	0.769000	0.626700
H891	H89	0.917000	0.735200	0.592400
H901	H90	0.959000	0.749700	0.653400
N301	N30	0.523600	0.687500	0.740900
C1211	C121	0.412700	0.640800	0.892000
H911	H91	0.462900	0.611700	0.903200
C1221	C122	0.383200	0.702200	0.931300
H921	H92	0.413700	0.715600	0.968100
C1231	C123	0.307700	0.745700	0.917300
C1241	C124	0.265100	0.718200	0.865000
H931	H93	0.211300	0.741300	0.855200
C1251	C125	0.299700	0.657400	0.827100
H941	H94	0.269300	0.641300	0.790900
C1261	C126	0.278000	0.817800	0.955200
C1271	C127	0.308100	0.836400	0.014100
H951	H95	0.349700	0.801000	0.032400
C1281	C128	0.905700	0.278600	0.953500
H961	H96	0.916000	0.299000	0.912600
C1291	C129	0.960400	0.220100	0.979000
H971	H97	0.009000	0.201900	0.956800
C1301	C130	0.942700	0.188800	0.037200
C1311	C131	0.872400	0.217100	0.070300
H981	H98	0.861200	0.195000	0.110600
C1321	C132	0.996600	0.124700	0.068700
C1331	C133	0.092200	0.074300	0.130800
C1341	C134	0.163700	0.065600	0.174600
C1351	C135	0.165100	0.993500	0.211300
H991	H99	0.120000	0.954100	0.209100
C1361	C136	0.231700	0.979100	0.251000
H1001	H100	0.236200	0.927300	0.273100
C1371	C137	0.293700	0.043200	0.258300
H1011	H101	0.335300	0.038300	0.290000
C1381	C138	0.293400	0.111600	0.220000
C1391	C139	0.226500	0.124700	0.179900
H1021	H102	0.224000	0.174900	0.155700
C1401	C140	0.360100	0.180100	0.227500
C1411	C141	0.377000	0.235100	0.178700
H1031	H103	0.350700	0.228500	0.139200
C1421	C142	0.433600	0.299700	0.189800
H1041	H104	0.442200	0.338900	0.156900
C1431	C143	0.461100	0.255400	0.286100
H1051	H105	0.490900	0.262100	0.324200
C1441	C144	0.406300	0.188500	0.282000
H1061	H106	0.400300	0.149400	0.315300
N311	N31	0.374500	0.619400	0.838400
N321	N32	0.991700	0.044100	0.066300
N331	N33	0.052700	0.010500	0.105400
N341	N34	0.059800	0.147000	0.108200
N351	N35	0.081200	0.231000	0.126700
H1071	H107	0.083000	0.264800	0.092400
H1081	H108	0.041000	0.250300	0.153400
N361	N36	0.476400	0.312500	0.240900
C1451	C145	0.859200	0.912700	0.142000
H1091	H109	0.888300	0.962900	0.153200
C1461	C146	0.797800	0.883200	0.181300
H1101	H110	0.784400	0.913700	0.218100
C1471	C147	0.754300	0.807700	0.167300
C1481	C148	0.781800	0.765100	0.115000
H1111	H111	0.758700	0.711300	0.105200
C1491	C149	0.842600	0.799700	0.077100
H1121	H112	0.858700	0.769300	0.040900
C1501	C150	0.682200	0.778000	0.205200
C1511	C151	0.663600	0.808100	0.264100
H1131	H113	0.699000	0.849700	0.282400
C1521	C152	0.221400	0.405700	0.203500
H1141	H114	0.201000	0.416000	0.162600
C1531	C153	0.279900	0.460400	0.229000
H1151	H115	0.298100	0.509000	0.206800
C1541	C154	0.311200	0.442700	0.287200
C1551	C155	0.282900	0.372400	0.320300
H1161	H116	0.305000	0.361200	0.360600
C1561	C156	0.375300	0.496600	0.318700
C1571	C157	0.425700	0.592200	0.380800
C1581	C158	0.434400	0.663700	0.424600
C1591	C159	0.506500	0.665100	0.461300
H1171	H117	0.545900	0.620000	0.459100
C1601	C160	0.520900	0.731700	0.501000
H1181	H118	0.572700	0.736200	0.523100
C1611	C161	0.456800	0.793700	0.508300
H1191	H119	0.461700	0.835300	0.540000
C1621	C162	0.388400	0.793400	0.470000
C1631	C163	0.375300	0.726500	0.429900
H1201	H120	0.325100	0.724000	0.405700
C1641	C164	0.319900	0.860100	0.477500
C1651	C165	0.264900	0.877000	0.428700
H1211	H121	0.271500	0.850700	0.389200
C1661	C166	0.200300	0.933600	0.439800
H1221	H122	0.161100	0.942200	0.406900
C1671	C167	0.244600	0.961100	0.536100
H1231	H123	0.237900	0.990900	0.574200
C1681	C168	0.311500	0.906300	0.532000
H1241	H124	0.350600	0.900300	0.565300
N371	N37	0.880600	0.874500	0.088400
N381	N38	0.455900	0.491700	0.316300
N391	N39	0.489500	0.552700	0.355400
N401	N40	0.353000	0.559800	0.358200
N411	N41	0.269000	0.581200	0.376700
H1251	H125	0.235200	0.583000	0.342400
H1261	H126	0.249700	0.541000	0.403400
N421	N42	0.187500	0.976400	0.490900
C1691	C169	0.140800	0.087300	0.642000
H1271	H127	0.111700	0.037100	0.653200
C1701	C170	0.202200	0.116800	0.681300
H1281	H128	0.215600	0.086300	0.718100
C1711	C171	0.245700	0.192300	0.667300
C1721	C172	0.218200	0.234900	0.615000
H1291	H129	0.241300	0.288700	0.605200
C1731	C173	0.157400	0.200300	0.577100
H1301	H130	0.141300	0.230700	0.540900
C1741	C174	0.317800	0.222000	0.705200
C1751	C175	0.336400	0.191900	0.764100
H1311	H131	0.301000	0.150300	0.782400
C1761	C176	0.778600	0.594300	0.703500
H1321	H132	0.799000	0.584000	0.662600
C1771	C177	0.720100	0.539600	0.729000
H1331	H133	0.701900	0.491000	0.706800
C1781	C178	0.688800	0.557300	0.787200
C1791	C179	0.717100	0.627600	0.820300
H1341	H134	0.695000	0.638800	0.860600
C1801	C180	0.624700	0.503400	0.818700
C1811	C181	0.574300	0.407800	0.880800
C1821	C182	0.565600	0.336300	0.924600
C1831	C183	0.493500	0.334900	0.961300
H1351	H135	0.454100	0.380000	0.959100
C1841	C184	0.479100	0.268300	0.001000
H1361	H136	0.427300	0.263800	0.023100
C1851	C185	0.543200	0.206300	0.008300
H1371	H137	0.538300	0.164700	0.040000
C1861	C186	0.611600	0.206600	0.970000
C1871	C187	0.624700	0.273500	0.929900
H1381	H138	0.674900	0.276000	0.905700
C1881	C188	0.680100	0.139900	0.977500
C1891	C189	0.735100	0.123000	0.928700
H1391	H139	0.728500	0.149300	0.889200
C1901	C190	0.799700	0.066400	0.939800
H1401	H140	0.838900	0.057800	0.906900
C1911	C191	0.755400	0.038900	0.036100
H1411	H141	0.762100	0.009100	0.074200
C1921	C192	0.688500	0.093700	0.032000
H1421	H142	0.649400	0.099700	0.065300
N431	N43	0.119400	0.125500	0.588400
N441	N44	0.544100	0.508300	0.816300
N451	N45	0.510500	0.447300	0.855400
N461	N46	0.647000	0.440200	0.858200
N471	N47	0.731000	0.418800	0.876700
H1431	H143	0.764800	0.417000	0.842400
H1441	H144	0.750300	0.459000	0.903400
N481	N48	0.812500	0.023600	0.990900
Cd11	Cd1	0.439790	0.560210	0.750000
Cd21	Cd2	0.560210	0.439790	0.250000
Cd31	Cd3	0.939790	0.939790	0.000000
Cd41	Cd4	0.060210	0.060210	0.500000
