data_ITIWOY_charged_PM
_symmetry_space_group_name_H-M	'P1'
_cell_length_a	15.876300
_cell_length_b	15.876300
_cell_length_c	21.507000
_cell_angle_alpha	90.000000
_cell_angle_beta	90.000000
_cell_angle_gamma	90.000000
_symmetry_Int_Tables_number 1

loop_
_symmetry_equiv_pos_as_xyz
'x,y,z'

loop_
_atom_site_label
_atom_site_type_symbol
_atom_site_fract_x
_atom_site_fract_y
_atom_site_fract_z
Cd11	Cd1	0.441100	0.441100	0.000000
Cd21	Cd2	0.558900	0.558900	0.500000
Cd31	Cd3	0.058900	0.941100	0.250000
Cd41	Cd4	0.941100	0.058900	0.750000
H11	H1	0.986700	0.768300	0.326600
H21	H2	0.893100	0.655000	0.317200
H31	H3	0.850600	0.729200	0.139800
H41	H4	0.946500	0.836600	0.154700
H51	H5	0.836100	0.536700	0.290600
H61	H6	0.732500	0.432900	0.277500
H71	H7	0.622700	0.454300	0.209100
H81	H8	0.724200	0.674900	0.155300
H91	H9	0.505000	0.699600	0.956000
H101	H10	0.412400	0.798500	0.913100
H111	H11	0.298600	0.846300	0.966800
H121	H12	0.362300	0.697200	0.112500
H131	H13	0.214000	0.911200	0.031700
H141	H14	0.111000	0.961500	0.097900
H151	H15	0.142200	0.771100	0.211200
H161	H16	0.242900	0.712300	0.147800
H171	H17	0.597300	0.760100	0.096900
H181	H18	0.531300	0.754000	0.145700
H191	H19	0.013300	0.231700	0.826600
H201	H20	0.106900	0.345000	0.817200
H211	H21	0.149400	0.270800	0.639800
H221	H22	0.053500	0.163400	0.654700
H231	H23	0.163900	0.463300	0.790600
H241	H24	0.267500	0.567100	0.777500
H251	H25	0.377300	0.545700	0.709100
H261	H26	0.275800	0.325100	0.655300
H271	H27	0.495000	0.300400	0.456000
H281	H28	0.587600	0.201500	0.413100
H291	H29	0.701400	0.153700	0.466800
H301	H30	0.637700	0.302800	0.612500
H311	H31	0.786000	0.088800	0.531700
H321	H32	0.889000	0.038500	0.597900
H331	H33	0.857800	0.228900	0.711200
H341	H34	0.757100	0.287700	0.647800
H351	H35	0.402700	0.239900	0.596900
H361	H36	0.468700	0.246000	0.645700
H371	H37	0.731700	0.486700	0.576600
H381	H38	0.845000	0.393100	0.567200
H391	H39	0.770800	0.350600	0.389800
H401	H40	0.663400	0.446500	0.404700
H411	H41	0.963300	0.336100	0.540600
H421	H42	0.067100	0.232500	0.527500
H431	H43	0.045700	0.122700	0.459100
H441	H44	0.825100	0.224200	0.405300
H451	H45	0.800400	0.005000	0.206000
H461	H46	0.701500	0.912400	0.163100
H471	H47	0.653700	0.798600	0.216800
H481	H48	0.802800	0.862300	0.362500
H491	H49	0.588800	0.714000	0.281700
H501	H50	0.538500	0.611000	0.347900
H511	H51	0.728900	0.642200	0.461200
H521	H52	0.787700	0.742900	0.397800
H531	H53	0.739900	0.097300	0.346900
H541	H54	0.746000	0.031300	0.395700
H551	H55	0.268300	0.513300	0.076600
H561	H56	0.155000	0.606900	0.067200
H571	H57	0.229200	0.649400	0.889800
H581	H58	0.336600	0.553500	0.904700
H591	H59	0.036700	0.663900	0.040600
H601	H60	0.932900	0.767500	0.027500
H611	H61	0.954300	0.877300	0.959100
H621	H62	0.174900	0.775800	0.905300
H631	H63	0.199600	0.995000	0.706000
H641	H64	0.298500	0.087600	0.663100
H651	H65	0.346300	0.201400	0.716800
H661	H66	0.197200	0.137700	0.862500
H671	H67	0.411200	0.286000	0.781700
H681	H68	0.461500	0.389000	0.847900
H691	H69	0.271100	0.357800	0.961200
H701	H70	0.212300	0.257100	0.897800
H711	H71	0.260100	0.902700	0.846900
H721	H72	0.254000	0.968700	0.895700
H731	H73	0.513300	0.268300	0.923400
H741	H74	0.606900	0.155000	0.932800
H751	H75	0.649400	0.229200	0.110200
H761	H76	0.553500	0.336600	0.095300
H771	H77	0.663900	0.036700	0.959400
H781	H78	0.767500	0.932900	0.972500
H791	H79	0.877300	0.954300	0.040900
H801	H80	0.775800	0.174900	0.094700
H811	H81	0.995000	0.199600	0.294000
H821	H82	0.087600	0.298500	0.336900
H831	H83	0.201400	0.346300	0.283200
H841	H84	0.137700	0.197200	0.137500
H851	H85	0.286000	0.411200	0.218300
H861	H86	0.389000	0.461500	0.152100
H871	H87	0.357800	0.271100	0.038800
H881	H88	0.257100	0.212300	0.102200
H891	H89	0.902700	0.260100	0.153100
H901	H90	0.968700	0.254000	0.104300
H911	H91	0.486700	0.731700	0.423400
H921	H92	0.393100	0.845000	0.432800
H931	H93	0.350600	0.770800	0.610200
H941	H94	0.446500	0.663400	0.595300
H951	H95	0.336100	0.963300	0.459400
H961	H96	0.232500	0.067100	0.472500
H971	H97	0.122700	0.045700	0.540900
H981	H98	0.224200	0.825100	0.594700
H991	H99	0.005000	0.800400	0.794000
H1001	H100	0.912400	0.701500	0.836900
H1011	H101	0.798600	0.653700	0.783200
H1021	H102	0.862300	0.802800	0.637500
H1031	H103	0.714000	0.588800	0.718300
H1041	H104	0.611000	0.538500	0.652100
H1051	H105	0.642200	0.728900	0.538800
H1061	H106	0.742900	0.787700	0.602200
H1071	H107	0.097300	0.739900	0.653100
H1081	H108	0.031300	0.746000	0.604300
H1091	H109	0.768300	0.986700	0.673400
H1101	H110	0.655000	0.893100	0.682800
H1111	H111	0.729200	0.850600	0.860200
H1121	H112	0.836600	0.946500	0.845300
H1131	H113	0.536700	0.836100	0.709400
H1141	H114	0.432900	0.732500	0.722500
H1151	H115	0.454300	0.622700	0.790900
H1161	H116	0.674900	0.724200	0.844700
H1171	H117	0.699600	0.505000	0.044000
H1181	H118	0.798500	0.412400	0.086900
H1191	H119	0.846300	0.298600	0.033200
H1201	H120	0.697200	0.362300	0.887500
H1211	H121	0.911200	0.214000	0.968300
H1221	H122	0.961500	0.111000	0.902100
H1231	H123	0.771100	0.142200	0.788800
H1241	H124	0.712300	0.242900	0.852200
H1251	H125	0.760100	0.597300	0.903100
H1261	H126	0.754000	0.531300	0.854300
H1271	H127	0.231700	0.013300	0.173400
H1281	H128	0.345000	0.106900	0.182800
H1291	H129	0.270800	0.149400	0.360200
H1301	H130	0.163400	0.053500	0.345300
H1311	H131	0.463300	0.163900	0.209400
H1321	H132	0.567100	0.267500	0.222500
H1331	H133	0.545700	0.377300	0.290900
H1341	H134	0.325100	0.275800	0.344700
H1351	H135	0.300400	0.495000	0.544000
H1361	H136	0.201500	0.587600	0.586900
H1371	H137	0.153700	0.701400	0.533200
H1381	H138	0.302800	0.637700	0.387500
H1391	H139	0.088800	0.786000	0.468300
H1401	H140	0.038500	0.889000	0.402100
H1411	H141	0.228900	0.857800	0.288800
H1421	H142	0.287700	0.757100	0.352200
H1431	H143	0.239900	0.402700	0.403100
H1441	H144	0.246000	0.468700	0.354300
C11	C1	0.958400	0.760200	0.288200
C21	C2	0.901600	0.692200	0.283200
C31	C3	0.858600	0.680600	0.228200
C41	C4	0.877200	0.735900	0.179000
C51	C5	0.934500	0.799800	0.188400
C61	C6	0.792700	0.614300	0.221900
C71	C7	0.793300	0.543600	0.260100
C81	C8	0.730400	0.483000	0.253500
C91	C9	0.666000	0.495300	0.212500
C101	C10	0.662800	0.566400	0.175900
C111	C11	0.726100	0.625800	0.180500
C121	C12	0.592100	0.575400	0.131700
C131	C13	0.497200	0.625900	0.069600
C141	C14	0.441600	0.689000	0.039300
C151	C15	0.457700	0.719000	0.979000
C161	C16	0.402400	0.777800	0.953900
C171	C17	0.335100	0.806400	0.985600
C181	C18	0.317900	0.777500	0.047100
C191	C19	0.372600	0.718300	0.071900
C201	C20	0.246200	0.808400	0.083900
C211	C21	0.201900	0.881800	0.069100
C221	C22	0.140200	0.911500	0.109100
C231	C23	0.158200	0.800500	0.174500
C241	C24	0.219200	0.765400	0.137400
C251	C25	0.041600	0.239800	0.788200
C261	C26	0.098400	0.307800	0.783200
C271	C27	0.141400	0.319400	0.728200
C281	C28	0.122800	0.264100	0.679000
C291	C29	0.065500	0.200200	0.688400
C301	C30	0.207300	0.385700	0.721900
C311	C31	0.206700	0.456400	0.760100
C321	C32	0.269600	0.517000	0.753500
C331	C33	0.334000	0.504700	0.712500
C341	C34	0.337200	0.433600	0.675900
C351	C35	0.273900	0.374200	0.680500
C361	C36	0.407900	0.424600	0.631700
C371	C37	0.502800	0.374100	0.569600
C381	C38	0.558400	0.311000	0.539300
C391	C39	0.542300	0.281000	0.479000
C401	C40	0.597600	0.222200	0.453900
C411	C41	0.664900	0.193600	0.485600
C421	C42	0.682100	0.222500	0.547100
C431	C43	0.627400	0.281700	0.571900
C441	C44	0.753800	0.191600	0.583900
C451	C45	0.798100	0.118200	0.569100
C461	C46	0.859800	0.088500	0.609100
C471	C47	0.841800	0.199500	0.674500
C481	C48	0.780800	0.234600	0.637400
C491	C49	0.739800	0.458400	0.538200
C501	C50	0.807800	0.401600	0.533200
C511	C51	0.819400	0.358600	0.478200
C521	C52	0.764100	0.377200	0.429000
C531	C53	0.700200	0.434500	0.438400
C541	C54	0.885700	0.292700	0.471900
C551	C55	0.956400	0.293300	0.510100
C561	C56	0.017000	0.230400	0.503500
C571	C57	0.004700	0.166000	0.462500
C581	C58	0.933600	0.162800	0.425900
C591	C59	0.874200	0.226100	0.430500
C601	C60	0.924600	0.092100	0.381700
C611	C61	0.874100	0.997200	0.319600
C621	C62	0.811000	0.941600	0.289300
C631	C63	0.781000	0.957700	0.229000
C641	C64	0.722200	0.902400	0.203900
C651	C65	0.693600	0.835100	0.235600
C661	C66	0.722500	0.817900	0.297100
C671	C67	0.781700	0.872600	0.321900
C681	C68	0.691600	0.746200	0.333900
C691	C69	0.618200	0.701900	0.319100
C701	C70	0.588500	0.640200	0.359100
C711	C71	0.699500	0.658200	0.424500
C721	C72	0.734600	0.719200	0.387400
C731	C73	0.260200	0.541600	0.038200
C741	C74	0.192200	0.598400	0.033200
C751	C75	0.180600	0.641400	0.978200
C761	C76	0.235900	0.622800	0.929000
C771	C77	0.299800	0.565500	0.938400
C781	C78	0.114300	0.707300	0.971900
C791	C79	0.043600	0.706700	0.010100
C801	C80	0.983000	0.769600	0.003500
C811	C81	0.995300	0.834000	0.962500
C821	C82	0.066400	0.837200	0.925900
C831	C83	0.125800	0.773900	0.930500
C841	C84	0.075400	0.907900	0.881700
C851	C85	0.125900	0.002800	0.819600
C861	C86	0.189000	0.058400	0.789300
C871	C87	0.219000	0.042300	0.729000
C881	C88	0.277800	0.097600	0.703900
C891	C89	0.306400	0.164900	0.735600
C901	C90	0.277500	0.182100	0.797100
C911	C91	0.218300	0.127400	0.821900
C921	C92	0.308400	0.253800	0.833900
C931	C93	0.381800	0.298100	0.819100
C941	C94	0.411500	0.359800	0.859100
C951	C95	0.300500	0.341800	0.924500
C961	C96	0.265400	0.280800	0.887400
C971	C97	0.541600	0.260200	0.961800
C981	C98	0.598400	0.192200	0.966800
C991	C99	0.641400	0.180600	0.021800
C1001	C100	0.622800	0.235900	0.071000
C1011	C101	0.565500	0.299800	0.061600
C1021	C102	0.707300	0.114300	0.028100
C1031	C103	0.706700	0.043600	0.989900
C1041	C104	0.769600	0.983000	0.996500
C1051	C105	0.834000	0.995300	0.037500
C1061	C106	0.837200	0.066400	0.074100
C1071	C107	0.773900	0.125800	0.069500
C1081	C108	0.907900	0.075400	0.118300
C1091	C109	0.002800	0.125900	0.180400
C1101	C110	0.058400	0.189000	0.210700
C1111	C111	0.042300	0.219000	0.271000
C1121	C112	0.097600	0.277800	0.296100
C1131	C113	0.164900	0.306400	0.264400
C1141	C114	0.182100	0.277500	0.202900
C1151	C115	0.127400	0.218300	0.178100
C1161	C116	0.253800	0.308400	0.166100
C1171	C117	0.298100	0.381800	0.180900
C1181	C118	0.359800	0.411500	0.140900
C1191	C119	0.341800	0.300500	0.075500
C1201	C120	0.280800	0.265400	0.112600
C1211	C121	0.458400	0.739800	0.461800
C1221	C122	0.401600	0.807800	0.466800
C1231	C123	0.358600	0.819400	0.521800
C1241	C124	0.377200	0.764100	0.571000
C1251	C125	0.434500	0.700200	0.561600
C1261	C126	0.292700	0.885700	0.528100
C1271	C127	0.293300	0.956400	0.489900
C1281	C128	0.230400	0.017000	0.496500
C1291	C129	0.166000	0.004700	0.537500
C1301	C130	0.162800	0.933600	0.574100
C1311	C131	0.226100	0.874200	0.569500
C1321	C132	0.092100	0.924600	0.618300
C1331	C133	0.997200	0.874100	0.680400
C1341	C134	0.941600	0.811000	0.710700
C1351	C135	0.957700	0.781000	0.771000
C1361	C136	0.902400	0.722200	0.796100
C1371	C137	0.835100	0.693600	0.764400
C1381	C138	0.817900	0.722500	0.702900
C1391	C139	0.872600	0.781700	0.678100
C1401	C140	0.746200	0.691600	0.666100
C1411	C141	0.701900	0.618200	0.680900
C1421	C142	0.640200	0.588500	0.640900
C1431	C143	0.658200	0.699500	0.575500
C1441	C144	0.719200	0.734600	0.612600
C1451	C145	0.760200	0.958400	0.711800
C1461	C146	0.692200	0.901600	0.716800
C1471	C147	0.680600	0.858600	0.771800
C1481	C148	0.735900	0.877200	0.821000
C1491	C149	0.799800	0.934500	0.811600
C1501	C150	0.614300	0.792700	0.778100
C1511	C151	0.543600	0.793300	0.739900
C1521	C152	0.483000	0.730400	0.746500
C1531	C153	0.495300	0.666000	0.787500
C1541	C154	0.566400	0.662800	0.824100
C1551	C155	0.625800	0.726100	0.819500
C1561	C156	0.575400	0.592100	0.868300
C1571	C157	0.625900	0.497200	0.930400
C1581	C158	0.689000	0.441600	0.960700
C1591	C159	0.719000	0.457700	0.021000
C1601	C160	0.777800	0.402400	0.046100
C1611	C161	0.806400	0.335100	0.014400
C1621	C162	0.777500	0.317900	0.952900
C1631	C163	0.718300	0.372600	0.928100
C1641	C164	0.808400	0.246200	0.916100
C1651	C165	0.881800	0.201900	0.930900
C1661	C166	0.911500	0.140200	0.890900
C1671	C167	0.800500	0.158200	0.825500
C1681	C168	0.765400	0.219200	0.862600
C1691	C169	0.239800	0.041600	0.211800
C1701	C170	0.307800	0.098400	0.216800
C1711	C171	0.319400	0.141400	0.271800
C1721	C172	0.264100	0.122800	0.321000
C1731	C173	0.200200	0.065500	0.311600
C1741	C174	0.385700	0.207300	0.278100
C1751	C175	0.456400	0.206700	0.239900
C1761	C176	0.517000	0.269600	0.246500
C1771	C177	0.504700	0.334000	0.287500
C1781	C178	0.433600	0.337200	0.324100
C1791	C179	0.374200	0.273900	0.319500
C1801	C180	0.424600	0.407900	0.368300
C1811	C181	0.374100	0.502800	0.430400
C1821	C182	0.311000	0.558400	0.460700
C1831	C183	0.281000	0.542300	0.521000
C1841	C184	0.222200	0.597600	0.546100
C1851	C185	0.193600	0.664900	0.514400
C1861	C186	0.222500	0.682100	0.452900
C1871	C187	0.281700	0.627400	0.428100
C1881	C188	0.191600	0.753800	0.416100
C1891	C189	0.118200	0.798100	0.430900
C1901	C190	0.088500	0.859800	0.390900
C1911	C191	0.199500	0.841800	0.325500
C1921	C192	0.234600	0.780800	0.362600
N11	N1	0.553700	0.511500	0.105600
N21	N2	0.492900	0.543500	0.067200
N31	N3	0.558500	0.647300	0.110000
N41	N4	0.578300	0.729300	0.129800
N51	N5	0.974200	0.812700	0.242600
N61	N6	0.119600	0.874100	0.162100
N71	N7	0.446300	0.488500	0.605600
N81	N8	0.507100	0.456500	0.567200
N91	N9	0.441500	0.352700	0.610000
N101	N10	0.421700	0.270700	0.629800
N111	N11	0.025800	0.187300	0.742600
N121	N12	0.880400	0.125900	0.662100
N131	N13	0.988500	0.053700	0.355600
N141	N14	0.956500	0.992900	0.317200
N151	N15	0.852700	0.058500	0.360000
N161	N16	0.770700	0.078300	0.379800
N171	N17	0.687300	0.474200	0.492600
N181	N18	0.625900	0.619600	0.412100
N191	N19	0.011500	0.946300	0.855600
N201	N20	0.043500	0.007100	0.817200
N211	N21	0.147300	0.941500	0.860000
N221	N22	0.229300	0.921700	0.879800
N231	N23	0.312700	0.525800	0.992600
N241	N24	0.374100	0.380400	0.912100
N251	N25	0.946300	0.011500	0.144400
N261	N26	0.007100	0.043500	0.182800
N271	N27	0.941500	0.147300	0.140000
N281	N28	0.921700	0.229300	0.120200
N291	N29	0.525800	0.312700	0.007400
N301	N30	0.380400	0.374100	0.087900
N311	N31	0.053700	0.988500	0.644400
N321	N32	0.992900	0.956500	0.682800
N331	N33	0.058500	0.852700	0.640000
N341	N34	0.078300	0.770700	0.620200
N351	N35	0.474200	0.687300	0.507400
N361	N36	0.619600	0.625900	0.587900
N371	N37	0.511500	0.553700	0.894400
N381	N38	0.543500	0.492900	0.932800
N391	N39	0.647300	0.558500	0.890000
N401	N40	0.729300	0.578300	0.870200
N411	N41	0.812700	0.974200	0.757400
N421	N42	0.874100	0.119600	0.837900
N431	N43	0.488500	0.446300	0.394400
N441	N44	0.456500	0.507100	0.432800
N451	N45	0.352700	0.441500	0.390000
N461	N46	0.270700	0.421700	0.370200
N471	N47	0.187300	0.025800	0.257400
N481	N48	0.125900	0.880400	0.337900
Cl11	Cl1	0.618600	0.381400	0.750000
O11	O1	0.614000	0.315800	0.787100
O21	O2	0.650000	0.441700	0.786200
O31	O3	0.684200	0.386000	0.712900
O41	O4	0.558300	0.350000	0.713800
Cl21	Cl2	0.381400	0.618600	0.250000
O51	O5	0.386000	0.684200	0.287100
O61	O6	0.350000	0.558300	0.286200
O71	O7	0.315800	0.614000	0.212900
O81	O8	0.441700	0.650000	0.213800
Cl31	Cl3	0.118600	0.118600	0.000000
O91	O9	0.184200	0.114000	0.037100
O101	O10	0.058300	0.150000	0.036200
O111	O11	0.114000	0.184200	0.962900
O121	O12	0.150000	0.058300	0.963800
Cl41	Cl4	0.881400	0.881400	0.500000
O131	O13	0.815800	0.886000	0.537100
O141	O14	0.941700	0.850000	0.536200
O151	O15	0.886000	0.815800	0.462900
O161	O16	0.850000	0.941700	0.463800
