data_IVUVIG_freeONLY_PM
_symmetry_space_group_name_H-M	'P1'
_cell_length_a	11.038000
_cell_length_b	11.249000
_cell_length_c	16.132000
_cell_angle_alpha	75.240000
_cell_angle_beta	82.800000
_cell_angle_gamma	75.260000
_symmetry_Int_Tables_number 1

loop_
_symmetry_equiv_pos_as_xyz
'x,y,z'

loop_
_atom_site_label
_atom_site_type_symbol
_atom_site_fract_x
_atom_site_fract_y
_atom_site_fract_z
O11	O1	0.758500	0.153300	0.217600
C11	C1	0.716200	0.250000	0.246100
C21	C2	0.762200	0.365900	0.200000
N11	N1	0.975000	0.455100	0.014600
O21	O2	0.851600	0.932000	0.007600
C31	C3	0.904900	0.925000	0.934800
O31	O3	0.020700	0.924100	0.915400
O41	O4	0.424700	0.005300	0.758700
O51	O5	0.429000	0.981100	0.897800
C41	C4	0.486400	0.977900	0.825900
C51	C5	0.625600	0.938900	0.816500
C61	C6	0.698300	0.940400	0.881200
H11	H1	0.659860	0.957770	0.932840
C71	C7	0.830100	0.915600	0.867500
O61	O6	0.388000	0.881400	0.459800
O71	O7	0.379400	0.815000	0.343500
C81	C8	0.327300	0.843800	0.412100
C91	C9	0.194800	0.837300	0.437900
C101	C10	0.146700	0.836900	0.521000
H21	H2	0.199050	0.835680	0.562290
C111	C11	0.117200	0.839900	0.376600
H31	H3	0.150140	0.838530	0.320780
Sm11	Sm1	0.587540	0.839870	0.373400
Sm21	Sm2	0.792830	0.004950	0.134420
C121	C12	0.631800	0.318300	0.809400
H41	H4	0.695930	0.363950	0.787180
H51	H5	0.551140	0.372400	0.794800
H61	H6	0.646200	0.246170	0.784940
O81	O8	0.935200	0.902800	0.250900
O91	O9	0.638300	0.804000	0.526000
H71	H7	0.683480	0.727620	0.543770
H81	H8	0.569700	0.813600	0.559320
O101	O10	0.579000	0.046500	0.402000
H91	H9	0.606880	0.095120	0.356960
H101	H10	0.624640	0.037190	0.444160
O111	O11	0.640900	0.712900	0.273500
O121	O12	0.583100	0.623700	0.445200
H111	H11	0.657920	0.579720	0.456600
H121	H12	0.552710	0.590220	0.412530
O131	O13	0.775900	0.795100	0.174700
N21	N2	0.978400	0.848100	0.630400
O141	O14	0.641800	0.254500	0.310500
C131	C13	0.766100	0.585500	0.185000
O151	O15	0.797100	0.832700	0.354000
N31	N3	0.862000	0.859300	0.645400
O161	O16	0.717000	0.197800	0.029700
C141	C14	0.724900	0.707400	0.212900
C151	C15	0.940200	0.843300	0.480800
H131	H13	0.855480	0.845650	0.494920
C161	C16	0.845200	0.361800	0.129500
H141	H14	0.872540	0.287640	0.110160
C171	C17	0.721800	0.479600	0.228100
H151	H15	0.665240	0.483680	0.275740
C181	C18	0.991000	0.844400	0.397100
C191	C19	0.814000	0.879600	0.728500
C201	C20	0.901000	0.860600	0.327900
C211	C21	0.020900	0.838400	0.543800
C221	C22	0.685300	0.905700	0.741600
H161	H16	0.637310	0.901070	0.699550
C231	C23	0.889100	0.470100	0.086400
C241	C24	0.848700	0.580100	0.112500
H171	H17	0.875970	0.651690	0.082070
C251	C25	0.887400	0.888000	0.791800
H181	H18	0.974090	0.874940	0.782170
N41	N4	0.634800	0.276100	0.903300
C261	C26	0.851200	0.242700	0.896500
H191	H19	0.858430	0.202920	0.849480
H201	H20	0.918350	0.199360	0.933450
H211	H21	0.855670	0.329310	0.874700
C271	C27	0.721100	0.236800	0.949000
C281	C28	0.504000	0.264500	0.952100
H221	H22	0.449190	0.347090	0.946350
H231	H23	0.515590	0.226230	0.011870
H241	H24	0.467430	0.213120	0.927990
O171	O17	0.241500	0.846700	0.782400
C291	C29	0.283800	0.750000	0.753900
C301	C30	0.237800	0.634100	0.800000
N51	N5	0.025000	0.544900	0.985400
O181	O18	0.148400	0.068000	0.992400
C311	C31	0.095100	0.075000	0.065200
O191	O19	0.979300	0.075900	0.084600
O201	O20	0.575300	0.994700	0.241300
O211	O21	0.571000	0.018900	0.102200
C321	C32	0.513600	0.022100	0.174100
C331	C33	0.374400	0.061100	0.183500
C341	C34	0.301700	0.059600	0.118800
H251	H25	0.340140	0.042230	0.067160
C351	C35	0.169900	0.084400	0.132500
O221	O22	0.612000	0.118600	0.540200
O231	O23	0.620600	0.185000	0.656500
C361	C36	0.672700	0.156200	0.587900
C371	C37	0.805200	0.162700	0.562100
C381	C38	0.853300	0.163100	0.479000
H261	H26	0.800950	0.164320	0.437710
C391	C39	0.882800	0.160100	0.623400
H271	H27	0.849860	0.161470	0.679220
Sm31	Sm3	0.412460	0.160130	0.626600
Sm41	Sm4	0.207170	0.995050	0.865580
C401	C40	0.368200	0.681700	0.190600
H281	H28	0.304070	0.636050	0.212820
H291	H29	0.448860	0.627600	0.205200
H301	H30	0.353800	0.753830	0.215060
O241	O24	0.064800	0.097200	0.749100
O251	O25	0.361700	0.196000	0.474000
H311	H31	0.316520	0.272380	0.456230
H321	H32	0.430300	0.186400	0.440680
O261	O26	0.421000	0.953500	0.598000
H331	H33	0.393120	0.904880	0.643040
H341	H34	0.375360	0.962810	0.555840
O271	O27	0.359100	0.287100	0.726500
O281	O28	0.416900	0.376300	0.554800
H351	H35	0.342080	0.420280	0.543400
H361	H36	0.447290	0.409780	0.587470
O291	O29	0.224100	0.204900	0.825300
N61	N6	0.021600	0.151900	0.369600
O301	O30	0.358200	0.745500	0.689500
C411	C41	0.233900	0.414500	0.815000
O311	O31	0.202900	0.167300	0.646000
N71	N7	0.138000	0.140700	0.354600
O321	O32	0.283000	0.802200	0.970300
C421	C42	0.275100	0.292600	0.787100
C431	C43	0.059800	0.156700	0.519200
H371	H37	0.144520	0.154350	0.505080
C441	C44	0.154800	0.638200	0.870500
H381	H38	0.127460	0.712360	0.889840
C451	C45	0.278200	0.520400	0.771900
H391	H39	0.334760	0.516320	0.724260
C461	C46	0.009000	0.155600	0.602900
C471	C47	0.186000	0.120400	0.271500
C481	C48	0.099000	0.139400	0.672100
C491	C49	0.979100	0.161600	0.456200
C501	C50	0.314700	0.094300	0.258400
H401	H40	0.362690	0.098930	0.300450
C511	C51	0.110900	0.529900	0.913600
C521	C52	0.151300	0.419900	0.887500
H411	H41	0.124030	0.348310	0.917930
C531	C53	0.112600	0.112000	0.208200
H421	H42	0.025910	0.125060	0.217830
N81	N8	0.365200	0.723900	0.096700
C541	C54	0.148800	0.757300	0.103500
H431	H43	0.141570	0.797080	0.150520
H441	H44	0.081650	0.800640	0.066550
H451	H45	0.144330	0.670690	0.125300
C551	C55	0.278900	0.763200	0.051000
C561	C56	0.496000	0.735500	0.047900
H461	H46	0.550810	0.652910	0.053650
H471	H47	0.484410	0.773770	0.988130
H481	H48	0.532570	0.786880	0.072010
