data_IWAXUZ_freeONLY_PM
_symmetry_space_group_name_H-M	'P1'
_cell_length_a	28.923400
_cell_length_b	28.923400
_cell_length_c	28.923400
_cell_angle_alpha	90.000000
_cell_angle_beta	90.000000
_cell_angle_gamma	90.000000
_symmetry_Int_Tables_number 1

loop_
_symmetry_equiv_pos_as_xyz
'x,y,z'

loop_
_atom_site_label
_atom_site_type_symbol
_atom_site_fract_x
_atom_site_fract_y
_atom_site_fract_z
O11	O1	0.374670	0.492950	0.049990
O21	O2	0.375050	0.555340	0.005140
C11	C1	0.376100	0.537360	0.045690
O31	O3	0.377900	0.561380	0.082190
O41	O4	0.374670	0.992950	0.549990
O51	O5	0.375050	0.055340	0.505140
C21	C2	0.376100	0.037360	0.545690
O61	O6	0.377900	0.061380	0.582190
O71	O7	0.874670	0.492950	0.549990
O81	O8	0.875050	0.555340	0.505140
C31	C3	0.876100	0.537360	0.545690
O91	O9	0.877900	0.561380	0.582190
O101	O10	0.874670	0.992950	0.049990
O111	O11	0.875050	0.055340	0.005140
C41	C4	0.876100	0.037360	0.045690
O121	O12	0.877900	0.061380	0.082190
O131	O13	0.875330	0.257050	0.549990
O141	O14	0.874950	0.194660	0.505140
C51	C5	0.873900	0.212640	0.545690
O151	O15	0.872100	0.188620	0.582190
O161	O16	0.875330	0.757050	0.049990
O171	O17	0.874950	0.694660	0.005140
C61	C6	0.873900	0.712640	0.045690
O181	O18	0.872100	0.688620	0.082190
O191	O19	0.375330	0.257050	0.049990
O201	O20	0.374950	0.194660	0.005140
C71	C7	0.373900	0.212640	0.045690
O211	O21	0.372100	0.188620	0.082190
O221	O22	0.375330	0.757050	0.549990
O231	O23	0.374950	0.694660	0.505140
C81	C8	0.373900	0.712640	0.545690
O241	O24	0.372100	0.688620	0.582190
O251	O25	0.375330	0.992950	0.200010
O261	O26	0.374950	0.055340	0.244860
C91	C9	0.373900	0.037360	0.204310
O271	O27	0.372100	0.061380	0.167810
O281	O28	0.375330	0.492950	0.700010
O291	O29	0.374950	0.555340	0.744860
C101	C10	0.373900	0.537360	0.704310
O301	O30	0.372100	0.561380	0.667810
O311	O31	0.875330	0.992950	0.700010
O321	O32	0.874950	0.055340	0.744860
C111	C11	0.873900	0.037360	0.704310
O331	O33	0.872100	0.061380	0.667810
O341	O34	0.875330	0.492950	0.200010
O351	O35	0.874950	0.555340	0.244860
C121	C12	0.873900	0.537360	0.204310
O361	O36	0.872100	0.561380	0.167810
O371	O37	0.874670	0.757050	0.700010
O381	O38	0.875050	0.694660	0.744860
C131	C13	0.876100	0.712640	0.704310
O391	O39	0.877900	0.688620	0.667810
O401	O40	0.874670	0.257050	0.200010
O411	O41	0.875050	0.194660	0.244860
C141	C14	0.876100	0.212640	0.204310
O421	O42	0.877900	0.188620	0.167810
O431	O43	0.374670	0.757050	0.200010
O441	O44	0.375050	0.694660	0.244860
C151	C15	0.376100	0.712640	0.204310
O451	O45	0.377900	0.688620	0.167810
O461	O46	0.374670	0.257050	0.700010
O471	O47	0.375050	0.194660	0.744860
C161	C16	0.376100	0.212640	0.704310
O481	O48	0.377900	0.188620	0.667810
O491	O49	0.049990	0.374670	0.492950
O501	O50	0.005140	0.375050	0.555340
C171	C17	0.045690	0.376100	0.537360
O511	O51	0.082190	0.377900	0.561380
O521	O52	0.049990	0.874670	0.992950
O531	O53	0.005140	0.875050	0.055340
C181	C18	0.045690	0.876100	0.037360
O541	O54	0.082190	0.877900	0.061380
O551	O55	0.549990	0.374670	0.992950
O561	O56	0.505140	0.375050	0.055340
C191	C19	0.545690	0.376100	0.037360
O571	O57	0.582190	0.377900	0.061380
O581	O58	0.549990	0.874670	0.492950
O591	O59	0.505140	0.875050	0.555340
C201	C20	0.545690	0.876100	0.537360
O601	O60	0.582190	0.877900	0.561380
O611	O61	0.549990	0.875330	0.257050
O621	O62	0.505140	0.874950	0.194660
C211	C21	0.545690	0.873900	0.212640
O631	O63	0.582190	0.872100	0.188620
O641	O64	0.549990	0.375330	0.757050
O651	O65	0.505140	0.374950	0.694660
C221	C22	0.545690	0.373900	0.712640
O661	O66	0.582190	0.372100	0.688620
O671	O67	0.049990	0.875330	0.757050
O681	O68	0.005140	0.874950	0.694660
C231	C23	0.045690	0.873900	0.712640
O691	O69	0.082190	0.872100	0.688620
O701	O70	0.049990	0.375330	0.257050
O711	O71	0.005140	0.374950	0.194660
C241	C24	0.045690	0.373900	0.212640
O721	O72	0.082190	0.372100	0.188620
O731	O73	0.200010	0.375330	0.992950
O741	O74	0.244860	0.374950	0.055340
C251	C25	0.204310	0.373900	0.037360
O751	O75	0.167810	0.372100	0.061380
O761	O76	0.200010	0.875330	0.492950
O771	O77	0.244860	0.874950	0.555340
C261	C26	0.204310	0.873900	0.537360
O781	O78	0.167810	0.872100	0.561380
O791	O79	0.700010	0.375330	0.492950
O801	O80	0.744860	0.374950	0.555340
C271	C27	0.704310	0.373900	0.537360
O811	O81	0.667810	0.372100	0.561380
O821	O82	0.700010	0.875330	0.992950
O831	O83	0.744860	0.874950	0.055340
C281	C28	0.704310	0.873900	0.037360
O841	O84	0.667810	0.872100	0.061380
O851	O85	0.700010	0.874670	0.757050
O861	O86	0.744860	0.875050	0.694660
C291	C29	0.704310	0.876100	0.712640
O871	O87	0.667810	0.877900	0.688620
O881	O88	0.700010	0.374670	0.257050
O891	O89	0.744860	0.375050	0.194660
C301	C30	0.704310	0.376100	0.212640
O901	O90	0.667810	0.377900	0.188620
O911	O91	0.200010	0.874670	0.257050
O921	O92	0.244860	0.875050	0.194660
C311	C31	0.204310	0.876100	0.212640
O931	O93	0.167810	0.877900	0.188620
O941	O94	0.200010	0.374670	0.757050
O951	O95	0.244860	0.375050	0.694660
C321	C32	0.204310	0.376100	0.712640
O961	O96	0.167810	0.377900	0.688620
O971	O97	0.492950	0.049990	0.374670
O981	O98	0.555340	0.005140	0.375050
C331	C33	0.537360	0.045690	0.376100
O991	O99	0.561380	0.082190	0.377900
O1001	O100	0.492950	0.549990	0.874670
O1011	O101	0.555340	0.505140	0.875050
C341	C34	0.537360	0.545690	0.876100
O1021	O102	0.561380	0.582190	0.877900
O1031	O103	0.992950	0.049990	0.874670
O1041	O104	0.055340	0.005140	0.875050
C351	C35	0.037360	0.045690	0.876100
O1051	O105	0.061380	0.082190	0.877900
O1061	O106	0.992950	0.549990	0.374670
O1071	O107	0.055340	0.505140	0.375050
C361	C36	0.037360	0.545690	0.376100
O1081	O108	0.061380	0.582190	0.377900
O1091	O109	0.257050	0.549990	0.875330
O1101	O110	0.194660	0.505140	0.874950
C371	C37	0.212640	0.545690	0.873900
O1111	O111	0.188620	0.582190	0.872100
O1121	O112	0.257050	0.049990	0.375330
O1131	O113	0.194660	0.005140	0.374950
C381	C38	0.212640	0.045690	0.373900
O1141	O114	0.188620	0.082190	0.372100
O1151	O115	0.757050	0.549990	0.375330
O1161	O116	0.694660	0.505140	0.374950
C391	C39	0.712640	0.545690	0.373900
O1171	O117	0.688620	0.582190	0.372100
O1181	O118	0.757050	0.049990	0.875330
O1191	O119	0.694660	0.005140	0.874950
C401	C40	0.712640	0.045690	0.873900
O1201	O120	0.688620	0.082190	0.872100
O1211	O121	0.992950	0.200010	0.375330
O1221	O122	0.055340	0.244860	0.374950
C411	C41	0.037360	0.204310	0.373900
O1231	O123	0.061380	0.167810	0.372100
O1241	O124	0.992950	0.700010	0.875330
O1251	O125	0.055340	0.744860	0.874950
C421	C42	0.037360	0.704310	0.873900
O1261	O126	0.061380	0.667810	0.872100
O1271	O127	0.492950	0.200010	0.875330
O1281	O128	0.555340	0.244860	0.874950
C431	C43	0.537360	0.204310	0.873900
O1291	O129	0.561380	0.167810	0.872100
O1301	O130	0.492950	0.700010	0.375330
O1311	O131	0.555340	0.744860	0.374950
C441	C44	0.537360	0.704310	0.373900
O1321	O132	0.561380	0.667810	0.372100
O1331	O133	0.757050	0.700010	0.874670
O1341	O134	0.694660	0.744860	0.875050
C451	C45	0.712640	0.704310	0.876100
O1351	O135	0.688620	0.667810	0.877900
O1361	O136	0.757050	0.200010	0.374670
O1371	O137	0.694660	0.244860	0.375050
C461	C46	0.712640	0.204310	0.376100
O1381	O138	0.688620	0.167810	0.377900
O1391	O139	0.257050	0.700010	0.374670
O1401	O140	0.194660	0.744860	0.375050
C471	C47	0.212640	0.704310	0.376100
O1411	O141	0.188620	0.667810	0.377900
O1421	O142	0.257050	0.200010	0.874670
O1431	O143	0.194660	0.244860	0.875050
C481	C48	0.212640	0.204310	0.876100
O1441	O144	0.188620	0.167810	0.877900
O1451	O145	0.242950	0.624670	0.950010
O1461	O146	0.305340	0.625050	0.994860
C491	C49	0.287360	0.626100	0.954310
O1471	O147	0.311380	0.627900	0.917810
O1481	O148	0.242950	0.124670	0.450010
O1491	O149	0.305340	0.125050	0.494860
C501	C50	0.287360	0.126100	0.454310
O1501	O150	0.311380	0.127900	0.417810
O1511	O151	0.742950	0.624670	0.450010
O1521	O152	0.805340	0.625050	0.494860
C511	C51	0.787360	0.626100	0.454310
O1531	O153	0.811380	0.627900	0.417810
O1541	O154	0.742950	0.124670	0.950010
O1551	O155	0.805340	0.125050	0.994860
C521	C52	0.787360	0.126100	0.954310
O1561	O156	0.811380	0.127900	0.917810
O1571	O157	0.007050	0.125330	0.450010
O1581	O158	0.944660	0.124950	0.494860
C531	C53	0.962640	0.123900	0.454310
O1591	O159	0.938620	0.122100	0.417810
O1601	O160	0.007050	0.625330	0.950010
O1611	O161	0.944660	0.624950	0.994860
C541	C54	0.962640	0.623900	0.954310
O1621	O162	0.938620	0.622100	0.917810
O1631	O163	0.507050	0.125330	0.950010
O1641	O164	0.444660	0.124950	0.994860
C551	C55	0.462640	0.123900	0.954310
O1651	O165	0.438620	0.122100	0.917810
O1661	O166	0.507050	0.625330	0.450010
O1671	O167	0.444660	0.624950	0.494860
C561	C56	0.462640	0.623900	0.454310
O1681	O168	0.438620	0.622100	0.417810
O1691	O169	0.742950	0.625330	0.799990
O1701	O170	0.805340	0.624950	0.755140
C571	C57	0.787360	0.623900	0.795690
O1711	O171	0.811380	0.622100	0.832190
O1721	O172	0.742950	0.125330	0.299990
O1731	O173	0.805340	0.124950	0.255140
C581	C58	0.787360	0.123900	0.295690
O1741	O174	0.811380	0.122100	0.332190
O1751	O175	0.242950	0.625330	0.299990
O1761	O176	0.305340	0.624950	0.255140
C591	C59	0.287360	0.623900	0.295690
O1771	O177	0.311380	0.622100	0.332190
O1781	O178	0.242950	0.125330	0.799990
O1791	O179	0.305340	0.124950	0.755140
C601	C60	0.287360	0.123900	0.795690
O1801	O180	0.311380	0.122100	0.832190
O1811	O181	0.507050	0.124670	0.299990
O1821	O182	0.444660	0.125050	0.255140
C611	C61	0.462640	0.126100	0.295690
O1831	O183	0.438620	0.127900	0.332190
O1841	O184	0.507050	0.624670	0.799990
O1851	O185	0.444660	0.625050	0.755140
C621	C62	0.462640	0.626100	0.795690
O1861	O186	0.438620	0.627900	0.832190
O1871	O187	0.007050	0.124670	0.799990
O1881	O188	0.944660	0.125050	0.755140
C631	C63	0.962640	0.126100	0.795690
O1891	O189	0.938620	0.127900	0.832190
O1901	O190	0.007050	0.624670	0.299990
O1911	O191	0.944660	0.625050	0.255140
C641	C64	0.962640	0.626100	0.295690
O1921	O192	0.938620	0.627900	0.332190
O1931	O193	0.124670	0.299990	0.507050
O1941	O194	0.125050	0.255140	0.444660
C651	C65	0.126100	0.295690	0.462640
O1951	O195	0.127900	0.332190	0.438620
O1961	O196	0.124670	0.799990	0.007050
O1971	O197	0.125050	0.755140	0.944660
C661	C66	0.126100	0.795690	0.962640
O1981	O198	0.127900	0.832190	0.938620
O1991	O199	0.624670	0.299990	0.007050
O2001	O200	0.625050	0.255140	0.944660
C671	C67	0.626100	0.295690	0.962640
O2011	O201	0.627900	0.332190	0.938620
O2021	O202	0.624670	0.799990	0.507050
O2031	O203	0.625050	0.755140	0.444660
C681	C68	0.626100	0.795690	0.462640
O2041	O204	0.627900	0.832190	0.438620
O2051	O205	0.625330	0.799990	0.742950
O2061	O206	0.624950	0.755140	0.805340
C691	C69	0.623900	0.795690	0.787360
O2071	O207	0.622100	0.832190	0.811380
O2081	O208	0.625330	0.299990	0.242950
O2091	O209	0.624950	0.255140	0.305340
C701	C70	0.623900	0.295690	0.287360
O2101	O210	0.622100	0.332190	0.311380
O2111	O211	0.125330	0.799990	0.242950
O2121	O212	0.124950	0.755140	0.305340
C711	C71	0.123900	0.795690	0.287360
O2131	O213	0.122100	0.832190	0.311380
O2141	O214	0.125330	0.299990	0.742950
O2151	O215	0.124950	0.255140	0.805340
C721	C72	0.123900	0.295690	0.787360
O2161	O216	0.122100	0.332190	0.811380
O2171	O217	0.125330	0.450010	0.007050
O2181	O218	0.124950	0.494860	0.944660
C731	C73	0.123900	0.454310	0.962640
O2191	O219	0.122100	0.417810	0.938620
O2201	O220	0.125330	0.950010	0.507050
O2211	O221	0.124950	0.994860	0.444660
C741	C74	0.123900	0.954310	0.462640
O2221	O222	0.122100	0.917810	0.438620
O2231	O223	0.625330	0.450010	0.507050
O2241	O224	0.624950	0.494860	0.444660
C751	C75	0.623900	0.454310	0.462640
O2251	O225	0.622100	0.417810	0.438620
O2261	O226	0.625330	0.950010	0.007050
O2271	O227	0.624950	0.994860	0.944660
C761	C76	0.623900	0.954310	0.962640
O2281	O228	0.622100	0.917810	0.938620
O2291	O229	0.624670	0.950010	0.242950
O2301	O230	0.625050	0.994860	0.305340
C771	C77	0.626100	0.954310	0.287360
O2311	O231	0.627900	0.917810	0.311380
O2321	O232	0.624670	0.450010	0.742950
O2331	O233	0.625050	0.494860	0.805340
C781	C78	0.626100	0.454310	0.787360
O2341	O234	0.627900	0.417810	0.811380
O2351	O235	0.124670	0.950010	0.742950
O2361	O236	0.125050	0.994860	0.805340
C791	C79	0.126100	0.954310	0.787360
O2371	O237	0.127900	0.917810	0.811380
O2381	O238	0.124670	0.450010	0.242950
O2391	O239	0.125050	0.494860	0.305340
C801	C80	0.126100	0.454310	0.287360
O2401	O240	0.127900	0.417810	0.311380
O2411	O241	0.799990	0.742950	0.625330
O2421	O242	0.755140	0.805340	0.624950
C811	C81	0.795690	0.787360	0.623900
O2431	O243	0.832190	0.811380	0.622100
O2441	O244	0.799990	0.242950	0.125330
O2451	O245	0.755140	0.305340	0.124950
C821	C82	0.795690	0.287360	0.123900
O2461	O246	0.832190	0.311380	0.122100
O2471	O247	0.299990	0.742950	0.125330
O2481	O248	0.255140	0.805340	0.124950
C831	C83	0.295690	0.787360	0.123900
O2491	O249	0.332190	0.811380	0.122100
O2501	O250	0.299990	0.242950	0.625330
O2511	O251	0.255140	0.305340	0.624950
C841	C84	0.295690	0.287360	0.623900
O2521	O252	0.332190	0.311380	0.622100
O2531	O253	0.299990	0.507050	0.124670
O2541	O254	0.255140	0.444660	0.125050
C851	C85	0.295690	0.462640	0.126100
O2551	O255	0.332190	0.438620	0.127900
O2561	O256	0.299990	0.007050	0.624670
O2571	O257	0.255140	0.944660	0.625050
C861	C86	0.295690	0.962640	0.626100
O2581	O258	0.332190	0.938620	0.627900
O2591	O259	0.799990	0.507050	0.624670
O2601	O260	0.755140	0.444660	0.625050
C871	C87	0.795690	0.462640	0.626100
O2611	O261	0.832190	0.438620	0.627900
O2621	O262	0.799990	0.007050	0.124670
O2631	O263	0.755140	0.944660	0.125050
C881	C88	0.795690	0.962640	0.126100
O2641	O264	0.832190	0.938620	0.127900
O2651	O265	0.950010	0.242950	0.624670
O2661	O266	0.994860	0.305340	0.625050
C891	C89	0.954310	0.287360	0.626100
O2671	O267	0.917810	0.311380	0.627900
O2681	O268	0.950010	0.742950	0.124670
O2691	O269	0.994860	0.805340	0.125050
C901	C90	0.954310	0.787360	0.126100
O2701	O270	0.917810	0.811380	0.127900
O2711	O271	0.450010	0.242950	0.124670
O2721	O272	0.494860	0.305340	0.125050
C911	C91	0.454310	0.287360	0.126100
O2731	O273	0.417810	0.311380	0.127900
O2741	O274	0.450010	0.742950	0.624670
O2751	O275	0.494860	0.805340	0.625050
C921	C92	0.454310	0.787360	0.626100
O2761	O276	0.417810	0.811380	0.627900
O2771	O277	0.450010	0.007050	0.125330
O2781	O278	0.494860	0.944660	0.124950
C931	C93	0.454310	0.962640	0.123900
O2791	O279	0.417810	0.938620	0.122100
O2801	O280	0.450010	0.507050	0.625330
O2811	O281	0.494860	0.444660	0.624950
C941	C94	0.454310	0.462640	0.623900
O2821	O282	0.417810	0.438620	0.622100
O2831	O283	0.950010	0.007050	0.625330
O2841	O284	0.994860	0.944660	0.624950
C951	C95	0.954310	0.962640	0.623900
O2851	O285	0.917810	0.938620	0.622100
O2861	O286	0.950010	0.507050	0.125330
O2871	O287	0.994860	0.444660	0.124950
C961	C96	0.954310	0.462640	0.123900
O2881	O288	0.917810	0.438620	0.122100
O2891	O289	0.625330	0.507050	0.950010
O2901	O290	0.624950	0.444660	0.994860
C971	C97	0.623900	0.462640	0.954310
O2911	O291	0.622100	0.438620	0.917810
O2921	O292	0.625330	0.007050	0.450010
O2931	O293	0.624950	0.944660	0.494860
C981	C98	0.623900	0.962640	0.454310
O2941	O294	0.622100	0.938620	0.417810
O2951	O295	0.125330	0.507050	0.450010
O2961	O296	0.124950	0.444660	0.494860
C991	C99	0.123900	0.462640	0.454310
O2971	O297	0.122100	0.438620	0.417810
O2981	O298	0.125330	0.007050	0.950010
O2991	O299	0.124950	0.944660	0.994860
C1001	C100	0.123900	0.962640	0.954310
O3001	O300	0.122100	0.938620	0.917810
O3011	O301	0.124670	0.742950	0.450010
O3021	O302	0.125050	0.805340	0.494860
C1011	C101	0.126100	0.787360	0.454310
O3031	O303	0.127900	0.811380	0.417810
O3041	O304	0.124670	0.242950	0.950010
O3051	O305	0.125050	0.305340	0.994860
C1021	C102	0.126100	0.287360	0.954310
O3061	O306	0.127900	0.311380	0.917810
O3071	O307	0.624670	0.742950	0.950010
O3081	O308	0.625050	0.805340	0.994860
C1031	C103	0.626100	0.787360	0.954310
O3091	O309	0.627900	0.811380	0.917810
O3101	O310	0.624670	0.242950	0.450010
O3111	O311	0.625050	0.305340	0.494860
C1041	C104	0.626100	0.287360	0.454310
O3121	O312	0.627900	0.311380	0.417810
O3131	O313	0.624670	0.007050	0.799990
O3141	O314	0.625050	0.944660	0.755140
C1051	C105	0.626100	0.962640	0.795690
O3151	O315	0.627900	0.938620	0.832190
O3161	O316	0.624670	0.507050	0.299990
O3171	O317	0.625050	0.444660	0.255140
C1061	C106	0.626100	0.462640	0.295690
O3181	O318	0.627900	0.438620	0.332190
O3191	O319	0.124670	0.007050	0.299990
O3201	O320	0.125050	0.944660	0.255140
C1071	C107	0.126100	0.962640	0.295690
O3211	O321	0.127900	0.938620	0.332190
O3221	O322	0.124670	0.507050	0.799990
O3231	O323	0.125050	0.444660	0.755140
C1081	C108	0.126100	0.462640	0.795690
O3241	O324	0.127900	0.438620	0.832190
O3251	O325	0.125330	0.242950	0.299990
O3261	O326	0.124950	0.305340	0.255140
C1091	C109	0.123900	0.287360	0.295690
O3271	O327	0.122100	0.311380	0.332190
O3281	O328	0.125330	0.742950	0.799990
O3291	O329	0.124950	0.805340	0.755140
C1101	C110	0.123900	0.787360	0.795690
O3301	O330	0.122100	0.811380	0.832190
O3311	O331	0.625330	0.242950	0.799990
O3321	O332	0.624950	0.305340	0.755140
C1111	C111	0.623900	0.287360	0.795690
O3331	O333	0.622100	0.311380	0.832190
O3341	O334	0.625330	0.742950	0.299990
O3351	O335	0.624950	0.805340	0.255140
C1121	C112	0.623900	0.787360	0.295690
O3361	O336	0.622100	0.811380	0.332190
O3371	O337	0.950010	0.625330	0.507050
O3381	O338	0.994860	0.624950	0.444660
C1131	C113	0.954310	0.623900	0.462640
O3391	O339	0.917810	0.622100	0.438620
O3401	O340	0.950010	0.125330	0.007050
O3411	O341	0.994860	0.124950	0.944660
C1141	C114	0.954310	0.123900	0.962640
O3421	O342	0.917810	0.122100	0.938620
O3431	O343	0.450010	0.625330	0.007050
O3441	O344	0.494860	0.624950	0.944660
C1151	C115	0.454310	0.623900	0.962640
O3451	O345	0.417810	0.622100	0.938620
O3461	O346	0.450010	0.125330	0.507050
O3471	O347	0.494860	0.124950	0.444660
C1161	C116	0.454310	0.123900	0.462640
O3481	O348	0.417810	0.122100	0.438620
O3491	O349	0.450010	0.124670	0.742950
O3501	O350	0.494860	0.125050	0.805340
C1171	C117	0.454310	0.126100	0.787360
O3511	O351	0.417810	0.127900	0.811380
O3521	O352	0.450010	0.624670	0.242950
O3531	O353	0.494860	0.625050	0.305340
C1181	C118	0.454310	0.626100	0.287360
O3541	O354	0.417810	0.627900	0.311380
O3551	O355	0.950010	0.124670	0.242950
O3561	O356	0.994860	0.125050	0.305340
C1191	C119	0.954310	0.126100	0.287360
O3571	O357	0.917810	0.127900	0.311380
O3581	O358	0.950010	0.624670	0.742950
O3591	O359	0.994860	0.625050	0.805340
C1201	C120	0.954310	0.626100	0.787360
O3601	O360	0.917810	0.627900	0.811380
O3611	O361	0.799990	0.624670	0.007050
O3621	O362	0.755140	0.625050	0.944660
C1211	C121	0.795690	0.626100	0.962640
O3631	O363	0.832190	0.627900	0.938620
O3641	O364	0.799990	0.124670	0.507050
O3651	O365	0.755140	0.125050	0.444660
C1221	C122	0.795690	0.126100	0.462640
O3661	O366	0.832190	0.127900	0.438620
O3671	O367	0.299990	0.624670	0.507050
O3681	O368	0.255140	0.625050	0.444660
C1231	C123	0.295690	0.626100	0.462640
O3691	O369	0.332190	0.627900	0.438620
O3701	O370	0.299990	0.124670	0.007050
O3711	O371	0.255140	0.125050	0.944660
C1241	C124	0.295690	0.126100	0.962640
O3721	O372	0.332190	0.127900	0.938620
O3731	O373	0.299990	0.125330	0.242950
O3741	O374	0.255140	0.124950	0.305340
C1251	C125	0.295690	0.123900	0.287360
O3751	O375	0.332190	0.122100	0.311380
O3761	O376	0.299990	0.625330	0.742950
O3771	O377	0.255140	0.624950	0.805340
C1261	C126	0.295690	0.623900	0.787360
O3781	O378	0.332190	0.622100	0.811380
O3791	O379	0.799990	0.125330	0.742950
O3801	O380	0.755140	0.124950	0.805340
C1271	C127	0.795690	0.123900	0.787360
O3811	O381	0.832190	0.122100	0.811380
O3821	O382	0.799990	0.625330	0.242950
O3831	O383	0.755140	0.624950	0.305340
C1281	C128	0.795690	0.623900	0.287360
O3841	O384	0.832190	0.622100	0.311380
O3851	O385	0.507050	0.950010	0.625330
O3861	O386	0.444660	0.994860	0.624950
C1291	C129	0.462640	0.954310	0.623900
O3871	O387	0.438620	0.917810	0.622100
O3881	O388	0.507050	0.450010	0.125330
O3891	O389	0.444660	0.494860	0.124950
C1301	C130	0.462640	0.454310	0.123900
O3901	O390	0.438620	0.417810	0.122100
O3911	O391	0.007050	0.950010	0.125330
O3921	O392	0.944660	0.994860	0.124950
C1311	C131	0.962640	0.954310	0.123900
O3931	O393	0.938620	0.917810	0.122100
O3941	O394	0.007050	0.450010	0.625330
O3951	O395	0.944660	0.494860	0.624950
C1321	C132	0.962640	0.454310	0.623900
O3961	O396	0.938620	0.417810	0.622100
O3971	O397	0.742950	0.450010	0.124670
O3981	O398	0.805340	0.494860	0.125050
C1331	C133	0.787360	0.454310	0.126100
O3991	O399	0.811380	0.417810	0.127900
O4001	O400	0.742950	0.950010	0.624670
O4011	O401	0.805340	0.994860	0.625050
C1341	C134	0.787360	0.954310	0.626100
O4021	O402	0.811380	0.917810	0.627900
O4031	O403	0.242950	0.450010	0.624670
O4041	O404	0.305340	0.494860	0.625050
C1351	C135	0.287360	0.454310	0.626100
O4051	O405	0.311380	0.417810	0.627900
O4061	O406	0.242950	0.950010	0.124670
O4071	O407	0.305340	0.994860	0.125050
C1361	C136	0.287360	0.954310	0.126100
O4081	O408	0.311380	0.917810	0.127900
O4091	O409	0.007050	0.799990	0.624670
O4101	O410	0.944660	0.755140	0.625050
C1371	C137	0.962640	0.795690	0.626100
O4111	O411	0.938620	0.832190	0.627900
O4121	O412	0.007050	0.299990	0.124670
O4131	O413	0.944660	0.255140	0.125050
C1381	C138	0.962640	0.295690	0.126100
O4141	O414	0.938620	0.332190	0.127900
O4151	O415	0.507050	0.799990	0.124670
O4161	O416	0.444660	0.755140	0.125050
C1391	C139	0.462640	0.795690	0.126100
O4171	O417	0.438620	0.832190	0.127900
O4181	O418	0.507050	0.299990	0.624670
O4191	O419	0.444660	0.255140	0.625050
C1401	C140	0.462640	0.295690	0.626100
O4201	O420	0.438620	0.332190	0.627900
O4211	O421	0.242950	0.299990	0.125330
O4221	O422	0.305340	0.255140	0.124950
C1411	C141	0.287360	0.295690	0.123900
O4231	O423	0.311380	0.332190	0.122100
O4241	O424	0.242950	0.799990	0.625330
O4251	O425	0.305340	0.755140	0.624950
C1421	C142	0.287360	0.795690	0.623900
O4261	O426	0.311380	0.832190	0.622100
O4271	O427	0.742950	0.299990	0.625330
O4281	O428	0.805340	0.255140	0.624950
C1431	C143	0.787360	0.295690	0.623900
O4291	O429	0.811380	0.332190	0.622100
O4301	O430	0.742950	0.799990	0.125330
O4311	O431	0.805340	0.755140	0.124950
C1441	C144	0.787360	0.795690	0.123900
O4321	O432	0.811380	0.832190	0.122100
O4331	O433	0.757050	0.375330	0.049990
O4341	O434	0.694660	0.374950	0.005140
C1451	C145	0.712640	0.373900	0.045690
O4351	O435	0.688620	0.372100	0.082190
O4361	O436	0.757050	0.875330	0.549990
O4371	O437	0.694660	0.874950	0.505140
C1461	C146	0.712640	0.873900	0.545690
O4381	O438	0.688620	0.872100	0.582190
O4391	O439	0.257050	0.375330	0.549990
O4401	O440	0.194660	0.374950	0.505140
C1471	C147	0.212640	0.373900	0.545690
O4411	O441	0.188620	0.372100	0.582190
O4421	O442	0.257050	0.875330	0.049990
O4431	O443	0.194660	0.874950	0.005140
C1481	C148	0.212640	0.873900	0.045690
O4441	O444	0.188620	0.872100	0.082190
O4451	O445	0.992950	0.874670	0.549990
O4461	O446	0.055340	0.875050	0.505140
C1491	C149	0.037360	0.876100	0.545690
O4471	O447	0.061380	0.877900	0.582190
O4481	O448	0.992950	0.374670	0.049990
O4491	O449	0.055340	0.375050	0.005140
C1501	C150	0.037360	0.376100	0.045690
O4501	O450	0.061380	0.377900	0.082190
O4511	O451	0.492950	0.874670	0.049990
O4521	O452	0.555340	0.875050	0.005140
C1511	C151	0.537360	0.876100	0.045690
O4531	O453	0.561380	0.877900	0.082190
O4541	O454	0.492950	0.374670	0.549990
O4551	O455	0.555340	0.375050	0.505140
C1521	C152	0.537360	0.376100	0.545690
O4561	O456	0.561380	0.377900	0.582190
O4571	O457	0.257050	0.374670	0.200010
O4581	O458	0.194660	0.375050	0.244860
C1531	C153	0.212640	0.376100	0.204310
O4591	O459	0.188620	0.377900	0.167810
O4601	O460	0.257050	0.874670	0.700010
O4611	O461	0.194660	0.875050	0.744860
C1541	C154	0.212640	0.876100	0.704310
O4621	O462	0.188620	0.877900	0.667810
O4631	O463	0.757050	0.374670	0.700010
O4641	O464	0.694660	0.375050	0.744860
C1551	C155	0.712640	0.376100	0.704310
O4651	O465	0.688620	0.377900	0.667810
O4661	O466	0.757050	0.874670	0.200010
O4671	O467	0.694660	0.875050	0.244860
C1561	C156	0.712640	0.876100	0.204310
O4681	O468	0.688620	0.877900	0.167810
O4691	O469	0.492950	0.875330	0.700010
O4701	O470	0.555340	0.874950	0.744860
C1571	C157	0.537360	0.873900	0.704310
O4711	O471	0.561380	0.872100	0.667810
O4721	O472	0.492950	0.375330	0.200010
O4731	O473	0.555340	0.374950	0.244860
C1581	C158	0.537360	0.373900	0.204310
O4741	O474	0.561380	0.372100	0.167810
O4751	O475	0.992950	0.875330	0.200010
O4761	O476	0.055340	0.874950	0.244860
C1591	C159	0.037360	0.873900	0.204310
O4771	O477	0.061380	0.872100	0.167810
O4781	O478	0.992950	0.375330	0.700010
O4791	O479	0.055340	0.374950	0.744860
C1601	C160	0.037360	0.373900	0.704310
O4801	O480	0.061380	0.372100	0.667810
O4811	O481	0.875330	0.700010	0.492950
O4821	O482	0.874950	0.744860	0.555340
C1611	C161	0.873900	0.704310	0.537360
O4831	O483	0.872100	0.667810	0.561380
O4841	O484	0.875330	0.200010	0.992950
O4851	O485	0.874950	0.244860	0.055340
C1621	C162	0.873900	0.204310	0.037360
O4861	O486	0.872100	0.167810	0.061380
O4871	O487	0.375330	0.700010	0.992950
O4881	O488	0.374950	0.744860	0.055340
C1631	C163	0.373900	0.704310	0.037360
O4891	O489	0.372100	0.667810	0.061380
O4901	O490	0.375330	0.200010	0.492950
O4911	O491	0.374950	0.244860	0.555340
C1641	C164	0.373900	0.204310	0.537360
O4921	O492	0.372100	0.167810	0.561380
O4931	O493	0.374670	0.200010	0.257050
O4941	O494	0.375050	0.244860	0.194660
C1651	C165	0.376100	0.204310	0.212640
O4951	O495	0.377900	0.167810	0.188620
O4961	O496	0.374670	0.700010	0.757050
O4971	O497	0.375050	0.744860	0.694660
C1661	C166	0.376100	0.704310	0.712640
O4981	O498	0.377900	0.667810	0.688620
O4991	O499	0.874670	0.200010	0.757050
O5001	O500	0.875050	0.244860	0.694660
C1671	C167	0.876100	0.204310	0.712640
O5011	O501	0.877900	0.167810	0.688620
O5021	O502	0.874670	0.700010	0.257050
O5031	O503	0.875050	0.744860	0.194660
C1681	C168	0.876100	0.704310	0.212640
O5041	O504	0.877900	0.667810	0.188620
O5051	O505	0.874670	0.549990	0.992950
O5061	O506	0.875050	0.505140	0.055340
C1691	C169	0.876100	0.545690	0.037360
O5071	O507	0.877900	0.582190	0.061380
O5081	O508	0.874670	0.049990	0.492950
O5091	O509	0.875050	0.005140	0.555340
C1701	C170	0.876100	0.045690	0.537360
O5101	O510	0.877900	0.082190	0.561380
O5111	O511	0.374670	0.549990	0.492950
O5121	O512	0.375050	0.505140	0.555340
C1711	C171	0.376100	0.545690	0.537360
O5131	O513	0.377900	0.582190	0.561380
O5141	O514	0.374670	0.049990	0.992950
O5151	O515	0.375050	0.005140	0.055340
C1721	C172	0.376100	0.045690	0.037360
O5161	O516	0.377900	0.082190	0.061380
O5171	O517	0.375330	0.049990	0.757050
O5181	O518	0.374950	0.005140	0.694660
C1731	C173	0.373900	0.045690	0.712640
O5191	O519	0.372100	0.082190	0.688620
O5201	O520	0.375330	0.549990	0.257050
O5211	O521	0.374950	0.505140	0.194660
C1741	C174	0.373900	0.545690	0.212640
O5221	O522	0.372100	0.582190	0.188620
O5231	O523	0.875330	0.049990	0.257050
O5241	O524	0.874950	0.005140	0.194660
C1751	C175	0.873900	0.045690	0.212640
O5251	O525	0.872100	0.082190	0.188620
O5261	O526	0.875330	0.549990	0.757050
O5271	O527	0.874950	0.505140	0.694660
C1761	C176	0.873900	0.545690	0.712640
O5281	O528	0.872100	0.582190	0.688620
O5291	O529	0.200010	0.257050	0.374670
O5301	O530	0.244860	0.194660	0.375050
C1771	C177	0.204310	0.212640	0.376100
O5311	O531	0.167810	0.188620	0.377900
O5321	O532	0.200010	0.757050	0.874670
O5331	O533	0.244860	0.694660	0.875050
C1781	C178	0.204310	0.712640	0.876100
O5341	O534	0.167810	0.688620	0.877900
O5351	O535	0.700010	0.257050	0.874670
O5361	O536	0.744860	0.194660	0.875050
C1791	C179	0.704310	0.212640	0.876100
O5371	O537	0.667810	0.188620	0.877900
O5381	O538	0.700010	0.757050	0.374670
O5391	O539	0.744860	0.694660	0.375050
C1801	C180	0.704310	0.712640	0.376100
O5401	O540	0.667810	0.688620	0.377900
O5411	O541	0.700010	0.492950	0.875330
O5421	O542	0.744860	0.555340	0.874950
C1811	C181	0.704310	0.537360	0.873900
O5431	O543	0.667810	0.561380	0.872100
O5441	O544	0.700010	0.992950	0.375330
O5451	O545	0.744860	0.055340	0.374950
C1821	C182	0.704310	0.037360	0.373900
O5461	O546	0.667810	0.061380	0.372100
O5471	O547	0.200010	0.492950	0.375330
O5481	O548	0.244860	0.555340	0.374950
C1831	C183	0.204310	0.537360	0.373900
O5491	O549	0.167810	0.561380	0.372100
O5501	O550	0.200010	0.992950	0.875330
O5511	O551	0.244860	0.055340	0.874950
C1841	C184	0.204310	0.037360	0.873900
O5521	O552	0.167810	0.061380	0.872100
O5531	O553	0.049990	0.757050	0.375330
O5541	O554	0.005140	0.694660	0.374950
C1851	C185	0.045690	0.712640	0.373900
O5551	O555	0.082190	0.688620	0.372100
O5561	O556	0.049990	0.257050	0.875330
O5571	O557	0.005140	0.194660	0.874950
C1861	C186	0.045690	0.212640	0.873900
O5581	O558	0.082190	0.188620	0.872100
O5591	O559	0.549990	0.757050	0.875330
O5601	O560	0.505140	0.694660	0.874950
C1871	C187	0.545690	0.712640	0.873900
O5611	O561	0.582190	0.688620	0.872100
O5621	O562	0.549990	0.257050	0.375330
O5631	O563	0.505140	0.194660	0.374950
C1881	C188	0.545690	0.212640	0.373900
O5641	O564	0.582190	0.188620	0.372100
O5651	O565	0.549990	0.992950	0.874670
O5661	O566	0.505140	0.055340	0.875050
C1891	C189	0.545690	0.037360	0.876100
O5671	O567	0.582190	0.061380	0.877900
O5681	O568	0.549990	0.492950	0.374670
O5691	O569	0.505140	0.555340	0.375050
C1901	C190	0.545690	0.537360	0.376100
O5701	O570	0.582190	0.561380	0.377900
O5711	O571	0.049990	0.992950	0.374670
O5721	O572	0.005140	0.055340	0.375050
C1911	C191	0.045690	0.037360	0.376100
O5731	O573	0.082190	0.061380	0.377900
O5741	O574	0.049990	0.492950	0.874670
O5751	O575	0.005140	0.555340	0.875050
C1921	C192	0.045690	0.537360	0.876100
O5761	O576	0.082190	0.561380	0.877900
O5771	O577	0.302200	0.625000	0.125000
O5781	O578	0.302200	0.125000	0.625000
O5791	O579	0.947800	0.125000	0.625000
O5801	O580	0.947800	0.625000	0.125000
O5811	O581	0.447800	0.125000	0.125000
O5821	O582	0.447800	0.625000	0.625000
O5831	O583	0.802200	0.625000	0.625000
O5841	O584	0.802200	0.125000	0.125000
O5851	O585	0.125000	0.302200	0.625000
O5861	O586	0.125000	0.802200	0.125000
O5871	O587	0.625000	0.947800	0.125000
O5881	O588	0.625000	0.447800	0.625000
O5891	O589	0.125000	0.447800	0.125000
O5901	O590	0.125000	0.947800	0.625000
O5911	O591	0.625000	0.802200	0.625000
O5921	O592	0.625000	0.302200	0.125000
O5931	O593	0.625000	0.125000	0.302200
O5941	O594	0.125000	0.125000	0.802200
O5951	O595	0.125000	0.625000	0.947800
O5961	O596	0.625000	0.625000	0.447800
O5971	O597	0.125000	0.125000	0.447800
O5981	O598	0.625000	0.125000	0.947800
O5991	O599	0.625000	0.625000	0.802200
O6001	O600	0.125000	0.625000	0.302200
O6011	O601	0.375000	0.552200	0.875000
O6021	O602	0.875000	0.552200	0.375000
O6031	O603	0.875000	0.197800	0.375000
O6041	O604	0.375000	0.197800	0.875000
O6051	O605	0.875000	0.697800	0.875000
O6061	O606	0.375000	0.697800	0.375000
O6071	O607	0.375000	0.052200	0.375000
O6081	O608	0.875000	0.052200	0.875000
O6091	O609	0.052200	0.375000	0.375000
O6101	O610	0.052200	0.875000	0.875000
O6111	O611	0.697800	0.875000	0.875000
O6121	O612	0.697800	0.375000	0.375000
O6131	O613	0.197800	0.375000	0.875000
O6141	O614	0.197800	0.875000	0.375000
O6151	O615	0.552200	0.875000	0.375000
O6161	O616	0.552200	0.375000	0.875000
O6171	O617	0.875000	0.875000	0.697800
O6181	O618	0.875000	0.375000	0.197800
O6191	O619	0.375000	0.375000	0.052200
O6201	O620	0.375000	0.875000	0.552200
O6211	O621	0.875000	0.375000	0.552200
O6221	O622	0.875000	0.875000	0.052200
O6231	O623	0.375000	0.875000	0.197800
O6241	O624	0.375000	0.375000	0.697800
O6251	O625	0.697800	0.375000	0.875000
O6261	O626	0.697800	0.875000	0.375000
O6271	O627	0.052200	0.875000	0.375000
O6281	O628	0.052200	0.375000	0.875000
O6291	O629	0.552200	0.875000	0.875000
O6301	O630	0.552200	0.375000	0.375000
O6311	O631	0.197800	0.375000	0.375000
O6321	O632	0.197800	0.875000	0.875000
O6331	O633	0.875000	0.697800	0.375000
O6341	O634	0.875000	0.197800	0.875000
O6351	O635	0.375000	0.052200	0.875000
O6361	O636	0.375000	0.552200	0.375000
O6371	O637	0.875000	0.552200	0.875000
O6381	O638	0.875000	0.052200	0.375000
O6391	O639	0.375000	0.197800	0.375000
O6401	O640	0.375000	0.697800	0.875000
O6411	O641	0.375000	0.875000	0.697800
O6421	O642	0.875000	0.875000	0.197800
O6431	O643	0.875000	0.375000	0.052200
O6441	O644	0.375000	0.375000	0.552200
O6451	O645	0.875000	0.875000	0.552200
O6461	O646	0.375000	0.875000	0.052200
O6471	O647	0.375000	0.375000	0.197800
O6481	O648	0.875000	0.375000	0.697800
O6491	O649	0.625000	0.447800	0.125000
O6501	O650	0.125000	0.447800	0.625000
O6511	O651	0.125000	0.802200	0.625000
O6521	O652	0.625000	0.802200	0.125000
O6531	O653	0.125000	0.302200	0.125000
O6541	O654	0.625000	0.302200	0.625000
O6551	O655	0.625000	0.947800	0.625000
O6561	O656	0.125000	0.947800	0.125000
O6571	O657	0.947800	0.625000	0.625000
O6581	O658	0.947800	0.125000	0.125000
O6591	O659	0.302200	0.125000	0.125000
O6601	O660	0.302200	0.625000	0.625000
O6611	O661	0.802200	0.625000	0.125000
O6621	O662	0.802200	0.125000	0.625000
O6631	O663	0.447800	0.125000	0.625000
O6641	O664	0.447800	0.625000	0.125000
O6651	O665	0.125000	0.125000	0.302200
O6661	O666	0.125000	0.625000	0.802200
O6671	O667	0.625000	0.625000	0.947800
O6681	O668	0.625000	0.125000	0.447800
O6691	O669	0.125000	0.625000	0.447800
O6701	O670	0.125000	0.125000	0.947800
O6711	O671	0.625000	0.125000	0.802200
O6721	O672	0.625000	0.625000	0.302200
Mg11	Mg1	0.374120	0.500000	0.124120
Mg21	Mg2	0.374120	0.000000	0.624120
Mg31	Mg3	0.874120	0.500000	0.624120
Mg41	Mg4	0.874120	0.000000	0.124120
Mg51	Mg5	0.875880	0.250000	0.624120
Mg61	Mg6	0.875880	0.750000	0.124120
Mg71	Mg7	0.375880	0.250000	0.124120
Mg81	Mg8	0.375880	0.750000	0.624120
Mg91	Mg9	0.375880	0.000000	0.125880
Mg101	Mg10	0.375880	0.500000	0.625880
Mg111	Mg11	0.875880	0.000000	0.625880
Mg121	Mg12	0.875880	0.500000	0.125880
Mg131	Mg13	0.874120	0.750000	0.625880
Mg141	Mg14	0.874120	0.250000	0.125880
Mg151	Mg15	0.374120	0.750000	0.125880
Mg161	Mg16	0.374120	0.250000	0.625880
Mg171	Mg17	0.124120	0.374120	0.500000
Mg181	Mg18	0.124120	0.874120	0.000000
Mg191	Mg19	0.624120	0.374120	0.000000
Mg201	Mg20	0.624120	0.874120	0.500000
Mg211	Mg21	0.624120	0.875880	0.250000
Mg221	Mg22	0.624120	0.375880	0.750000
Mg231	Mg23	0.124120	0.875880	0.750000
Mg241	Mg24	0.124120	0.375880	0.250000
Mg251	Mg25	0.125880	0.375880	0.000000
Mg261	Mg26	0.125880	0.875880	0.500000
Mg271	Mg27	0.625880	0.375880	0.500000
Mg281	Mg28	0.625880	0.875880	0.000000
Mg291	Mg29	0.625880	0.874120	0.750000
Mg301	Mg30	0.625880	0.374120	0.250000
Mg311	Mg31	0.125880	0.874120	0.250000
Mg321	Mg32	0.125880	0.374120	0.750000
Mg331	Mg33	0.500000	0.124120	0.374120
Mg341	Mg34	0.500000	0.624120	0.874120
Mg351	Mg35	0.000000	0.124120	0.874120
Mg361	Mg36	0.000000	0.624120	0.374120
Mg371	Mg37	0.250000	0.624120	0.875880
Mg381	Mg38	0.250000	0.124120	0.375880
Mg391	Mg39	0.750000	0.624120	0.375880
Mg401	Mg40	0.750000	0.124120	0.875880
Mg411	Mg41	0.000000	0.125880	0.375880
Mg421	Mg42	0.000000	0.625880	0.875880
Mg431	Mg43	0.500000	0.125880	0.875880
Mg441	Mg44	0.500000	0.625880	0.375880
Mg451	Mg45	0.750000	0.625880	0.874120
Mg461	Mg46	0.750000	0.125880	0.374120
Mg471	Mg47	0.250000	0.625880	0.374120
Mg481	Mg48	0.250000	0.125880	0.874120
Mg491	Mg49	0.625880	0.500000	0.875880
Mg501	Mg50	0.625880	0.000000	0.375880
Mg511	Mg51	0.125880	0.500000	0.375880
Mg521	Mg52	0.125880	0.000000	0.875880
Mg531	Mg53	0.124120	0.750000	0.375880
Mg541	Mg54	0.124120	0.250000	0.875880
Mg551	Mg55	0.624120	0.750000	0.875880
Mg561	Mg56	0.624120	0.250000	0.375880
Mg571	Mg57	0.624120	0.000000	0.874120
Mg581	Mg58	0.624120	0.500000	0.374120
Mg591	Mg59	0.124120	0.000000	0.374120
Mg601	Mg60	0.124120	0.500000	0.874120
Mg611	Mg61	0.125880	0.250000	0.374120
Mg621	Mg62	0.125880	0.750000	0.874120
Mg631	Mg63	0.625880	0.250000	0.874120
Mg641	Mg64	0.625880	0.750000	0.374120
Mg651	Mg65	0.875880	0.625880	0.500000
Mg661	Mg66	0.875880	0.125880	0.000000
Mg671	Mg67	0.375880	0.625880	0.000000
Mg681	Mg68	0.375880	0.125880	0.500000
Mg691	Mg69	0.375880	0.124120	0.750000
Mg701	Mg70	0.375880	0.624120	0.250000
Mg711	Mg71	0.875880	0.124120	0.250000
Mg721	Mg72	0.875880	0.624120	0.750000
Mg731	Mg73	0.874120	0.624120	0.000000
Mg741	Mg74	0.874120	0.124120	0.500000
Mg751	Mg75	0.374120	0.624120	0.500000
Mg761	Mg76	0.374120	0.124120	0.000000
Mg771	Mg77	0.374120	0.125880	0.250000
Mg781	Mg78	0.374120	0.625880	0.750000
Mg791	Mg79	0.874120	0.125880	0.750000
Mg801	Mg80	0.874120	0.625880	0.250000
Mg811	Mg81	0.500000	0.875880	0.625880
Mg821	Mg82	0.500000	0.375880	0.125880
Mg831	Mg83	0.000000	0.875880	0.125880
Mg841	Mg84	0.000000	0.375880	0.625880
Mg851	Mg85	0.750000	0.375880	0.124120
Mg861	Mg86	0.750000	0.875880	0.624120
Mg871	Mg87	0.250000	0.375880	0.624120
Mg881	Mg88	0.250000	0.875880	0.124120
Mg891	Mg89	0.000000	0.874120	0.624120
Mg901	Mg90	0.000000	0.374120	0.124120
Mg911	Mg91	0.500000	0.874120	0.124120
Mg921	Mg92	0.500000	0.374120	0.624120
Mg931	Mg93	0.250000	0.374120	0.125880
Mg941	Mg94	0.250000	0.874120	0.625880
Mg951	Mg95	0.750000	0.374120	0.625880
Mg961	Mg96	0.750000	0.874120	0.125880
Na11	Na1	0.375000	0.625000	0.125000
Na21	Na2	0.875000	0.125000	0.625000
Na31	Na3	0.375000	0.125000	0.125000
Na41	Na4	0.375000	0.625000	0.625000
Na51	Na5	0.875000	0.625000	0.625000
Na61	Na6	0.875000	0.125000	0.125000
Na71	Na7	0.125000	0.375000	0.625000
Na81	Na8	0.125000	0.875000	0.125000
Na91	Na9	0.625000	0.875000	0.125000
Na101	Na10	0.625000	0.375000	0.625000
Na111	Na11	0.125000	0.375000	0.125000
Na121	Na12	0.625000	0.875000	0.625000
Na131	Na13	0.625000	0.125000	0.375000
Na141	Na14	0.125000	0.625000	0.875000
Na151	Na15	0.125000	0.125000	0.375000
Na161	Na16	0.625000	0.625000	0.875000
Na171	Na17	0.375000	0.625000	0.875000
Na181	Na18	0.875000	0.125000	0.375000
Na191	Na19	0.875000	0.625000	0.875000
Na201	Na20	0.375000	0.125000	0.375000
Na211	Na21	0.125000	0.375000	0.375000
Na221	Na22	0.125000	0.875000	0.875000
Na231	Na23	0.625000	0.875000	0.875000
Na241	Na24	0.625000	0.375000	0.375000
Na251	Na25	0.125000	0.375000	0.875000
Na261	Na26	0.625000	0.875000	0.375000
Na271	Na27	0.875000	0.875000	0.625000
Na281	Na28	0.375000	0.375000	0.125000
Na291	Na29	0.875000	0.375000	0.625000
Na301	Na30	0.875000	0.875000	0.125000
Na311	Na31	0.375000	0.875000	0.125000
Na321	Na32	0.375000	0.375000	0.625000
Na331	Na33	0.625000	0.375000	0.875000
Na341	Na34	0.125000	0.875000	0.375000
Na351	Na35	0.875000	0.625000	0.375000
Na361	Na36	0.875000	0.125000	0.875000
Na371	Na37	0.375000	0.125000	0.875000
Na381	Na38	0.375000	0.625000	0.375000
Na391	Na39	0.375000	0.875000	0.625000
Na401	Na40	0.875000	0.375000	0.125000
Na411	Na41	0.625000	0.375000	0.125000
Na421	Na42	0.125000	0.875000	0.625000
Na431	Na43	0.875000	0.625000	0.125000
Na441	Na44	0.375000	0.125000	0.625000
Na451	Na45	0.125000	0.625000	0.375000
Na461	Na46	0.125000	0.125000	0.875000
Na471	Na47	0.625000	0.125000	0.875000
Na481	Na48	0.625000	0.625000	0.375000
