data_IWAYEK_freeONLY_PM
_symmetry_space_group_name_H-M	'P1'
_cell_length_a	14.566200
_cell_length_b	14.566200
_cell_length_c	14.566200
_cell_angle_alpha	90.000000
_cell_angle_beta	90.000000
_cell_angle_gamma	90.000000
_symmetry_Int_Tables_number 1

loop_
_symmetry_equiv_pos_as_xyz
'x,y,z'

loop_
_atom_site_label
_atom_site_type_symbol
_atom_site_fract_x
_atom_site_fract_y
_atom_site_fract_z
O11	O1	0.000000	0.353000	0.000000
O21	O2	0.500000	0.853000	0.500000
O31	O3	0.000000	0.647000	0.000000
O41	O4	0.500000	0.147000	0.500000
O51	O5	0.000000	0.000000	0.353000
O61	O6	0.500000	0.500000	0.853000
O71	O7	0.000000	0.000000	0.647000
O81	O8	0.500000	0.500000	0.147000
O91	O9	0.353000	0.000000	0.000000
O101	O10	0.853000	0.500000	0.500000
O111	O11	0.647000	0.000000	0.000000
O121	O12	0.147000	0.500000	0.500000
Na11	Na1	0.000000	0.500000	0.000000
Na21	Na2	0.500000	0.000000	0.500000
Na31	Na3	0.000000	0.000000	0.500000
Na41	Na4	0.500000	0.500000	0.000000
Na51	Na5	0.500000	0.000000	0.000000
Na61	Na6	0.000000	0.500000	0.500000
Mn11	Mn1	0.000000	0.500000	0.250000
Mn21	Mn2	0.000000	0.500000	0.750000
Mn31	Mn3	0.500000	0.000000	0.250000
Mn41	Mn4	0.250000	0.000000	0.500000
Mn51	Mn5	0.750000	0.000000	0.500000
Mn61	Mn6	0.250000	0.500000	0.000000
Mn71	Mn7	0.500000	0.250000	0.000000
Mn81	Mn8	0.500000	0.750000	0.000000
Mn91	Mn9	0.500000	0.000000	0.750000
Mn101	Mn10	0.000000	0.250000	0.500000
Mn111	Mn11	0.000000	0.750000	0.500000
Mn121	Mn12	0.750000	0.500000	0.000000
O131	O13	0.850600	0.500000	0.258200
O141	O14	0.350600	0.000000	0.758200
O151	O15	0.149400	0.500000	0.258200
O161	O16	0.649400	0.000000	0.758200
O171	O17	0.149400	0.500000	0.741800
O181	O18	0.649400	0.000000	0.241800
O191	O19	0.850600	0.500000	0.741800
O201	O20	0.350600	0.000000	0.241800
O211	O21	0.258200	0.850600	0.500000
O221	O22	0.758200	0.350600	0.000000
O231	O23	0.258200	0.149400	0.500000
O241	O24	0.758200	0.649400	0.000000
O251	O25	0.741800	0.149400	0.500000
O261	O26	0.241800	0.649400	0.000000
O271	O27	0.741800	0.850600	0.500000
O281	O28	0.241800	0.350600	0.000000
O291	O29	0.500000	0.258200	0.850600
O301	O30	0.000000	0.758200	0.350600
O311	O31	0.500000	0.258200	0.149400
O321	O32	0.000000	0.758200	0.649400
O331	O33	0.500000	0.741800	0.149400
O341	O34	0.000000	0.241800	0.649400
O351	O35	0.500000	0.741800	0.850600
O361	O36	0.000000	0.241800	0.350600
O371	O37	0.500000	0.850600	0.741800
O381	O38	0.000000	0.350600	0.241800
O391	O39	0.500000	0.149400	0.741800
O401	O40	0.000000	0.649400	0.241800
O411	O41	0.500000	0.149400	0.258200
O421	O42	0.000000	0.649400	0.758200
O431	O43	0.500000	0.850600	0.258200
O441	O44	0.000000	0.350600	0.758200
O451	O45	0.850600	0.258200	0.500000
O461	O46	0.350600	0.758200	0.000000
O471	O47	0.149400	0.258200	0.500000
O481	O48	0.649400	0.758200	0.000000
O491	O49	0.149400	0.741800	0.500000
O501	O50	0.649400	0.241800	0.000000
O511	O51	0.850600	0.741800	0.500000
O521	O52	0.350600	0.241800	0.000000
O531	O53	0.258200	0.500000	0.149400
O541	O54	0.758200	0.000000	0.649400
O551	O55	0.258200	0.500000	0.850600
O561	O56	0.758200	0.000000	0.350600
O571	O57	0.741800	0.500000	0.850600
O581	O58	0.241800	0.000000	0.350600
O591	O59	0.741800	0.500000	0.149400
O601	O60	0.241800	0.000000	0.649400
C11	C1	0.827000	0.500000	0.173000
O611	O61	0.889200	0.500000	0.110800
C21	C2	0.327000	0.000000	0.673000
O621	O62	0.389200	0.000000	0.610800
C31	C3	0.173000	0.500000	0.173000
O631	O63	0.110800	0.500000	0.110800
C41	C4	0.673000	0.000000	0.673000
O641	O64	0.610800	0.000000	0.610800
C51	C5	0.173000	0.500000	0.827000
O651	O65	0.110800	0.500000	0.889200
C61	C6	0.673000	0.000000	0.327000
O661	O66	0.610800	0.000000	0.389200
C71	C7	0.827000	0.500000	0.827000
O671	O67	0.889200	0.500000	0.889200
C81	C8	0.327000	0.000000	0.327000
O681	O68	0.389200	0.000000	0.389200
C91	C9	0.173000	0.827000	0.500000
O691	O69	0.110800	0.889200	0.500000
C101	C10	0.673000	0.327000	0.000000
O701	O70	0.610800	0.389200	0.000000
C111	C11	0.173000	0.173000	0.500000
O711	O71	0.110800	0.110800	0.500000
C121	C12	0.673000	0.673000	0.000000
O721	O72	0.610800	0.610800	0.000000
C131	C13	0.827000	0.173000	0.500000
O731	O73	0.889200	0.110800	0.500000
C141	C14	0.327000	0.673000	0.000000
O741	O74	0.389200	0.610800	0.000000
C151	C15	0.827000	0.827000	0.500000
O751	O75	0.889200	0.889200	0.500000
C161	C16	0.327000	0.327000	0.000000
O761	O76	0.389200	0.389200	0.000000
C171	C17	0.500000	0.173000	0.827000
O771	O77	0.500000	0.110800	0.889200
C181	C18	0.000000	0.673000	0.327000
O781	O78	0.000000	0.610800	0.389200
C191	C19	0.500000	0.173000	0.173000
O791	O79	0.500000	0.110800	0.110800
C201	C20	0.000000	0.673000	0.673000
O801	O80	0.000000	0.610800	0.610800
C211	C21	0.500000	0.827000	0.173000
O811	O81	0.500000	0.889200	0.110800
C221	C22	0.000000	0.327000	0.673000
O821	O82	0.000000	0.389200	0.610800
C231	C23	0.500000	0.827000	0.827000
O831	O83	0.500000	0.889200	0.889200
C241	C24	0.000000	0.327000	0.327000
O841	O84	0.000000	0.389200	0.389200
