data_IWAYIO_freeONLY_PM
_symmetry_space_group_name_H-M	'P1'
_cell_length_a	29.019100
_cell_length_b	29.019100
_cell_length_c	29.019100
_cell_angle_alpha	90.000000
_cell_angle_beta	90.000000
_cell_angle_gamma	90.000000
_symmetry_Int_Tables_number 1

loop_
_symmetry_equiv_pos_as_xyz
'x,y,z'

loop_
_atom_site_label
_atom_site_type_symbol
_atom_site_fract_x
_atom_site_fract_y
_atom_site_fract_z
O11	O1	0.742800	0.625810	0.797860
C11	C1	0.787150	0.624750	0.792510
O21	O2	0.804600	0.624330	0.751770
O31	O3	0.811550	0.624230	0.828900
O41	O4	0.742800	0.125810	0.297860
C21	C2	0.787150	0.124750	0.292510
O51	O5	0.804600	0.124330	0.251770
O61	O6	0.811550	0.124230	0.328900
O71	O7	0.242800	0.625810	0.297860
C31	C3	0.287150	0.624750	0.292510
O81	O8	0.304600	0.624330	0.251770
O91	O9	0.311550	0.624230	0.328900
O101	O10	0.242800	0.125810	0.797860
C41	C4	0.287150	0.124750	0.792510
O111	O11	0.304600	0.124330	0.751770
O121	O12	0.311550	0.124230	0.828900
O131	O13	0.507200	0.124190	0.297860
C51	C5	0.462850	0.125250	0.292510
O141	O14	0.445400	0.125670	0.251770
O151	O15	0.438450	0.125770	0.328900
O161	O16	0.507200	0.624190	0.797860
C61	C6	0.462850	0.625250	0.792510
O171	O17	0.445400	0.625670	0.751770
O181	O18	0.438450	0.625770	0.828900
O191	O19	0.007200	0.124190	0.797860
C71	C7	0.962850	0.125250	0.792510
O201	O20	0.945400	0.125670	0.751770
O211	O21	0.938450	0.125770	0.828900
O221	O22	0.007200	0.624190	0.297860
C81	C8	0.962850	0.625250	0.292510
O231	O23	0.945400	0.625670	0.251770
O241	O24	0.938450	0.625770	0.328900
O251	O25	0.007200	0.125810	0.452140
C91	C9	0.962850	0.124750	0.457490
O261	O26	0.945400	0.124330	0.498230
O271	O27	0.938450	0.124230	0.421100
O281	O28	0.007200	0.625810	0.952140
C101	C10	0.962850	0.624750	0.957490
O291	O29	0.945400	0.624330	0.998230
O301	O30	0.938450	0.624230	0.921100
O311	O31	0.507200	0.125810	0.952140
C111	C11	0.462850	0.124750	0.957490
O321	O32	0.445400	0.124330	0.998230
O331	O33	0.438450	0.124230	0.921100
O341	O34	0.507200	0.625810	0.452140
C121	C12	0.462850	0.624750	0.457490
O351	O35	0.445400	0.624330	0.498230
O361	O36	0.438450	0.624230	0.421100
O371	O37	0.242800	0.624190	0.952140
C131	C13	0.287150	0.625250	0.957490
O381	O38	0.304600	0.625670	0.998230
O391	O39	0.311550	0.625770	0.921100
O401	O40	0.242800	0.124190	0.452140
C141	C14	0.287150	0.125250	0.457490
O411	O41	0.304600	0.125670	0.498230
O421	O42	0.311550	0.125770	0.421100
O431	O43	0.742800	0.624190	0.452140
C151	C15	0.787150	0.625250	0.457490
O441	O44	0.804600	0.625670	0.498230
O451	O45	0.811550	0.625770	0.421100
O461	O46	0.742800	0.124190	0.952140
C161	C16	0.787150	0.125250	0.957490
O471	O47	0.804600	0.125670	0.998230
O481	O48	0.811550	0.125770	0.921100
O491	O49	0.797860	0.742800	0.625810
C171	C17	0.792510	0.787150	0.624750
O501	O50	0.751770	0.804600	0.624330
O511	O51	0.828900	0.811550	0.624230
O521	O52	0.797860	0.242800	0.125810
C181	C18	0.792510	0.287150	0.124750
O531	O53	0.751770	0.304600	0.124330
O541	O54	0.828900	0.311550	0.124230
O551	O55	0.297860	0.742800	0.125810
C191	C19	0.292510	0.787150	0.124750
O561	O56	0.251770	0.804600	0.124330
O571	O57	0.328900	0.811550	0.124230
O581	O58	0.297860	0.242800	0.625810
C201	C20	0.292510	0.287150	0.624750
O591	O59	0.251770	0.304600	0.624330
O601	O60	0.328900	0.311550	0.624230
O611	O61	0.297860	0.507200	0.124190
C211	C21	0.292510	0.462850	0.125250
O621	O62	0.251770	0.445400	0.125670
O631	O63	0.328900	0.438450	0.125770
O641	O64	0.297860	0.007200	0.624190
C221	C22	0.292510	0.962850	0.625250
O651	O65	0.251770	0.945400	0.625670
O661	O66	0.328900	0.938450	0.625770
O671	O67	0.797860	0.507200	0.624190
C231	C23	0.792510	0.462850	0.625250
O681	O68	0.751770	0.445400	0.625670
O691	O69	0.828900	0.438450	0.625770
O701	O70	0.797860	0.007200	0.124190
C241	C24	0.792510	0.962850	0.125250
O711	O71	0.751770	0.945400	0.125670
O721	O72	0.828900	0.938450	0.125770
O731	O73	0.452140	0.007200	0.125810
C251	C25	0.457490	0.962850	0.124750
O741	O74	0.498230	0.945400	0.124330
O751	O75	0.421100	0.938450	0.124230
O761	O76	0.452140	0.507200	0.625810
C261	C26	0.457490	0.462850	0.624750
O771	O77	0.498230	0.445400	0.624330
O781	O78	0.421100	0.438450	0.624230
O791	O79	0.952140	0.007200	0.625810
C271	C27	0.957490	0.962850	0.624750
O801	O80	0.998230	0.945400	0.624330
O811	O81	0.921100	0.938450	0.624230
O821	O82	0.952140	0.507200	0.125810
C281	C28	0.957490	0.462850	0.124750
O831	O83	0.998230	0.445400	0.124330
O841	O84	0.921100	0.438450	0.124230
O851	O85	0.952140	0.242800	0.624190
C291	C29	0.957490	0.287150	0.625250
O861	O86	0.998230	0.304600	0.625670
O871	O87	0.921100	0.311550	0.625770
O881	O88	0.952140	0.742800	0.124190
C301	C30	0.957490	0.787150	0.125250
O891	O89	0.998230	0.804600	0.125670
O901	O90	0.921100	0.811550	0.125770
O911	O91	0.452140	0.242800	0.124190
C311	C31	0.457490	0.287150	0.125250
O921	O92	0.498230	0.304600	0.125670
O931	O93	0.421100	0.311550	0.125770
O941	O94	0.452140	0.742800	0.624190
C321	C32	0.457490	0.787150	0.625250
O951	O95	0.498230	0.804600	0.625670
O961	O96	0.421100	0.811550	0.625770
O971	O97	0.625810	0.797860	0.742800
C331	C33	0.624750	0.792510	0.787150
O981	O98	0.624330	0.751770	0.804600
O991	O99	0.624230	0.828900	0.811550
O1001	O100	0.625810	0.297860	0.242800
C341	C34	0.624750	0.292510	0.287150
O1011	O101	0.624330	0.251770	0.304600
O1021	O102	0.624230	0.328900	0.311550
O1031	O103	0.125810	0.797860	0.242800
C351	C35	0.124750	0.792510	0.287150
O1041	O104	0.124330	0.751770	0.304600
O1051	O105	0.124230	0.828900	0.311550
O1061	O106	0.125810	0.297860	0.742800
C361	C36	0.124750	0.292510	0.787150
O1071	O107	0.124330	0.251770	0.804600
O1081	O108	0.124230	0.328900	0.811550
O1091	O109	0.124190	0.297860	0.507200
C371	C37	0.125250	0.292510	0.462850
O1101	O110	0.125670	0.251770	0.445400
O1111	O111	0.125770	0.328900	0.438450
O1121	O112	0.124190	0.797860	0.007200
C381	C38	0.125250	0.792510	0.962850
O1131	O113	0.125670	0.751770	0.945400
O1141	O114	0.125770	0.828900	0.938450
O1151	O115	0.624190	0.297860	0.007200
C391	C39	0.625250	0.292510	0.962850
O1161	O116	0.625670	0.251770	0.945400
O1171	O117	0.625770	0.328900	0.938450
O1181	O118	0.624190	0.797860	0.507200
C401	C40	0.625250	0.792510	0.462850
O1191	O119	0.625670	0.751770	0.445400
O1201	O120	0.625770	0.828900	0.438450
O1211	O121	0.125810	0.452140	0.007200
C411	C41	0.124750	0.457490	0.962850
O1221	O122	0.124330	0.498230	0.945400
O1231	O123	0.124230	0.421100	0.938450
O1241	O124	0.125810	0.952140	0.507200
C421	C42	0.124750	0.957490	0.462850
O1251	O125	0.124330	0.998230	0.445400
O1261	O126	0.124230	0.921100	0.438450
O1271	O127	0.625810	0.452140	0.507200
C431	C43	0.624750	0.457490	0.462850
O1281	O128	0.624330	0.498230	0.445400
O1291	O129	0.624230	0.421100	0.438450
O1301	O130	0.625810	0.952140	0.007200
C441	C44	0.624750	0.957490	0.962850
O1311	O131	0.624330	0.998230	0.945400
O1321	O132	0.624230	0.921100	0.938450
O1331	O133	0.624190	0.952140	0.242800
C451	C45	0.625250	0.957490	0.287150
O1341	O134	0.625670	0.998230	0.304600
O1351	O135	0.625770	0.921100	0.311550
O1361	O136	0.624190	0.452140	0.742800
C461	C46	0.625250	0.457490	0.787150
O1371	O137	0.625670	0.498230	0.804600
O1381	O138	0.625770	0.421100	0.811550
O1391	O139	0.124190	0.952140	0.742800
C471	C47	0.125250	0.957490	0.787150
O1401	O140	0.125670	0.998230	0.804600
O1411	O141	0.125770	0.921100	0.811550
O1421	O142	0.124190	0.452140	0.242800
C481	C48	0.125250	0.457490	0.287150
O1431	O143	0.125670	0.498230	0.304600
O1441	O144	0.125770	0.421100	0.311550
O1451	O145	0.375810	0.992800	0.202140
C491	C49	0.374750	0.037150	0.207490
O1461	O146	0.374330	0.054600	0.248230
O1471	O147	0.374230	0.061550	0.171100
O1481	O148	0.375810	0.492800	0.702140
C501	C50	0.374750	0.537150	0.707490
O1491	O149	0.374330	0.554600	0.748230
O1501	O150	0.374230	0.561550	0.671100
O1511	O151	0.875810	0.992800	0.702140
C511	C51	0.874750	0.037150	0.707490
O1521	O152	0.874330	0.054600	0.748230
O1531	O153	0.874230	0.061550	0.671100
O1541	O154	0.875810	0.492800	0.202140
C521	C52	0.874750	0.537150	0.207490
O1551	O155	0.874330	0.554600	0.248230
O1561	O156	0.874230	0.561550	0.171100
O1571	O157	0.874190	0.757200	0.702140
C531	C53	0.875250	0.712850	0.707490
O1581	O158	0.875670	0.695400	0.748230
O1591	O159	0.875770	0.688450	0.671100
O1601	O160	0.874190	0.257200	0.202140
C541	C54	0.875250	0.212850	0.207490
O1611	O161	0.875670	0.195400	0.248230
O1621	O162	0.875770	0.188450	0.171100
O1631	O163	0.374190	0.757200	0.202140
C551	C55	0.375250	0.712850	0.207490
O1641	O164	0.375670	0.695400	0.248230
O1651	O165	0.375770	0.688450	0.171100
O1661	O166	0.374190	0.257200	0.702140
C561	C56	0.375250	0.212850	0.707490
O1671	O167	0.375670	0.195400	0.748230
O1681	O168	0.375770	0.188450	0.671100
O1691	O169	0.875810	0.257200	0.547860
C571	C57	0.874750	0.212850	0.542510
O1701	O170	0.874330	0.195400	0.501770
O1711	O171	0.874230	0.188450	0.578900
O1721	O172	0.875810	0.757200	0.047860
C581	C58	0.874750	0.712850	0.042510
O1731	O173	0.874330	0.695400	0.001770
O1741	O174	0.874230	0.688450	0.078900
O1751	O175	0.375810	0.257200	0.047860
C591	C59	0.374750	0.212850	0.042510
O1761	O176	0.374330	0.195400	0.001770
O1771	O177	0.374230	0.188450	0.078900
O1781	O178	0.375810	0.757200	0.547860
C601	C60	0.374750	0.712850	0.542510
O1791	O179	0.374330	0.695400	0.501770
O1801	O180	0.374230	0.688450	0.578900
O1811	O181	0.374190	0.492800	0.047860
C611	C61	0.375250	0.537150	0.042510
O1821	O182	0.375670	0.554600	0.001770
O1831	O183	0.375770	0.561550	0.078900
O1841	O184	0.374190	0.992800	0.547860
C621	C62	0.375250	0.037150	0.542510
O1851	O185	0.375670	0.054600	0.501770
O1861	O186	0.375770	0.061550	0.578900
O1871	O187	0.874190	0.492800	0.547860
C631	C63	0.875250	0.537150	0.542510
O1881	O188	0.875670	0.554600	0.501770
O1891	O189	0.875770	0.561550	0.578900
O1901	O190	0.874190	0.992800	0.047860
C641	C64	0.875250	0.037150	0.042510
O1911	O191	0.875670	0.054600	0.001770
O1921	O192	0.875770	0.061550	0.078900
O1931	O193	0.492800	0.047860	0.374190
C651	C65	0.537150	0.042510	0.375250
O1941	O194	0.554600	0.001770	0.375670
O1951	O195	0.561550	0.078900	0.375770
O1961	O196	0.492800	0.547860	0.874190
C661	C66	0.537150	0.542510	0.875250
O1971	O197	0.554600	0.501770	0.875670
O1981	O198	0.561550	0.578900	0.875770
O1991	O199	0.992800	0.047860	0.874190
C671	C67	0.037150	0.042510	0.875250
O2001	O200	0.054600	0.001770	0.875670
O2011	O201	0.061550	0.078900	0.875770
O2021	O202	0.992800	0.547860	0.374190
C681	C68	0.037150	0.542510	0.375250
O2031	O203	0.054600	0.501770	0.375670
O2041	O204	0.061550	0.578900	0.375770
O2051	O205	0.257200	0.547860	0.875810
C691	C69	0.212850	0.542510	0.874750
O2061	O206	0.195400	0.501770	0.874330
O2071	O207	0.188450	0.578900	0.874230
O2081	O208	0.257200	0.047860	0.375810
C701	C70	0.212850	0.042510	0.374750
O2091	O209	0.195400	0.001770	0.374330
O2101	O210	0.188450	0.078900	0.374230
O2111	O211	0.757200	0.547860	0.375810
C711	C71	0.712850	0.542510	0.374750
O2121	O212	0.695400	0.501770	0.374330
O2131	O213	0.688450	0.578900	0.374230
O2141	O214	0.757200	0.047860	0.875810
C721	C72	0.712850	0.042510	0.874750
O2151	O215	0.695400	0.001770	0.874330
O2161	O216	0.688450	0.078900	0.874230
O2171	O217	0.757200	0.702140	0.874190
C731	C73	0.712850	0.707490	0.875250
O2181	O218	0.695400	0.748230	0.875670
O2191	O219	0.688450	0.671100	0.875770
O2201	O220	0.757200	0.202140	0.374190
C741	C74	0.712850	0.207490	0.375250
O2211	O221	0.695400	0.248230	0.375670
O2221	O222	0.688450	0.171100	0.375770
O2231	O223	0.257200	0.702140	0.374190
C751	C75	0.212850	0.707490	0.375250
O2241	O224	0.195400	0.748230	0.375670
O2251	O225	0.188450	0.671100	0.375770
O2261	O226	0.257200	0.202140	0.874190
C761	C76	0.212850	0.207490	0.875250
O2271	O227	0.195400	0.248230	0.875670
O2281	O228	0.188450	0.171100	0.875770
O2291	O229	0.992800	0.202140	0.375810
C771	C77	0.037150	0.207490	0.374750
O2301	O230	0.054600	0.248230	0.374330
O2311	O231	0.061550	0.171100	0.374230
O2321	O232	0.992800	0.702140	0.875810
C781	C78	0.037150	0.707490	0.874750
O2331	O233	0.054600	0.748230	0.874330
O2341	O234	0.061550	0.671100	0.874230
O2351	O235	0.492800	0.202140	0.875810
C791	C79	0.537150	0.207490	0.874750
O2361	O236	0.554600	0.248230	0.874330
O2371	O237	0.561550	0.171100	0.874230
O2381	O238	0.492800	0.702140	0.375810
C801	C80	0.537150	0.707490	0.374750
O2391	O239	0.554600	0.748230	0.374330
O2401	O240	0.561550	0.671100	0.374230
O2411	O241	0.547860	0.875810	0.257200
C811	C81	0.542510	0.874750	0.212850
O2421	O242	0.501770	0.874330	0.195400
O2431	O243	0.578900	0.874230	0.188450
O2441	O244	0.547860	0.375810	0.757200
C821	C82	0.542510	0.374750	0.712850
O2451	O245	0.501770	0.374330	0.695400
O2461	O246	0.578900	0.374230	0.688450
O2471	O247	0.047860	0.875810	0.757200
C831	C83	0.042510	0.874750	0.712850
O2481	O248	0.001770	0.874330	0.695400
O2491	O249	0.078900	0.874230	0.688450
O2501	O250	0.047860	0.375810	0.257200
C841	C84	0.042510	0.374750	0.212850
O2511	O251	0.001770	0.374330	0.195400
O2521	O252	0.078900	0.374230	0.188450
O2531	O253	0.047860	0.374190	0.492800
C851	C85	0.042510	0.375250	0.537150
O2541	O254	0.001770	0.375670	0.554600
O2551	O255	0.078900	0.375770	0.561550
O2561	O256	0.047860	0.874190	0.992800
C861	C86	0.042510	0.875250	0.037150
O2571	O257	0.001770	0.875670	0.054600
O2581	O258	0.078900	0.875770	0.061550
O2591	O259	0.547860	0.374190	0.992800
C871	C87	0.542510	0.375250	0.037150
O2601	O260	0.501770	0.375670	0.054600
O2611	O261	0.578900	0.375770	0.061550
O2621	O262	0.547860	0.874190	0.492800
C881	C88	0.542510	0.875250	0.537150
O2631	O263	0.501770	0.875670	0.554600
O2641	O264	0.578900	0.875770	0.561550
O2651	O265	0.202140	0.375810	0.992800
C891	C89	0.207490	0.374750	0.037150
O2661	O266	0.248230	0.374330	0.054600
O2671	O267	0.171100	0.374230	0.061550
O2681	O268	0.202140	0.875810	0.492800
C901	C90	0.207490	0.874750	0.537150
O2691	O269	0.248230	0.874330	0.554600
O2701	O270	0.171100	0.874230	0.561550
O2711	O271	0.702140	0.375810	0.492800
C911	C91	0.707490	0.374750	0.537150
O2721	O272	0.748230	0.374330	0.554600
O2731	O273	0.671100	0.374230	0.561550
O2741	O274	0.702140	0.875810	0.992800
C921	C92	0.707490	0.874750	0.037150
O2751	O275	0.748230	0.874330	0.054600
O2761	O276	0.671100	0.874230	0.061550
O2771	O277	0.702140	0.874190	0.757200
C931	C93	0.707490	0.875250	0.712850
O2781	O278	0.748230	0.875670	0.695400
O2791	O279	0.671100	0.875770	0.688450
O2801	O280	0.702140	0.374190	0.257200
C941	C94	0.707490	0.375250	0.212850
O2811	O281	0.748230	0.375670	0.195400
O2821	O282	0.671100	0.375770	0.188450
O2831	O283	0.202140	0.874190	0.257200
C951	C95	0.207490	0.875250	0.212850
O2841	O284	0.248230	0.875670	0.195400
O2851	O285	0.171100	0.875770	0.188450
O2861	O286	0.202140	0.374190	0.757200
C961	C96	0.207490	0.375250	0.712850
O2871	O287	0.248230	0.375670	0.695400
O2881	O288	0.171100	0.375770	0.688450
O2891	O289	0.257200	0.374190	0.202140
C971	C97	0.212850	0.375250	0.207490
O2901	O290	0.195400	0.375670	0.248230
O2911	O291	0.188450	0.375770	0.171100
O2921	O292	0.257200	0.874190	0.702140
C981	C98	0.212850	0.875250	0.707490
O2931	O293	0.195400	0.875670	0.748230
O2941	O294	0.188450	0.875770	0.671100
O2951	O295	0.757200	0.374190	0.702140
C991	C99	0.712850	0.375250	0.707490
O2961	O296	0.695400	0.375670	0.748230
O2971	O297	0.688450	0.375770	0.671100
O2981	O298	0.757200	0.874190	0.202140
C1001	C100	0.712850	0.875250	0.207490
O2991	O299	0.695400	0.875670	0.248230
O3001	O300	0.688450	0.875770	0.171100
O3011	O301	0.492800	0.875810	0.702140
C1011	C101	0.537150	0.874750	0.707490
O3021	O302	0.554600	0.874330	0.748230
O3031	O303	0.561550	0.874230	0.671100
O3041	O304	0.492800	0.375810	0.202140
C1021	C102	0.537150	0.374750	0.207490
O3051	O305	0.554600	0.374330	0.248230
O3061	O306	0.561550	0.374230	0.171100
O3071	O307	0.992800	0.875810	0.202140
C1031	C103	0.037150	0.874750	0.207490
O3081	O308	0.054600	0.874330	0.248230
O3091	O309	0.061550	0.874230	0.171100
O3101	O310	0.992800	0.375810	0.702140
C1041	C104	0.037150	0.374750	0.707490
O3111	O311	0.054600	0.374330	0.748230
O3121	O312	0.061550	0.374230	0.671100
O3131	O313	0.992800	0.874190	0.547860
C1051	C105	0.037150	0.875250	0.542510
O3141	O314	0.054600	0.875670	0.501770
O3151	O315	0.061550	0.875770	0.578900
O3161	O316	0.992800	0.374190	0.047860
C1061	C106	0.037150	0.375250	0.042510
O3171	O317	0.054600	0.375670	0.001770
O3181	O318	0.061550	0.375770	0.078900
O3191	O319	0.492800	0.874190	0.047860
C1071	C107	0.537150	0.875250	0.042510
O3201	O320	0.554600	0.875670	0.001770
O3211	O321	0.561550	0.875770	0.078900
O3221	O322	0.492800	0.374190	0.547860
C1081	C108	0.537150	0.375250	0.542510
O3231	O323	0.554600	0.375670	0.501770
O3241	O324	0.561550	0.375770	0.578900
O3251	O325	0.757200	0.375810	0.047860
C1091	C109	0.712850	0.374750	0.042510
O3261	O326	0.695400	0.374330	0.001770
O3271	O327	0.688450	0.374230	0.078900
O3281	O328	0.757200	0.875810	0.547860
C1101	C110	0.712850	0.874750	0.542510
O3291	O329	0.695400	0.874330	0.501770
O3301	O330	0.688450	0.874230	0.578900
O3311	O331	0.257200	0.375810	0.547860
C1111	C111	0.212850	0.374750	0.542510
O3321	O332	0.195400	0.374330	0.501770
O3331	O333	0.188450	0.374230	0.578900
O3341	O334	0.257200	0.875810	0.047860
C1121	C112	0.212850	0.874750	0.042510
O3351	O335	0.195400	0.874330	0.001770
O3361	O336	0.188450	0.874230	0.078900
O3371	O337	0.202140	0.257200	0.374190
C1131	C113	0.207490	0.212850	0.375250
O3381	O338	0.248230	0.195400	0.375670
O3391	O339	0.171100	0.188450	0.375770
O3401	O340	0.202140	0.757200	0.874190
C1141	C114	0.207490	0.712850	0.875250
O3411	O341	0.248230	0.695400	0.875670
O3421	O342	0.171100	0.688450	0.875770
O3431	O343	0.702140	0.257200	0.874190
C1151	C115	0.707490	0.212850	0.875250
O3441	O344	0.748230	0.195400	0.875670
O3451	O345	0.671100	0.188450	0.875770
O3461	O346	0.702140	0.757200	0.374190
C1161	C116	0.707490	0.712850	0.375250
O3471	O347	0.748230	0.695400	0.375670
O3481	O348	0.671100	0.688450	0.375770
O3491	O349	0.702140	0.492800	0.875810
C1171	C117	0.707490	0.537150	0.874750
O3501	O350	0.748230	0.554600	0.874330
O3511	O351	0.671100	0.561550	0.874230
O3521	O352	0.702140	0.992800	0.375810
C1181	C118	0.707490	0.037150	0.374750
O3531	O353	0.748230	0.054600	0.374330
O3541	O354	0.671100	0.061550	0.374230
O3551	O355	0.202140	0.492800	0.375810
C1191	C119	0.207490	0.537150	0.374750
O3561	O356	0.248230	0.554600	0.374330
O3571	O357	0.171100	0.561550	0.374230
O3581	O358	0.202140	0.992800	0.875810
C1201	C120	0.207490	0.037150	0.874750
O3591	O359	0.248230	0.054600	0.874330
O3601	O360	0.171100	0.061550	0.874230
O3611	O361	0.547860	0.992800	0.874190
C1211	C121	0.542510	0.037150	0.875250
O3621	O362	0.501770	0.054600	0.875670
O3631	O363	0.578900	0.061550	0.875770
O3641	O364	0.547860	0.492800	0.374190
C1221	C122	0.542510	0.537150	0.375250
O3651	O365	0.501770	0.554600	0.375670
O3661	O366	0.578900	0.561550	0.375770
O3671	O367	0.047860	0.992800	0.374190
C1231	C123	0.042510	0.037150	0.375250
O3681	O368	0.001770	0.054600	0.375670
O3691	O369	0.078900	0.061550	0.375770
O3701	O370	0.047860	0.492800	0.874190
C1241	C124	0.042510	0.537150	0.875250
O3711	O371	0.001770	0.554600	0.875670
O3721	O372	0.078900	0.561550	0.875770
O3731	O373	0.047860	0.757200	0.375810
C1251	C125	0.042510	0.712850	0.374750
O3741	O374	0.001770	0.695400	0.374330
O3751	O375	0.078900	0.688450	0.374230
O3761	O376	0.047860	0.257200	0.875810
C1261	C126	0.042510	0.212850	0.874750
O3771	O377	0.001770	0.195400	0.874330
O3781	O378	0.078900	0.188450	0.874230
O3791	O379	0.547860	0.757200	0.875810
C1271	C127	0.542510	0.712850	0.874750
O3801	O380	0.501770	0.695400	0.874330
O3811	O381	0.578900	0.688450	0.874230
O3821	O382	0.547860	0.257200	0.375810
C1281	C128	0.542510	0.212850	0.374750
O3831	O383	0.501770	0.195400	0.374330
O3841	O384	0.578900	0.188450	0.374230
O3851	O385	0.374190	0.202140	0.257200
C1291	C129	0.375250	0.207490	0.212850
O3861	O386	0.375670	0.248230	0.195400
O3871	O387	0.375770	0.171100	0.188450
O3881	O388	0.374190	0.702140	0.757200
C1301	C130	0.375250	0.707490	0.712850
O3891	O389	0.375670	0.748230	0.695400
O3901	O390	0.375770	0.671100	0.688450
O3911	O391	0.874190	0.202140	0.757200
C1311	C131	0.875250	0.207490	0.712850
O3921	O392	0.875670	0.248230	0.695400
O3931	O393	0.875770	0.171100	0.688450
O3941	O394	0.874190	0.702140	0.257200
C1321	C132	0.875250	0.707490	0.212850
O3951	O395	0.875670	0.748230	0.195400
O3961	O396	0.875770	0.671100	0.188450
O3971	O397	0.875810	0.702140	0.492800
C1331	C133	0.874750	0.707490	0.537150
O3981	O398	0.874330	0.748230	0.554600
O3991	O399	0.874230	0.671100	0.561550
O4001	O400	0.875810	0.202140	0.992800
C1341	C134	0.874750	0.207490	0.037150
O4011	O401	0.874330	0.248230	0.054600
O4021	O402	0.874230	0.171100	0.061550
O4031	O403	0.375810	0.702140	0.992800
C1351	C135	0.374750	0.707490	0.037150
O4041	O404	0.374330	0.748230	0.054600
O4051	O405	0.374230	0.671100	0.061550
O4061	O406	0.375810	0.202140	0.492800
C1361	C136	0.374750	0.207490	0.537150
O4071	O407	0.374330	0.248230	0.554600
O4081	O408	0.374230	0.171100	0.561550
O4091	O409	0.874190	0.547860	0.992800
C1371	C137	0.875250	0.542510	0.037150
O4101	O410	0.875670	0.501770	0.054600
O4111	O411	0.875770	0.578900	0.061550
O4121	O412	0.874190	0.047860	0.492800
C1381	C138	0.875250	0.042510	0.537150
O4131	O413	0.875670	0.001770	0.554600
O4141	O414	0.875770	0.078900	0.561550
O4151	O415	0.374190	0.547860	0.492800
C1391	C139	0.375250	0.542510	0.537150
O4161	O416	0.375670	0.501770	0.554600
O4171	O417	0.375770	0.578900	0.561550
O4181	O418	0.374190	0.047860	0.992800
C1401	C140	0.375250	0.042510	0.037150
O4191	O419	0.375670	0.001770	0.054600
O4201	O420	0.375770	0.078900	0.061550
O4211	O421	0.375810	0.047860	0.757200
C1411	C141	0.374750	0.042510	0.712850
O4221	O422	0.374330	0.001770	0.695400
O4231	O423	0.374230	0.078900	0.688450
O4241	O424	0.375810	0.547860	0.257200
C1421	C142	0.374750	0.542510	0.212850
O4251	O425	0.374330	0.501770	0.195400
O4261	O426	0.374230	0.578900	0.188450
O4271	O427	0.875810	0.047860	0.257200
C1431	C143	0.874750	0.042510	0.212850
O4281	O428	0.874330	0.001770	0.195400
O4291	O429	0.874230	0.078900	0.188450
O4301	O430	0.875810	0.547860	0.757200
C1441	C144	0.874750	0.542510	0.712850
O4311	O431	0.874330	0.501770	0.695400
O4321	O432	0.874230	0.578900	0.688450
O4331	O433	0.624190	0.007200	0.797860
C1451	C145	0.625250	0.962850	0.792510
O4341	O434	0.625670	0.945400	0.751770
O4351	O435	0.625770	0.938450	0.828900
O4361	O436	0.624190	0.507200	0.297860
C1461	C146	0.625250	0.462850	0.292510
O4371	O437	0.625670	0.445400	0.251770
O4381	O438	0.625770	0.438450	0.328900
O4391	O439	0.124190	0.007200	0.297860
C1471	C147	0.125250	0.962850	0.292510
O4401	O440	0.125670	0.945400	0.251770
O4411	O441	0.125770	0.938450	0.328900
O4421	O442	0.124190	0.507200	0.797860
C1481	C148	0.125250	0.462850	0.792510
O4431	O443	0.125670	0.445400	0.751770
O4441	O444	0.125770	0.438450	0.828900
O4451	O445	0.125810	0.242800	0.297860
C1491	C149	0.124750	0.287150	0.292510
O4461	O446	0.124330	0.304600	0.251770
O4471	O447	0.124230	0.311550	0.328900
O4481	O448	0.125810	0.742800	0.797860
C1501	C150	0.124750	0.787150	0.792510
O4491	O449	0.124330	0.804600	0.751770
O4501	O450	0.124230	0.811550	0.828900
O4511	O451	0.625810	0.242800	0.797860
C1511	C151	0.624750	0.287150	0.792510
O4521	O452	0.624330	0.304600	0.751770
O4531	O453	0.624230	0.311550	0.828900
O4541	O454	0.625810	0.742800	0.297860
C1521	C152	0.624750	0.787150	0.292510
O4551	O455	0.624330	0.804600	0.251770
O4561	O456	0.624230	0.811550	0.328900
O4571	O457	0.124190	0.742800	0.452140
C1531	C153	0.125250	0.787150	0.457490
O4581	O458	0.125670	0.804600	0.498230
O4591	O459	0.125770	0.811550	0.421100
O4601	O460	0.124190	0.242800	0.952140
C1541	C154	0.125250	0.287150	0.957490
O4611	O461	0.125670	0.304600	0.998230
O4621	O462	0.125770	0.311550	0.921100
O4631	O463	0.624190	0.742800	0.952140
C1551	C155	0.625250	0.787150	0.957490
O4641	O464	0.625670	0.804600	0.998230
O4651	O465	0.625770	0.811550	0.921100
O4661	O466	0.624190	0.242800	0.452140
C1561	C156	0.625250	0.287150	0.457490
O4671	O467	0.625670	0.304600	0.498230
O4681	O468	0.625770	0.311550	0.421100
O4691	O469	0.625810	0.507200	0.952140
C1571	C157	0.624750	0.462850	0.957490
O4701	O470	0.624330	0.445400	0.998230
O4711	O471	0.624230	0.438450	0.921100
O4721	O472	0.625810	0.007200	0.452140
C1581	C158	0.624750	0.962850	0.457490
O4731	O473	0.624330	0.945400	0.498230
O4741	O474	0.624230	0.938450	0.421100
O4751	O475	0.125810	0.507200	0.452140
C1591	C159	0.124750	0.462850	0.457490
O4761	O476	0.124330	0.445400	0.498230
O4771	O477	0.124230	0.438450	0.421100
O4781	O478	0.125810	0.007200	0.952140
C1601	C160	0.124750	0.962850	0.957490
O4791	O479	0.124330	0.945400	0.998230
O4801	O480	0.124230	0.938450	0.921100
O4811	O481	0.507200	0.952140	0.625810
C1611	C161	0.462850	0.957490	0.624750
O4821	O482	0.445400	0.998230	0.624330
O4831	O483	0.438450	0.921100	0.624230
O4841	O484	0.507200	0.452140	0.125810
C1621	C162	0.462850	0.457490	0.124750
O4851	O485	0.445400	0.498230	0.124330
O4861	O486	0.438450	0.421100	0.124230
O4871	O487	0.007200	0.952140	0.125810
C1631	C163	0.962850	0.957490	0.124750
O4881	O488	0.945400	0.998230	0.124330
O4891	O489	0.938450	0.921100	0.124230
O4901	O490	0.007200	0.452140	0.625810
C1641	C164	0.962850	0.457490	0.624750
O4911	O491	0.945400	0.498230	0.624330
O4921	O492	0.938450	0.421100	0.624230
O4931	O493	0.742800	0.452140	0.124190
C1651	C165	0.787150	0.457490	0.125250
O4941	O494	0.804600	0.498230	0.125670
O4951	O495	0.811550	0.421100	0.125770
O4961	O496	0.742800	0.952140	0.624190
C1661	C166	0.787150	0.957490	0.625250
O4971	O497	0.804600	0.998230	0.625670
O4981	O498	0.811550	0.921100	0.625770
O4991	O499	0.242800	0.452140	0.624190
C1671	C167	0.287150	0.457490	0.625250
O5001	O500	0.304600	0.498230	0.625670
O5011	O501	0.311550	0.421100	0.625770
O5021	O502	0.242800	0.952140	0.124190
C1681	C168	0.287150	0.957490	0.125250
O5031	O503	0.304600	0.998230	0.125670
O5041	O504	0.311550	0.921100	0.125770
O5051	O505	0.242800	0.297860	0.125810
C1691	C169	0.287150	0.292510	0.124750
O5061	O506	0.304600	0.251770	0.124330
O5071	O507	0.311550	0.328900	0.124230
O5081	O508	0.242800	0.797860	0.625810
C1701	C170	0.287150	0.792510	0.624750
O5091	O509	0.304600	0.751770	0.624330
O5101	O510	0.311550	0.828900	0.624230
O5111	O511	0.742800	0.297860	0.625810
C1711	C171	0.787150	0.292510	0.624750
O5121	O512	0.804600	0.251770	0.624330
O5131	O513	0.811550	0.328900	0.624230
O5141	O514	0.742800	0.797860	0.125810
C1721	C172	0.787150	0.792510	0.124750
O5151	O515	0.804600	0.751770	0.124330
O5161	O516	0.811550	0.828900	0.124230
O5171	O517	0.007200	0.797860	0.624190
C1731	C173	0.962850	0.792510	0.625250
O5181	O518	0.945400	0.751770	0.625670
O5191	O519	0.938450	0.828900	0.625770
O5201	O520	0.007200	0.297860	0.124190
C1741	C174	0.962850	0.292510	0.125250
O5211	O521	0.945400	0.251770	0.125670
O5221	O522	0.938450	0.328900	0.125770
O5231	O523	0.507200	0.797860	0.124190
C1751	C175	0.462850	0.792510	0.125250
O5241	O524	0.445400	0.751770	0.125670
O5251	O525	0.438450	0.828900	0.125770
O5261	O526	0.507200	0.297860	0.624190
C1761	C176	0.462850	0.292510	0.625250
O5271	O527	0.445400	0.251770	0.625670
O5281	O528	0.438450	0.328900	0.625770
O5291	O529	0.452140	0.124190	0.742800
C1771	C177	0.457490	0.125250	0.787150
O5301	O530	0.498230	0.125670	0.804600
O5311	O531	0.421100	0.125770	0.811550
O5321	O532	0.452140	0.624190	0.242800
C1781	C178	0.457490	0.625250	0.287150
O5331	O533	0.498230	0.625670	0.304600
O5341	O534	0.421100	0.625770	0.311550
O5351	O535	0.952140	0.124190	0.242800
C1791	C179	0.957490	0.125250	0.287150
O5361	O536	0.998230	0.125670	0.304600
O5371	O537	0.921100	0.125770	0.311550
O5381	O538	0.952140	0.624190	0.742800
C1801	C180	0.957490	0.625250	0.787150
O5391	O539	0.998230	0.625670	0.804600
O5401	O540	0.921100	0.625770	0.811550
O5411	O541	0.952140	0.625810	0.507200
C1811	C181	0.957490	0.624750	0.462850
O5421	O542	0.998230	0.624330	0.445400
O5431	O543	0.921100	0.624230	0.438450
O5441	O544	0.952140	0.125810	0.007200
C1821	C182	0.957490	0.124750	0.962850
O5451	O545	0.998230	0.124330	0.945400
O5461	O546	0.921100	0.124230	0.938450
O5471	O547	0.452140	0.625810	0.007200
C1831	C183	0.457490	0.624750	0.962850
O5481	O548	0.498230	0.624330	0.945400
O5491	O549	0.421100	0.624230	0.938450
O5501	O550	0.452140	0.125810	0.507200
C1841	C184	0.457490	0.124750	0.462850
O5511	O551	0.498230	0.124330	0.445400
O5521	O552	0.421100	0.124230	0.438450
O5531	O553	0.797860	0.624190	0.007200
C1851	C185	0.792510	0.625250	0.962850
O5541	O554	0.751770	0.625670	0.945400
O5551	O555	0.828900	0.625770	0.938450
O5561	O556	0.797860	0.124190	0.507200
C1861	C186	0.792510	0.125250	0.462850
O5571	O557	0.751770	0.125670	0.445400
O5581	O558	0.828900	0.125770	0.438450
O5591	O559	0.297860	0.624190	0.507200
C1871	C187	0.292510	0.625250	0.462850
O5601	O560	0.251770	0.625670	0.445400
O5611	O561	0.328900	0.625770	0.438450
O5621	O562	0.297860	0.124190	0.007200
C1881	C188	0.292510	0.125250	0.962850
O5631	O563	0.251770	0.125670	0.945400
O5641	O564	0.328900	0.125770	0.938450
O5651	O565	0.297860	0.125810	0.242800
C1891	C189	0.292510	0.124750	0.287150
O5661	O566	0.251770	0.124330	0.304600
O5671	O567	0.328900	0.124230	0.311550
O5681	O568	0.297860	0.625810	0.742800
C1901	C190	0.292510	0.624750	0.787150
O5691	O569	0.251770	0.624330	0.804600
O5701	O570	0.328900	0.624230	0.811550
O5711	O571	0.797860	0.125810	0.742800
C1911	C191	0.792510	0.124750	0.787150
O5721	O572	0.751770	0.124330	0.804600
O5731	O573	0.828900	0.124230	0.811550
O5741	O574	0.797860	0.625810	0.242800
C1921	C192	0.792510	0.624750	0.287150
O5751	O575	0.751770	0.624330	0.304600
O5761	O576	0.828900	0.624230	0.311550
O5771	O577	0.625000	0.625000	0.953700
O5781	O578	0.125000	0.625000	0.453700
O5791	O579	0.625000	0.125000	0.453700
O5801	O580	0.125000	0.125000	0.953700
O5811	O581	0.125000	0.125000	0.296300
O5821	O582	0.625000	0.125000	0.796300
O5831	O583	0.125000	0.625000	0.796300
O5841	O584	0.625000	0.625000	0.296300
O5851	O585	0.953700	0.625000	0.625000
O5861	O586	0.953700	0.125000	0.125000
O5871	O587	0.453700	0.625000	0.125000
O5881	O588	0.453700	0.125000	0.625000
O5891	O589	0.296300	0.125000	0.125000
O5901	O590	0.296300	0.625000	0.625000
O5911	O591	0.796300	0.125000	0.625000
O5921	O592	0.796300	0.625000	0.125000
O5931	O593	0.625000	0.953700	0.625000
O5941	O594	0.625000	0.453700	0.125000
O5951	O595	0.125000	0.453700	0.625000
O5961	O596	0.125000	0.953700	0.125000
O5971	O597	0.125000	0.296300	0.125000
O5981	O598	0.125000	0.796300	0.625000
O5991	O599	0.625000	0.796300	0.125000
O6001	O600	0.625000	0.296300	0.625000
O6011	O601	0.375000	0.875000	0.046300
O6021	O602	0.375000	0.375000	0.546300
O6031	O603	0.875000	0.875000	0.546300
O6041	O604	0.875000	0.375000	0.046300
O6051	O605	0.875000	0.375000	0.703700
O6061	O606	0.875000	0.875000	0.203700
O6071	O607	0.375000	0.375000	0.203700
O6081	O608	0.375000	0.875000	0.703700
O6091	O609	0.375000	0.203700	0.375000
O6101	O610	0.875000	0.203700	0.875000
O6111	O611	0.375000	0.703700	0.875000
O6121	O612	0.875000	0.703700	0.375000
O6131	O613	0.875000	0.546300	0.875000
O6141	O614	0.375000	0.546300	0.375000
O6151	O615	0.875000	0.046300	0.375000
O6161	O616	0.375000	0.046300	0.875000
O6171	O617	0.703700	0.875000	0.375000
O6181	O618	0.703700	0.375000	0.875000
O6191	O619	0.203700	0.375000	0.375000
O6201	O620	0.203700	0.875000	0.875000
O6211	O621	0.046300	0.375000	0.875000
O6221	O622	0.046300	0.875000	0.375000
O6231	O623	0.546300	0.875000	0.875000
O6241	O624	0.546300	0.375000	0.375000
O6251	O625	0.375000	0.375000	0.046300
O6261	O626	0.875000	0.375000	0.546300
O6271	O627	0.375000	0.875000	0.546300
O6281	O628	0.875000	0.875000	0.046300
O6291	O629	0.875000	0.875000	0.703700
O6301	O630	0.375000	0.875000	0.203700
O6311	O631	0.875000	0.375000	0.203700
O6321	O632	0.375000	0.375000	0.703700
O6331	O633	0.046300	0.375000	0.375000
O6341	O634	0.046300	0.875000	0.875000
O6351	O635	0.546300	0.375000	0.875000
O6361	O636	0.546300	0.875000	0.375000
O6371	O637	0.703700	0.875000	0.875000
O6381	O638	0.703700	0.375000	0.375000
O6391	O639	0.203700	0.875000	0.375000
O6401	O640	0.203700	0.375000	0.875000
O6411	O641	0.375000	0.046300	0.375000
O6421	O642	0.375000	0.546300	0.875000
O6431	O643	0.875000	0.546300	0.375000
O6441	O644	0.875000	0.046300	0.875000
O6451	O645	0.875000	0.703700	0.875000
O6461	O646	0.875000	0.203700	0.375000
O6471	O647	0.375000	0.203700	0.875000
O6481	O648	0.375000	0.703700	0.375000
O6491	O649	0.625000	0.125000	0.953700
O6501	O650	0.625000	0.625000	0.453700
O6511	O651	0.125000	0.125000	0.453700
O6521	O652	0.125000	0.625000	0.953700
O6531	O653	0.125000	0.625000	0.296300
O6541	O654	0.125000	0.125000	0.796300
O6551	O655	0.625000	0.625000	0.796300
O6561	O656	0.625000	0.125000	0.296300
O6571	O657	0.625000	0.796300	0.625000
O6581	O658	0.125000	0.796300	0.125000
O6591	O659	0.625000	0.296300	0.125000
O6601	O660	0.125000	0.296300	0.625000
O6611	O661	0.125000	0.453700	0.125000
O6621	O662	0.625000	0.453700	0.625000
O6631	O663	0.125000	0.953700	0.625000
O6641	O664	0.625000	0.953700	0.125000
O6651	O665	0.296300	0.125000	0.625000
O6661	O666	0.296300	0.625000	0.125000
O6671	O667	0.796300	0.625000	0.625000
O6681	O668	0.796300	0.125000	0.125000
O6691	O669	0.953700	0.625000	0.125000
O6701	O670	0.953700	0.125000	0.625000
O6711	O671	0.453700	0.125000	0.125000
O6721	O672	0.453700	0.625000	0.625000
Fe11	Fe1	0.750000	0.626500	0.873500
Fe21	Fe2	0.750000	0.126500	0.373500
Fe31	Fe3	0.250000	0.626500	0.373500
Fe41	Fe4	0.250000	0.126500	0.873500
Fe51	Fe5	0.500000	0.123500	0.373500
Fe61	Fe6	0.500000	0.623500	0.873500
Fe71	Fe7	0.000000	0.123500	0.873500
Fe81	Fe8	0.000000	0.623500	0.373500
Fe91	Fe9	0.000000	0.126500	0.376500
Fe101	Fe10	0.000000	0.626500	0.876500
Fe111	Fe11	0.500000	0.126500	0.876500
Fe121	Fe12	0.500000	0.626500	0.376500
Fe131	Fe13	0.250000	0.623500	0.876500
Fe141	Fe14	0.250000	0.123500	0.376500
Fe151	Fe15	0.750000	0.623500	0.376500
Fe161	Fe16	0.750000	0.123500	0.876500
Fe171	Fe17	0.873500	0.750000	0.626500
Fe181	Fe18	0.873500	0.250000	0.126500
Fe191	Fe19	0.373500	0.750000	0.126500
Fe201	Fe20	0.373500	0.250000	0.626500
Fe211	Fe21	0.373500	0.500000	0.123500
Fe221	Fe22	0.373500	0.000000	0.623500
Fe231	Fe23	0.873500	0.500000	0.623500
Fe241	Fe24	0.873500	0.000000	0.123500
Fe251	Fe25	0.376500	0.000000	0.126500
Fe261	Fe26	0.376500	0.500000	0.626500
Fe271	Fe27	0.876500	0.000000	0.626500
Fe281	Fe28	0.876500	0.500000	0.126500
Fe291	Fe29	0.876500	0.250000	0.623500
Fe301	Fe30	0.876500	0.750000	0.123500
Fe311	Fe31	0.376500	0.250000	0.123500
Fe321	Fe32	0.376500	0.750000	0.623500
Fe331	Fe33	0.626500	0.873500	0.750000
Fe341	Fe34	0.626500	0.373500	0.250000
Fe351	Fe35	0.126500	0.873500	0.250000
Fe361	Fe36	0.126500	0.373500	0.750000
Fe371	Fe37	0.123500	0.373500	0.500000
Fe381	Fe38	0.123500	0.873500	0.000000
Fe391	Fe39	0.623500	0.373500	0.000000
Fe401	Fe40	0.623500	0.873500	0.500000
Fe411	Fe41	0.126500	0.376500	0.000000
Fe421	Fe42	0.126500	0.876500	0.500000
Fe431	Fe43	0.626500	0.376500	0.500000
Fe441	Fe44	0.626500	0.876500	0.000000
Fe451	Fe45	0.623500	0.876500	0.250000
Fe461	Fe46	0.623500	0.376500	0.750000
Fe471	Fe47	0.123500	0.876500	0.750000
Fe481	Fe48	0.123500	0.376500	0.250000
Fe491	Fe49	0.250000	0.373500	0.126500
Fe501	Fe50	0.250000	0.873500	0.626500
Fe511	Fe51	0.750000	0.373500	0.626500
Fe521	Fe52	0.750000	0.873500	0.126500
Fe531	Fe53	0.500000	0.876500	0.626500
Fe541	Fe54	0.500000	0.376500	0.126500
Fe551	Fe55	0.000000	0.876500	0.126500
Fe561	Fe56	0.000000	0.376500	0.626500
Fe571	Fe57	0.000000	0.873500	0.623500
Fe581	Fe58	0.000000	0.373500	0.123500
Fe591	Fe59	0.500000	0.873500	0.123500
Fe601	Fe60	0.500000	0.373500	0.623500
Fe611	Fe61	0.750000	0.376500	0.123500
Fe621	Fe62	0.750000	0.876500	0.623500
Fe631	Fe63	0.250000	0.376500	0.623500
Fe641	Fe64	0.250000	0.876500	0.123500
Fe651	Fe65	0.126500	0.250000	0.373500
Fe661	Fe66	0.126500	0.750000	0.873500
Fe671	Fe67	0.626500	0.250000	0.873500
Fe681	Fe68	0.626500	0.750000	0.373500
Fe691	Fe69	0.626500	0.500000	0.876500
Fe701	Fe70	0.626500	0.000000	0.376500
Fe711	Fe71	0.126500	0.500000	0.376500
Fe721	Fe72	0.126500	0.000000	0.876500
Fe731	Fe73	0.623500	0.000000	0.873500
Fe741	Fe74	0.623500	0.500000	0.373500
Fe751	Fe75	0.123500	0.000000	0.373500
Fe761	Fe76	0.123500	0.500000	0.873500
Fe771	Fe77	0.123500	0.750000	0.376500
Fe781	Fe78	0.123500	0.250000	0.876500
Fe791	Fe79	0.623500	0.750000	0.876500
Fe801	Fe80	0.623500	0.250000	0.376500
Fe811	Fe81	0.373500	0.126500	0.250000
Fe821	Fe82	0.373500	0.626500	0.750000
Fe831	Fe83	0.873500	0.126500	0.750000
Fe841	Fe84	0.873500	0.626500	0.250000
Fe851	Fe85	0.876500	0.626500	0.500000
Fe861	Fe86	0.876500	0.126500	0.000000
Fe871	Fe87	0.376500	0.626500	0.000000
Fe881	Fe88	0.376500	0.126500	0.500000
Fe891	Fe89	0.873500	0.623500	0.000000
Fe901	Fe90	0.873500	0.123500	0.500000
Fe911	Fe91	0.373500	0.623500	0.500000
Fe921	Fe92	0.373500	0.123500	0.000000
Fe931	Fe93	0.376500	0.123500	0.750000
Fe941	Fe94	0.376500	0.623500	0.250000
Fe951	Fe95	0.876500	0.123500	0.250000
Fe961	Fe96	0.876500	0.623500	0.750000
Na11	Na1	0.625000	0.625000	0.875000
Na21	Na2	0.625000	0.125000	0.375000
Na31	Na3	0.125000	0.125000	0.375000
Na41	Na4	0.125000	0.625000	0.875000
Na51	Na5	0.875000	0.625000	0.625000
Na61	Na6	0.875000	0.125000	0.125000
Na71	Na7	0.375000	0.625000	0.125000
Na81	Na8	0.375000	0.125000	0.125000
Na91	Na9	0.375000	0.625000	0.625000
Na101	Na10	0.875000	0.125000	0.625000
Na111	Na11	0.625000	0.875000	0.625000
Na121	Na12	0.125000	0.375000	0.625000
Na131	Na13	0.125000	0.875000	0.125000
Na141	Na14	0.125000	0.375000	0.125000
Na151	Na15	0.625000	0.875000	0.125000
Na161	Na16	0.625000	0.375000	0.625000
Na171	Na17	0.375000	0.875000	0.125000
Na181	Na18	0.375000	0.375000	0.625000
Na191	Na19	0.875000	0.875000	0.625000
Na201	Na20	0.875000	0.375000	0.625000
Na211	Na21	0.875000	0.875000	0.125000
Na221	Na22	0.375000	0.375000	0.125000
Na231	Na23	0.375000	0.125000	0.375000
Na241	Na24	0.375000	0.625000	0.875000
Na251	Na25	0.875000	0.625000	0.875000
Na261	Na26	0.875000	0.125000	0.375000
Na271	Na27	0.625000	0.875000	0.375000
Na281	Na28	0.125000	0.375000	0.375000
Na291	Na29	0.125000	0.875000	0.875000
Na301	Na30	0.125000	0.375000	0.875000
Na311	Na31	0.625000	0.875000	0.875000
Na321	Na32	0.625000	0.375000	0.375000
Na331	Na33	0.375000	0.875000	0.625000
Na341	Na34	0.875000	0.375000	0.125000
Na351	Na35	0.625000	0.375000	0.875000
Na361	Na36	0.125000	0.875000	0.375000
Na371	Na37	0.875000	0.625000	0.375000
Na381	Na38	0.875000	0.125000	0.875000
Na391	Na39	0.375000	0.125000	0.875000
Na401	Na40	0.375000	0.625000	0.375000
Na411	Na41	0.625000	0.125000	0.875000
Na421	Na42	0.625000	0.625000	0.375000
Na431	Na43	0.125000	0.625000	0.375000
Na441	Na44	0.125000	0.125000	0.875000
Na451	Na45	0.625000	0.375000	0.125000
Na461	Na46	0.125000	0.875000	0.625000
Na471	Na47	0.375000	0.125000	0.625000
Na481	Na48	0.875000	0.625000	0.125000
