data_IWAZEL_freeONLY_PM
_symmetry_space_group_name_H-M	'P1'
_cell_length_a	28.973600
_cell_length_b	28.973600
_cell_length_c	28.973600
_cell_angle_alpha	90.000000
_cell_angle_beta	90.000000
_cell_angle_gamma	90.000000
_symmetry_Int_Tables_number 1

loop_
_symmetry_equiv_pos_as_xyz
'x,y,z'

loop_
_atom_site_label
_atom_site_type_symbol
_atom_site_fract_x
_atom_site_fract_y
_atom_site_fract_z
O11	O1	0.994790	0.305070	0.125120
O21	O2	0.952060	0.241190	0.124900
O31	O3	0.917590	0.308850	0.127630
C11	C1	0.954900	0.285700	0.125870
O41	O4	0.994790	0.805070	0.625120
O51	O5	0.952060	0.741190	0.624900
O61	O6	0.917590	0.808850	0.627630
C21	C2	0.954900	0.785700	0.625870
O71	O7	0.494790	0.305070	0.625120
O81	O8	0.452060	0.241190	0.624900
O91	O9	0.417590	0.308850	0.627630
C31	C3	0.454900	0.285700	0.625870
O101	O10	0.494790	0.805070	0.125120
O111	O11	0.452060	0.741190	0.124900
O121	O12	0.417590	0.808850	0.127630
C41	C4	0.454900	0.785700	0.125870
O131	O13	0.255210	0.444930	0.625120
O141	O14	0.297940	0.508810	0.624900
O151	O15	0.332410	0.441150	0.627630
C51	C5	0.295100	0.464300	0.625870
O161	O16	0.255210	0.944930	0.125120
O171	O17	0.297940	0.008810	0.124900
O181	O18	0.332410	0.941150	0.127630
C61	C6	0.295100	0.964300	0.125870
O191	O19	0.755210	0.444930	0.125120
O201	O20	0.797940	0.508810	0.124900
O211	O21	0.832410	0.441150	0.127630
C71	C7	0.795100	0.464300	0.125870
O221	O22	0.755210	0.944930	0.625120
O231	O23	0.797940	0.008810	0.624900
O241	O24	0.832410	0.941150	0.627630
C81	C8	0.795100	0.964300	0.625870
O251	O25	0.755210	0.805070	0.124880
O261	O26	0.797940	0.741190	0.125100
O271	O27	0.832410	0.808850	0.122370
C91	C9	0.795100	0.785700	0.124130
O281	O28	0.755210	0.305070	0.624880
O291	O29	0.797940	0.241190	0.625100
O301	O30	0.832410	0.308850	0.622370
C101	C10	0.795100	0.285700	0.624130
O311	O31	0.255210	0.805070	0.624880
O321	O32	0.297940	0.741190	0.625100
O331	O33	0.332410	0.808850	0.622370
C111	C11	0.295100	0.785700	0.624130
O341	O34	0.255210	0.305070	0.124880
O351	O35	0.297940	0.241190	0.125100
O361	O36	0.332410	0.308850	0.122370
C121	C12	0.295100	0.285700	0.124130
O371	O37	0.494790	0.944930	0.624880
O381	O38	0.452060	0.008810	0.625100
O391	O39	0.417590	0.941150	0.622370
C131	C13	0.454900	0.964300	0.624130
O401	O40	0.494790	0.444930	0.124880
O411	O41	0.452060	0.508810	0.125100
O421	O42	0.417590	0.441150	0.122370
C141	C14	0.454900	0.464300	0.124130
O431	O43	0.994790	0.944930	0.124880
O441	O44	0.952060	0.008810	0.125100
O451	O45	0.917590	0.941150	0.122370
C151	C15	0.954900	0.964300	0.124130
O461	O46	0.994790	0.444930	0.624880
O471	O47	0.952060	0.508810	0.625100
O481	O48	0.917590	0.441150	0.622370
C161	C16	0.954900	0.464300	0.624130
O491	O49	0.125120	0.994790	0.305070
O501	O50	0.124900	0.952060	0.241190
O511	O51	0.127630	0.917590	0.308850
C171	C17	0.125870	0.954900	0.285700
O521	O52	0.125120	0.494790	0.805070
O531	O53	0.124900	0.452060	0.741190
O541	O54	0.127630	0.417590	0.808850
C181	C18	0.125870	0.454900	0.785700
O551	O55	0.625120	0.994790	0.805070
O561	O56	0.624900	0.952060	0.741190
O571	O57	0.627630	0.917590	0.808850
C191	C19	0.625870	0.954900	0.785700
O581	O58	0.625120	0.494790	0.305070
O591	O59	0.624900	0.452060	0.241190
O601	O60	0.627630	0.417590	0.308850
C201	C20	0.625870	0.454900	0.285700
O611	O61	0.625120	0.255210	0.444930
O621	O62	0.624900	0.297940	0.508810
O631	O63	0.627630	0.332410	0.441150
C211	C21	0.625870	0.295100	0.464300
O641	O64	0.625120	0.755210	0.944930
O651	O65	0.624900	0.797940	0.008810
O661	O66	0.627630	0.832410	0.941150
C221	C22	0.625870	0.795100	0.964300
O671	O67	0.125120	0.255210	0.944930
O681	O68	0.124900	0.297940	0.008810
O691	O69	0.127630	0.332410	0.941150
C231	C23	0.125870	0.295100	0.964300
O701	O70	0.125120	0.755210	0.444930
O711	O71	0.124900	0.797940	0.508810
O721	O72	0.127630	0.832410	0.441150
C241	C24	0.125870	0.795100	0.464300
O731	O73	0.124880	0.755210	0.805070
O741	O74	0.125100	0.797940	0.741190
O751	O75	0.122370	0.832410	0.808850
C251	C25	0.124130	0.795100	0.785700
O761	O76	0.124880	0.255210	0.305070
O771	O77	0.125100	0.297940	0.241190
O781	O78	0.122370	0.332410	0.308850
C261	C26	0.124130	0.295100	0.285700
O791	O79	0.624880	0.755210	0.305070
O801	O80	0.625100	0.797940	0.241190
O811	O81	0.622370	0.832410	0.308850
C271	C27	0.624130	0.795100	0.285700
O821	O82	0.624880	0.255210	0.805070
O831	O83	0.625100	0.297940	0.741190
O841	O84	0.622370	0.332410	0.808850
C281	C28	0.624130	0.295100	0.785700
O851	O85	0.624880	0.494790	0.944930
O861	O86	0.625100	0.452060	0.008810
O871	O87	0.622370	0.417590	0.941150
C291	C29	0.624130	0.454900	0.964300
O881	O88	0.624880	0.994790	0.444930
O891	O89	0.625100	0.952060	0.508810
O901	O90	0.622370	0.917590	0.441150
C301	C30	0.624130	0.954900	0.464300
O911	O91	0.124880	0.494790	0.444930
O921	O92	0.125100	0.452060	0.508810
O931	O93	0.122370	0.417590	0.441150
C311	C31	0.124130	0.454900	0.464300
O941	O94	0.124880	0.994790	0.944930
O951	O95	0.125100	0.952060	0.008810
O961	O96	0.122370	0.917590	0.941150
C321	C32	0.124130	0.954900	0.964300
O971	O97	0.305070	0.125120	0.994790
O981	O98	0.241190	0.124900	0.952060
O991	O99	0.308850	0.127630	0.917590
C331	C33	0.285700	0.125870	0.954900
O1001	O100	0.305070	0.625120	0.494790
O1011	O101	0.241190	0.624900	0.452060
O1021	O102	0.308850	0.627630	0.417590
C341	C34	0.285700	0.625870	0.454900
O1031	O103	0.805070	0.125120	0.494790
O1041	O104	0.741190	0.124900	0.452060
O1051	O105	0.808850	0.127630	0.417590
C351	C35	0.785700	0.125870	0.454900
O1061	O106	0.805070	0.625120	0.994790
O1071	O107	0.741190	0.624900	0.952060
O1081	O108	0.808850	0.627630	0.917590
C361	C36	0.785700	0.625870	0.954900
O1091	O109	0.444930	0.625120	0.255210
O1101	O110	0.508810	0.624900	0.297940
O1111	O111	0.441150	0.627630	0.332410
C371	C37	0.464300	0.625870	0.295100
O1121	O112	0.444930	0.125120	0.755210
O1131	O113	0.508810	0.124900	0.797940
O1141	O114	0.441150	0.127630	0.832410
C381	C38	0.464300	0.125870	0.795100
O1151	O115	0.944930	0.625120	0.755210
O1161	O116	0.008810	0.624900	0.797940
O1171	O117	0.941150	0.627630	0.832410
C391	C39	0.964300	0.625870	0.795100
O1181	O118	0.944930	0.125120	0.255210
O1191	O119	0.008810	0.124900	0.297940
O1201	O120	0.941150	0.127630	0.332410
C401	C40	0.964300	0.125870	0.295100
O1211	O121	0.805070	0.124880	0.755210
O1221	O122	0.741190	0.125100	0.797940
O1231	O123	0.808850	0.122370	0.832410
C411	C41	0.785700	0.124130	0.795100
O1241	O124	0.805070	0.624880	0.255210
O1251	O125	0.741190	0.625100	0.297940
O1261	O126	0.808850	0.622370	0.332410
C421	C42	0.785700	0.624130	0.295100
O1271	O127	0.305070	0.124880	0.255210
O1281	O128	0.241190	0.125100	0.297940
O1291	O129	0.308850	0.122370	0.332410
C431	C43	0.285700	0.124130	0.295100
O1301	O130	0.305070	0.624880	0.755210
O1311	O131	0.241190	0.625100	0.797940
O1321	O132	0.308850	0.622370	0.832410
C441	C44	0.285700	0.624130	0.795100
O1331	O133	0.944930	0.624880	0.494790
O1341	O134	0.008810	0.625100	0.452060
O1351	O135	0.941150	0.622370	0.417590
C451	C45	0.964300	0.624130	0.454900
O1361	O136	0.944930	0.124880	0.994790
O1371	O137	0.008810	0.125100	0.952060
O1381	O138	0.941150	0.122370	0.917590
C461	C46	0.964300	0.124130	0.954900
O1391	O139	0.444930	0.624880	0.994790
O1401	O140	0.508810	0.625100	0.952060
O1411	O141	0.441150	0.622370	0.917590
C471	C47	0.464300	0.624130	0.954900
O1421	O142	0.444930	0.124880	0.494790
O1431	O143	0.508810	0.125100	0.452060
O1441	O144	0.441150	0.122370	0.417590
C481	C48	0.464300	0.124130	0.454900
O1451	O145	0.055070	0.244790	0.874880
O1461	O146	0.991190	0.202060	0.875100
O1471	O147	0.058850	0.167590	0.872370
C491	C49	0.035700	0.204900	0.874130
O1481	O148	0.055070	0.744790	0.374880
O1491	O149	0.991190	0.702060	0.375100
O1501	O150	0.058850	0.667590	0.372370
C501	C50	0.035700	0.704900	0.374130
O1511	O151	0.555070	0.244790	0.374880
O1521	O152	0.491190	0.202060	0.375100
O1531	O153	0.558850	0.167590	0.372370
C511	C51	0.535700	0.204900	0.374130
O1541	O154	0.555070	0.744790	0.874880
O1551	O155	0.491190	0.702060	0.875100
O1561	O156	0.558850	0.667590	0.872370
C521	C52	0.535700	0.704900	0.874130
O1571	O157	0.194930	0.505210	0.374880
O1581	O158	0.258810	0.547940	0.375100
O1591	O159	0.191150	0.582410	0.372370
C531	C53	0.214300	0.545100	0.374130
O1601	O160	0.194930	0.005210	0.874880
O1611	O161	0.258810	0.047940	0.875100
O1621	O162	0.191150	0.082410	0.872370
C541	C54	0.214300	0.045100	0.874130
O1631	O163	0.694930	0.505210	0.874880
O1641	O164	0.758810	0.547940	0.875100
O1651	O165	0.691150	0.582410	0.872370
C551	C55	0.714300	0.545100	0.874130
O1661	O166	0.694930	0.005210	0.374880
O1671	O167	0.758810	0.047940	0.375100
O1681	O168	0.691150	0.082410	0.372370
C561	C56	0.714300	0.045100	0.374130
O1691	O169	0.555070	0.005210	0.875120
O1701	O170	0.491190	0.047940	0.874900
O1711	O171	0.558850	0.082410	0.877630
C571	C57	0.535700	0.045100	0.875870
O1721	O172	0.555070	0.505210	0.375120
O1731	O173	0.491190	0.547940	0.374900
O1741	O174	0.558850	0.582410	0.377630
C581	C58	0.535700	0.545100	0.375870
O1751	O175	0.055070	0.005210	0.375120
O1761	O176	0.991190	0.047940	0.374900
O1771	O177	0.058850	0.082410	0.377630
C591	C59	0.035700	0.045100	0.375870
O1781	O178	0.055070	0.505210	0.875120
O1791	O179	0.991190	0.547940	0.874900
O1801	O180	0.058850	0.582410	0.877630
C601	C60	0.035700	0.545100	0.875870
O1811	O181	0.694930	0.744790	0.375120
O1821	O182	0.758810	0.702060	0.374900
O1831	O183	0.691150	0.667590	0.377630
C611	C61	0.714300	0.704900	0.375870
O1841	O184	0.694930	0.244790	0.875120
O1851	O185	0.758810	0.202060	0.874900
O1861	O186	0.691150	0.167590	0.877630
C621	C62	0.714300	0.204900	0.875870
O1871	O187	0.194930	0.744790	0.875120
O1881	O188	0.258810	0.702060	0.874900
O1891	O189	0.191150	0.667590	0.877630
C631	C63	0.214300	0.704900	0.875870
O1901	O190	0.194930	0.244790	0.375120
O1911	O191	0.258810	0.202060	0.374900
O1921	O192	0.191150	0.167590	0.377630
C641	C64	0.214300	0.204900	0.375870
O1931	O193	0.744790	0.375120	0.694930
O1941	O194	0.702060	0.374900	0.758810
O1951	O195	0.667590	0.377630	0.691150
C651	C65	0.704900	0.375870	0.714300
O1961	O196	0.744790	0.875120	0.194930
O1971	O197	0.702060	0.874900	0.258810
O1981	O198	0.667590	0.877630	0.191150
C661	C66	0.704900	0.875870	0.214300
O1991	O199	0.244790	0.375120	0.194930
O2001	O200	0.202060	0.374900	0.258810
O2011	O201	0.167590	0.377630	0.191150
C671	C67	0.204900	0.375870	0.214300
O2021	O202	0.244790	0.875120	0.694930
O2031	O203	0.202060	0.874900	0.758810
O2041	O204	0.167590	0.877630	0.691150
C681	C68	0.204900	0.875870	0.714300
O2051	O205	0.005210	0.875120	0.555070
O2061	O206	0.047940	0.874900	0.491190
O2071	O207	0.082410	0.877630	0.558850
C691	C69	0.045100	0.875870	0.535700
O2081	O208	0.005210	0.375120	0.055070
O2091	O209	0.047940	0.374900	0.991190
O2101	O210	0.082410	0.377630	0.058850
C701	C70	0.045100	0.375870	0.035700
O2111	O211	0.505210	0.875120	0.055070
O2121	O212	0.547940	0.874900	0.991190
O2131	O213	0.582410	0.877630	0.058850
C711	C71	0.545100	0.875870	0.035700
O2141	O214	0.505210	0.375120	0.555070
O2151	O215	0.547940	0.374900	0.491190
O2161	O216	0.582410	0.377630	0.558850
C721	C72	0.545100	0.375870	0.535700
O2171	O217	0.505210	0.374880	0.194930
O2181	O218	0.547940	0.375100	0.258810
O2191	O219	0.582410	0.372370	0.191150
C731	C73	0.545100	0.374130	0.214300
O2201	O220	0.505210	0.874880	0.694930
O2211	O221	0.547940	0.875100	0.758810
O2221	O222	0.582410	0.872370	0.691150
C741	C74	0.545100	0.874130	0.714300
O2231	O223	0.005210	0.374880	0.694930
O2241	O224	0.047940	0.375100	0.758810
O2251	O225	0.082410	0.372370	0.691150
C751	C75	0.045100	0.374130	0.714300
O2261	O226	0.005210	0.874880	0.194930
O2271	O227	0.047940	0.875100	0.258810
O2281	O228	0.082410	0.872370	0.191150
C761	C76	0.045100	0.874130	0.214300
O2291	O229	0.244790	0.874880	0.055070
O2301	O230	0.202060	0.875100	0.991190
O2311	O231	0.167590	0.872370	0.058850
C771	C77	0.204900	0.874130	0.035700
O2321	O232	0.244790	0.374880	0.555070
O2331	O233	0.202060	0.375100	0.491190
O2341	O234	0.167590	0.372370	0.558850
C781	C78	0.204900	0.374130	0.535700
O2351	O235	0.744790	0.874880	0.555070
O2361	O236	0.702060	0.875100	0.491190
O2371	O237	0.667590	0.872370	0.558850
C791	C79	0.704900	0.874130	0.535700
O2381	O238	0.744790	0.374880	0.055070
O2391	O239	0.702060	0.375100	0.991190
O2401	O240	0.667590	0.372370	0.058850
C801	C80	0.704900	0.374130	0.035700
O2411	O241	0.875120	0.555070	0.005210
O2421	O242	0.874900	0.491190	0.047940
O2431	O243	0.877630	0.558850	0.082410
C811	C81	0.875870	0.535700	0.045100
O2441	O244	0.875120	0.055070	0.505210
O2451	O245	0.874900	0.991190	0.547940
O2461	O246	0.877630	0.058850	0.582410
C821	C82	0.875870	0.035700	0.545100
O2471	O247	0.375120	0.555070	0.505210
O2481	O248	0.374900	0.491190	0.547940
O2491	O249	0.377630	0.558850	0.582410
C831	C83	0.375870	0.535700	0.545100
O2501	O250	0.375120	0.055070	0.005210
O2511	O251	0.374900	0.991190	0.047940
O2521	O252	0.377630	0.058850	0.082410
C841	C84	0.375870	0.035700	0.045100
O2531	O253	0.375120	0.694930	0.744790
O2541	O254	0.374900	0.758810	0.702060
O2551	O255	0.377630	0.691150	0.667590
C851	C85	0.375870	0.714300	0.704900
O2561	O256	0.375120	0.194930	0.244790
O2571	O257	0.374900	0.258810	0.202060
O2581	O258	0.377630	0.191150	0.167590
C861	C86	0.375870	0.214300	0.204900
O2591	O259	0.875120	0.694930	0.244790
O2601	O260	0.874900	0.758810	0.202060
O2611	O261	0.877630	0.691150	0.167590
C871	C87	0.875870	0.714300	0.204900
O2621	O262	0.875120	0.194930	0.744790
O2631	O263	0.874900	0.258810	0.702060
O2641	O264	0.877630	0.191150	0.667590
C881	C88	0.875870	0.214300	0.704900
O2651	O265	0.874880	0.055070	0.244790
O2661	O266	0.875100	0.991190	0.202060
O2671	O267	0.872370	0.058850	0.167590
C891	C89	0.874130	0.035700	0.204900
O2681	O268	0.874880	0.555070	0.744790
O2691	O269	0.875100	0.491190	0.702060
O2701	O270	0.872370	0.558850	0.667590
C901	C90	0.874130	0.535700	0.704900
O2711	O271	0.374880	0.055070	0.744790
O2721	O272	0.375100	0.991190	0.702060
O2731	O273	0.372370	0.058850	0.667590
C911	C91	0.374130	0.035700	0.704900
O2741	O274	0.374880	0.555070	0.244790
O2751	O275	0.375100	0.491190	0.202060
O2761	O276	0.372370	0.558850	0.167590
C921	C92	0.374130	0.535700	0.204900
O2771	O277	0.374880	0.194930	0.505210
O2781	O278	0.375100	0.258810	0.547940
O2791	O279	0.372370	0.191150	0.582410
C931	C93	0.374130	0.214300	0.545100
O2801	O280	0.374880	0.694930	0.005210
O2811	O281	0.375100	0.758810	0.047940
O2821	O282	0.372370	0.691150	0.082410
C941	C94	0.374130	0.714300	0.045100
O2831	O283	0.874880	0.194930	0.005210
O2841	O284	0.875100	0.258810	0.047940
O2851	O285	0.872370	0.191150	0.082410
C951	C95	0.874130	0.214300	0.045100
O2861	O286	0.874880	0.694930	0.505210
O2871	O287	0.875100	0.758810	0.547940
O2881	O288	0.872370	0.691150	0.582410
C961	C96	0.874130	0.714300	0.545100
O2891	O289	0.005210	0.694930	0.874880
O2901	O290	0.047940	0.758810	0.875100
O2911	O291	0.082410	0.691150	0.872370
C971	C97	0.045100	0.714300	0.874130
O2921	O292	0.005210	0.194930	0.374880
O2931	O293	0.047940	0.258810	0.375100
O2941	O294	0.082410	0.191150	0.372370
C981	C98	0.045100	0.214300	0.374130
O2951	O295	0.505210	0.694930	0.374880
O2961	O296	0.547940	0.758810	0.375100
O2971	O297	0.582410	0.691150	0.372370
C991	C99	0.545100	0.714300	0.374130
O2981	O298	0.505210	0.194930	0.874880
O2991	O299	0.547940	0.258810	0.875100
O3001	O300	0.582410	0.191150	0.872370
C1001	C100	0.545100	0.214300	0.874130
O3011	O301	0.744790	0.555070	0.374880
O3021	O302	0.702060	0.491190	0.375100
O3031	O303	0.667590	0.558850	0.372370
C1011	C101	0.704900	0.535700	0.374130
O3041	O304	0.744790	0.055070	0.874880
O3051	O305	0.702060	0.991190	0.875100
O3061	O306	0.667590	0.058850	0.872370
C1021	C102	0.704900	0.035700	0.874130
O3071	O307	0.244790	0.555070	0.874880
O3081	O308	0.202060	0.491190	0.875100
O3091	O309	0.167590	0.558850	0.872370
C1031	C103	0.204900	0.535700	0.874130
O3101	O310	0.244790	0.055070	0.374880
O3111	O311	0.202060	0.991190	0.375100
O3121	O312	0.167590	0.058850	0.372370
C1041	C104	0.204900	0.035700	0.374130
O3131	O313	0.244790	0.194930	0.875120
O3141	O314	0.202060	0.258810	0.874900
O3151	O315	0.167590	0.191150	0.877630
C1051	C105	0.204900	0.214300	0.875870
O3161	O316	0.244790	0.694930	0.375120
O3171	O317	0.202060	0.758810	0.374900
O3181	O318	0.167590	0.691150	0.377630
C1061	C106	0.204900	0.714300	0.375870
O3191	O319	0.744790	0.194930	0.375120
O3201	O320	0.702060	0.258810	0.374900
O3211	O321	0.667590	0.191150	0.377630
C1071	C107	0.704900	0.214300	0.375870
O3221	O322	0.744790	0.694930	0.875120
O3231	O323	0.702060	0.758810	0.874900
O3241	O324	0.667590	0.691150	0.877630
C1081	C108	0.704900	0.714300	0.875870
O3251	O325	0.505210	0.055070	0.375120
O3261	O326	0.547940	0.991190	0.374900
O3271	O327	0.582410	0.058850	0.377630
C1091	C109	0.545100	0.035700	0.375870
O3281	O328	0.505210	0.555070	0.875120
O3291	O329	0.547940	0.491190	0.874900
O3301	O330	0.582410	0.558850	0.877630
C1101	C110	0.545100	0.535700	0.875870
O3311	O331	0.005210	0.055070	0.875120
O3321	O332	0.047940	0.991190	0.874900
O3331	O333	0.082410	0.058850	0.877630
C1111	C111	0.045100	0.035700	0.875870
O3341	O334	0.005210	0.555070	0.375120
O3351	O335	0.047940	0.491190	0.374900
O3361	O336	0.082410	0.558850	0.377630
C1121	C112	0.045100	0.535700	0.375870
O3371	O337	0.874880	0.005210	0.694930
O3381	O338	0.875100	0.047940	0.758810
O3391	O339	0.872370	0.082410	0.691150
C1131	C113	0.874130	0.045100	0.714300
O3401	O340	0.874880	0.505210	0.194930
O3411	O341	0.875100	0.547940	0.258810
O3421	O342	0.872370	0.582410	0.191150
C1141	C114	0.874130	0.545100	0.214300
O3431	O343	0.374880	0.005210	0.194930
O3441	O344	0.375100	0.047940	0.258810
O3451	O345	0.372370	0.082410	0.191150
C1151	C115	0.374130	0.045100	0.214300
O3461	O346	0.374880	0.505210	0.694930
O3471	O347	0.375100	0.547940	0.758810
O3481	O348	0.372370	0.582410	0.691150
C1161	C116	0.374130	0.545100	0.714300
O3491	O349	0.374880	0.744790	0.555070
O3501	O350	0.375100	0.702060	0.491190
O3511	O351	0.372370	0.667590	0.558850
C1171	C117	0.374130	0.704900	0.535700
O3521	O352	0.374880	0.244790	0.055070
O3531	O353	0.375100	0.202060	0.991190
O3541	O354	0.372370	0.167590	0.058850
C1181	C118	0.374130	0.204900	0.035700
O3551	O355	0.874880	0.744790	0.055070
O3561	O356	0.875100	0.702060	0.991190
O3571	O357	0.872370	0.667590	0.058850
C1191	C119	0.874130	0.704900	0.035700
O3581	O358	0.874880	0.244790	0.555070
O3591	O359	0.875100	0.202060	0.491190
O3601	O360	0.872370	0.167590	0.558850
C1201	C120	0.874130	0.204900	0.535700
O3611	O361	0.875120	0.244790	0.194930
O3621	O362	0.874900	0.202060	0.258810
O3631	O363	0.877630	0.167590	0.191150
C1211	C121	0.875870	0.204900	0.214300
O3641	O364	0.875120	0.744790	0.694930
O3651	O365	0.874900	0.702060	0.758810
O3661	O366	0.877630	0.667590	0.691150
C1221	C122	0.875870	0.704900	0.714300
O3671	O367	0.375120	0.244790	0.694930
O3681	O368	0.374900	0.202060	0.758810
O3691	O369	0.377630	0.167590	0.691150
C1231	C123	0.375870	0.204900	0.714300
O3701	O370	0.375120	0.744790	0.194930
O3711	O371	0.374900	0.702060	0.258810
O3721	O372	0.377630	0.667590	0.191150
C1241	C124	0.375870	0.704900	0.214300
O3731	O373	0.375120	0.505210	0.055070
O3741	O374	0.374900	0.547940	0.991190
O3751	O375	0.377630	0.582410	0.058850
C1251	C125	0.375870	0.545100	0.035700
O3761	O376	0.375120	0.005210	0.555070
O3771	O377	0.374900	0.047940	0.491190
O3781	O378	0.377630	0.082410	0.558850
C1261	C126	0.375870	0.045100	0.535700
O3791	O379	0.875120	0.505210	0.555070
O3801	O380	0.874900	0.547940	0.491190
O3811	O381	0.877630	0.582410	0.558850
C1271	C127	0.875870	0.545100	0.535700
O3821	O382	0.875120	0.005210	0.055070
O3831	O383	0.874900	0.047940	0.991190
O3841	O384	0.877630	0.082410	0.058850
C1281	C128	0.875870	0.045100	0.035700
O3851	O385	0.694930	0.874880	0.005210
O3861	O386	0.758810	0.875100	0.047940
O3871	O387	0.691150	0.872370	0.082410
C1291	C129	0.714300	0.874130	0.045100
O3881	O388	0.694930	0.374880	0.505210
O3891	O389	0.758810	0.375100	0.547940
O3901	O390	0.691150	0.372370	0.582410
C1301	C130	0.714300	0.374130	0.545100
O3911	O391	0.194930	0.874880	0.505210
O3921	O392	0.258810	0.875100	0.547940
O3931	O393	0.191150	0.872370	0.582410
C1311	C131	0.214300	0.874130	0.545100
O3941	O394	0.194930	0.374880	0.005210
O3951	O395	0.258810	0.375100	0.047940
O3961	O396	0.191150	0.372370	0.082410
C1321	C132	0.214300	0.374130	0.045100
O3971	O397	0.555070	0.374880	0.744790
O3981	O398	0.491190	0.375100	0.702060
O3991	O399	0.558850	0.372370	0.667590
C1331	C133	0.535700	0.374130	0.704900
O4001	O400	0.555070	0.874880	0.244790
O4011	O401	0.491190	0.875100	0.202060
O4021	O402	0.558850	0.872370	0.167590
C1341	C134	0.535700	0.874130	0.204900
O4031	O403	0.055070	0.374880	0.244790
O4041	O404	0.991190	0.375100	0.202060
O4051	O405	0.058850	0.372370	0.167590
C1351	C135	0.035700	0.374130	0.204900
O4061	O406	0.055070	0.874880	0.744790
O4071	O407	0.991190	0.875100	0.702060
O4081	O408	0.058850	0.872370	0.667590
C1361	C136	0.035700	0.874130	0.704900
O4091	O409	0.194930	0.875120	0.244790
O4101	O410	0.258810	0.874900	0.202060
O4111	O411	0.191150	0.877630	0.167590
C1371	C137	0.214300	0.875870	0.204900
O4121	O412	0.194930	0.375120	0.744790
O4131	O413	0.258810	0.374900	0.702060
O4141	O414	0.191150	0.377630	0.667590
C1381	C138	0.214300	0.375870	0.704900
O4151	O415	0.694930	0.875120	0.744790
O4161	O416	0.758810	0.874900	0.702060
O4171	O417	0.691150	0.877630	0.667590
C1391	C139	0.714300	0.875870	0.704900
O4181	O418	0.694930	0.375120	0.244790
O4191	O419	0.758810	0.374900	0.202060
O4201	O420	0.691150	0.377630	0.167590
C1401	C140	0.714300	0.375870	0.204900
O4211	O421	0.055070	0.375120	0.505210
O4221	O422	0.991190	0.374900	0.547940
O4231	O423	0.058850	0.377630	0.582410
C1411	C141	0.035700	0.375870	0.545100
O4241	O424	0.055070	0.875120	0.005210
O4251	O425	0.991190	0.874900	0.047940
O4261	O426	0.058850	0.877630	0.082410
C1421	C142	0.035700	0.875870	0.045100
O4271	O427	0.555070	0.375120	0.005210
O4281	O428	0.491190	0.374900	0.047940
O4291	O429	0.558850	0.377630	0.082410
C1431	C143	0.535700	0.375870	0.045100
O4301	O430	0.555070	0.875120	0.505210
O4311	O431	0.491190	0.874900	0.547940
O4321	O432	0.558850	0.877630	0.582410
C1441	C144	0.535700	0.875870	0.545100
O4331	O433	0.944930	0.755210	0.125120
O4341	O434	0.008810	0.797940	0.124900
O4351	O435	0.941150	0.832410	0.127630
C1451	C145	0.964300	0.795100	0.125870
O4361	O436	0.944930	0.255210	0.625120
O4371	O437	0.008810	0.297940	0.624900
O4381	O438	0.941150	0.332410	0.627630
C1461	C146	0.964300	0.295100	0.625870
O4391	O439	0.444930	0.755210	0.625120
O4401	O440	0.508810	0.797940	0.624900
O4411	O441	0.441150	0.832410	0.627630
C1471	C147	0.464300	0.795100	0.625870
O4421	O442	0.444930	0.255210	0.125120
O4431	O443	0.508810	0.297940	0.124900
O4441	O444	0.441150	0.332410	0.127630
C1481	C148	0.464300	0.295100	0.125870
O4451	O445	0.805070	0.494790	0.625120
O4461	O446	0.741190	0.452060	0.624900
O4471	O447	0.808850	0.417590	0.627630
C1491	C149	0.785700	0.454900	0.625870
O4481	O448	0.805070	0.994790	0.125120
O4491	O449	0.741190	0.952060	0.124900
O4501	O450	0.808850	0.917590	0.127630
C1501	C150	0.785700	0.954900	0.125870
O4511	O451	0.305070	0.494790	0.125120
O4521	O452	0.241190	0.452060	0.124900
O4531	O453	0.308850	0.417590	0.127630
C1511	C151	0.285700	0.454900	0.125870
O4541	O454	0.305070	0.994790	0.625120
O4551	O455	0.241190	0.952060	0.624900
O4561	O456	0.308850	0.917590	0.627630
C1521	C152	0.285700	0.954900	0.625870
O4571	O457	0.444930	0.994790	0.124880
O4581	O458	0.508810	0.952060	0.125100
O4591	O459	0.441150	0.917590	0.122370
C1531	C153	0.464300	0.954900	0.124130
O4601	O460	0.444930	0.494790	0.624880
O4611	O461	0.508810	0.452060	0.625100
O4621	O462	0.441150	0.417590	0.622370
C1541	C154	0.464300	0.454900	0.624130
O4631	O463	0.944930	0.994790	0.624880
O4641	O464	0.008810	0.952060	0.625100
O4651	O465	0.941150	0.917590	0.622370
C1551	C155	0.964300	0.954900	0.624130
O4661	O466	0.944930	0.494790	0.124880
O4671	O467	0.008810	0.452060	0.125100
O4681	O468	0.941150	0.417590	0.122370
C1561	C156	0.964300	0.454900	0.124130
O4691	O469	0.305070	0.255210	0.624880
O4701	O470	0.241190	0.297940	0.625100
O4711	O471	0.308850	0.332410	0.622370
C1571	C157	0.285700	0.295100	0.624130
O4721	O472	0.305070	0.755210	0.124880
O4731	O473	0.241190	0.797940	0.125100
O4741	O474	0.308850	0.832410	0.122370
C1581	C158	0.285700	0.795100	0.124130
O4751	O475	0.805070	0.255210	0.124880
O4761	O476	0.741190	0.297940	0.125100
O4771	O477	0.808850	0.332410	0.122370
C1591	C159	0.785700	0.295100	0.124130
O4781	O478	0.805070	0.755210	0.624880
O4791	O479	0.741190	0.797940	0.625100
O4801	O480	0.808850	0.832410	0.622370
C1601	C160	0.785700	0.795100	0.624130
O4811	O481	0.255210	0.624880	0.305070
O4821	O482	0.297940	0.625100	0.241190
O4831	O483	0.332410	0.622370	0.308850
C1611	C161	0.295100	0.624130	0.285700
O4841	O484	0.255210	0.124880	0.805070
O4851	O485	0.297940	0.125100	0.741190
O4861	O486	0.332410	0.122370	0.808850
C1621	C162	0.295100	0.124130	0.785700
O4871	O487	0.755210	0.624880	0.805070
O4881	O488	0.797940	0.625100	0.741190
O4891	O489	0.832410	0.622370	0.808850
C1631	C163	0.795100	0.624130	0.785700
O4901	O490	0.755210	0.124880	0.305070
O4911	O491	0.797940	0.125100	0.241190
O4921	O492	0.832410	0.122370	0.308850
C1641	C164	0.795100	0.124130	0.285700
O4931	O493	0.994790	0.124880	0.444930
O4941	O494	0.952060	0.125100	0.508810
O4951	O495	0.917590	0.122370	0.441150
C1651	C165	0.954900	0.124130	0.464300
O4961	O496	0.994790	0.624880	0.944930
O4971	O497	0.952060	0.625100	0.008810
O4981	O498	0.917590	0.622370	0.941150
C1661	C166	0.954900	0.624130	0.964300
O4991	O499	0.494790	0.124880	0.944930
O5001	O500	0.452060	0.125100	0.008810
O5011	O501	0.417590	0.122370	0.941150
C1671	C167	0.454900	0.124130	0.964300
O5021	O502	0.494790	0.624880	0.444930
O5031	O503	0.452060	0.625100	0.508810
O5041	O504	0.417590	0.622370	0.441150
C1681	C168	0.454900	0.624130	0.464300
O5051	O505	0.494790	0.625120	0.805070
O5061	O506	0.452060	0.624900	0.741190
O5071	O507	0.417590	0.627630	0.808850
C1691	C169	0.454900	0.625870	0.785700
O5081	O508	0.494790	0.125120	0.305070
O5091	O509	0.452060	0.124900	0.241190
O5101	O510	0.417590	0.127630	0.308850
C1701	C170	0.454900	0.125870	0.285700
O5111	O511	0.994790	0.625120	0.305070
O5121	O512	0.952060	0.624900	0.241190
O5131	O513	0.917590	0.627630	0.308850
C1711	C171	0.954900	0.625870	0.285700
O5141	O514	0.994790	0.125120	0.805070
O5151	O515	0.952060	0.124900	0.741190
O5161	O516	0.917590	0.127630	0.808850
C1721	C172	0.954900	0.125870	0.785700
O5171	O517	0.755210	0.125120	0.944930
O5181	O518	0.797940	0.124900	0.008810
O5191	O519	0.832410	0.127630	0.941150
C1731	C173	0.795100	0.125870	0.964300
O5201	O520	0.755210	0.625120	0.444930
O5211	O521	0.797940	0.624900	0.508810
O5221	O522	0.832410	0.627630	0.441150
C1741	C174	0.795100	0.625870	0.464300
O5231	O523	0.255210	0.125120	0.444930
O5241	O524	0.297940	0.124900	0.508810
O5251	O525	0.332410	0.127630	0.441150
C1751	C175	0.295100	0.125870	0.464300
O5261	O526	0.255210	0.625120	0.944930
O5271	O527	0.297940	0.624900	0.008810
O5281	O528	0.332410	0.627630	0.941150
C1761	C176	0.295100	0.625870	0.964300
O5291	O529	0.124880	0.444930	0.994790
O5301	O530	0.125100	0.508810	0.952060
O5311	O531	0.122370	0.441150	0.917590
C1771	C177	0.124130	0.464300	0.954900
O5321	O532	0.124880	0.944930	0.494790
O5331	O533	0.125100	0.008810	0.452060
O5341	O534	0.122370	0.941150	0.417590
C1781	C178	0.124130	0.964300	0.454900
O5351	O535	0.624880	0.444930	0.494790
O5361	O536	0.625100	0.508810	0.452060
O5371	O537	0.622370	0.441150	0.417590
C1791	C179	0.624130	0.464300	0.454900
O5381	O538	0.624880	0.944930	0.994790
O5391	O539	0.625100	0.008810	0.952060
O5401	O540	0.622370	0.941150	0.917590
C1801	C180	0.624130	0.964300	0.954900
O5411	O541	0.624880	0.305070	0.255210
O5421	O542	0.625100	0.241190	0.297940
O5431	O543	0.622370	0.308850	0.332410
C1811	C181	0.624130	0.285700	0.295100
O5441	O544	0.624880	0.805070	0.755210
O5451	O545	0.625100	0.741190	0.797940
O5461	O546	0.622370	0.808850	0.832410
C1821	C182	0.624130	0.785700	0.795100
O5471	O547	0.124880	0.305070	0.755210
O5481	O548	0.125100	0.241190	0.797940
O5491	O549	0.122370	0.308850	0.832410
C1831	C183	0.124130	0.285700	0.795100
O5501	O550	0.124880	0.805070	0.255210
O5511	O551	0.125100	0.741190	0.297940
O5521	O552	0.122370	0.808850	0.332410
C1841	C184	0.124130	0.785700	0.295100
O5531	O553	0.125120	0.944930	0.755210
O5541	O554	0.124900	0.008810	0.797940
O5551	O555	0.127630	0.941150	0.832410
C1851	C185	0.125870	0.964300	0.795100
O5561	O556	0.125120	0.444930	0.255210
O5571	O557	0.124900	0.508810	0.297940
O5581	O558	0.127630	0.441150	0.332410
C1861	C186	0.125870	0.464300	0.295100
O5591	O559	0.625120	0.944930	0.255210
O5601	O560	0.624900	0.008810	0.297940
O5611	O561	0.627630	0.941150	0.332410
C1871	C187	0.625870	0.964300	0.295100
O5621	O562	0.625120	0.444930	0.755210
O5631	O563	0.624900	0.508810	0.797940
O5641	O564	0.627630	0.441150	0.832410
C1881	C188	0.625870	0.464300	0.795100
O5651	O565	0.625120	0.805070	0.494790
O5661	O566	0.624900	0.741190	0.452060
O5671	O567	0.627630	0.808850	0.417590
C1891	C189	0.625870	0.785700	0.454900
O5681	O568	0.625120	0.305070	0.994790
O5691	O569	0.624900	0.241190	0.952060
O5701	O570	0.627630	0.308850	0.917590
C1901	C190	0.625870	0.285700	0.954900
O5711	O571	0.125120	0.805070	0.994790
O5721	O572	0.124900	0.741190	0.952060
O5731	O573	0.127630	0.808850	0.917590
C1911	C191	0.125870	0.785700	0.954900
O5741	O574	0.125120	0.305070	0.494790
O5751	O575	0.124900	0.241190	0.452060
O5761	O576	0.127630	0.308850	0.417590
C1921	C192	0.125870	0.285700	0.454900
O5771	O577	0.125000	0.292400	0.125000
O5781	O578	0.125000	0.792400	0.625000
O5791	O579	0.625000	0.792400	0.125000
O5801	O580	0.125000	0.457600	0.625000
O5811	O581	0.125000	0.957600	0.125000
O5821	O582	0.625000	0.457600	0.125000
O5831	O583	0.625000	0.292400	0.625000
O5841	O584	0.625000	0.957600	0.625000
O5851	O585	0.125000	0.125000	0.292400
O5861	O586	0.125000	0.625000	0.792400
O5871	O587	0.625000	0.125000	0.792400
O5881	O588	0.625000	0.125000	0.457600
O5891	O589	0.125000	0.125000	0.957600
O5901	O590	0.125000	0.625000	0.457600
O5911	O591	0.625000	0.625000	0.292400
O5921	O592	0.625000	0.625000	0.957600
O5931	O593	0.292400	0.125000	0.125000
O5941	O594	0.292400	0.625000	0.625000
O5951	O595	0.792400	0.125000	0.625000
O5961	O596	0.457600	0.625000	0.125000
O5971	O597	0.457600	0.125000	0.625000
O5981	O598	0.792400	0.625000	0.125000
O5991	O599	0.957600	0.625000	0.625000
O6001	O600	0.957600	0.125000	0.125000
O6011	O601	0.042400	0.375000	0.875000
O6021	O602	0.042400	0.875000	0.375000
O6031	O603	0.207600	0.375000	0.375000
O6041	O604	0.207600	0.875000	0.875000
O6051	O605	0.542400	0.875000	0.875000
O6061	O606	0.542400	0.375000	0.375000
O6071	O607	0.707600	0.875000	0.375000
O6081	O608	0.707600	0.375000	0.875000
O6091	O609	0.875000	0.375000	0.707600
O6101	O610	0.875000	0.875000	0.207600
O6111	O611	0.875000	0.875000	0.542400
O6121	O612	0.875000	0.375000	0.042400
O6131	O613	0.375000	0.375000	0.207600
O6141	O614	0.375000	0.875000	0.707600
O6151	O615	0.375000	0.875000	0.042400
O6161	O616	0.375000	0.375000	0.542400
O6171	O617	0.875000	0.542400	0.875000
O6181	O618	0.375000	0.542400	0.375000
O6191	O619	0.375000	0.707600	0.875000
O6201	O620	0.875000	0.707600	0.375000
O6211	O621	0.875000	0.207600	0.875000
O6221	O622	0.875000	0.042400	0.375000
O6231	O623	0.375000	0.042400	0.875000
O6241	O624	0.375000	0.207600	0.375000
O6251	O625	0.875000	0.707600	0.875000
O6261	O626	0.875000	0.207600	0.375000
O6271	O627	0.875000	0.542400	0.375000
O6281	O628	0.875000	0.042400	0.875000
O6291	O629	0.375000	0.207600	0.875000
O6301	O630	0.375000	0.707600	0.375000
O6311	O631	0.375000	0.042400	0.375000
O6321	O632	0.375000	0.542400	0.875000
O6331	O633	0.875000	0.875000	0.707600
O6341	O634	0.375000	0.875000	0.207600
O6351	O635	0.375000	0.875000	0.542400
O6361	O636	0.875000	0.875000	0.042400
O6371	O637	0.875000	0.375000	0.207600
O6381	O638	0.375000	0.375000	0.707600
O6391	O639	0.375000	0.375000	0.042400
O6401	O640	0.875000	0.375000	0.542400
O6411	O641	0.707600	0.875000	0.875000
O6421	O642	0.707600	0.375000	0.375000
O6431	O643	0.542400	0.375000	0.875000
O6441	O644	0.542400	0.875000	0.375000
O6451	O645	0.042400	0.875000	0.875000
O6461	O646	0.207600	0.875000	0.375000
O6471	O647	0.207600	0.375000	0.875000
O6481	O648	0.042400	0.375000	0.375000
O6491	O649	0.957600	0.625000	0.125000
O6501	O650	0.957600	0.125000	0.625000
O6511	O651	0.457600	0.625000	0.625000
O6521	O652	0.792400	0.625000	0.625000
O6531	O653	0.792400	0.125000	0.125000
O6541	O654	0.457600	0.125000	0.125000
O6551	O655	0.292400	0.125000	0.625000
O6561	O656	0.292400	0.625000	0.125000
O6571	O657	0.125000	0.625000	0.292400
O6581	O658	0.125000	0.125000	0.792400
O6591	O659	0.625000	0.625000	0.792400
O6601	O660	0.125000	0.125000	0.457600
O6611	O661	0.125000	0.625000	0.957600
O6621	O662	0.625000	0.625000	0.457600
O6631	O663	0.625000	0.125000	0.292400
O6641	O664	0.625000	0.125000	0.957600
O6651	O665	0.125000	0.457600	0.125000
O6661	O666	0.625000	0.457600	0.625000
O6671	O667	0.625000	0.292400	0.125000
O6681	O668	0.625000	0.792400	0.625000
O6691	O669	0.125000	0.292400	0.625000
O6701	O670	0.125000	0.957600	0.625000
O6711	O671	0.625000	0.957600	0.125000
O6721	O672	0.125000	0.792400	0.125000
Zn11	Zn1	0.000000	0.374720	0.124720
Zn21	Zn2	0.000000	0.874720	0.624720
Zn31	Zn3	0.500000	0.374720	0.624720
Zn41	Zn4	0.250000	0.375280	0.624720
Zn51	Zn5	0.750000	0.375280	0.124720
Zn61	Zn6	0.750000	0.874720	0.125280
Zn71	Zn7	0.250000	0.874720	0.625280
Zn81	Zn8	0.500000	0.875280	0.625280
Zn91	Zn9	0.000000	0.875280	0.125280
Zn101	Zn10	0.000000	0.375280	0.625280
Zn111	Zn11	0.124720	0.000000	0.374720
Zn121	Zn12	0.124720	0.500000	0.874720
Zn131	Zn13	0.624720	0.000000	0.874720
Zn141	Zn14	0.624720	0.250000	0.375280
Zn151	Zn15	0.624720	0.750000	0.875280
Zn161	Zn16	0.124720	0.750000	0.375280
Zn171	Zn17	0.125280	0.750000	0.874720
Zn181	Zn18	0.125280	0.250000	0.374720
Zn191	Zn19	0.625280	0.500000	0.875280
Zn201	Zn20	0.625280	0.000000	0.375280
Zn211	Zn21	0.374720	0.124720	0.000000
Zn221	Zn22	0.374720	0.624720	0.500000
Zn231	Zn23	0.874720	0.624720	0.000000
Zn241	Zn24	0.375280	0.624720	0.250000
Zn251	Zn25	0.375280	0.124720	0.750000
Zn261	Zn26	0.874720	0.125280	0.750000
Zn271	Zn27	0.874720	0.625280	0.250000
Zn281	Zn28	0.875280	0.625280	0.500000
Zn291	Zn29	0.875280	0.125280	0.000000
Zn301	Zn30	0.375280	0.625280	0.000000
Zn311	Zn31	0.124720	0.250000	0.875280
Zn321	Zn32	0.125280	0.500000	0.375280
Zn331	Zn33	0.125280	0.000000	0.875280
Zn341	Zn34	0.624720	0.500000	0.374720
Zn351	Zn35	0.625280	0.750000	0.374720
Zn361	Zn36	0.625280	0.250000	0.874720
Zn371	Zn37	0.750000	0.374720	0.625280
Zn381	Zn38	0.250000	0.374720	0.125280
Zn391	Zn39	0.500000	0.874720	0.124720
Zn401	Zn40	0.500000	0.375280	0.125280
Zn411	Zn41	0.250000	0.875280	0.124720
Zn421	Zn42	0.750000	0.875280	0.624720
Zn431	Zn43	0.874720	0.124720	0.500000
Zn441	Zn44	0.374720	0.625280	0.750000
Zn451	Zn45	0.374720	0.125280	0.250000
Zn461	Zn46	0.875280	0.124720	0.250000
Zn471	Zn47	0.875280	0.624720	0.750000
Zn481	Zn48	0.375280	0.125280	0.500000
Zn491	Zn49	0.000000	0.625280	0.875280
Zn501	Zn50	0.000000	0.125280	0.375280
Zn511	Zn51	0.500000	0.625280	0.375280
Zn521	Zn52	0.750000	0.624720	0.375280
Zn531	Zn53	0.250000	0.624720	0.875280
Zn541	Zn54	0.250000	0.125280	0.874720
Zn551	Zn55	0.750000	0.125280	0.374720
Zn561	Zn56	0.750000	0.625280	0.874720
Zn571	Zn57	0.500000	0.124720	0.374720
Zn581	Zn58	0.000000	0.124720	0.874720
Zn591	Zn59	0.875280	0.000000	0.625280
Zn601	Zn60	0.875280	0.500000	0.125280
Zn611	Zn61	0.375280	0.000000	0.125280
Zn621	Zn62	0.375280	0.750000	0.624720
Zn631	Zn63	0.375280	0.250000	0.124720
Zn641	Zn64	0.874720	0.250000	0.125280
Zn651	Zn65	0.874720	0.750000	0.625280
Zn661	Zn66	0.374720	0.500000	0.124720
Zn671	Zn67	0.374720	0.000000	0.624720
Zn681	Zn68	0.874720	0.000000	0.124720
Zn691	Zn69	0.625280	0.875280	0.000000
Zn701	Zn70	0.625280	0.375280	0.500000
Zn711	Zn71	0.125280	0.375280	0.000000
Zn721	Zn72	0.624720	0.375280	0.750000
Zn731	Zn73	0.624720	0.875280	0.250000
Zn741	Zn74	0.125280	0.874720	0.250000
Zn751	Zn75	0.125280	0.374720	0.750000
Zn761	Zn76	0.625280	0.874720	0.750000
Zn771	Zn77	0.124720	0.374720	0.500000
Zn781	Zn78	0.124720	0.874720	0.000000
Zn791	Zn79	0.875280	0.750000	0.124720
Zn801	Zn80	0.875280	0.250000	0.624720
Zn811	Zn81	0.874720	0.500000	0.624720
Zn821	Zn82	0.375280	0.500000	0.625280
Zn831	Zn83	0.374720	0.250000	0.625280
Zn841	Zn84	0.374720	0.750000	0.125280
Zn851	Zn85	0.250000	0.625280	0.374720
Zn861	Zn86	0.500000	0.125280	0.875280
Zn871	Zn87	0.500000	0.624720	0.874720
Zn881	Zn88	0.000000	0.624720	0.374720
Zn891	Zn89	0.750000	0.124720	0.875280
Zn901	Zn90	0.250000	0.124720	0.375280
Zn911	Zn91	0.125280	0.875280	0.500000
Zn921	Zn92	0.625280	0.374720	0.250000
Zn931	Zn93	0.124720	0.875280	0.750000
Zn941	Zn94	0.124720	0.375280	0.250000
Zn951	Zn95	0.624720	0.874720	0.500000
Zn961	Zn96	0.624720	0.374720	0.000000
Na11	Na1	0.125000	0.375000	0.125000
Na21	Na2	0.625000	0.875000	0.125000
Na31	Na3	0.125000	0.375000	0.625000
Na41	Na4	0.125000	0.875000	0.125000
Na51	Na5	0.625000	0.375000	0.625000
Na61	Na6	0.625000	0.875000	0.625000
Na71	Na7	0.125000	0.125000	0.375000
Na81	Na8	0.125000	0.625000	0.875000
Na91	Na9	0.625000	0.625000	0.375000
Na101	Na10	0.625000	0.125000	0.375000
Na111	Na11	0.625000	0.625000	0.875000
Na121	Na12	0.375000	0.125000	0.125000
Na131	Na13	0.375000	0.625000	0.625000
Na141	Na14	0.875000	0.125000	0.625000
Na151	Na15	0.375000	0.625000	0.125000
Na161	Na16	0.875000	0.625000	0.625000
Na171	Na17	0.875000	0.125000	0.125000
Na181	Na18	0.125000	0.375000	0.875000
Na191	Na19	0.125000	0.375000	0.375000
Na201	Na20	0.125000	0.875000	0.875000
Na211	Na21	0.625000	0.375000	0.875000
Na221	Na22	0.625000	0.875000	0.875000
Na231	Na23	0.625000	0.375000	0.375000
Na241	Na24	0.625000	0.875000	0.375000
Na251	Na25	0.875000	0.375000	0.625000
Na261	Na26	0.875000	0.875000	0.125000
Na271	Na27	0.875000	0.875000	0.625000
Na281	Na28	0.375000	0.375000	0.125000
Na291	Na29	0.375000	0.875000	0.625000
Na301	Na30	0.375000	0.875000	0.125000
Na311	Na31	0.375000	0.375000	0.625000
Na321	Na32	0.875000	0.625000	0.875000
Na331	Na33	0.375000	0.625000	0.875000
Na341	Na34	0.875000	0.125000	0.375000
Na351	Na35	0.375000	0.125000	0.375000
Na361	Na36	0.875000	0.625000	0.375000
Na371	Na37	0.875000	0.125000	0.875000
Na381	Na38	0.375000	0.125000	0.875000
Na391	Na39	0.375000	0.625000	0.375000
Na401	Na40	0.875000	0.375000	0.125000
Na411	Na41	0.125000	0.875000	0.375000
Na421	Na42	0.875000	0.625000	0.125000
Na431	Na43	0.375000	0.125000	0.625000
Na441	Na44	0.125000	0.625000	0.375000
Na451	Na45	0.125000	0.125000	0.875000
Na461	Na46	0.625000	0.125000	0.875000
Na471	Na47	0.625000	0.375000	0.125000
Na481	Na48	0.125000	0.875000	0.625000
