data_IWOKOW_freeONLY_PM
_symmetry_space_group_name_H-M	'P1'
_cell_length_a	12.070200
_cell_length_b	24.951000
_cell_length_c	50.623000
_cell_angle_alpha	90.000000
_cell_angle_beta	95.774000
_cell_angle_gamma	90.000000
_symmetry_Int_Tables_number 1

loop_
_symmetry_equiv_pos_as_xyz
'x,y,z'

loop_
_atom_site_label
_atom_site_type_symbol
_atom_site_fract_x
_atom_site_fract_y
_atom_site_fract_z
S11	S1	0.718950	0.901770	0.159970
C11	C1	0.578600	0.892100	0.167120
C21	C2	0.510400	0.934900	0.172630
C31	C3	0.400600	0.922200	0.178590
C41	C4	0.369000	0.868700	0.180600
H11	H1	0.295700	0.861200	0.184900
C51	C5	0.438200	0.826100	0.176700
C61	C6	0.542400	0.838700	0.169520
H21	H2	0.591600	0.810400	0.166100
S21	S2	0.562060	0.000840	0.175900
C71	C7	0.577000	0.004700	0.213300
H31	H3	0.613600	0.038900	0.218900
H41	H4	0.502000	0.004600	0.219600
C81	C8	0.640800	0.961000	0.225500
C91	C9	0.757400	0.964700	0.232000
H51	H5	0.793900	0.997200	0.228200
N11	N1	0.816800	0.925300	0.242830
C101	C10	0.764100	0.879200	0.248000
H61	H6	0.807500	0.850500	0.255800
C111	C11	0.652800	0.871700	0.242800
H71	H7	0.618300	0.839400	0.247600
C121	C12	0.590500	0.913300	0.230000
H81	H8	0.513700	0.908300	0.224400
C131	C13	0.404900	0.767000	0.180800
C141	C14	0.427300	0.754600	0.208800
H91	H9	0.390300	0.781000	0.219300
H101	H10	0.507800	0.755600	0.213900
H111	H11	0.398900	0.718700	0.212200
C151	C15	0.465100	0.728100	0.164200
H121	H12	0.545700	0.732400	0.168300
H131	H13	0.444800	0.735600	0.145300
H141	H14	0.443700	0.691400	0.168200
C161	C16	0.284700	0.760200	0.174900
H151	H15	0.268300	0.722800	0.170100
H161	H16	0.257800	0.783600	0.160000
H171	H17	0.247300	0.769600	0.190600
S31	S3	0.302580	0.972020	0.185860
C171	C17	0.279700	0.006500	0.155000
C181	C18	0.226800	0.983200	0.132070
C191	C19	0.211300	0.013900	0.108600
C201	C20	0.243300	0.067900	0.109200
H181	H18	0.229600	0.088900	0.093500
C211	C21	0.295600	0.092000	0.132500
C221	C22	0.315200	0.060900	0.154300
H191	H19	0.354200	0.075900	0.169800
S41	S4	0.170100	0.917460	0.132880
C231	C23	0.027700	0.930700	0.142400
H201	H20	0.021600	0.967000	0.150100
H211	H21	0.970300	0.926200	0.127200
C241	C24	0.019400	0.885700	0.163900
C251	C25	0.020100	0.912300	0.188100
H221	H22	0.033600	0.949800	0.189000
N21	N2	0.001100	0.884100	0.210800
C261	C26	0.981300	0.829200	0.209500
H231	H23	0.968300	0.810000	0.225100
C271	C27	0.980600	0.802600	0.185400
H241	H24	0.967100	0.765100	0.184500
C281	C28	0.999700	0.830800	0.162590
H251	H25	0.999200	0.812600	0.146100
C291	C29	0.330800	0.150800	0.133700
C301	C30	0.350600	0.170600	0.105500
H261	H26	0.279400	0.171800	0.094300
H271	H27	0.401400	0.146000	0.097600
H281	H28	0.383300	0.206600	0.106700
C311	C31	0.243200	0.183300	0.143700
H291	H29	0.177200	0.183000	0.130700
H301	H30	0.269600	0.220200	0.146400
H311	H31	0.223900	0.168500	0.160500
C321	C32	0.440600	0.158000	0.152300
H321	H32	0.458400	0.196200	0.154100
H331	H33	0.501400	0.139300	0.144700
H341	H34	0.431300	0.143000	0.169800
S51	S5	0.149000	0.988640	0.078000
C331	C33	0.251800	0.940400	0.069620
C341	C34	0.357100	0.954700	0.063870
C351	C35	0.432400	0.913400	0.058390
C361	C36	0.396300	0.860300	0.057310
H351	H35	0.445500	0.833200	0.052300
C371	C37	0.290500	0.845700	0.063350
C381	C38	0.217900	0.886200	0.069580
H361	H36	0.145200	0.877300	0.073800
S61	S6	0.398400	0.023510	0.062690
C391	C39	0.366000	0.035500	0.027640
H371	H37	0.399000	0.007000	0.017300
H381	H38	0.284300	0.035200	0.023100
C401	C40	0.413400	0.090000	0.020850
C411	C41	0.338900	0.134000	0.017680
H391	H39	0.262600	0.128300	0.019900
N31	N3	0.371600	0.182600	0.011750
C421	C42	0.482400	0.191100	0.009550
H401	H40	0.507200	0.225900	0.005400
C431	C43	0.559400	0.149300	0.013300
H411	H41	0.636300	0.155800	0.012200
C441	C44	0.522100	0.098400	0.018780
H421	H42	0.573300	0.069500	0.021100
C451	C45	0.258400	0.786100	0.064800
C461	C46	0.282800	0.757100	0.039700
H431	H43	0.271000	0.718500	0.041800
H441	H44	0.360200	0.763600	0.036300
H451	H45	0.232800	0.770400	0.024600
C471	C47	0.333900	0.763300	0.088900
H461	H46	0.332400	0.787600	0.104000
H471	H47	0.410400	0.760000	0.084200
H481	H48	0.306400	0.728000	0.093600
C481	C48	0.140000	0.777000	0.068100
H491	H49	0.094000	0.800900	0.056100
H501	H50	0.126500	0.784500	0.086500
H511	H51	0.120600	0.739700	0.063800
S71	S7	0.572020	0.926220	0.051740
C491	C49	0.634300	0.949400	0.083330
C501	C50	0.649000	0.916500	0.105700
C511	C51	0.699200	0.939000	0.129680
C521	C52	0.742500	0.990300	0.129550
H521	H52	0.781400	0.003900	0.145400
C531	C53	0.731100	0.022600	0.106980
C541	C54	0.675600	0.001300	0.084520
H531	H53	0.664900	0.023000	0.069100
S81	S8	0.607830	0.847940	0.104660
C551	C55	0.746900	0.818300	0.105100
H541	H54	0.795300	0.833100	0.120300
H551	H55	0.741400	0.779100	0.107700
C561	C56	0.799000	0.829000	0.080000
C571	C57	0.777600	0.795200	0.058400
H561	H56	0.733600	0.764300	0.060800
N41	N4	0.813200	0.802200	0.035030
C581	C58	0.880100	0.845200	0.032200
H571	H57	0.912300	0.850000	0.016000
C591	C59	0.902600	0.882200	0.052500
H581	H58	0.945500	0.913300	0.049800
C601	C60	0.862400	0.873500	0.076400
H591	H59	0.878200	0.898300	0.090500
C611	C61	0.774600	0.082300	0.107900
C621	C62	0.719000	0.115100	0.128700
H601	H60	0.708800	0.092500	0.144100
H611	H61	0.646300	0.128100	0.120900
H621	H62	0.766300	0.145800	0.134400
C631	C63	0.762000	0.111900	0.080700
H631	H63	0.834100	0.113700	0.073600
H641	H64	0.734100	0.148400	0.083200
H651	H65	0.708600	0.092500	0.068300
C641	C64	0.901000	0.076300	0.116700
H661	H66	0.931500	0.047000	0.106700
H671	H67	0.912000	0.068200	0.135700
H681	H68	0.939300	0.109800	0.113200
N51	N5	0.007000	0.001800	0.229600
C651	C65	0.019500	0.033400	0.213100
S91	S9	0.010100	0.080910	0.191670
N61	N6	0.865800	0.786600	0.977220
C661	C66	0.905400	0.811600	0.961900
S101	S10	0.954600	0.845650	0.938500
S111	S11	0.218950	0.401770	0.159970
C671	C67	0.078600	0.392100	0.167120
C681	C68	0.010400	0.434900	0.172630
C691	C69	0.900600	0.422200	0.178590
C701	C70	0.869000	0.368700	0.180600
H691	H69	0.795700	0.361200	0.184900
C711	C71	0.938200	0.326100	0.176700
C721	C72	0.042400	0.338700	0.169520
H701	H70	0.091600	0.310400	0.166100
S121	S12	0.062060	0.500840	0.175900
C731	C73	0.077000	0.504700	0.213300
H711	H71	0.113600	0.538900	0.218900
H721	H72	0.002000	0.504600	0.219600
C741	C74	0.140800	0.461000	0.225500
C751	C75	0.257400	0.464700	0.232000
H731	H73	0.293900	0.497200	0.228200
N71	N7	0.316800	0.425300	0.242830
C761	C76	0.264100	0.379200	0.248000
H741	H74	0.307500	0.350500	0.255800
C771	C77	0.152800	0.371700	0.242800
H751	H75	0.118300	0.339400	0.247600
C781	C78	0.090500	0.413300	0.230000
H761	H76	0.013700	0.408300	0.224400
C791	C79	0.904900	0.267000	0.180800
C801	C80	0.927300	0.254600	0.208800
H771	H77	0.890300	0.281000	0.219300
H781	H78	0.007800	0.255600	0.213900
H791	H79	0.898900	0.218700	0.212200
C811	C81	0.965100	0.228100	0.164200
H801	H80	0.045700	0.232400	0.168300
H811	H81	0.944800	0.235600	0.145300
H821	H82	0.943700	0.191400	0.168200
C821	C82	0.784700	0.260200	0.174900
H831	H83	0.768300	0.222800	0.170100
H841	H84	0.757800	0.283600	0.160000
H851	H85	0.747300	0.269600	0.190600
S131	S13	0.802580	0.472020	0.185860
C831	C83	0.779700	0.506500	0.155000
C841	C84	0.726800	0.483200	0.132070
C851	C85	0.711300	0.513900	0.108600
C861	C86	0.743300	0.567900	0.109200
H861	H86	0.729600	0.588900	0.093500
C871	C87	0.795600	0.592000	0.132500
C881	C88	0.815200	0.560900	0.154300
H871	H87	0.854200	0.575900	0.169800
S141	S14	0.670100	0.417460	0.132880
C891	C89	0.527700	0.430700	0.142400
H881	H88	0.521600	0.467000	0.150100
H891	H89	0.470300	0.426200	0.127200
C901	C90	0.519400	0.385700	0.163900
C911	C91	0.520100	0.412300	0.188100
H901	H90	0.533600	0.449800	0.189000
N81	N8	0.501100	0.384100	0.210800
C921	C92	0.481300	0.329200	0.209500
H911	H91	0.468300	0.310000	0.225100
C931	C93	0.480600	0.302600	0.185400
H921	H92	0.467100	0.265100	0.184500
C941	C94	0.499700	0.330800	0.162590
H931	H93	0.499200	0.312600	0.146100
C951	C95	0.830800	0.650800	0.133700
C961	C96	0.850600	0.670600	0.105500
H941	H94	0.779400	0.671800	0.094300
H951	H95	0.901400	0.646000	0.097600
H961	H96	0.883300	0.706600	0.106700
C971	C97	0.743200	0.683300	0.143700
H971	H97	0.677200	0.683000	0.130700
H981	H98	0.769600	0.720200	0.146400
H991	H99	0.723900	0.668500	0.160500
C981	C98	0.940600	0.658000	0.152300
H1001	H100	0.958400	0.696200	0.154100
H1011	H101	0.001400	0.639300	0.144700
H1021	H102	0.931300	0.643000	0.169800
S151	S15	0.649000	0.488640	0.078000
C991	C99	0.751800	0.440400	0.069620
C1001	C100	0.857100	0.454700	0.063870
C1011	C101	0.932400	0.413400	0.058390
C1021	C102	0.896300	0.360300	0.057310
H1031	H103	0.945500	0.333200	0.052300
C1031	C103	0.790500	0.345700	0.063350
C1041	C104	0.717900	0.386200	0.069580
H1041	H104	0.645200	0.377300	0.073800
S161	S16	0.898400	0.523510	0.062690
C1051	C105	0.866000	0.535500	0.027640
H1051	H105	0.899000	0.507000	0.017300
H1061	H106	0.784300	0.535200	0.023100
C1061	C106	0.913400	0.590000	0.020850
C1071	C107	0.838900	0.634000	0.017680
H1071	H107	0.762600	0.628300	0.019900
N91	N9	0.871600	0.682600	0.011750
C1081	C108	0.982400	0.691100	0.009550
H1081	H108	0.007200	0.725900	0.005400
C1091	C109	0.059400	0.649300	0.013300
H1091	H109	0.136300	0.655800	0.012200
C1101	C110	0.022100	0.598400	0.018780
H1101	H110	0.073300	0.569500	0.021100
C1111	C111	0.758400	0.286100	0.064800
C1121	C112	0.782800	0.257100	0.039700
H1111	H111	0.771000	0.218500	0.041800
H1121	H112	0.860200	0.263600	0.036300
H1131	H113	0.732800	0.270400	0.024600
C1131	C113	0.833900	0.263300	0.088900
H1141	H114	0.832400	0.287600	0.104000
H1151	H115	0.910400	0.260000	0.084200
H1161	H116	0.806400	0.228000	0.093600
C1141	C114	0.640000	0.277000	0.068100
H1171	H117	0.594000	0.300900	0.056100
H1181	H118	0.626500	0.284500	0.086500
H1191	H119	0.620600	0.239700	0.063800
S171	S17	0.072020	0.426220	0.051740
C1151	C115	0.134300	0.449400	0.083330
C1161	C116	0.149000	0.416500	0.105700
C1171	C117	0.199200	0.439000	0.129680
C1181	C118	0.242500	0.490300	0.129550
H1201	H120	0.281400	0.503900	0.145400
C1191	C119	0.231100	0.522600	0.106980
C1201	C120	0.175600	0.501300	0.084520
H1211	H121	0.164900	0.523000	0.069100
S181	S18	0.107830	0.347940	0.104660
C1211	C121	0.246900	0.318300	0.105100
H1221	H122	0.295300	0.333100	0.120300
H1231	H123	0.241400	0.279100	0.107700
C1221	C122	0.299000	0.329000	0.080000
C1231	C123	0.277600	0.295200	0.058400
H1241	H124	0.233600	0.264300	0.060800
N101	N10	0.313200	0.302200	0.035030
C1241	C124	0.380100	0.345200	0.032200
H1251	H125	0.412300	0.350000	0.016000
C1251	C125	0.402600	0.382200	0.052500
H1261	H126	0.445500	0.413300	0.049800
C1261	C126	0.362400	0.373500	0.076400
H1271	H127	0.378200	0.398300	0.090500
C1271	C127	0.274600	0.582300	0.107900
C1281	C128	0.219000	0.615100	0.128700
H1281	H128	0.208800	0.592500	0.144100
H1291	H129	0.146300	0.628100	0.120900
H1301	H130	0.266300	0.645800	0.134400
C1291	C129	0.262000	0.611900	0.080700
H1311	H131	0.334100	0.613700	0.073600
H1321	H132	0.234100	0.648400	0.083200
H1331	H133	0.208600	0.592500	0.068300
C1301	C130	0.401000	0.576300	0.116700
H1341	H134	0.431500	0.547000	0.106700
H1351	H135	0.412000	0.568200	0.135700
H1361	H136	0.439300	0.609800	0.113200
N111	N11	0.507000	0.501800	0.229600
C1311	C131	0.519500	0.533400	0.213100
S191	S19	0.510100	0.580910	0.191670
N121	N12	0.365800	0.286600	0.977220
C1321	C132	0.405400	0.311600	0.961900
S201	S20	0.454600	0.345650	0.938500
S211	S21	0.281050	0.901770	0.340030
C1331	C133	0.421400	0.892100	0.332880
C1341	C134	0.489600	0.934900	0.327370
C1351	C135	0.599400	0.922200	0.321410
C1361	C136	0.631000	0.868700	0.319400
H1371	H137	0.704300	0.861200	0.315100
C1371	C137	0.561800	0.826100	0.323300
C1381	C138	0.457600	0.838700	0.330480
H1381	H138	0.408400	0.810400	0.333900
S221	S22	0.437940	0.000840	0.324100
C1391	C139	0.423000	0.004700	0.286700
H1391	H139	0.386400	0.038900	0.281100
H1401	H140	0.498000	0.004600	0.280400
C1401	C140	0.359200	0.961000	0.274500
C1411	C141	0.242600	0.964700	0.268000
H1411	H141	0.206100	0.997200	0.271800
N131	N13	0.183200	0.925300	0.257170
C1421	C142	0.235900	0.879200	0.252000
H1421	H142	0.192500	0.850500	0.244200
C1431	C143	0.347200	0.871700	0.257200
H1431	H143	0.381700	0.839400	0.252400
C1441	C144	0.409500	0.913300	0.270000
H1441	H144	0.486300	0.908300	0.275600
C1451	C145	0.595100	0.767000	0.319200
C1461	C146	0.572700	0.754600	0.291200
H1451	H145	0.609700	0.781000	0.280700
H1461	H146	0.492200	0.755600	0.286100
H1471	H147	0.601100	0.718700	0.287800
C1471	C147	0.534900	0.728100	0.335800
H1481	H148	0.454300	0.732400	0.331700
H1491	H149	0.555200	0.735600	0.354700
H1501	H150	0.556300	0.691400	0.331800
C1481	C148	0.715300	0.760200	0.325100
H1511	H151	0.731700	0.722800	0.329900
H1521	H152	0.742200	0.783600	0.340000
H1531	H153	0.752700	0.769600	0.309400
S231	S23	0.697420	0.972020	0.314140
C1491	C149	0.720300	0.006500	0.345000
C1501	C150	0.773200	0.983200	0.367930
C1511	C151	0.788700	0.013900	0.391400
C1521	C152	0.756700	0.067900	0.390800
H1541	H154	0.770400	0.088900	0.406500
C1531	C153	0.704400	0.092000	0.367500
C1541	C154	0.684800	0.060900	0.345700
H1551	H155	0.645800	0.075900	0.330200
S241	S24	0.829900	0.917460	0.367120
C1551	C155	0.972300	0.930700	0.357600
H1561	H156	0.978400	0.967000	0.349900
H1571	H157	0.029700	0.926200	0.372800
C1561	C156	0.980600	0.885700	0.336100
C1571	C157	0.979900	0.912300	0.311900
H1581	H158	0.966400	0.949800	0.311000
N141	N14	0.998900	0.884100	0.289200
C1581	C158	0.018700	0.829200	0.290500
H1591	H159	0.031700	0.810000	0.274900
C1591	C159	0.019400	0.802600	0.314600
H1601	H160	0.032900	0.765100	0.315500
C1601	C160	0.000300	0.830800	0.337410
H1611	H161	0.000800	0.812600	0.353900
C1611	C161	0.669200	0.150800	0.366300
C1621	C162	0.649400	0.170600	0.394500
H1621	H162	0.720600	0.171800	0.405700
H1631	H163	0.598600	0.146000	0.402400
H1641	H164	0.616700	0.206600	0.393300
C1631	C163	0.756800	0.183300	0.356300
H1651	H165	0.822800	0.183000	0.369300
H1661	H166	0.730400	0.220200	0.353600
H1671	H167	0.776100	0.168500	0.339500
C1641	C164	0.559400	0.158000	0.347700
H1681	H168	0.541600	0.196200	0.345900
H1691	H169	0.498600	0.139300	0.355300
H1701	H170	0.568700	0.143000	0.330200
S251	S25	0.851000	0.988640	0.422000
C1651	C165	0.748200	0.940400	0.430380
C1661	C166	0.642900	0.954700	0.436130
C1671	C167	0.567600	0.913400	0.441610
C1681	C168	0.603700	0.860300	0.442690
H1711	H171	0.554500	0.833200	0.447700
C1691	C169	0.709500	0.845700	0.436650
C1701	C170	0.782100	0.886200	0.430420
H1721	H172	0.854800	0.877300	0.426200
S261	S26	0.601600	0.023510	0.437310
C1711	C171	0.634000	0.035500	0.472360
H1731	H173	0.601000	0.007000	0.482700
H1741	H174	0.715700	0.035200	0.476900
C1721	C172	0.586600	0.090000	0.479150
C1731	C173	0.661100	0.134000	0.482320
H1751	H175	0.737400	0.128300	0.480100
N151	N15	0.628400	0.182600	0.488250
C1741	C174	0.517600	0.191100	0.490450
H1761	H176	0.492800	0.225900	0.494600
C1751	C175	0.440600	0.149300	0.486700
H1771	H177	0.363700	0.155800	0.487800
C1761	C176	0.477900	0.098400	0.481220
H1781	H178	0.426700	0.069500	0.478900
C1771	C177	0.741600	0.786100	0.435200
C1781	C178	0.717200	0.757100	0.460300
H1791	H179	0.729000	0.718500	0.458200
H1801	H180	0.639800	0.763600	0.463700
H1811	H181	0.767200	0.770400	0.475400
C1791	C179	0.666100	0.763300	0.411100
H1821	H182	0.667600	0.787600	0.396000
H1831	H183	0.589600	0.760000	0.415800
H1841	H184	0.693600	0.728000	0.406400
C1801	C180	0.860000	0.777000	0.431900
H1851	H185	0.906000	0.800900	0.443900
H1861	H186	0.873500	0.784500	0.413500
H1871	H187	0.879400	0.739700	0.436200
S271	S27	0.427980	0.926220	0.448260
C1811	C181	0.365700	0.949400	0.416670
C1821	C182	0.351000	0.916500	0.394300
C1831	C183	0.300800	0.939000	0.370320
C1841	C184	0.257500	0.990300	0.370450
H1881	H188	0.218600	0.003900	0.354600
C1851	C185	0.268900	0.022600	0.393020
C1861	C186	0.324400	0.001300	0.415480
H1891	H189	0.335100	0.023000	0.430900
S281	S28	0.392170	0.847940	0.395340
C1871	C187	0.253100	0.818300	0.394900
H1901	H190	0.204700	0.833100	0.379700
H1911	H191	0.258600	0.779100	0.392300
C1881	C188	0.201000	0.829000	0.420000
C1891	C189	0.222400	0.795200	0.441600
H1921	H192	0.266400	0.764300	0.439200
N161	N16	0.186800	0.802200	0.464970
C1901	C190	0.119900	0.845200	0.467800
H1931	H193	0.087700	0.850000	0.484000
C1911	C191	0.097400	0.882200	0.447500
H1941	H194	0.054500	0.913300	0.450200
C1921	C192	0.137600	0.873500	0.423600
H1951	H195	0.121800	0.898300	0.409500
C1931	C193	0.225400	0.082300	0.392100
C1941	C194	0.281000	0.115100	0.371300
H1961	H196	0.291200	0.092500	0.355900
H1971	H197	0.353700	0.128100	0.379100
H1981	H198	0.233700	0.145800	0.365600
C1951	C195	0.238000	0.111900	0.419300
H1991	H199	0.165900	0.113700	0.426400
H2001	H200	0.265900	0.148400	0.416800
H2011	H201	0.291400	0.092500	0.431700
C1961	C196	0.099000	0.076300	0.383300
H2021	H202	0.068500	0.047000	0.393300
H2031	H203	0.088000	0.068200	0.364300
H2041	H204	0.060700	0.109800	0.386800
N171	N17	0.993000	0.001800	0.270400
C1971	C197	0.980500	0.033400	0.286900
S291	S29	0.989900	0.080910	0.308330
N181	N18	0.134200	0.786600	0.522780
C1981	C198	0.094600	0.811600	0.538100
S301	S30	0.045400	0.845650	0.561500
S311	S31	0.781050	0.401770	0.340030
C1991	C199	0.921400	0.392100	0.332880
C2001	C200	0.989600	0.434900	0.327370
C2011	C201	0.099400	0.422200	0.321410
C2021	C202	0.131000	0.368700	0.319400
H2051	H205	0.204300	0.361200	0.315100
C2031	C203	0.061800	0.326100	0.323300
C2041	C204	0.957600	0.338700	0.330480
H2061	H206	0.908400	0.310400	0.333900
S321	S32	0.937940	0.500840	0.324100
C2051	C205	0.923000	0.504700	0.286700
H2071	H207	0.886400	0.538900	0.281100
H2081	H208	0.998000	0.504600	0.280400
C2061	C206	0.859200	0.461000	0.274500
C2071	C207	0.742600	0.464700	0.268000
H2091	H209	0.706100	0.497200	0.271800
N191	N19	0.683200	0.425300	0.257170
C2081	C208	0.735900	0.379200	0.252000
H2101	H210	0.692500	0.350500	0.244200
C2091	C209	0.847200	0.371700	0.257200
H2111	H211	0.881700	0.339400	0.252400
C2101	C210	0.909500	0.413300	0.270000
H2121	H212	0.986300	0.408300	0.275600
C2111	C211	0.095100	0.267000	0.319200
C2121	C212	0.072700	0.254600	0.291200
H2131	H213	0.109700	0.281000	0.280700
H2141	H214	0.992200	0.255600	0.286100
H2151	H215	0.101100	0.218700	0.287800
C2131	C213	0.034900	0.228100	0.335800
H2161	H216	0.954300	0.232400	0.331700
H2171	H217	0.055200	0.235600	0.354700
H2181	H218	0.056300	0.191400	0.331800
C2141	C214	0.215300	0.260200	0.325100
H2191	H219	0.231700	0.222800	0.329900
H2201	H220	0.242200	0.283600	0.340000
H2211	H221	0.252700	0.269600	0.309400
S331	S33	0.197420	0.472020	0.314140
C2151	C215	0.220300	0.506500	0.345000
C2161	C216	0.273200	0.483200	0.367930
C2171	C217	0.288700	0.513900	0.391400
C2181	C218	0.256700	0.567900	0.390800
H2221	H222	0.270400	0.588900	0.406500
C2191	C219	0.204400	0.592000	0.367500
C2201	C220	0.184800	0.560900	0.345700
H2231	H223	0.145800	0.575900	0.330200
S341	S34	0.329900	0.417460	0.367120
C2211	C221	0.472300	0.430700	0.357600
H2241	H224	0.478400	0.467000	0.349900
H2251	H225	0.529700	0.426200	0.372800
C2221	C222	0.480600	0.385700	0.336100
C2231	C223	0.479900	0.412300	0.311900
H2261	H226	0.466400	0.449800	0.311000
N201	N20	0.498900	0.384100	0.289200
C2241	C224	0.518700	0.329200	0.290500
H2271	H227	0.531700	0.310000	0.274900
C2251	C225	0.519400	0.302600	0.314600
H2281	H228	0.532900	0.265100	0.315500
C2261	C226	0.500300	0.330800	0.337410
H2291	H229	0.500800	0.312600	0.353900
C2271	C227	0.169200	0.650800	0.366300
C2281	C228	0.149400	0.670600	0.394500
H2301	H230	0.220600	0.671800	0.405700
H2311	H231	0.098600	0.646000	0.402400
H2321	H232	0.116700	0.706600	0.393300
C2291	C229	0.256800	0.683300	0.356300
H2331	H233	0.322800	0.683000	0.369300
H2341	H234	0.230400	0.720200	0.353600
H2351	H235	0.276100	0.668500	0.339500
C2301	C230	0.059400	0.658000	0.347700
H2361	H236	0.041600	0.696200	0.345900
H2371	H237	0.998600	0.639300	0.355300
H2381	H238	0.068700	0.643000	0.330200
S351	S35	0.351000	0.488640	0.422000
C2311	C231	0.248200	0.440400	0.430380
C2321	C232	0.142900	0.454700	0.436130
C2331	C233	0.067600	0.413400	0.441610
C2341	C234	0.103700	0.360300	0.442690
H2391	H239	0.054500	0.333200	0.447700
C2351	C235	0.209500	0.345700	0.436650
C2361	C236	0.282100	0.386200	0.430420
H2401	H240	0.354800	0.377300	0.426200
S361	S36	0.101600	0.523510	0.437310
C2371	C237	0.134000	0.535500	0.472360
H2411	H241	0.101000	0.507000	0.482700
H2421	H242	0.215700	0.535200	0.476900
C2381	C238	0.086600	0.590000	0.479150
C2391	C239	0.161100	0.634000	0.482320
H2431	H243	0.237400	0.628300	0.480100
N211	N21	0.128400	0.682600	0.488250
C2401	C240	0.017600	0.691100	0.490450
H2441	H244	0.992800	0.725900	0.494600
C2411	C241	0.940600	0.649300	0.486700
H2451	H245	0.863700	0.655800	0.487800
C2421	C242	0.977900	0.598400	0.481220
H2461	H246	0.926700	0.569500	0.478900
C2431	C243	0.241600	0.286100	0.435200
C2441	C244	0.217200	0.257100	0.460300
H2471	H247	0.229000	0.218500	0.458200
H2481	H248	0.139800	0.263600	0.463700
H2491	H249	0.267200	0.270400	0.475400
C2451	C245	0.166100	0.263300	0.411100
H2501	H250	0.167600	0.287600	0.396000
H2511	H251	0.089600	0.260000	0.415800
H2521	H252	0.193600	0.228000	0.406400
C2461	C246	0.360000	0.277000	0.431900
H2531	H253	0.406000	0.300900	0.443900
H2541	H254	0.373500	0.284500	0.413500
H2551	H255	0.379400	0.239700	0.436200
S371	S37	0.927980	0.426220	0.448260
C2471	C247	0.865700	0.449400	0.416670
C2481	C248	0.851000	0.416500	0.394300
C2491	C249	0.800800	0.439000	0.370320
C2501	C250	0.757500	0.490300	0.370450
H2561	H256	0.718600	0.503900	0.354600
C2511	C251	0.768900	0.522600	0.393020
C2521	C252	0.824400	0.501300	0.415480
H2571	H257	0.835100	0.523000	0.430900
S381	S38	0.892170	0.347940	0.395340
C2531	C253	0.753100	0.318300	0.394900
H2581	H258	0.704700	0.333100	0.379700
H2591	H259	0.758600	0.279100	0.392300
C2541	C254	0.701000	0.329000	0.420000
C2551	C255	0.722400	0.295200	0.441600
H2601	H260	0.766400	0.264300	0.439200
N221	N22	0.686800	0.302200	0.464970
C2561	C256	0.619900	0.345200	0.467800
H2611	H261	0.587700	0.350000	0.484000
C2571	C257	0.597400	0.382200	0.447500
H2621	H262	0.554500	0.413300	0.450200
C2581	C258	0.637600	0.373500	0.423600
H2631	H263	0.621800	0.398300	0.409500
C2591	C259	0.725400	0.582300	0.392100
C2601	C260	0.781000	0.615100	0.371300
H2641	H264	0.791200	0.592500	0.355900
H2651	H265	0.853700	0.628100	0.379100
H2661	H266	0.733700	0.645800	0.365600
C2611	C261	0.738000	0.611900	0.419300
H2671	H267	0.665900	0.613700	0.426400
H2681	H268	0.765900	0.648400	0.416800
H2691	H269	0.791400	0.592500	0.431700
C2621	C262	0.599000	0.576300	0.383300
H2701	H270	0.568500	0.547000	0.393300
H2711	H271	0.588000	0.568200	0.364300
H2721	H272	0.560700	0.609800	0.386800
N231	N23	0.493000	0.501800	0.270400
C2631	C263	0.480500	0.533400	0.286900
S391	S39	0.489900	0.580910	0.308330
N241	N24	0.634200	0.286600	0.522780
C2641	C264	0.594600	0.311600	0.538100
S401	S40	0.545400	0.345650	0.561500
S411	S41	0.281050	0.098230	0.840030
C2651	C265	0.421400	0.107900	0.832880
C2661	C266	0.489600	0.065100	0.827370
C2671	C267	0.599400	0.077800	0.821410
C2681	C268	0.631000	0.131300	0.819400
H2731	H273	0.704300	0.138800	0.815100
C2691	C269	0.561800	0.173900	0.823300
C2701	C270	0.457600	0.161300	0.830480
H2741	H274	0.408400	0.189600	0.833900
S421	S42	0.437940	0.999160	0.824100
C2711	C271	0.423000	0.995300	0.786700
H2751	H275	0.386400	0.961100	0.781100
H2761	H276	0.498000	0.995400	0.780400
C2721	C272	0.359200	0.039000	0.774500
C2731	C273	0.242600	0.035300	0.768000
H2771	H277	0.206100	0.002800	0.771800
N251	N25	0.183200	0.074700	0.757170
C2741	C274	0.235900	0.120800	0.752000
H2781	H278	0.192500	0.149500	0.744200
C2751	C275	0.347200	0.128300	0.757200
H2791	H279	0.381700	0.160600	0.752400
C2761	C276	0.409500	0.086700	0.770000
H2801	H280	0.486300	0.091700	0.775600
C2771	C277	0.595100	0.233000	0.819200
C2781	C278	0.572700	0.245400	0.791200
H2811	H281	0.609700	0.219000	0.780700
H2821	H282	0.492200	0.244400	0.786100
H2831	H283	0.601100	0.281300	0.787800
C2791	C279	0.534900	0.271900	0.835800
H2841	H284	0.454300	0.267600	0.831700
H2851	H285	0.555200	0.264400	0.854700
H2861	H286	0.556300	0.308600	0.831800
C2801	C280	0.715300	0.239800	0.825100
H2871	H287	0.731700	0.277200	0.829900
H2881	H288	0.742200	0.216400	0.840000
H2891	H289	0.752700	0.230400	0.809400
S431	S43	0.697420	0.027980	0.814140
C2811	C281	0.720300	0.993500	0.845000
C2821	C282	0.773200	0.016800	0.867930
C2831	C283	0.788700	0.986100	0.891400
C2841	C284	0.756700	0.932100	0.890800
H2901	H290	0.770400	0.911100	0.906500
C2851	C285	0.704400	0.908000	0.867500
C2861	C286	0.684800	0.939100	0.845700
H2911	H291	0.645800	0.924100	0.830200
S441	S44	0.829900	0.082540	0.867120
C2871	C287	0.972300	0.069300	0.857600
H2921	H292	0.978400	0.033000	0.849900
H2931	H293	0.029700	0.073800	0.872800
C2881	C288	0.980600	0.114300	0.836100
C2891	C289	0.979900	0.087700	0.811900
H2941	H294	0.966400	0.050200	0.811000
N261	N26	0.998900	0.115900	0.789200
C2901	C290	0.018700	0.170800	0.790500
H2951	H295	0.031700	0.190000	0.774900
C2911	C291	0.019400	0.197400	0.814600
H2961	H296	0.032900	0.234900	0.815500
C2921	C292	0.000300	0.169200	0.837410
H2971	H297	0.000800	0.187400	0.853900
C2931	C293	0.669200	0.849200	0.866300
C2941	C294	0.649400	0.829400	0.894500
H2981	H298	0.720600	0.828200	0.905700
H2991	H299	0.598600	0.854000	0.902400
H3001	H300	0.616700	0.793400	0.893300
C2951	C295	0.756800	0.816700	0.856300
H3011	H301	0.822800	0.817000	0.869300
H3021	H302	0.730400	0.779800	0.853600
H3031	H303	0.776100	0.831500	0.839500
C2961	C296	0.559400	0.842000	0.847700
H3041	H304	0.541600	0.803800	0.845900
H3051	H305	0.498600	0.860700	0.855300
H3061	H306	0.568700	0.857000	0.830200
S451	S45	0.851000	0.011360	0.922000
C2971	C297	0.748200	0.059600	0.930380
C2981	C298	0.642900	0.045300	0.936130
C2991	C299	0.567600	0.086600	0.941610
C3001	C300	0.603700	0.139700	0.942690
H3071	H307	0.554500	0.166800	0.947700
C3011	C301	0.709500	0.154300	0.936650
C3021	C302	0.782100	0.113800	0.930420
H3081	H308	0.854800	0.122700	0.926200
S461	S46	0.601600	0.976490	0.937310
C3031	C303	0.634000	0.964500	0.972360
H3091	H309	0.601000	0.993000	0.982700
H3101	H310	0.715700	0.964800	0.976900
C3041	C304	0.586600	0.910000	0.979150
C3051	C305	0.661100	0.866000	0.982320
H3111	H311	0.737400	0.871700	0.980100
N271	N27	0.628400	0.817400	0.988250
C3061	C306	0.517600	0.808900	0.990450
H3121	H312	0.492800	0.774100	0.994600
C3071	C307	0.440600	0.850700	0.986700
H3131	H313	0.363700	0.844200	0.987800
C3081	C308	0.477900	0.901600	0.981220
H3141	H314	0.426700	0.930500	0.978900
C3091	C309	0.741600	0.213900	0.935200
C3101	C310	0.717200	0.242900	0.960300
H3151	H315	0.729000	0.281500	0.958200
H3161	H316	0.639800	0.236400	0.963700
H3171	H317	0.767200	0.229600	0.975400
C3111	C311	0.666100	0.236700	0.911100
H3181	H318	0.667600	0.212400	0.896000
H3191	H319	0.589600	0.240000	0.915800
H3201	H320	0.693600	0.272000	0.906400
C3121	C312	0.860000	0.223000	0.931900
H3211	H321	0.906000	0.199100	0.943900
H3221	H322	0.873500	0.215500	0.913500
H3231	H323	0.879400	0.260300	0.936200
S471	S47	0.427980	0.073780	0.948260
C3131	C313	0.365700	0.050600	0.916670
C3141	C314	0.351000	0.083500	0.894300
C3151	C315	0.300800	0.061000	0.870320
C3161	C316	0.257500	0.009700	0.870450
H3241	H324	0.218600	0.996100	0.854600
C3171	C317	0.268900	0.977400	0.893020
C3181	C318	0.324400	0.998700	0.915480
H3251	H325	0.335100	0.977000	0.930900
S481	S48	0.392170	0.152060	0.895340
C3191	C319	0.253100	0.181700	0.894900
H3261	H326	0.204700	0.166900	0.879700
H3271	H327	0.258600	0.220900	0.892300
C3201	C320	0.201000	0.171000	0.920000
C3211	C321	0.222400	0.204800	0.941600
H3281	H328	0.266400	0.235700	0.939200
N281	N28	0.186800	0.197800	0.964970
C3221	C322	0.119900	0.154800	0.967800
H3291	H329	0.087700	0.150000	0.984000
C3231	C323	0.097400	0.117800	0.947500
H3301	H330	0.054500	0.086700	0.950200
C3241	C324	0.137600	0.126500	0.923600
H3311	H331	0.121800	0.101700	0.909500
C3251	C325	0.225400	0.917700	0.892100
C3261	C326	0.281000	0.884900	0.871300
H3321	H332	0.291200	0.907500	0.855900
H3331	H333	0.353700	0.871900	0.879100
H3341	H334	0.233700	0.854200	0.865600
C3271	C327	0.238000	0.888100	0.919300
H3351	H335	0.165900	0.886300	0.926400
H3361	H336	0.265900	0.851600	0.916800
H3371	H337	0.291400	0.907500	0.931700
C3281	C328	0.099000	0.923700	0.883300
H3381	H338	0.068500	0.953000	0.893300
H3391	H339	0.088000	0.931800	0.864300
H3401	H340	0.060700	0.890200	0.886800
N291	N29	0.993000	0.998200	0.770400
C3291	C329	0.980500	0.966600	0.786900
S491	S49	0.989900	0.919090	0.808330
N301	N30	0.134200	0.213400	0.022780
C3301	C330	0.094600	0.188400	0.038100
S501	S50	0.045400	0.154350	0.061500
S511	S51	0.781050	0.598230	0.840030
C3311	C331	0.921400	0.607900	0.832880
C3321	C332	0.989600	0.565100	0.827370
C3331	C333	0.099400	0.577800	0.821410
C3341	C334	0.131000	0.631300	0.819400
H3411	H341	0.204300	0.638800	0.815100
C3351	C335	0.061800	0.673900	0.823300
C3361	C336	0.957600	0.661300	0.830480
H3421	H342	0.908400	0.689600	0.833900
S521	S52	0.937940	0.499160	0.824100
C3371	C337	0.923000	0.495300	0.786700
H3431	H343	0.886400	0.461100	0.781100
H3441	H344	0.998000	0.495400	0.780400
C3381	C338	0.859200	0.539000	0.774500
C3391	C339	0.742600	0.535300	0.768000
H3451	H345	0.706100	0.502800	0.771800
N311	N31	0.683200	0.574700	0.757170
C3401	C340	0.735900	0.620800	0.752000
H3461	H346	0.692500	0.649500	0.744200
C3411	C341	0.847200	0.628300	0.757200
H3471	H347	0.881700	0.660600	0.752400
C3421	C342	0.909500	0.586700	0.770000
H3481	H348	0.986300	0.591700	0.775600
C3431	C343	0.095100	0.733000	0.819200
C3441	C344	0.072700	0.745400	0.791200
H3491	H349	0.109700	0.719000	0.780700
H3501	H350	0.992200	0.744400	0.786100
H3511	H351	0.101100	0.781300	0.787800
C3451	C345	0.034900	0.771900	0.835800
H3521	H352	0.954300	0.767600	0.831700
H3531	H353	0.055200	0.764400	0.854700
H3541	H354	0.056300	0.808600	0.831800
C3461	C346	0.215300	0.739800	0.825100
H3551	H355	0.231700	0.777200	0.829900
H3561	H356	0.242200	0.716400	0.840000
H3571	H357	0.252700	0.730400	0.809400
S531	S53	0.197420	0.527980	0.814140
C3471	C347	0.220300	0.493500	0.845000
C3481	C348	0.273200	0.516800	0.867930
C3491	C349	0.288700	0.486100	0.891400
C3501	C350	0.256700	0.432100	0.890800
H3581	H358	0.270400	0.411100	0.906500
C3511	C351	0.204400	0.408000	0.867500
C3521	C352	0.184800	0.439100	0.845700
H3591	H359	0.145800	0.424100	0.830200
S541	S54	0.329900	0.582540	0.867120
C3531	C353	0.472300	0.569300	0.857600
H3601	H360	0.478400	0.533000	0.849900
H3611	H361	0.529700	0.573800	0.872800
C3541	C354	0.480600	0.614300	0.836100
C3551	C355	0.479900	0.587700	0.811900
H3621	H362	0.466400	0.550200	0.811000
N321	N32	0.498900	0.615900	0.789200
C3561	C356	0.518700	0.670800	0.790500
H3631	H363	0.531700	0.690000	0.774900
C3571	C357	0.519400	0.697400	0.814600
H3641	H364	0.532900	0.734900	0.815500
C3581	C358	0.500300	0.669200	0.837410
H3651	H365	0.500800	0.687400	0.853900
C3591	C359	0.169200	0.349200	0.866300
C3601	C360	0.149400	0.329400	0.894500
H3661	H366	0.220600	0.328200	0.905700
H3671	H367	0.098600	0.354000	0.902400
H3681	H368	0.116700	0.293400	0.893300
C3611	C361	0.256800	0.316700	0.856300
H3691	H369	0.322800	0.317000	0.869300
H3701	H370	0.230400	0.279800	0.853600
H3711	H371	0.276100	0.331500	0.839500
C3621	C362	0.059400	0.342000	0.847700
H3721	H372	0.041600	0.303800	0.845900
H3731	H373	0.998600	0.360700	0.855300
H3741	H374	0.068700	0.357000	0.830200
S551	S55	0.351000	0.511360	0.922000
C3631	C363	0.248200	0.559600	0.930380
C3641	C364	0.142900	0.545300	0.936130
C3651	C365	0.067600	0.586600	0.941610
C3661	C366	0.103700	0.639700	0.942690
H3751	H375	0.054500	0.666800	0.947700
C3671	C367	0.209500	0.654300	0.936650
C3681	C368	0.282100	0.613800	0.930420
H3761	H376	0.354800	0.622700	0.926200
S561	S56	0.101600	0.476490	0.937310
C3691	C369	0.134000	0.464500	0.972360
H3771	H377	0.101000	0.493000	0.982700
H3781	H378	0.215700	0.464800	0.976900
C3701	C370	0.086600	0.410000	0.979150
C3711	C371	0.161100	0.366000	0.982320
H3791	H379	0.237400	0.371700	0.980100
N331	N33	0.128400	0.317400	0.988250
C3721	C372	0.017600	0.308900	0.990450
H3801	H380	0.992800	0.274100	0.994600
C3731	C373	0.940600	0.350700	0.986700
H3811	H381	0.863700	0.344200	0.987800
C3741	C374	0.977900	0.401600	0.981220
H3821	H382	0.926700	0.430500	0.978900
C3751	C375	0.241600	0.713900	0.935200
C3761	C376	0.217200	0.742900	0.960300
H3831	H383	0.229000	0.781500	0.958200
H3841	H384	0.139800	0.736400	0.963700
H3851	H385	0.267200	0.729600	0.975400
C3771	C377	0.166100	0.736700	0.911100
H3861	H386	0.167600	0.712400	0.896000
H3871	H387	0.089600	0.740000	0.915800
H3881	H388	0.193600	0.772000	0.906400
C3781	C378	0.360000	0.723000	0.931900
H3891	H389	0.406000	0.699100	0.943900
H3901	H390	0.373500	0.715500	0.913500
H3911	H391	0.379400	0.760300	0.936200
S571	S57	0.927980	0.573780	0.948260
C3791	C379	0.865700	0.550600	0.916670
C3801	C380	0.851000	0.583500	0.894300
C3811	C381	0.800800	0.561000	0.870320
C3821	C382	0.757500	0.509700	0.870450
H3921	H392	0.718600	0.496100	0.854600
C3831	C383	0.768900	0.477400	0.893020
C3841	C384	0.824400	0.498700	0.915480
H3931	H393	0.835100	0.477000	0.930900
S581	S58	0.892170	0.652060	0.895340
C3851	C385	0.753100	0.681700	0.894900
H3941	H394	0.704700	0.666900	0.879700
H3951	H395	0.758600	0.720900	0.892300
C3861	C386	0.701000	0.671000	0.920000
C3871	C387	0.722400	0.704800	0.941600
H3961	H396	0.766400	0.735700	0.939200
N341	N34	0.686800	0.697800	0.964970
C3881	C388	0.619900	0.654800	0.967800
H3971	H397	0.587700	0.650000	0.984000
C3891	C389	0.597400	0.617800	0.947500
H3981	H398	0.554500	0.586700	0.950200
C3901	C390	0.637600	0.626500	0.923600
H3991	H399	0.621800	0.601700	0.909500
C3911	C391	0.725400	0.417700	0.892100
C3921	C392	0.781000	0.384900	0.871300
H4001	H400	0.791200	0.407500	0.855900
H4011	H401	0.853700	0.371900	0.879100
H4021	H402	0.733700	0.354200	0.865600
C3931	C393	0.738000	0.388100	0.919300
H4031	H403	0.665900	0.386300	0.926400
H4041	H404	0.765900	0.351600	0.916800
H4051	H405	0.791400	0.407500	0.931700
C3941	C394	0.599000	0.423700	0.883300
H4061	H406	0.568500	0.453000	0.893300
H4071	H407	0.588000	0.431800	0.864300
H4081	H408	0.560700	0.390200	0.886800
N351	N35	0.493000	0.498200	0.770400
C3951	C395	0.480500	0.466600	0.786900
S591	S59	0.489900	0.419090	0.808330
N361	N36	0.634200	0.713400	0.022780
C3961	C396	0.594600	0.688400	0.038100
S601	S60	0.545400	0.654350	0.061500
S611	S61	0.718950	0.098230	0.659970
C3971	C397	0.578600	0.107900	0.667120
C3981	C398	0.510400	0.065100	0.672630
C3991	C399	0.400600	0.077800	0.678590
C4001	C400	0.369000	0.131300	0.680600
H4091	H409	0.295700	0.138800	0.684900
C4011	C401	0.438200	0.173900	0.676700
C4021	C402	0.542400	0.161300	0.669520
H4101	H410	0.591600	0.189600	0.666100
S621	S62	0.562060	0.999160	0.675900
C4031	C403	0.577000	0.995300	0.713300
H4111	H411	0.613600	0.961100	0.718900
H4121	H412	0.502000	0.995400	0.719600
C4041	C404	0.640800	0.039000	0.725500
C4051	C405	0.757400	0.035300	0.732000
H4131	H413	0.793900	0.002800	0.728200
N371	N37	0.816800	0.074700	0.742830
C4061	C406	0.764100	0.120800	0.748000
H4141	H414	0.807500	0.149500	0.755800
C4071	C407	0.652800	0.128300	0.742800
H4151	H415	0.618300	0.160600	0.747600
C4081	C408	0.590500	0.086700	0.730000
H4161	H416	0.513700	0.091700	0.724400
C4091	C409	0.404900	0.233000	0.680800
C4101	C410	0.427300	0.245400	0.708800
H4171	H417	0.390300	0.219000	0.719300
H4181	H418	0.507800	0.244400	0.713900
H4191	H419	0.398900	0.281300	0.712200
C4111	C411	0.465100	0.271900	0.664200
H4201	H420	0.545700	0.267600	0.668300
H4211	H421	0.444800	0.264400	0.645300
H4221	H422	0.443700	0.308600	0.668200
C4121	C412	0.284700	0.239800	0.674900
H4231	H423	0.268300	0.277200	0.670100
H4241	H424	0.257800	0.216400	0.660000
H4251	H425	0.247300	0.230400	0.690600
S631	S63	0.302580	0.027980	0.685860
C4131	C413	0.279700	0.993500	0.655000
C4141	C414	0.226800	0.016800	0.632070
C4151	C415	0.211300	0.986100	0.608600
C4161	C416	0.243300	0.932100	0.609200
H4261	H426	0.229600	0.911100	0.593500
C4171	C417	0.295600	0.908000	0.632500
C4181	C418	0.315200	0.939100	0.654300
H4271	H427	0.354200	0.924100	0.669800
S641	S64	0.170100	0.082540	0.632880
C4191	C419	0.027700	0.069300	0.642400
H4281	H428	0.021600	0.033000	0.650100
H4291	H429	0.970300	0.073800	0.627200
C4201	C420	0.019400	0.114300	0.663900
C4211	C421	0.020100	0.087700	0.688100
H4301	H430	0.033600	0.050200	0.689000
N381	N38	0.001100	0.115900	0.710800
C4221	C422	0.981300	0.170800	0.709500
H4311	H431	0.968300	0.190000	0.725100
C4231	C423	0.980600	0.197400	0.685400
H4321	H432	0.967100	0.234900	0.684500
C4241	C424	0.999700	0.169200	0.662590
H4331	H433	0.999200	0.187400	0.646100
C4251	C425	0.330800	0.849200	0.633700
C4261	C426	0.350600	0.829400	0.605500
H4341	H434	0.279400	0.828200	0.594300
H4351	H435	0.401400	0.854000	0.597600
H4361	H436	0.383300	0.793400	0.606700
C4271	C427	0.243200	0.816700	0.643700
H4371	H437	0.177200	0.817000	0.630700
H4381	H438	0.269600	0.779800	0.646400
H4391	H439	0.223900	0.831500	0.660500
C4281	C428	0.440600	0.842000	0.652300
H4401	H440	0.458400	0.803800	0.654100
H4411	H441	0.501400	0.860700	0.644700
H4421	H442	0.431300	0.857000	0.669800
S651	S65	0.149000	0.011360	0.578000
C4291	C429	0.251800	0.059600	0.569620
C4301	C430	0.357100	0.045300	0.563870
C4311	C431	0.432400	0.086600	0.558390
C4321	C432	0.396300	0.139700	0.557310
H4431	H443	0.445500	0.166800	0.552300
C4331	C433	0.290500	0.154300	0.563350
C4341	C434	0.217900	0.113800	0.569580
H4441	H444	0.145200	0.122700	0.573800
S661	S66	0.398400	0.976490	0.562690
C4351	C435	0.366000	0.964500	0.527640
H4451	H445	0.399000	0.993000	0.517300
H4461	H446	0.284300	0.964800	0.523100
C4361	C436	0.413400	0.910000	0.520850
C4371	C437	0.338900	0.866000	0.517680
H4471	H447	0.262600	0.871700	0.519900
N391	N39	0.371600	0.817400	0.511750
C4381	C438	0.482400	0.808900	0.509550
H4481	H448	0.507200	0.774100	0.505400
C4391	C439	0.559400	0.850700	0.513300
H4491	H449	0.636300	0.844200	0.512200
C4401	C440	0.522100	0.901600	0.518780
H4501	H450	0.573300	0.930500	0.521100
C4411	C441	0.258400	0.213900	0.564800
C4421	C442	0.282800	0.242900	0.539700
H4511	H451	0.271000	0.281500	0.541800
H4521	H452	0.360200	0.236400	0.536300
H4531	H453	0.232800	0.229600	0.524600
C4431	C443	0.333900	0.236700	0.588900
H4541	H454	0.332400	0.212400	0.604000
H4551	H455	0.410400	0.240000	0.584200
H4561	H456	0.306400	0.272000	0.593600
C4441	C444	0.140000	0.223000	0.568100
H4571	H457	0.094000	0.199100	0.556100
H4581	H458	0.126500	0.215500	0.586500
H4591	H459	0.120600	0.260300	0.563800
S671	S67	0.572020	0.073780	0.551740
C4451	C445	0.634300	0.050600	0.583330
C4461	C446	0.649000	0.083500	0.605700
C4471	C447	0.699200	0.061000	0.629680
C4481	C448	0.742500	0.009700	0.629550
H4601	H460	0.781400	0.996100	0.645400
C4491	C449	0.731100	0.977400	0.606980
C4501	C450	0.675600	0.998700	0.584520
H4611	H461	0.664900	0.977000	0.569100
S681	S68	0.607830	0.152060	0.604660
C4511	C451	0.746900	0.181700	0.605100
H4621	H462	0.795300	0.166900	0.620300
H4631	H463	0.741400	0.220900	0.607700
C4521	C452	0.799000	0.171000	0.580000
C4531	C453	0.777600	0.204800	0.558400
H4641	H464	0.733600	0.235700	0.560800
N401	N40	0.813200	0.197800	0.535030
C4541	C454	0.880100	0.154800	0.532200
H4651	H465	0.912300	0.150000	0.516000
C4551	C455	0.902600	0.117800	0.552500
H4661	H466	0.945500	0.086700	0.549800
C4561	C456	0.862400	0.126500	0.576400
H4671	H467	0.878200	0.101700	0.590500
C4571	C457	0.774600	0.917700	0.607900
C4581	C458	0.719000	0.884900	0.628700
H4681	H468	0.708800	0.907500	0.644100
H4691	H469	0.646300	0.871900	0.620900
H4701	H470	0.766300	0.854200	0.634400
C4591	C459	0.762000	0.888100	0.580700
H4711	H471	0.834100	0.886300	0.573600
H4721	H472	0.734100	0.851600	0.583200
H4731	H473	0.708600	0.907500	0.568300
C4601	C460	0.901000	0.923700	0.616700
H4741	H474	0.931500	0.953000	0.606700
H4751	H475	0.912000	0.931800	0.635700
H4761	H476	0.939300	0.890200	0.613200
N411	N41	0.007000	0.998200	0.729600
C4611	C461	0.019500	0.966600	0.713100
S691	S69	0.010100	0.919090	0.691670
N421	N42	0.865800	0.213400	0.477220
C4621	C462	0.905400	0.188400	0.461900
S701	S70	0.954600	0.154350	0.438500
S711	S71	0.218950	0.598230	0.659970
C4631	C463	0.078600	0.607900	0.667120
C4641	C464	0.010400	0.565100	0.672630
C4651	C465	0.900600	0.577800	0.678590
C4661	C466	0.869000	0.631300	0.680600
H4771	H477	0.795700	0.638800	0.684900
C4671	C467	0.938200	0.673900	0.676700
C4681	C468	0.042400	0.661300	0.669520
H4781	H478	0.091600	0.689600	0.666100
S721	S72	0.062060	0.499160	0.675900
C4691	C469	0.077000	0.495300	0.713300
H4791	H479	0.113600	0.461100	0.718900
H4801	H480	0.002000	0.495400	0.719600
C4701	C470	0.140800	0.539000	0.725500
C4711	C471	0.257400	0.535300	0.732000
H4811	H481	0.293900	0.502800	0.728200
N431	N43	0.316800	0.574700	0.742830
C4721	C472	0.264100	0.620800	0.748000
H4821	H482	0.307500	0.649500	0.755800
C4731	C473	0.152800	0.628300	0.742800
H4831	H483	0.118300	0.660600	0.747600
C4741	C474	0.090500	0.586700	0.730000
H4841	H484	0.013700	0.591700	0.724400
C4751	C475	0.904900	0.733000	0.680800
C4761	C476	0.927300	0.745400	0.708800
H4851	H485	0.890300	0.719000	0.719300
H4861	H486	0.007800	0.744400	0.713900
H4871	H487	0.898900	0.781300	0.712200
C4771	C477	0.965100	0.771900	0.664200
H4881	H488	0.045700	0.767600	0.668300
H4891	H489	0.944800	0.764400	0.645300
H4901	H490	0.943700	0.808600	0.668200
C4781	C478	0.784700	0.739800	0.674900
H4911	H491	0.768300	0.777200	0.670100
H4921	H492	0.757800	0.716400	0.660000
H4931	H493	0.747300	0.730400	0.690600
S731	S73	0.802580	0.527980	0.685860
C4791	C479	0.779700	0.493500	0.655000
C4801	C480	0.726800	0.516800	0.632070
C4811	C481	0.711300	0.486100	0.608600
C4821	C482	0.743300	0.432100	0.609200
H4941	H494	0.729600	0.411100	0.593500
C4831	C483	0.795600	0.408000	0.632500
C4841	C484	0.815200	0.439100	0.654300
H4951	H495	0.854200	0.424100	0.669800
S741	S74	0.670100	0.582540	0.632880
C4851	C485	0.527700	0.569300	0.642400
H4961	H496	0.521600	0.533000	0.650100
H4971	H497	0.470300	0.573800	0.627200
C4861	C486	0.519400	0.614300	0.663900
C4871	C487	0.520100	0.587700	0.688100
H4981	H498	0.533600	0.550200	0.689000
N441	N44	0.501100	0.615900	0.710800
C4881	C488	0.481300	0.670800	0.709500
H4991	H499	0.468300	0.690000	0.725100
C4891	C489	0.480600	0.697400	0.685400
H5001	H500	0.467100	0.734900	0.684500
C4901	C490	0.499700	0.669200	0.662590
H5011	H501	0.499200	0.687400	0.646100
C4911	C491	0.830800	0.349200	0.633700
C4921	C492	0.850600	0.329400	0.605500
H5021	H502	0.779400	0.328200	0.594300
H5031	H503	0.901400	0.354000	0.597600
H5041	H504	0.883300	0.293400	0.606700
C4931	C493	0.743200	0.316700	0.643700
H5051	H505	0.677200	0.317000	0.630700
H5061	H506	0.769600	0.279800	0.646400
H5071	H507	0.723900	0.331500	0.660500
C4941	C494	0.940600	0.342000	0.652300
H5081	H508	0.958400	0.303800	0.654100
H5091	H509	0.001400	0.360700	0.644700
H5101	H510	0.931300	0.357000	0.669800
S751	S75	0.649000	0.511360	0.578000
C4951	C495	0.751800	0.559600	0.569620
C4961	C496	0.857100	0.545300	0.563870
C4971	C497	0.932400	0.586600	0.558390
C4981	C498	0.896300	0.639700	0.557310
H5111	H511	0.945500	0.666800	0.552300
C4991	C499	0.790500	0.654300	0.563350
C5001	C500	0.717900	0.613800	0.569580
H5121	H512	0.645200	0.622700	0.573800
S761	S76	0.898400	0.476490	0.562690
C5011	C501	0.866000	0.464500	0.527640
H5131	H513	0.899000	0.493000	0.517300
H5141	H514	0.784300	0.464800	0.523100
C5021	C502	0.913400	0.410000	0.520850
C5031	C503	0.838900	0.366000	0.517680
H5151	H515	0.762600	0.371700	0.519900
N451	N45	0.871600	0.317400	0.511750
C5041	C504	0.982400	0.308900	0.509550
H5161	H516	0.007200	0.274100	0.505400
C5051	C505	0.059400	0.350700	0.513300
H5171	H517	0.136300	0.344200	0.512200
C5061	C506	0.022100	0.401600	0.518780
H5181	H518	0.073300	0.430500	0.521100
C5071	C507	0.758400	0.713900	0.564800
C5081	C508	0.782800	0.742900	0.539700
H5191	H519	0.771000	0.781500	0.541800
H5201	H520	0.860200	0.736400	0.536300
H5211	H521	0.732800	0.729600	0.524600
C5091	C509	0.833900	0.736700	0.588900
H5221	H522	0.832400	0.712400	0.604000
H5231	H523	0.910400	0.740000	0.584200
H5241	H524	0.806400	0.772000	0.593600
C5101	C510	0.640000	0.723000	0.568100
H5251	H525	0.594000	0.699100	0.556100
H5261	H526	0.626500	0.715500	0.586500
H5271	H527	0.620600	0.760300	0.563800
S771	S77	0.072020	0.573780	0.551740
C5111	C511	0.134300	0.550600	0.583330
C5121	C512	0.149000	0.583500	0.605700
C5131	C513	0.199200	0.561000	0.629680
C5141	C514	0.242500	0.509700	0.629550
H5281	H528	0.281400	0.496100	0.645400
C5151	C515	0.231100	0.477400	0.606980
C5161	C516	0.175600	0.498700	0.584520
H5291	H529	0.164900	0.477000	0.569100
S781	S78	0.107830	0.652060	0.604660
C5171	C517	0.246900	0.681700	0.605100
H5301	H530	0.295300	0.666900	0.620300
H5311	H531	0.241400	0.720900	0.607700
C5181	C518	0.299000	0.671000	0.580000
C5191	C519	0.277600	0.704800	0.558400
H5321	H532	0.233600	0.735700	0.560800
N461	N46	0.313200	0.697800	0.535030
C5201	C520	0.380100	0.654800	0.532200
H5331	H533	0.412300	0.650000	0.516000
C5211	C521	0.402600	0.617800	0.552500
H5341	H534	0.445500	0.586700	0.549800
C5221	C522	0.362400	0.626500	0.576400
H5351	H535	0.378200	0.601700	0.590500
C5231	C523	0.274600	0.417700	0.607900
C5241	C524	0.219000	0.384900	0.628700
H5361	H536	0.208800	0.407500	0.644100
H5371	H537	0.146300	0.371900	0.620900
H5381	H538	0.266300	0.354200	0.634400
C5251	C525	0.262000	0.388100	0.580700
H5391	H539	0.334100	0.386300	0.573600
H5401	H540	0.234100	0.351600	0.583200
H5411	H541	0.208600	0.407500	0.568300
C5261	C526	0.401000	0.423700	0.616700
H5421	H542	0.431500	0.453000	0.606700
H5431	H543	0.412000	0.431800	0.635700
H5441	H544	0.439300	0.390200	0.613200
N471	N47	0.507000	0.498200	0.729600
C5271	C527	0.519500	0.466600	0.713100
S791	S79	0.510100	0.419090	0.691670
N481	N48	0.365800	0.713400	0.477220
C5281	C528	0.405400	0.688400	0.461900
S801	S80	0.454600	0.654350	0.438500
Fe11	Fe1	0.000000	0.928590	0.250000
Fe21	Fe2	0.500000	0.428590	0.250000
Fe31	Fe3	0.000000	0.071410	0.750000
Fe41	Fe4	0.500000	0.571410	0.750000
Fe51	Fe5	0.750000	0.750000	0.000000
Fe61	Fe6	0.250000	0.750000	0.500000
Fe71	Fe7	0.250000	0.250000	0.000000
Fe81	Fe8	0.750000	0.250000	0.500000
