data_IXAZEO_freeONLY_PM
_symmetry_space_group_name_H-M	'P1'
_cell_length_a	18.816800
_cell_length_b	11.351100
_cell_length_c	16.928400
_cell_angle_alpha	90.000000
_cell_angle_beta	102.051000
_cell_angle_gamma	90.000000
_symmetry_Int_Tables_number 1

loop_
_symmetry_equiv_pos_as_xyz
'x,y,z'

loop_
_atom_site_label
_atom_site_type_symbol
_atom_site_fract_x
_atom_site_fract_y
_atom_site_fract_z
La11	La1	0.310000	0.209920	0.335980
K11	K1	0.654390	0.099500	0.524680
O11	O1	0.392900	0.147600	0.468600
O21	O2	0.504400	0.132600	0.542900
O31	O3	0.442600	0.216700	0.342800
O41	O4	0.555500	0.190500	0.406700
O51	O5	0.338400	0.418800	0.297500
O61	O6	0.227800	0.139500	0.427600
O71	O7	0.170700	0.488700	0.180400
O81	O8	0.210100	0.147200	0.553600
O91	O9	0.202200	0.334300	0.259400
O101	O10	0.297500	0.591500	0.246300
O111	O11	0.331000	0.196300	0.189600
C11	C1	0.460400	0.152400	0.479000
C21	C2	0.490200	0.188800	0.403500
C31	C3	0.290400	0.484700	0.261400
C41	C4	0.232300	0.187500	0.495000
C51	C5	0.214500	0.431100	0.231700
O121	O12	0.767800	0.112600	0.442400
La21	La2	0.810000	0.709920	0.335980
K21	K2	0.154390	0.599500	0.524680
O131	O13	0.892900	0.647600	0.468600
O141	O14	0.004400	0.632600	0.542900
O151	O15	0.942600	0.716700	0.342800
O161	O16	0.055500	0.690500	0.406700
O171	O17	0.838400	0.918800	0.297500
O181	O18	0.727800	0.639500	0.427600
O191	O19	0.670700	0.988700	0.180400
O201	O20	0.710100	0.647200	0.553600
O211	O21	0.702200	0.834300	0.259400
O221	O22	0.797500	0.091500	0.246300
O231	O23	0.831000	0.696300	0.189600
C61	C6	0.960400	0.652400	0.479000
C71	C7	0.990200	0.688800	0.403500
C81	C8	0.790400	0.984700	0.261400
C91	C9	0.732300	0.687500	0.495000
C101	C10	0.714500	0.931100	0.231700
O241	O24	0.267800	0.612600	0.442400
La31	La3	0.690000	0.209920	0.164020
K31	K3	0.345610	0.099500	0.975320
O251	O25	0.607100	0.147600	0.031400
O261	O26	0.495600	0.132600	0.957100
O271	O27	0.557400	0.216700	0.157200
O281	O28	0.444500	0.190500	0.093300
O291	O29	0.661600	0.418800	0.202500
O301	O30	0.772200	0.139500	0.072400
O311	O31	0.829300	0.488700	0.319600
O321	O32	0.789900	0.147200	0.946400
O331	O33	0.797800	0.334300	0.240600
O341	O34	0.702500	0.591500	0.253700
O351	O35	0.669000	0.196300	0.310400
C111	C11	0.539600	0.152400	0.021000
C121	C12	0.509800	0.188800	0.096500
C131	C13	0.709600	0.484700	0.238600
C141	C14	0.767700	0.187500	0.005000
C151	C15	0.785500	0.431100	0.268300
O361	O36	0.232200	0.112600	0.057600
La41	La4	0.190000	0.709920	0.164020
K41	K4	0.845610	0.599500	0.975320
O371	O37	0.107100	0.647600	0.031400
O381	O38	0.995600	0.632600	0.957100
O391	O39	0.057400	0.716700	0.157200
O401	O40	0.944500	0.690500	0.093300
O411	O41	0.161600	0.918800	0.202500
O421	O42	0.272200	0.639500	0.072400
O431	O43	0.329300	0.988700	0.319600
O441	O44	0.289900	0.647200	0.946400
O451	O45	0.297800	0.834300	0.240600
O461	O46	0.202500	0.091500	0.253700
O471	O47	0.169000	0.696300	0.310400
C161	C16	0.039600	0.652400	0.021000
C171	C17	0.009800	0.688800	0.096500
C181	C18	0.209600	0.984700	0.238600
C191	C19	0.267700	0.687500	0.005000
C201	C20	0.285500	0.931100	0.268300
O481	O48	0.732200	0.612600	0.057600
La51	La5	0.690000	0.790080	0.664020
K51	K5	0.345610	0.900500	0.475320
O491	O49	0.607100	0.852400	0.531400
O501	O50	0.495600	0.867400	0.457100
O511	O51	0.557400	0.783300	0.657200
O521	O52	0.444500	0.809500	0.593300
O531	O53	0.661600	0.581200	0.702500
O541	O54	0.772200	0.860500	0.572400
O551	O55	0.829300	0.511300	0.819600
O561	O56	0.789900	0.852800	0.446400
O571	O57	0.797800	0.665700	0.740600
O581	O58	0.702500	0.408500	0.753700
O591	O59	0.669000	0.803700	0.810400
C211	C21	0.539600	0.847600	0.521000
C221	C22	0.509800	0.811200	0.596500
C231	C23	0.709600	0.515300	0.738600
C241	C24	0.767700	0.812500	0.505000
C251	C25	0.785500	0.568900	0.768300
O601	O60	0.232200	0.887400	0.557600
La61	La6	0.190000	0.290080	0.664020
K61	K6	0.845610	0.400500	0.475320
O611	O61	0.107100	0.352400	0.531400
O621	O62	0.995600	0.367400	0.457100
O631	O63	0.057400	0.283300	0.657200
O641	O64	0.944500	0.309500	0.593300
O651	O65	0.161600	0.081200	0.702500
O661	O66	0.272200	0.360500	0.572400
O671	O67	0.329300	0.011300	0.819600
O681	O68	0.289900	0.352800	0.446400
O691	O69	0.297800	0.165700	0.740600
O701	O70	0.202500	0.908500	0.753700
O711	O71	0.169000	0.303700	0.810400
C261	C26	0.039600	0.347600	0.521000
C271	C27	0.009800	0.311200	0.596500
C281	C28	0.209600	0.015300	0.738600
C291	C29	0.267700	0.312500	0.505000
C301	C30	0.285500	0.068900	0.768300
O721	O72	0.732200	0.387400	0.557600
La71	La7	0.310000	0.790080	0.835980
K71	K7	0.654390	0.900500	0.024680
O731	O73	0.392900	0.852400	0.968600
O741	O74	0.504400	0.867400	0.042900
O751	O75	0.442600	0.783300	0.842800
O761	O76	0.555500	0.809500	0.906700
O771	O77	0.338400	0.581200	0.797500
O781	O78	0.227800	0.860500	0.927600
O791	O79	0.170700	0.511300	0.680400
O801	O80	0.210100	0.852800	0.053600
O811	O81	0.202200	0.665700	0.759400
O821	O82	0.297500	0.408500	0.746300
O831	O83	0.331000	0.803700	0.689600
C311	C31	0.460400	0.847600	0.979000
C321	C32	0.490200	0.811200	0.903500
C331	C33	0.290400	0.515300	0.761400
C341	C34	0.232300	0.812500	0.995000
C351	C35	0.214500	0.568900	0.731700
O841	O84	0.767800	0.887400	0.942400
La81	La8	0.810000	0.290080	0.835980
K81	K8	0.154390	0.400500	0.024680
O851	O85	0.892900	0.352400	0.968600
O861	O86	0.004400	0.367400	0.042900
O871	O87	0.942600	0.283300	0.842800
O881	O88	0.055500	0.309500	0.906700
O891	O89	0.838400	0.081200	0.797500
O901	O90	0.727800	0.360500	0.927600
O911	O91	0.670700	0.011300	0.680400
O921	O92	0.710100	0.352800	0.053600
O931	O93	0.702200	0.165700	0.759400
O941	O94	0.797500	0.908500	0.746300
O951	O95	0.831000	0.303700	0.689600
C361	C36	0.960400	0.347600	0.979000
C371	C37	0.990200	0.311200	0.903500
C381	C38	0.790400	0.015300	0.761400
C391	C39	0.732300	0.312500	0.995000
C401	C40	0.714500	0.068900	0.731700
O961	O96	0.267800	0.387400	0.942400
