data_IXOFAD_freeONLY_PM
_symmetry_space_group_name_H-M	'P1'
_cell_length_a	6.802300
_cell_length_b	13.912000
_cell_length_c	16.052000
_cell_angle_alpha	90.000000
_cell_angle_beta	90.000000
_cell_angle_gamma	90.000000
_symmetry_Int_Tables_number 1

loop_
_symmetry_equiv_pos_as_xyz
'x,y,z'

loop_
_atom_site_label
_atom_site_type_symbol
_atom_site_fract_x
_atom_site_fract_y
_atom_site_fract_z
V11	V1	0.564500	0.236060	0.999210
V21	V2	0.935500	0.763940	0.499210
V31	V3	0.435500	0.736060	0.500790
V41	V4	0.064500	0.263940	0.000790
H11	H1	0.554000	0.054400	0.792900
H21	H2	0.531900	0.947700	0.684200
H31	H3	0.967100	0.080900	0.794700
H41	H4	0.948600	0.972400	0.684700
H51	H5	0.946000	0.945600	0.292900
H61	H6	0.968100	0.052300	0.184200
H71	H7	0.532900	0.919100	0.294700
H81	H8	0.551400	0.027600	0.184700
H91	H9	0.446000	0.554400	0.707100
H101	H10	0.468100	0.447700	0.815800
H111	H11	0.032900	0.580900	0.705300
H121	H12	0.051400	0.472400	0.815300
H131	H13	0.054000	0.445600	0.207100
H141	H14	0.031900	0.552300	0.315800
H151	H15	0.467100	0.419100	0.205300
H161	H16	0.448600	0.527600	0.315300
C11	C1	0.274600	0.143200	0.878630
C21	C2	0.262300	0.076900	0.806430
C31	C3	0.431300	0.037400	0.772000
C41	C4	0.418000	0.973500	0.707100
C51	C5	0.081000	0.053500	0.773300
C61	C6	0.070200	0.988200	0.707400
C71	C7	0.238000	0.947300	0.675780
C81	C8	0.224100	0.875300	0.607100
C91	C9	0.225400	0.856800	0.378630
C101	C10	0.237700	0.923100	0.306430
C111	C11	0.068700	0.962600	0.272000
C121	C12	0.082000	0.026500	0.207100
C131	C13	0.419000	0.946500	0.273300
C141	C14	0.429800	0.011800	0.207400
C151	C15	0.262000	0.052700	0.175780
C161	C16	0.275900	0.124700	0.107100
C171	C17	0.725400	0.643200	0.621370
C181	C18	0.737700	0.576900	0.693570
C191	C19	0.568700	0.537400	0.728000
C201	C20	0.582000	0.473500	0.792900
C211	C21	0.919000	0.553500	0.726700
C221	C22	0.929800	0.488200	0.792600
C231	C23	0.762000	0.447300	0.824220
C241	C24	0.775900	0.375300	0.892900
C251	C25	0.774600	0.356800	0.121370
C261	C26	0.762300	0.423100	0.193570
C271	C27	0.931300	0.462600	0.228000
C281	C28	0.918000	0.526500	0.292900
C291	C29	0.581000	0.446500	0.226700
C301	C30	0.570200	0.511800	0.292600
C311	C31	0.738000	0.552700	0.324220
C321	C32	0.724100	0.624700	0.392900
O11	O1	0.782240	0.190610	0.996100
O21	O2	0.442500	0.162210	0.906410
O31	O3	0.056300	0.854550	0.580150
O41	O4	0.116700	0.176710	0.906490
O51	O5	0.385700	0.840350	0.581960
O61	O6	0.717760	0.809390	0.496100
O71	O7	0.057500	0.837790	0.406410
O81	O8	0.443700	0.145450	0.080150
O91	O9	0.383300	0.823290	0.406490
O101	O10	0.114300	0.159650	0.081960
O111	O11	0.217760	0.690610	0.503900
O121	O12	0.557500	0.662210	0.593590
O131	O13	0.943700	0.354550	0.919850
O141	O14	0.883300	0.676710	0.593510
O151	O15	0.614300	0.340350	0.918040
O161	O16	0.282240	0.309390	0.003900
O171	O17	0.942500	0.337790	0.093590
O181	O18	0.556300	0.645450	0.419850
O191	O19	0.616700	0.323290	0.093510
O201	O20	0.885700	0.659650	0.418040
