data_IXOFUX01_freeONLY_PM
_symmetry_space_group_name_H-M	'P1'
_cell_length_a	6.827000
_cell_length_b	13.965000
_cell_length_c	16.074000
_cell_angle_alpha	90.000000
_cell_angle_beta	90.000000
_cell_angle_gamma	90.000000
_symmetry_Int_Tables_number 1

loop_
_symmetry_equiv_pos_as_xyz
'x,y,z'

loop_
_atom_site_label
_atom_site_type_symbol
_atom_site_fract_x
_atom_site_fract_y
_atom_site_fract_z
V11	V1	0.934870	0.235970	0.498650
V21	V2	0.565130	0.764030	0.998650
V31	V3	0.065130	0.735970	0.001350
V41	V4	0.434870	0.264030	0.501350
H11	H1	0.551200	0.989500	0.172700
H21	H2	0.532600	0.095500	0.282300
H31	H3	0.944500	0.065800	0.284700
H41	H4	0.966200	0.957800	0.177600
H51	H5	0.948800	0.010500	0.672700
H61	H6	0.967400	0.904500	0.782300
H71	H7	0.555500	0.934200	0.784700
H81	H8	0.533800	0.042200	0.677600
H91	H9	0.448800	0.489500	0.327300
H101	H10	0.467400	0.595500	0.217700
H111	H11	0.055500	0.565800	0.215300
H121	H12	0.033800	0.457800	0.322400
H131	H13	0.051200	0.510500	0.827300
H141	H14	0.032600	0.404500	0.717700
H151	H15	0.444500	0.434200	0.715300
H161	H16	0.466200	0.542200	0.822400
C11	C1	0.275600	0.883800	0.101500
C21	C2	0.262800	0.959500	0.166100
C31	C3	0.430300	0.003200	0.196600
C41	C4	0.419100	0.067000	0.262000
C51	C5	0.224900	0.151800	0.371800
C61	C6	0.236400	0.089200	0.298400
C71	C7	0.066700	0.048900	0.263800
C81	C8	0.079700	0.984800	0.199400
C91	C9	0.224400	0.116200	0.601500
C101	C10	0.237200	0.040500	0.666100
C111	C11	0.069700	0.996800	0.696600
C121	C12	0.080900	0.933000	0.762000
C131	C13	0.275100	0.848200	0.871800
C141	C14	0.263600	0.910800	0.798400
C151	C15	0.433300	0.951100	0.763800
C161	C16	0.420300	0.015200	0.699400
C171	C17	0.724400	0.383800	0.398500
C181	C18	0.737200	0.459500	0.333900
C191	C19	0.569700	0.503200	0.303400
C201	C20	0.580900	0.567000	0.238000
C211	C21	0.775100	0.651800	0.128200
C221	C22	0.763600	0.589200	0.201600
C231	C23	0.933300	0.548900	0.236200
C241	C24	0.920300	0.484800	0.300600
C251	C25	0.775600	0.616200	0.898500
C261	C26	0.762800	0.540500	0.833900
C271	C27	0.930300	0.496800	0.803400
C281	C28	0.919100	0.433000	0.738000
C291	C29	0.724900	0.348200	0.628200
C301	C30	0.736400	0.410800	0.701600
C311	C31	0.566700	0.451100	0.736200
C321	C32	0.579700	0.515200	0.800600
O11	O1	0.717700	0.192700	0.491000
O21	O2	0.446400	0.860900	0.074000
O31	O3	0.055400	0.169200	0.400900
O41	O4	0.113100	0.846300	0.074900
O51	O5	0.383400	0.184200	0.401800
O61	O6	0.782300	0.807300	0.991000
O71	O7	0.053600	0.139100	0.574000
O81	O8	0.444600	0.830800	0.900900
O91	O9	0.386900	0.153700	0.574900
O101	O10	0.116600	0.815800	0.901800
O111	O11	0.282300	0.692700	0.009000
O121	O12	0.553600	0.360900	0.426000
O131	O13	0.944600	0.669200	0.099100
O141	O14	0.886900	0.346300	0.425100
O151	O15	0.616600	0.684200	0.098200
O161	O16	0.217700	0.307300	0.509000
O171	O17	0.946400	0.639100	0.926000
O181	O18	0.555400	0.330800	0.599100
O191	O19	0.613100	0.653700	0.925100
O201	O20	0.883400	0.315800	0.598200
