data_IYAHAT_freeONLY_PM
_symmetry_space_group_name_H-M	'P1'
_cell_length_a	9.398000
_cell_length_b	15.307000
_cell_length_c	16.751000
_cell_angle_alpha	68.756000
_cell_angle_beta	79.322000
_cell_angle_gamma	89.276000
_symmetry_Int_Tables_number 1

loop_
_symmetry_equiv_pos_as_xyz
'x,y,z'

loop_
_atom_site_label
_atom_site_type_symbol
_atom_site_fract_x
_atom_site_fract_y
_atom_site_fract_z
Nd11	Nd1	0.000580	0.822580	0.109120
Nd21	Nd2	0.415560	0.328230	0.107910
Nd31	Nd3	0.116380	0.261220	0.521650
O11	O1	0.082200	0.802000	0.242400
O21	O2	0.100200	0.816000	0.367900
O31	O3	0.748400	0.864400	0.071100
O41	O4	0.747400	0.779100	0.208500
O51	O5	0.532800	0.177400	0.086400
O61	O6	0.350100	0.159700	0.194400
O71	O7	0.514100	0.609500	0.045500
O81	O8	0.463000	0.465500	0.139900
O91	O9	0.236500	0.408400	0.439300
O101	O10	0.231900	0.518300	0.495300
O111	O11	0.009200	0.652900	0.203700
O121	O12	0.907300	0.676100	0.090700
O131	O13	0.248900	0.304200	0.247100
O141	O14	0.106200	0.264800	0.376200
O151	O15	0.691500	0.370600	0.065000
O161	O16	0.607200	0.287000	0.202900
O171	O17	0.984300	0.107000	0.043200
O181	O18	0.928500	0.961500	0.139000
O191	O19	0.824300	0.027800	0.495600
H11	H1	0.787200	0.987500	0.542500
O201	O20	0.868500	0.906100	0.456000
O211	O21	0.220900	0.758900	0.042300
O221	O22	0.224800	0.942900	0.051800
O231	O23	0.228600	0.448600	0.055100
O241	O24	0.234400	0.262700	0.046900
O251	O25	0.901200	0.343100	0.470100
O261	O26	0.360100	0.232100	0.457600
O271	O27	0.056200	0.362300	0.608300
O281	O28	0.271600	0.210700	0.631300
C11	C1	0.149400	0.824600	0.291100
C21	C2	0.300500	0.870600	0.250500
C31	C3	0.420300	0.823500	0.224500
C41	C4	0.547900	0.877100	0.175300
C51	C5	0.554600	0.974600	0.150700
H21	H2	0.638400	0.009500	0.115400
C61	C6	0.439300	0.019800	0.177900
C71	C7	0.311300	0.967400	0.229700
H31	H3	0.234000	0.997200	0.250000
C81	C8	0.687100	0.835600	0.149600
C91	C9	0.443800	0.125300	0.151000
C101	C10	0.405100	0.719300	0.243400
C111	C11	0.448600	0.684900	0.176600
H41	H4	0.490000	0.726100	0.120900
C121	C12	0.430600	0.589900	0.192400
C131	C13	0.370300	0.527700	0.276800
H51	H5	0.360200	0.463800	0.287800
C141	C14	0.325800	0.560300	0.343500
C151	C15	0.344600	0.657100	0.327200
H61	H6	0.316700	0.679400	0.372300
C161	C16	0.472700	0.550900	0.120800
C171	C17	0.259700	0.492400	0.433500
C181	C18	0.948500	0.621200	0.158100
C191	C19	0.934800	0.517800	0.180500
C201	C20	0.023400	0.459600	0.232400
H71	H7	0.087500	0.485100	0.255300
C211	C21	0.017000	0.362800	0.250300
C221	C22	0.915200	0.321300	0.221600
C231	C23	0.824400	0.380400	0.170500
C241	C24	0.837900	0.477500	0.148200
H81	H8	0.781300	0.515900	0.111100
C251	C25	0.133100	0.306600	0.294900
C261	C26	0.701900	0.341500	0.144500
C271	C27	0.908100	0.218200	0.241400
C281	C28	0.924500	0.182000	0.174300
H91	H9	0.937700	0.223400	0.116600
C291	C29	0.921500	0.087100	0.192100
C301	C30	0.901600	0.023600	0.278600
H101	H10	0.900700	0.959300	0.291100
C311	C31	0.883600	0.058200	0.344700
C321	C32	0.886300	0.153800	0.327400
H111	H11	0.873400	0.175400	0.373400
C331	C33	0.945700	0.048500	0.118900
C341	C34	0.859000	0.989800	0.438300
Nd41	Nd4	0.999420	0.177420	0.890880
Nd51	Nd5	0.584440	0.671770	0.892090
Nd61	Nd6	0.883620	0.738780	0.478350
O291	O29	0.917800	0.198000	0.757600
O301	O30	0.899800	0.184000	0.632100
O311	O31	0.251600	0.135600	0.928900
O321	O32	0.252600	0.220900	0.791500
O331	O33	0.467200	0.822600	0.913600
O341	O34	0.649900	0.840300	0.805600
O351	O35	0.485900	0.390500	0.954500
O361	O36	0.537000	0.534500	0.860100
O371	O37	0.763500	0.591600	0.560700
O381	O38	0.768100	0.481700	0.504700
O391	O39	0.990800	0.347100	0.796300
O401	O40	0.092700	0.323900	0.909300
O411	O41	0.751100	0.695800	0.752900
O421	O42	0.893800	0.735200	0.623800
O431	O43	0.308500	0.629400	0.935000
O441	O44	0.392800	0.713000	0.797100
O451	O45	0.015700	0.893000	0.956800
O461	O46	0.071500	0.038500	0.861000
O471	O47	0.175700	0.972200	0.504400
H121	H12	0.212800	0.012500	0.457500
O481	O48	0.131500	0.093900	0.544000
O491	O49	0.779100	0.241100	0.957700
O501	O50	0.775200	0.057100	0.948200
O511	O51	0.771400	0.551400	0.944900
O521	O52	0.765600	0.737300	0.953100
O531	O53	0.098800	0.656900	0.529900
O541	O54	0.639900	0.767900	0.542400
O551	O55	0.943800	0.637700	0.391700
O561	O56	0.728400	0.789300	0.368700
C351	C35	0.850600	0.175400	0.708900
C361	C36	0.699500	0.129400	0.749500
C371	C37	0.579700	0.176500	0.775500
C381	C38	0.452100	0.122900	0.824700
C391	C39	0.445400	0.025400	0.849300
H131	H13	0.361600	0.990500	0.884600
C401	C40	0.560700	0.980200	0.822100
C411	C41	0.688700	0.032600	0.770300
H141	H14	0.766000	0.002800	0.750000
C421	C42	0.312900	0.164400	0.850400
C431	C43	0.556200	0.874700	0.849000
C441	C44	0.594900	0.280700	0.756600
C451	C45	0.551400	0.315100	0.823400
H151	H15	0.510000	0.273900	0.879100
C461	C46	0.569400	0.410100	0.807600
C471	C47	0.629700	0.472300	0.723200
H161	H16	0.639800	0.536200	0.712200
C481	C48	0.674200	0.439700	0.656500
C491	C49	0.655400	0.342900	0.672800
H171	H17	0.683300	0.320600	0.627700
C501	C50	0.527300	0.449100	0.879200
C511	C51	0.740300	0.507600	0.566500
C521	C52	0.051500	0.378800	0.841900
C531	C53	0.065200	0.482200	0.819500
C541	C54	0.976600	0.540400	0.767600
H181	H18	0.912500	0.514900	0.744700
C551	C55	0.983000	0.637200	0.749700
C561	C56	0.084800	0.678700	0.778400
C571	C57	0.175600	0.619600	0.829500
C581	C58	0.162100	0.522500	0.851800
H191	H19	0.218700	0.484100	0.888900
C591	C59	0.866900	0.693400	0.705100
C601	C60	0.298100	0.658500	0.855500
C611	C61	0.091900	0.781800	0.758600
C621	C62	0.075500	0.818000	0.825700
H201	H20	0.062300	0.776600	0.883400
C631	C63	0.078500	0.912900	0.807900
C641	C64	0.098400	0.976400	0.721400
H211	H21	0.099300	0.040700	0.708900
C651	C65	0.116400	0.941800	0.655300
C661	C66	0.113700	0.846200	0.672600
H221	H22	0.126600	0.824600	0.626600
C671	C67	0.054300	0.951500	0.881100
C681	C68	0.141000	0.010200	0.561700
