data_IYAJUP_freeONLY_PM
_symmetry_space_group_name_H-M	'P1'
_cell_length_a	19.214500
_cell_length_b	26.408800
_cell_length_c	17.717400
_cell_angle_alpha	90.000000
_cell_angle_beta	118.431000
_cell_angle_gamma	90.000000
_symmetry_Int_Tables_number 1

loop_
_symmetry_equiv_pos_as_xyz
'x,y,z'

loop_
_atom_site_label
_atom_site_type_symbol
_atom_site_fract_x
_atom_site_fract_y
_atom_site_fract_z
Cd11	Cd1	0.898160	0.633200	0.866420
K11	K1	0.695250	0.407550	0.288580
O11	O1	0.904800	0.590870	0.759200
O21	O2	0.784200	0.670920	0.775900
O31	O3	0.824400	0.401230	0.430500
O41	O4	0.942400	0.433310	0.467900
O51	O5	0.531600	0.835110	0.414200
O61	O6	0.863700	0.710200	0.735900
O71	O7	0.626700	0.331750	0.318100
O81	O8	0.461300	0.807770	0.474000
O91	O9	0.549100	0.296000	0.361200
O101	O10	0.802200	0.548000	0.748100
C11	C1	0.854400	0.557800	0.727200
C21	C2	0.796800	0.701900	0.728100
C31	C3	0.880500	0.431400	0.474500
C41	C4	0.825300	0.261500	0.514700
H11	H1	0.876100	0.269400	0.524700
C51	C5	0.685100	0.274600	0.434900
C61	C6	0.587200	0.750300	0.594600
H21	H2	0.538400	0.747400	0.593200
C71	C7	0.919900	0.533400	0.639300
H31	H3	0.958300	0.558100	0.666500
C81	C8	0.594900	0.779800	0.534800
C91	C9	0.652900	0.724700	0.657300
H41	H4	0.647800	0.705400	0.698200
C101	C10	0.861300	0.529200	0.663200
C111	C11	0.668300	0.782900	0.535600
H51	H5	0.673400	0.802200	0.494500
C121	C12	0.925900	0.503700	0.578000
H61	H6	0.966900	0.509100	0.565100
C131	C13	0.732900	0.757200	0.597600
H71	H7	0.781500	0.759500	0.598300
C141	C14	0.726100	0.727900	0.659100
C151	C15	0.870500	0.466000	0.536000
C161	C16	0.808200	0.459600	0.553900
H81	H8	0.770000	0.435100	0.524700
C171	C17	0.525300	0.809400	0.470000
O111	O11	0.454200	0.408900	0.326800
C181	C18	0.615700	0.302200	0.367200
C191	C19	0.760800	0.285900	0.449600
H91	H9	0.768400	0.309800	0.415700
C201	C20	0.802200	0.489400	0.614600
H101	H10	0.759900	0.484300	0.625500
C211	C21	0.560600	0.530900	0.552600
H111	H11	0.602800	0.551600	0.588000
C221	C22	0.505200	0.468800	0.439400
C231	C23	0.515200	0.434600	0.374400
C241	C24	0.567300	0.499900	0.491700
H121	H12	0.613400	0.500400	0.486700
O121	O12	0.576100	0.431400	0.374100
Cd21	Cd2	0.398160	0.133200	0.866420
K21	K2	0.195250	0.907550	0.288580
O131	O13	0.404800	0.090870	0.759200
O141	O14	0.284200	0.170920	0.775900
O151	O15	0.324400	0.901230	0.430500
O161	O16	0.442400	0.933310	0.467900
O171	O17	0.031600	0.335110	0.414200
O181	O18	0.363700	0.210200	0.735900
O191	O19	0.126700	0.831750	0.318100
O201	O20	0.961300	0.307770	0.474000
O211	O21	0.049100	0.796000	0.361200
O221	O22	0.302200	0.048000	0.748100
C251	C25	0.354400	0.057800	0.727200
C261	C26	0.296800	0.201900	0.728100
C271	C27	0.380500	0.931400	0.474500
C281	C28	0.325300	0.761500	0.514700
H131	H13	0.376100	0.769400	0.524700
C291	C29	0.185100	0.774600	0.434900
C301	C30	0.087200	0.250300	0.594600
H141	H14	0.038400	0.247400	0.593200
C311	C31	0.419900	0.033400	0.639300
H151	H15	0.458300	0.058100	0.666500
C321	C32	0.094900	0.279800	0.534800
C331	C33	0.152900	0.224700	0.657300
H161	H16	0.147800	0.205400	0.698200
C341	C34	0.361300	0.029200	0.663200
C351	C35	0.168300	0.282900	0.535600
H171	H17	0.173400	0.302200	0.494500
C361	C36	0.425900	0.003700	0.578000
H181	H18	0.466900	0.009100	0.565100
C371	C37	0.232900	0.257200	0.597600
H191	H19	0.281500	0.259500	0.598300
C381	C38	0.226100	0.227900	0.659100
C391	C39	0.370500	0.966000	0.536000
C401	C40	0.308200	0.959600	0.553900
H201	H20	0.270000	0.935100	0.524700
C411	C41	0.025300	0.309400	0.470000
O231	O23	0.954200	0.908900	0.326800
C421	C42	0.115700	0.802200	0.367200
C431	C43	0.260800	0.785900	0.449600
H211	H21	0.268400	0.809800	0.415700
C441	C44	0.302200	0.989400	0.614600
H221	H22	0.259900	0.984300	0.625500
C451	C45	0.060600	0.030900	0.552600
H231	H23	0.102800	0.051600	0.588000
C461	C46	0.005200	0.968800	0.439400
C471	C47	0.015200	0.934600	0.374400
C481	C48	0.067300	0.999900	0.491700
H241	H24	0.113400	0.000400	0.486700
O241	O24	0.076100	0.931400	0.374100
Cd31	Cd3	0.101840	0.633200	0.633580
K31	K3	0.304750	0.407550	0.211420
O251	O25	0.095200	0.590870	0.740800
O261	O26	0.215800	0.670920	0.724100
O271	O27	0.175600	0.401230	0.069500
O281	O28	0.057600	0.433310	0.032100
O291	O29	0.468400	0.835110	0.085800
O301	O30	0.136300	0.710200	0.764100
O311	O31	0.373300	0.331750	0.181900
O321	O32	0.538700	0.807770	0.026000
O331	O33	0.450900	0.296000	0.138800
O341	O34	0.197800	0.548000	0.751900
C491	C49	0.145600	0.557800	0.772800
C501	C50	0.203200	0.701900	0.771900
C511	C51	0.119500	0.431400	0.025500
C521	C52	0.174700	0.261500	0.985300
H251	H25	0.123900	0.269400	0.975300
C531	C53	0.314900	0.274600	0.065100
C541	C54	0.412800	0.750300	0.905400
H261	H26	0.461600	0.747400	0.906800
C551	C55	0.080100	0.533400	0.860700
H271	H27	0.041700	0.558100	0.833500
C561	C56	0.405100	0.779800	0.965200
C571	C57	0.347100	0.724700	0.842700
H281	H28	0.352200	0.705400	0.801800
C581	C58	0.138700	0.529200	0.836800
C591	C59	0.331700	0.782900	0.964400
H291	H29	0.326600	0.802200	0.005500
C601	C60	0.074100	0.503700	0.922000
H301	H30	0.033100	0.509100	0.934900
C611	C61	0.267100	0.757200	0.902400
H311	H31	0.218500	0.759500	0.901700
C621	C62	0.273900	0.727900	0.840900
C631	C63	0.129500	0.466000	0.964000
C641	C64	0.191800	0.459600	0.946100
H321	H32	0.230000	0.435100	0.975300
C651	C65	0.474700	0.809400	0.030000
O351	O35	0.545800	0.408900	0.173200
C661	C66	0.384300	0.302200	0.132800
C671	C67	0.239200	0.285900	0.050400
H331	H33	0.231600	0.309800	0.084300
C681	C68	0.197800	0.489400	0.885400
H341	H34	0.240100	0.484300	0.874500
C691	C69	0.439400	0.530900	0.947400
H351	H35	0.397200	0.551600	0.912000
C701	C70	0.494800	0.468800	0.060600
C711	C71	0.484800	0.434600	0.125600
C721	C72	0.432700	0.499900	0.008300
H361	H36	0.386600	0.500400	0.013300
O361	O36	0.423900	0.431400	0.125900
Cd41	Cd4	0.601840	0.133200	0.633580
K41	K4	0.804750	0.907550	0.211420
O371	O37	0.595200	0.090870	0.740800
O381	O38	0.715800	0.170920	0.724100
O391	O39	0.675600	0.901230	0.069500
O401	O40	0.557600	0.933310	0.032100
O411	O41	0.968400	0.335110	0.085800
O421	O42	0.636300	0.210200	0.764100
O431	O43	0.873300	0.831750	0.181900
O441	O44	0.038700	0.307770	0.026000
O451	O45	0.950900	0.796000	0.138800
O461	O46	0.697800	0.048000	0.751900
C731	C73	0.645600	0.057800	0.772800
C741	C74	0.703200	0.201900	0.771900
C751	C75	0.619500	0.931400	0.025500
C761	C76	0.674700	0.761500	0.985300
H371	H37	0.623900	0.769400	0.975300
C771	C77	0.814900	0.774600	0.065100
C781	C78	0.912800	0.250300	0.905400
H381	H38	0.961600	0.247400	0.906800
C791	C79	0.580100	0.033400	0.860700
H391	H39	0.541700	0.058100	0.833500
C801	C80	0.905100	0.279800	0.965200
C811	C81	0.847100	0.224700	0.842700
H401	H40	0.852200	0.205400	0.801800
C821	C82	0.638700	0.029200	0.836800
C831	C83	0.831700	0.282900	0.964400
H411	H41	0.826600	0.302200	0.005500
C841	C84	0.574100	0.003700	0.922000
H421	H42	0.533100	0.009100	0.934900
C851	C85	0.767100	0.257200	0.902400
H431	H43	0.718500	0.259500	0.901700
C861	C86	0.773900	0.227900	0.840900
C871	C87	0.629500	0.966000	0.964000
C881	C88	0.691800	0.959600	0.946100
H441	H44	0.730000	0.935100	0.975300
C891	C89	0.974700	0.309400	0.030000
O471	O47	0.045800	0.908900	0.173200
C901	C90	0.884300	0.802200	0.132800
C911	C91	0.739200	0.785900	0.050400
H451	H45	0.731600	0.809800	0.084300
C921	C92	0.697800	0.989400	0.885400
H461	H46	0.740100	0.984300	0.874500
C931	C93	0.939400	0.030900	0.947400
H471	H47	0.897200	0.051600	0.912000
C941	C94	0.994800	0.968800	0.060600
C951	C95	0.984800	0.934600	0.125600
C961	C96	0.932700	0.999900	0.008300
H481	H48	0.886600	0.000400	0.013300
O481	O48	0.923900	0.931400	0.125900
Cd51	Cd5	0.101840	0.366800	0.133580
K51	K5	0.304750	0.592450	0.711420
O491	O49	0.095200	0.409130	0.240800
O501	O50	0.215800	0.329080	0.224100
O511	O51	0.175600	0.598770	0.569500
O521	O52	0.057600	0.566690	0.532100
O531	O53	0.468400	0.164890	0.585800
O541	O54	0.136300	0.289800	0.264100
O551	O55	0.373300	0.668250	0.681900
O561	O56	0.538700	0.192230	0.526000
O571	O57	0.450900	0.704000	0.638800
O581	O58	0.197800	0.452000	0.251900
C971	C97	0.145600	0.442200	0.272800
C981	C98	0.203200	0.298100	0.271900
C991	C99	0.119500	0.568600	0.525500
C1001	C100	0.174700	0.738500	0.485300
H491	H49	0.123900	0.730600	0.475300
C1011	C101	0.314900	0.725400	0.565100
C1021	C102	0.412800	0.249700	0.405400
H501	H50	0.461600	0.252600	0.406800
C1031	C103	0.080100	0.466600	0.360700
H511	H51	0.041700	0.441900	0.333500
C1041	C104	0.405100	0.220200	0.465200
C1051	C105	0.347100	0.275300	0.342700
H521	H52	0.352200	0.294600	0.301800
C1061	C106	0.138700	0.470800	0.336800
C1071	C107	0.331700	0.217100	0.464400
H531	H53	0.326600	0.197800	0.505500
C1081	C108	0.074100	0.496300	0.422000
H541	H54	0.033100	0.490900	0.434900
C1091	C109	0.267100	0.242800	0.402400
H551	H55	0.218500	0.240500	0.401700
C1101	C110	0.273900	0.272100	0.340900
C1111	C111	0.129500	0.534000	0.464000
C1121	C112	0.191800	0.540400	0.446100
H561	H56	0.230000	0.564900	0.475300
C1131	C113	0.474700	0.190600	0.530000
O591	O59	0.545800	0.591100	0.673200
C1141	C114	0.384300	0.697800	0.632800
C1151	C115	0.239200	0.714100	0.550400
H571	H57	0.231600	0.690200	0.584300
C1161	C116	0.197800	0.510600	0.385400
H581	H58	0.240100	0.515700	0.374500
C1171	C117	0.439400	0.469100	0.447400
H591	H59	0.397200	0.448400	0.412000
C1181	C118	0.494800	0.531200	0.560600
C1191	C119	0.484800	0.565400	0.625600
C1201	C120	0.432700	0.500100	0.508300
H601	H60	0.386600	0.499600	0.513300
O601	O60	0.423900	0.568600	0.625900
Cd61	Cd6	0.601840	0.866800	0.133580
K61	K6	0.804750	0.092450	0.711420
O611	O61	0.595200	0.909130	0.240800
O621	O62	0.715800	0.829080	0.224100
O631	O63	0.675600	0.098770	0.569500
O641	O64	0.557600	0.066690	0.532100
O651	O65	0.968400	0.664890	0.585800
O661	O66	0.636300	0.789800	0.264100
O671	O67	0.873300	0.168250	0.681900
O681	O68	0.038700	0.692230	0.526000
O691	O69	0.950900	0.204000	0.638800
O701	O70	0.697800	0.952000	0.251900
C1211	C121	0.645600	0.942200	0.272800
C1221	C122	0.703200	0.798100	0.271900
C1231	C123	0.619500	0.068600	0.525500
C1241	C124	0.674700	0.238500	0.485300
H611	H61	0.623900	0.230600	0.475300
C1251	C125	0.814900	0.225400	0.565100
C1261	C126	0.912800	0.749700	0.405400
H621	H62	0.961600	0.752600	0.406800
C1271	C127	0.580100	0.966600	0.360700
H631	H63	0.541700	0.941900	0.333500
C1281	C128	0.905100	0.720200	0.465200
C1291	C129	0.847100	0.775300	0.342700
H641	H64	0.852200	0.794600	0.301800
C1301	C130	0.638700	0.970800	0.336800
C1311	C131	0.831700	0.717100	0.464400
H651	H65	0.826600	0.697800	0.505500
C1321	C132	0.574100	0.996300	0.422000
H661	H66	0.533100	0.990900	0.434900
C1331	C133	0.767100	0.742800	0.402400
H671	H67	0.718500	0.740500	0.401700
C1341	C134	0.773900	0.772100	0.340900
C1351	C135	0.629500	0.034000	0.464000
C1361	C136	0.691800	0.040400	0.446100
H681	H68	0.730000	0.064900	0.475300
C1371	C137	0.974700	0.690600	0.530000
O711	O71	0.045800	0.091100	0.673200
C1381	C138	0.884300	0.197800	0.632800
C1391	C139	0.739200	0.214100	0.550400
H691	H69	0.731600	0.190200	0.584300
C1401	C140	0.697800	0.010600	0.385400
H701	H70	0.740100	0.015700	0.374500
C1411	C141	0.939400	0.969100	0.447400
H711	H71	0.897200	0.948400	0.412000
C1421	C142	0.994800	0.031200	0.560600
C1431	C143	0.984800	0.065400	0.625600
C1441	C144	0.932700	0.000100	0.508300
H721	H72	0.886600	0.999600	0.513300
O721	O72	0.923900	0.068600	0.625900
Cd71	Cd7	0.898160	0.366800	0.366420
K71	K7	0.695250	0.592450	0.788580
O731	O73	0.904800	0.409130	0.259200
O741	O74	0.784200	0.329080	0.275900
O751	O75	0.824400	0.598770	0.930500
O761	O76	0.942400	0.566690	0.967900
O771	O77	0.531600	0.164890	0.914200
O781	O78	0.863700	0.289800	0.235900
O791	O79	0.626700	0.668250	0.818100
O801	O80	0.461300	0.192230	0.974000
O811	O81	0.549100	0.704000	0.861200
O821	O82	0.802200	0.452000	0.248100
C1451	C145	0.854400	0.442200	0.227200
C1461	C146	0.796800	0.298100	0.228100
C1471	C147	0.880500	0.568600	0.974500
C1481	C148	0.825300	0.738500	0.014700
H731	H73	0.876100	0.730600	0.024700
C1491	C149	0.685100	0.725400	0.934900
C1501	C150	0.587200	0.249700	0.094600
H741	H74	0.538400	0.252600	0.093200
C1511	C151	0.919900	0.466600	0.139300
H751	H75	0.958300	0.441900	0.166500
C1521	C152	0.594900	0.220200	0.034800
C1531	C153	0.652900	0.275300	0.157300
H761	H76	0.647800	0.294600	0.198200
C1541	C154	0.861300	0.470800	0.163200
C1551	C155	0.668300	0.217100	0.035600
H771	H77	0.673400	0.197800	0.994500
C1561	C156	0.925900	0.496300	0.078000
H781	H78	0.966900	0.490900	0.065100
C1571	C157	0.732900	0.242800	0.097600
H791	H79	0.781500	0.240500	0.098300
C1581	C158	0.726100	0.272100	0.159100
C1591	C159	0.870500	0.534000	0.036000
C1601	C160	0.808200	0.540400	0.053900
H801	H80	0.770000	0.564900	0.024700
C1611	C161	0.525300	0.190600	0.970000
O831	O83	0.454200	0.591100	0.826800
C1621	C162	0.615700	0.697800	0.867200
C1631	C163	0.760800	0.714100	0.949600
H811	H81	0.768400	0.690200	0.915700
C1641	C164	0.802200	0.510600	0.114600
H821	H82	0.759900	0.515700	0.125500
C1651	C165	0.560600	0.469100	0.052600
H831	H83	0.602800	0.448400	0.088000
C1661	C166	0.505200	0.531200	0.939400
C1671	C167	0.515200	0.565400	0.874400
C1681	C168	0.567300	0.500100	0.991700
H841	H84	0.613400	0.499600	0.986700
O841	O84	0.576100	0.568600	0.874100
Cd81	Cd8	0.398160	0.866800	0.366420
K81	K8	0.195250	0.092450	0.788580
O851	O85	0.404800	0.909130	0.259200
O861	O86	0.284200	0.829080	0.275900
O871	O87	0.324400	0.098770	0.930500
O881	O88	0.442400	0.066690	0.967900
O891	O89	0.031600	0.664890	0.914200
O901	O90	0.363700	0.789800	0.235900
O911	O91	0.126700	0.168250	0.818100
O921	O92	0.961300	0.692230	0.974000
O931	O93	0.049100	0.204000	0.861200
O941	O94	0.302200	0.952000	0.248100
C1691	C169	0.354400	0.942200	0.227200
C1701	C170	0.296800	0.798100	0.228100
C1711	C171	0.380500	0.068600	0.974500
C1721	C172	0.325300	0.238500	0.014700
H851	H85	0.376100	0.230600	0.024700
C1731	C173	0.185100	0.225400	0.934900
C1741	C174	0.087200	0.749700	0.094600
H861	H86	0.038400	0.752600	0.093200
C1751	C175	0.419900	0.966600	0.139300
H871	H87	0.458300	0.941900	0.166500
C1761	C176	0.094900	0.720200	0.034800
C1771	C177	0.152900	0.775300	0.157300
H881	H88	0.147800	0.794600	0.198200
C1781	C178	0.361300	0.970800	0.163200
C1791	C179	0.168300	0.717100	0.035600
H891	H89	0.173400	0.697800	0.994500
C1801	C180	0.425900	0.996300	0.078000
H901	H90	0.466900	0.990900	0.065100
C1811	C181	0.232900	0.742800	0.097600
H911	H91	0.281500	0.740500	0.098300
C1821	C182	0.226100	0.772100	0.159100
C1831	C183	0.370500	0.034000	0.036000
C1841	C184	0.308200	0.040400	0.053900
H921	H92	0.270000	0.064900	0.024700
C1851	C185	0.025300	0.690600	0.970000
O951	O95	0.954200	0.091100	0.826800
C1861	C186	0.115700	0.197800	0.867200
C1871	C187	0.260800	0.214100	0.949600
H931	H93	0.268400	0.190200	0.915700
C1881	C188	0.302200	0.010600	0.114600
H941	H94	0.259900	0.015700	0.125500
C1891	C189	0.060600	0.969100	0.052600
H951	H95	0.102800	0.948400	0.088000
C1901	C190	0.005200	0.031200	0.939400
C1911	C191	0.015200	0.065400	0.874400
C1921	C192	0.067300	0.000100	0.991700
H961	H96	0.113400	0.999600	0.986700
O961	O96	0.076100	0.068600	0.874100
Cd91	Cd9	0.500000	0.363500	0.250000
K91	K9	0.500000	0.830510	0.250000
Cd101	Cd10	0.000000	0.863500	0.250000
K101	K10	0.000000	0.330510	0.250000
Cd111	Cd11	0.500000	0.636500	0.750000
K111	K11	0.500000	0.169490	0.750000
Cd121	Cd12	0.000000	0.136500	0.750000
K121	K12	0.000000	0.669490	0.750000
