data_IYEQUA_freeONLY_PM
_symmetry_space_group_name_H-M	'P1'
_cell_length_a	17.690700
_cell_length_b	16.167200
_cell_length_c	16.828300
_cell_angle_alpha	90.000000
_cell_angle_beta	90.000000
_cell_angle_gamma	90.000000
_symmetry_Int_Tables_number 1

loop_
_symmetry_equiv_pos_as_xyz
'x,y,z'

loop_
_atom_site_label
_atom_site_type_symbol
_atom_site_fract_x
_atom_site_fract_y
_atom_site_fract_z
Cd11	Cd1	0.254160	0.170570	0.276610
C11	C1	0.245300	0.279400	0.152400
C21	C2	0.227900	0.345600	0.090100
H11	H1	0.199000	0.320300	0.047600
H21	H2	0.196200	0.387400	0.114400
C31	C3	0.295600	0.387800	0.054100
H31	H3	0.323900	0.348000	0.022900
H41	H4	0.328300	0.407400	0.096400
C41	C4	0.274000	0.460200	0.001500
H51	H5	0.317400	0.475400	0.969500
H61	H6	0.234300	0.442500	0.965600
C51	C5	0.247200	0.535200	0.045800
H71	H7	0.287400	0.553400	0.080900
H81	H8	0.204700	0.519500	0.078800
C61	C6	0.223500	0.608100	0.994100
H91	H9	0.190100	0.588200	0.952600
H101	H10	0.195100	0.646900	0.026400
C71	C7	0.288500	0.653000	0.956400
H111	H11	0.319600	0.676500	0.998100
H121	H12	0.319200	0.613100	0.927900
C81	C8	0.267000	0.720500	0.900200
C91	C9	0.145300	0.003200	0.285500
H131	H13	0.178300	0.970000	0.256600
C101	C10	0.078300	0.978000	0.315700
H141	H14	0.056800	0.925700	0.311400
C111	C11	0.098000	0.107700	0.346000
H151	H15	0.091400	0.160200	0.367500
C121	C12	0.977000	0.048700	0.397200
H161	H16	0.944500	0.004400	0.378800
H171	H17	0.952000	0.100700	0.385600
C131	C13	0.987600	0.040800	0.486900
H181	H18	0.024400	0.081500	0.504100
H191	H19	0.940000	0.053700	0.512800
C141	C14	0.348800	0.996100	0.255400
H201	H20	0.318000	0.966300	0.289900
C151	C15	0.405800	0.964100	0.212600
H211	H21	0.421100	0.909100	0.211900
C161	C16	0.397400	0.095700	0.189100
H221	H22	0.407000	0.148000	0.168400
C171	C17	0.497900	0.022000	0.111900
H231	H23	0.533300	0.979200	0.127600
H241	H24	0.524900	0.074200	0.110800
C181	C18	0.468600	0.003200	0.030200
H251	H25	0.433900	0.046500	0.014100
H261	H26	0.440900	0.951500	0.031500
N11	N1	0.157400	0.084500	0.303500
N21	N2	0.048800	0.045500	0.353800
N31	N3	0.343000	0.078600	0.240800
N41	N4	0.436900	0.026900	0.170700
O11	O1	0.192100	0.231500	0.170300
O21	O2	0.306900	0.274600	0.186900
O31	O3	0.317600	0.772500	0.882900
O41	O4	0.204300	0.723400	0.867300
Cd21	Cd2	0.745840	0.170570	0.223390
C191	C19	0.754700	0.279400	0.347600
C201	C20	0.772100	0.345600	0.409900
H271	H27	0.801000	0.320300	0.452400
H281	H28	0.803800	0.387400	0.385600
C211	C21	0.704400	0.387800	0.445900
H291	H29	0.676100	0.348000	0.477100
H301	H30	0.671700	0.407400	0.403600
C221	C22	0.726000	0.460200	0.498500
H311	H31	0.682600	0.475400	0.530500
H321	H32	0.765700	0.442500	0.534400
C231	C23	0.752800	0.535200	0.454200
H331	H33	0.712600	0.553400	0.419100
H341	H34	0.795300	0.519500	0.421200
C241	C24	0.776500	0.608100	0.505900
H351	H35	0.809900	0.588200	0.547400
H361	H36	0.804900	0.646900	0.473600
C251	C25	0.711500	0.653000	0.543600
H371	H37	0.680400	0.676500	0.501900
H381	H38	0.680800	0.613100	0.572100
C261	C26	0.733000	0.720500	0.599800
C271	C27	0.854700	0.003200	0.214500
H391	H39	0.821700	0.970000	0.243400
C281	C28	0.921700	0.978000	0.184300
H401	H40	0.943200	0.925700	0.188600
C291	C29	0.902000	0.107700	0.154000
H411	H41	0.908600	0.160200	0.132500
C301	C30	0.023000	0.048700	0.102800
H421	H42	0.055500	0.004400	0.121200
H431	H43	0.048000	0.100700	0.114400
C311	C31	0.012400	0.040800	0.013100
H441	H44	0.975600	0.081500	0.995900
H451	H45	0.060000	0.053700	0.987200
C321	C32	0.651200	0.996100	0.244600
H461	H46	0.682000	0.966300	0.210100
C331	C33	0.594200	0.964100	0.287400
H471	H47	0.578900	0.909100	0.288100
C341	C34	0.602600	0.095700	0.310900
H481	H48	0.593000	0.148000	0.331600
C351	C35	0.502100	0.022000	0.388100
H491	H49	0.466700	0.979200	0.372400
H501	H50	0.475100	0.074200	0.389200
C361	C36	0.531400	0.003200	0.469800
H511	H51	0.566100	0.046500	0.485900
H521	H52	0.559100	0.951500	0.468500
N51	N5	0.842600	0.084500	0.196500
N61	N6	0.951200	0.045500	0.146200
N71	N7	0.657000	0.078600	0.259200
N81	N8	0.563100	0.026900	0.329300
O51	O5	0.807900	0.231500	0.329700
O61	O6	0.693100	0.274600	0.313100
O71	O7	0.682400	0.772500	0.617100
O81	O8	0.795700	0.723400	0.632700
Cd31	Cd3	0.745840	0.829430	0.723390
C371	C37	0.754700	0.720600	0.847600
C381	C38	0.772100	0.654400	0.909900
H531	H53	0.801000	0.679700	0.952400
H541	H54	0.803800	0.612600	0.885600
C391	C39	0.704400	0.612200	0.945900
H551	H55	0.676100	0.652000	0.977100
H561	H56	0.671700	0.592600	0.903600
C401	C40	0.726000	0.539800	0.998500
H571	H57	0.682600	0.524600	0.030500
H581	H58	0.765700	0.557500	0.034400
C411	C41	0.752800	0.464800	0.954200
H591	H59	0.712600	0.446600	0.919100
H601	H60	0.795300	0.480500	0.921200
C421	C42	0.776500	0.391900	0.005900
H611	H61	0.809900	0.411800	0.047400
H621	H62	0.804900	0.353100	0.973600
C431	C43	0.711500	0.347000	0.043600
H631	H63	0.680400	0.323500	0.001900
H641	H64	0.680800	0.386900	0.072100
C441	C44	0.733000	0.279500	0.099800
C451	C45	0.854700	0.996800	0.714500
H651	H65	0.821700	0.030000	0.743400
C461	C46	0.921700	0.022000	0.684300
H661	H66	0.943200	0.074300	0.688600
C471	C47	0.902000	0.892300	0.654000
H671	H67	0.908600	0.839800	0.632500
C481	C48	0.023000	0.951300	0.602800
H681	H68	0.055500	0.995600	0.621200
H691	H69	0.048000	0.899300	0.614400
C491	C49	0.012400	0.959200	0.513100
H701	H70	0.975600	0.918500	0.495900
H711	H71	0.060000	0.946300	0.487200
C501	C50	0.651200	0.003900	0.744600
H721	H72	0.682000	0.033700	0.710100
C511	C51	0.594200	0.035900	0.787400
H731	H73	0.578900	0.090900	0.788100
C521	C52	0.602600	0.904300	0.810900
H741	H74	0.593000	0.852000	0.831600
C531	C53	0.502100	0.978000	0.888100
H751	H75	0.466700	0.020800	0.872400
H761	H76	0.475100	0.925800	0.889200
C541	C54	0.531400	0.996800	0.969800
H771	H77	0.566100	0.953500	0.985900
H781	H78	0.559100	0.048500	0.968500
N91	N9	0.842600	0.915500	0.696500
N101	N10	0.951200	0.954500	0.646200
N111	N11	0.657000	0.921400	0.759200
N121	N12	0.563100	0.973100	0.829300
O91	O9	0.807900	0.768500	0.829700
O101	O10	0.693100	0.725400	0.813100
O111	O11	0.682400	0.227500	0.117100
O121	O12	0.795700	0.276600	0.132700
Cd41	Cd4	0.254160	0.829430	0.776610
C551	C55	0.245300	0.720600	0.652400
C561	C56	0.227900	0.654400	0.590100
H791	H79	0.199000	0.679700	0.547600
H801	H80	0.196200	0.612600	0.614400
C571	C57	0.295600	0.612200	0.554100
H811	H81	0.323900	0.652000	0.522900
H821	H82	0.328300	0.592600	0.596400
C581	C58	0.274000	0.539800	0.501500
H831	H83	0.317400	0.524600	0.469500
H841	H84	0.234300	0.557500	0.465600
C591	C59	0.247200	0.464800	0.545800
H851	H85	0.287400	0.446600	0.580900
H861	H86	0.204700	0.480500	0.578800
C601	C60	0.223500	0.391900	0.494100
H871	H87	0.190100	0.411800	0.452600
H881	H88	0.195100	0.353100	0.526400
C611	C61	0.288500	0.347000	0.456400
H891	H89	0.319600	0.323500	0.498100
H901	H90	0.319200	0.386900	0.427900
C621	C62	0.267000	0.279500	0.400200
C631	C63	0.145300	0.996800	0.785500
H911	H91	0.178300	0.030000	0.756600
C641	C64	0.078300	0.022000	0.815700
H921	H92	0.056800	0.074300	0.811400
C651	C65	0.098000	0.892300	0.846000
H931	H93	0.091400	0.839800	0.867500
C661	C66	0.977000	0.951300	0.897200
H941	H94	0.944500	0.995600	0.878800
H951	H95	0.952000	0.899300	0.885600
C671	C67	0.987600	0.959200	0.986900
H961	H96	0.024400	0.918500	0.004100
H971	H97	0.940000	0.946300	0.012800
C681	C68	0.348800	0.003900	0.755400
H981	H98	0.318000	0.033700	0.789900
C691	C69	0.405800	0.035900	0.712600
H991	H99	0.421100	0.090900	0.711900
C701	C70	0.397400	0.904300	0.689100
H1001	H100	0.407000	0.852000	0.668400
C711	C71	0.497900	0.978000	0.611900
H1011	H101	0.533300	0.020800	0.627600
H1021	H102	0.524900	0.925800	0.610800
C721	C72	0.468600	0.996800	0.530200
H1031	H103	0.433900	0.953500	0.514100
H1041	H104	0.440900	0.048500	0.531500
N131	N13	0.157400	0.915500	0.803500
N141	N14	0.048800	0.954500	0.853800
N151	N15	0.343000	0.921400	0.740800
N161	N16	0.436900	0.973100	0.670700
O131	O13	0.192100	0.768500	0.670300
O141	O14	0.306900	0.725400	0.686900
O151	O15	0.317600	0.227500	0.382900
O161	O16	0.204300	0.276600	0.367300
Cd51	Cd5	0.245840	0.329430	0.776610
C731	C73	0.254700	0.220600	0.652400
C741	C74	0.272100	0.154400	0.590100
H1051	H105	0.301000	0.179700	0.547600
H1061	H106	0.303800	0.112600	0.614400
C751	C75	0.204400	0.112200	0.554100
H1071	H107	0.176100	0.152000	0.522900
H1081	H108	0.171700	0.092600	0.596400
C761	C76	0.226000	0.039800	0.501500
H1091	H109	0.182600	0.024600	0.469500
H1101	H110	0.265700	0.057500	0.465600
C771	C77	0.252800	0.964800	0.545800
H1111	H111	0.212600	0.946600	0.580900
H1121	H112	0.295300	0.980500	0.578800
C781	C78	0.276500	0.891900	0.494100
H1131	H113	0.309900	0.911800	0.452600
H1141	H114	0.304900	0.853100	0.526400
C791	C79	0.211500	0.847000	0.456400
H1151	H115	0.180400	0.823500	0.498100
H1161	H116	0.180800	0.886900	0.427900
C801	C80	0.233000	0.779500	0.400200
C811	C81	0.354700	0.496800	0.785500
H1171	H117	0.321700	0.530000	0.756600
C821	C82	0.421700	0.522000	0.815700
H1181	H118	0.443200	0.574300	0.811400
C831	C83	0.402000	0.392300	0.846000
H1191	H119	0.408600	0.339800	0.867500
C841	C84	0.523000	0.451300	0.897200
H1201	H120	0.555500	0.495600	0.878800
H1211	H121	0.548000	0.399300	0.885600
C851	C85	0.512400	0.459200	0.986900
H1221	H122	0.475600	0.418500	0.004100
H1231	H123	0.560000	0.446300	0.012800
C861	C86	0.151200	0.503900	0.755400
H1241	H124	0.182000	0.533700	0.789900
C871	C87	0.094200	0.535900	0.712600
H1251	H125	0.078900	0.590900	0.711900
C881	C88	0.102600	0.404300	0.689100
H1261	H126	0.093000	0.352000	0.668400
C891	C89	0.002100	0.478000	0.611900
H1271	H127	0.966700	0.520800	0.627600
H1281	H128	0.975100	0.425800	0.610800
C901	C90	0.031400	0.496800	0.530200
H1291	H129	0.066100	0.453500	0.514100
H1301	H130	0.059100	0.548500	0.531500
N171	N17	0.342600	0.415500	0.803500
N181	N18	0.451200	0.454500	0.853800
N191	N19	0.157000	0.421400	0.740800
N201	N20	0.063100	0.473100	0.670700
O171	O17	0.307900	0.268500	0.670300
O181	O18	0.193100	0.225400	0.686900
O191	O19	0.182400	0.727500	0.382900
O201	O20	0.295700	0.776600	0.367300
Cd61	Cd6	0.754160	0.329430	0.723390
C911	C91	0.745300	0.220600	0.847600
C921	C92	0.727900	0.154400	0.909900
H1311	H131	0.699000	0.179700	0.952400
H1321	H132	0.696200	0.112600	0.885600
C931	C93	0.795600	0.112200	0.945900
H1331	H133	0.823900	0.152000	0.977100
H1341	H134	0.828300	0.092600	0.903600
C941	C94	0.774000	0.039800	0.998500
H1351	H135	0.817400	0.024600	0.030500
H1361	H136	0.734300	0.057500	0.034400
C951	C95	0.747200	0.964800	0.954200
H1371	H137	0.787400	0.946600	0.919100
H1381	H138	0.704700	0.980500	0.921200
C961	C96	0.723500	0.891900	0.005900
H1391	H139	0.690100	0.911800	0.047400
H1401	H140	0.695100	0.853100	0.973600
C971	C97	0.788500	0.847000	0.043600
H1411	H141	0.819600	0.823500	0.001900
H1421	H142	0.819200	0.886900	0.072100
C981	C98	0.767000	0.779500	0.099800
C991	C99	0.645300	0.496800	0.714500
H1431	H143	0.678300	0.530000	0.743400
C1001	C100	0.578300	0.522000	0.684300
H1441	H144	0.556800	0.574300	0.688600
C1011	C101	0.598000	0.392300	0.654000
H1451	H145	0.591400	0.339800	0.632500
C1021	C102	0.477000	0.451300	0.602800
H1461	H146	0.444500	0.495600	0.621200
H1471	H147	0.452000	0.399300	0.614400
C1031	C103	0.487600	0.459200	0.513100
H1481	H148	0.524400	0.418500	0.495900
H1491	H149	0.440000	0.446300	0.487200
C1041	C104	0.848800	0.503900	0.744600
H1501	H150	0.818000	0.533700	0.710100
C1051	C105	0.905800	0.535900	0.787400
H1511	H151	0.921100	0.590900	0.788100
C1061	C106	0.897400	0.404300	0.810900
H1521	H152	0.907000	0.352000	0.831600
C1071	C107	0.997900	0.478000	0.888100
H1531	H153	0.033300	0.520800	0.872400
H1541	H154	0.024900	0.425800	0.889200
C1081	C108	0.968600	0.496800	0.969800
H1551	H155	0.933900	0.453500	0.985900
H1561	H156	0.940900	0.548500	0.968500
N211	N21	0.657400	0.415500	0.696500
N221	N22	0.548800	0.454500	0.646200
N231	N23	0.843000	0.421400	0.759200
N241	N24	0.936900	0.473100	0.829300
O211	O21	0.692100	0.268500	0.829700
O221	O22	0.806900	0.225400	0.813100
O231	O23	0.817600	0.727500	0.117100
O241	O24	0.704300	0.776600	0.132700
Cd71	Cd7	0.754160	0.670570	0.223390
C1091	C109	0.745300	0.779400	0.347600
C1101	C110	0.727900	0.845600	0.409900
H1571	H157	0.699000	0.820300	0.452400
H1581	H158	0.696200	0.887400	0.385600
C1111	C111	0.795600	0.887800	0.445900
H1591	H159	0.823900	0.848000	0.477100
H1601	H160	0.828300	0.907400	0.403600
C1121	C112	0.774000	0.960200	0.498500
H1611	H161	0.817400	0.975400	0.530500
H1621	H162	0.734300	0.942500	0.534400
C1131	C113	0.747200	0.035200	0.454200
H1631	H163	0.787400	0.053400	0.419100
H1641	H164	0.704700	0.019500	0.421200
C1141	C114	0.723500	0.108100	0.505900
H1651	H165	0.690100	0.088200	0.547400
H1661	H166	0.695100	0.146900	0.473600
C1151	C115	0.788500	0.153000	0.543600
H1671	H167	0.819600	0.176500	0.501900
H1681	H168	0.819200	0.113100	0.572100
C1161	C116	0.767000	0.220500	0.599800
C1171	C117	0.645300	0.503200	0.214500
H1691	H169	0.678300	0.470000	0.243400
C1181	C118	0.578300	0.478000	0.184300
H1701	H170	0.556800	0.425700	0.188600
C1191	C119	0.598000	0.607700	0.154000
H1711	H171	0.591400	0.660200	0.132500
C1201	C120	0.477000	0.548700	0.102800
H1721	H172	0.444500	0.504400	0.121200
H1731	H173	0.452000	0.600700	0.114400
C1211	C121	0.487600	0.540800	0.013100
H1741	H174	0.524400	0.581500	0.995900
H1751	H175	0.440000	0.553700	0.987200
C1221	C122	0.848800	0.496100	0.244600
H1761	H176	0.818000	0.466300	0.210100
C1231	C123	0.905800	0.464100	0.287400
H1771	H177	0.921100	0.409100	0.288100
C1241	C124	0.897400	0.595700	0.310900
H1781	H178	0.907000	0.648000	0.331600
C1251	C125	0.997900	0.522000	0.388100
H1791	H179	0.033300	0.479200	0.372400
H1801	H180	0.024900	0.574200	0.389200
C1261	C126	0.968600	0.503200	0.469800
H1811	H181	0.933900	0.546500	0.485900
H1821	H182	0.940900	0.451500	0.468500
N251	N25	0.657400	0.584500	0.196500
N261	N26	0.548800	0.545500	0.146200
N271	N27	0.843000	0.578600	0.259200
N281	N28	0.936900	0.526900	0.329300
O251	O25	0.692100	0.731500	0.329700
O261	O26	0.806900	0.774600	0.313100
O271	O27	0.817600	0.272500	0.617100
O281	O28	0.704300	0.223400	0.632700
Cd81	Cd8	0.245840	0.670570	0.276610
C1271	C127	0.254700	0.779400	0.152400
C1281	C128	0.272100	0.845600	0.090100
H1831	H183	0.301000	0.820300	0.047600
H1841	H184	0.303800	0.887400	0.114400
C1291	C129	0.204400	0.887800	0.054100
H1851	H185	0.176100	0.848000	0.022900
H1861	H186	0.171700	0.907400	0.096400
C1301	C130	0.226000	0.960200	0.001500
H1871	H187	0.182600	0.975400	0.969500
H1881	H188	0.265700	0.942500	0.965600
C1311	C131	0.252800	0.035200	0.045800
H1891	H189	0.212600	0.053400	0.080900
H1901	H190	0.295300	0.019500	0.078800
C1321	C132	0.276500	0.108100	0.994100
H1911	H191	0.309900	0.088200	0.952600
H1921	H192	0.304900	0.146900	0.026400
C1331	C133	0.211500	0.153000	0.956400
H1931	H193	0.180400	0.176500	0.998100
H1941	H194	0.180800	0.113100	0.927900
C1341	C134	0.233000	0.220500	0.900200
C1351	C135	0.354700	0.503200	0.285500
H1951	H195	0.321700	0.470000	0.256600
C1361	C136	0.421700	0.478000	0.315700
H1961	H196	0.443200	0.425700	0.311400
C1371	C137	0.402000	0.607700	0.346000
H1971	H197	0.408600	0.660200	0.367500
C1381	C138	0.523000	0.548700	0.397200
H1981	H198	0.555500	0.504400	0.378800
H1991	H199	0.548000	0.600700	0.385600
C1391	C139	0.512400	0.540800	0.486900
H2001	H200	0.475600	0.581500	0.504100
H2011	H201	0.560000	0.553700	0.512800
C1401	C140	0.151200	0.496100	0.255400
H2021	H202	0.182000	0.466300	0.289900
C1411	C141	0.094200	0.464100	0.212600
H2031	H203	0.078900	0.409100	0.211900
C1421	C142	0.102600	0.595700	0.189100
H2041	H204	0.093000	0.648000	0.168400
C1431	C143	0.002100	0.522000	0.111900
H2051	H205	0.966700	0.479200	0.127600
H2061	H206	0.975100	0.574200	0.110800
C1441	C144	0.031400	0.503200	0.030200
H2071	H207	0.066100	0.546500	0.014100
H2081	H208	0.059100	0.451500	0.031500
N291	N29	0.342600	0.584500	0.303500
N301	N30	0.451200	0.545500	0.353800
N311	N31	0.157000	0.578600	0.240800
N321	N32	0.063100	0.526900	0.170700
O291	O29	0.307900	0.731500	0.170300
O301	O30	0.193100	0.774600	0.186900
O311	O31	0.182400	0.272500	0.882900
O321	O32	0.295700	0.223400	0.867300
