data_IYOCOQ_freeONLY_PM
_symmetry_space_group_name_H-M	'P1'
_cell_length_a	34.841000
_cell_length_b	14.742800
_cell_length_c	31.043000
_cell_angle_alpha	90.000000
_cell_angle_beta	101.299000
_cell_angle_gamma	90.000000
_symmetry_Int_Tables_number 1

loop_
_symmetry_equiv_pos_as_xyz
'x,y,z'

loop_
_atom_site_label
_atom_site_type_symbol
_atom_site_fract_x
_atom_site_fract_y
_atom_site_fract_z
I11	I1	0.120410	0.253650	0.555540
Zn11	Zn1	0.083690	0.368330	0.592430
I21	I2	0.026440	0.344910	0.631060
N11	N1	0.569100	0.027000	0.047700
N21	N2	0.124300	0.436400	0.638800
C11	C1	0.152300	0.394100	0.667600
C21	C2	0.119100	0.525700	0.644700
C31	C3	0.174500	0.437400	0.702800
H11	H1	0.156800	0.332800	0.663400
C41	C4	0.140300	0.574300	0.678500
H21	H2	0.100100	0.555800	0.624600
H31	H3	0.193100	0.405400	0.722600
C51	C5	0.169000	0.530300	0.708900
H41	H4	0.135600	0.635900	0.681200
C61	C6	0.192200	0.582300	0.745700
N31	N3	0.182400	0.669400	0.748900
N41	N4	0.221700	0.541000	0.771900
C71	C7	0.204800	0.715600	0.781600
C81	C8	0.240900	0.592400	0.804800
C91	C9	0.196400	0.813000	0.782100
N51	N5	0.233400	0.680500	0.810900
C101	C10	0.272800	0.548000	0.836300
C111	C11	0.163000	0.848600	0.754900
C121	C12	0.222300	0.874800	0.805900
C131	C13	0.292000	0.592200	0.873000
C141	C14	0.283200	0.459300	0.829100
C151	C15	0.156700	0.940800	0.753500
H51	H5	0.145100	0.810000	0.737900
C161	C16	0.214900	0.966600	0.801100
H61	H6	0.244500	0.854400	0.825100
C171	C17	0.321100	0.546100	0.901500
H71	H7	0.285600	0.651600	0.878800
C181	C18	0.312600	0.419200	0.858900
H81	H8	0.270500	0.427600	0.804600
N61	N6	0.182300	0.998400	0.775700
H91	H9	0.133700	0.963400	0.736400
H101	H10	0.233200	0.007400	0.815900
N71	N7	0.331300	0.461100	0.895100
H111	H11	0.334200	0.576300	0.926300
H121	H12	0.319800	0.360100	0.853600
Zn21	Zn2	0.168820	0.135950	0.768850
Zn31	Zn3	0.374170	0.400160	0.940900
N81	N8	0.637500	0.656000	0.818300
I31	I3	0.122750	0.151650	0.695120
I41	I4	0.229750	0.233230	0.791160
I51	I5	0.396960	0.262190	0.903040
I61	I6	0.351060	0.403440	0.013160
N91	N9	0.419300	0.491600	0.944600
C191	C19	0.434400	0.506100	0.908600
C201	C20	0.436400	0.534500	0.981200
C211	C21	0.466100	0.558900	0.908200
H131	H13	0.422500	0.478300	0.882500
H141	H14	0.426300	0.525300	0.006500
C221	C22	0.468000	0.591700	0.983700
C231	C23	0.483500	0.603700	0.945900
H151	H15	0.476100	0.564900	0.882700
H161	H16	0.478600	0.621300	0.009800
C241	C24	0.517300	0.664100	0.945300
N101	N10	0.539100	0.644900	0.915100
N111	N11	0.522600	0.733600	0.972800
C251	C25	0.567300	0.705500	0.913100
C261	C26	0.551100	0.791000	0.966300
C271	C27	0.592000	0.687900	0.880800
N121	N12	0.573400	0.781100	0.937300
C281	C28	0.556300	0.873900	0.994100
C291	C29	0.593200	0.602400	0.862500
C301	C30	0.615100	0.754100	0.868700
C311	C31	0.531400	0.896000	0.021500
C321	C32	0.588000	0.931600	0.993200
C331	C33	0.616600	0.589700	0.831300
H171	H17	0.578700	0.554700	0.870700
C341	C34	0.638000	0.732100	0.838700
H181	H18	0.615400	0.812300	0.880300
C351	C35	0.538300	0.973200	0.048100
H191	H19	0.509800	0.859600	0.022500
C361	C36	0.593700	0.005700	0.020500
H201	H20	0.605100	0.919900	0.974300
H211	H21	0.617700	0.532300	0.819100
H221	H22	0.655300	0.776100	0.832600
H231	H23	0.521100	0.987300	0.066500
H241	H24	0.615200	0.042700	0.020300
I71	I7	0.620410	0.753650	0.555540
Zn41	Zn4	0.583690	0.868330	0.592430
I81	I8	0.526440	0.844910	0.631060
N131	N13	0.069100	0.527000	0.047700
N141	N14	0.624300	0.936400	0.638800
C371	C37	0.652300	0.894100	0.667600
C381	C38	0.619100	0.025700	0.644700
C391	C39	0.674500	0.937400	0.702800
H251	H25	0.656800	0.832800	0.663400
C401	C40	0.640300	0.074300	0.678500
H261	H26	0.600100	0.055800	0.624600
H271	H27	0.693100	0.905400	0.722600
C411	C41	0.669000	0.030300	0.708900
H281	H28	0.635600	0.135900	0.681200
C421	C42	0.692200	0.082300	0.745700
N151	N15	0.682400	0.169400	0.748900
N161	N16	0.721700	0.041000	0.771900
C431	C43	0.704800	0.215600	0.781600
C441	C44	0.740900	0.092400	0.804800
C451	C45	0.696400	0.313000	0.782100
N171	N17	0.733400	0.180500	0.810900
C461	C46	0.772800	0.048000	0.836300
C471	C47	0.663000	0.348600	0.754900
C481	C48	0.722300	0.374800	0.805900
C491	C49	0.792000	0.092200	0.873000
C501	C50	0.783200	0.959300	0.829100
C511	C51	0.656700	0.440800	0.753500
H291	H29	0.645100	0.310000	0.737900
C521	C52	0.714900	0.466600	0.801100
H301	H30	0.744500	0.354400	0.825100
C531	C53	0.821100	0.046100	0.901500
H311	H31	0.785600	0.151600	0.878800
C541	C54	0.812600	0.919200	0.858900
H321	H32	0.770500	0.927600	0.804600
N181	N18	0.682300	0.498400	0.775700
H331	H33	0.633700	0.463400	0.736400
H341	H34	0.733200	0.507400	0.815900
N191	N19	0.831300	0.961100	0.895100
H351	H35	0.834200	0.076300	0.926300
H361	H36	0.819800	0.860100	0.853600
Zn51	Zn5	0.668820	0.635950	0.768850
Zn61	Zn6	0.874170	0.900160	0.940900
N201	N20	0.137500	0.156000	0.818300
I91	I9	0.622750	0.651650	0.695120
I101	I10	0.729750	0.733230	0.791160
I111	I11	0.896960	0.762190	0.903040
I121	I12	0.851060	0.903440	0.013160
N211	N21	0.919300	0.991600	0.944600
C551	C55	0.934400	0.006100	0.908600
C561	C56	0.936400	0.034500	0.981200
C571	C57	0.966100	0.058900	0.908200
H371	H37	0.922500	0.978300	0.882500
H381	H38	0.926300	0.025300	0.006500
C581	C58	0.968000	0.091700	0.983700
C591	C59	0.983500	0.103700	0.945900
H391	H39	0.976100	0.064900	0.882700
H401	H40	0.978600	0.121300	0.009800
C601	C60	0.017300	0.164100	0.945300
N221	N22	0.039100	0.144900	0.915100
N231	N23	0.022600	0.233600	0.972800
C611	C61	0.067300	0.205500	0.913100
C621	C62	0.051100	0.291000	0.966300
C631	C63	0.092000	0.187900	0.880800
N241	N24	0.073400	0.281100	0.937300
C641	C64	0.056300	0.373900	0.994100
C651	C65	0.093200	0.102400	0.862500
C661	C66	0.115100	0.254100	0.868700
C671	C67	0.031400	0.396000	0.021500
C681	C68	0.088000	0.431600	0.993200
C691	C69	0.116600	0.089700	0.831300
H411	H41	0.078700	0.054700	0.870700
C701	C70	0.138000	0.232100	0.838700
H421	H42	0.115400	0.312300	0.880300
C711	C71	0.038300	0.473200	0.048100
H431	H43	0.009800	0.359600	0.022500
C721	C72	0.093700	0.505700	0.020500
H441	H44	0.105100	0.419900	0.974300
H451	H45	0.117700	0.032300	0.819100
H461	H46	0.155300	0.276100	0.832600
H471	H47	0.021100	0.487300	0.066500
H481	H48	0.115200	0.542700	0.020300
I131	I13	0.120410	0.746350	0.055540
Zn71	Zn7	0.083690	0.631670	0.092430
I141	I14	0.026440	0.655090	0.131060
N251	N25	0.569100	0.973000	0.547700
N261	N26	0.124300	0.563600	0.138800
C731	C73	0.152300	0.605900	0.167600
C741	C74	0.119100	0.474300	0.144700
C751	C75	0.174500	0.562600	0.202800
H491	H49	0.156800	0.667200	0.163400
C761	C76	0.140300	0.425700	0.178500
H501	H50	0.100100	0.444200	0.124600
H511	H51	0.193100	0.594600	0.222600
C771	C77	0.169000	0.469700	0.208900
H521	H52	0.135600	0.364100	0.181200
C781	C78	0.192200	0.417700	0.245700
N271	N27	0.182400	0.330600	0.248900
N281	N28	0.221700	0.459000	0.271900
C791	C79	0.204800	0.284400	0.281600
C801	C80	0.240900	0.407600	0.304800
C811	C81	0.196400	0.187000	0.282100
N291	N29	0.233400	0.319500	0.310900
C821	C82	0.272800	0.452000	0.336300
C831	C83	0.163000	0.151400	0.254900
C841	C84	0.222300	0.125200	0.305900
C851	C85	0.292000	0.407800	0.373000
C861	C86	0.283200	0.540700	0.329100
C871	C87	0.156700	0.059200	0.253500
H531	H53	0.145100	0.190000	0.237900
C881	C88	0.214900	0.033400	0.301100
H541	H54	0.244500	0.145600	0.325100
C891	C89	0.321100	0.453900	0.401500
H551	H55	0.285600	0.348400	0.378800
C901	C90	0.312600	0.580800	0.358900
H561	H56	0.270500	0.572400	0.304600
N301	N30	0.182300	0.001600	0.275700
H571	H57	0.133700	0.036600	0.236400
H581	H58	0.233200	0.992600	0.315900
N311	N31	0.331300	0.538900	0.395100
H591	H59	0.334200	0.423700	0.426300
H601	H60	0.319800	0.639900	0.353600
Zn81	Zn8	0.168820	0.864050	0.268850
Zn91	Zn9	0.374170	0.599840	0.440900
N321	N32	0.637500	0.344000	0.318300
I151	I15	0.122750	0.848350	0.195120
I161	I16	0.229750	0.766770	0.291160
I171	I17	0.396960	0.737810	0.403040
I181	I18	0.351060	0.596560	0.513160
N331	N33	0.419300	0.508400	0.444600
C911	C91	0.434400	0.493900	0.408600
C921	C92	0.436400	0.465500	0.481200
C931	C93	0.466100	0.441100	0.408200
H611	H61	0.422500	0.521700	0.382500
H621	H62	0.426300	0.474700	0.506500
C941	C94	0.468000	0.408300	0.483700
C951	C95	0.483500	0.396300	0.445900
H631	H63	0.476100	0.435100	0.382700
H641	H64	0.478600	0.378700	0.509800
C961	C96	0.517300	0.335900	0.445300
N341	N34	0.539100	0.355100	0.415100
N351	N35	0.522600	0.266400	0.472800
C971	C97	0.567300	0.294500	0.413100
C981	C98	0.551100	0.209000	0.466300
C991	C99	0.592000	0.312100	0.380800
N361	N36	0.573400	0.218900	0.437300
C1001	C100	0.556300	0.126100	0.494100
C1011	C101	0.593200	0.397600	0.362500
C1021	C102	0.615100	0.245900	0.368700
C1031	C103	0.531400	0.104000	0.521500
C1041	C104	0.588000	0.068400	0.493200
C1051	C105	0.616600	0.410300	0.331300
H651	H65	0.578700	0.445300	0.370700
C1061	C106	0.638000	0.267900	0.338700
H661	H66	0.615400	0.187700	0.380300
C1071	C107	0.538300	0.026800	0.548100
H671	H67	0.509800	0.140400	0.522500
C1081	C108	0.593700	0.994300	0.520500
H681	H68	0.605100	0.080100	0.474300
H691	H69	0.617700	0.467700	0.319100
H701	H70	0.655300	0.223900	0.332600
H711	H71	0.521100	0.012700	0.566500
H721	H72	0.615200	0.957300	0.520300
I191	I19	0.620410	0.246350	0.055540
Zn101	Zn10	0.583690	0.131670	0.092430
I201	I20	0.526440	0.155090	0.131060
N371	N37	0.069100	0.473000	0.547700
N381	N38	0.624300	0.063600	0.138800
C1091	C109	0.652300	0.105900	0.167600
C1101	C110	0.619100	0.974300	0.144700
C1111	C111	0.674500	0.062600	0.202800
H731	H73	0.656800	0.167200	0.163400
C1121	C112	0.640300	0.925700	0.178500
H741	H74	0.600100	0.944200	0.124600
H751	H75	0.693100	0.094600	0.222600
C1131	C113	0.669000	0.969700	0.208900
H761	H76	0.635600	0.864100	0.181200
C1141	C114	0.692200	0.917700	0.245700
N391	N39	0.682400	0.830600	0.248900
N401	N40	0.721700	0.959000	0.271900
C1151	C115	0.704800	0.784400	0.281600
C1161	C116	0.740900	0.907600	0.304800
C1171	C117	0.696400	0.687000	0.282100
N411	N41	0.733400	0.819500	0.310900
C1181	C118	0.772800	0.952000	0.336300
C1191	C119	0.663000	0.651400	0.254900
C1201	C120	0.722300	0.625200	0.305900
C1211	C121	0.792000	0.907800	0.373000
C1221	C122	0.783200	0.040700	0.329100
C1231	C123	0.656700	0.559200	0.253500
H771	H77	0.645100	0.690000	0.237900
C1241	C124	0.714900	0.533400	0.301100
H781	H78	0.744500	0.645600	0.325100
C1251	C125	0.821100	0.953900	0.401500
H791	H79	0.785600	0.848400	0.378800
C1261	C126	0.812600	0.080800	0.358900
H801	H80	0.770500	0.072400	0.304600
N421	N42	0.682300	0.501600	0.275700
H811	H81	0.633700	0.536600	0.236400
H821	H82	0.733200	0.492600	0.315900
N431	N43	0.831300	0.038900	0.395100
H831	H83	0.834200	0.923700	0.426300
H841	H84	0.819800	0.139900	0.353600
Zn111	Zn11	0.668820	0.364050	0.268850
Zn121	Zn12	0.874170	0.099840	0.440900
N441	N44	0.137500	0.844000	0.318300
I211	I21	0.622750	0.348350	0.195120
I221	I22	0.729750	0.266770	0.291160
I231	I23	0.896960	0.237810	0.403040
I241	I24	0.851060	0.096560	0.513160
N451	N45	0.919300	0.008400	0.444600
C1271	C127	0.934400	0.993900	0.408600
C1281	C128	0.936400	0.965500	0.481200
C1291	C129	0.966100	0.941100	0.408200
H851	H85	0.922500	0.021700	0.382500
H861	H86	0.926300	0.974700	0.506500
C1301	C130	0.968000	0.908300	0.483700
C1311	C131	0.983500	0.896300	0.445900
H871	H87	0.976100	0.935100	0.382700
H881	H88	0.978600	0.878700	0.509800
C1321	C132	0.017300	0.835900	0.445300
N461	N46	0.039100	0.855100	0.415100
N471	N47	0.022600	0.766400	0.472800
C1331	C133	0.067300	0.794500	0.413100
C1341	C134	0.051100	0.709000	0.466300
C1351	C135	0.092000	0.812100	0.380800
N481	N48	0.073400	0.718900	0.437300
C1361	C136	0.056300	0.626100	0.494100
C1371	C137	0.093200	0.897600	0.362500
C1381	C138	0.115100	0.745900	0.368700
C1391	C139	0.031400	0.604000	0.521500
C1401	C140	0.088000	0.568400	0.493200
C1411	C141	0.116600	0.910300	0.331300
H891	H89	0.078700	0.945300	0.370700
C1421	C142	0.138000	0.767900	0.338700
H901	H90	0.115400	0.687700	0.380300
C1431	C143	0.038300	0.526800	0.548100
H911	H91	0.009800	0.640400	0.522500
C1441	C144	0.093700	0.494300	0.520500
H921	H92	0.105100	0.580100	0.474300
H931	H93	0.117700	0.967700	0.319100
H941	H94	0.155300	0.723900	0.332600
H951	H95	0.021100	0.512700	0.566500
H961	H96	0.115200	0.457300	0.520300
I251	I25	0.879590	0.253650	0.944460
Zn131	Zn13	0.916310	0.368330	0.907570
I261	I26	0.973560	0.344910	0.868940
N491	N49	0.430900	0.027000	0.452300
N501	N50	0.875700	0.436400	0.861200
C1451	C145	0.847700	0.394100	0.832400
C1461	C146	0.880900	0.525700	0.855300
C1471	C147	0.825500	0.437400	0.797200
H971	H97	0.843200	0.332800	0.836600
C1481	C148	0.859700	0.574300	0.821500
H981	H98	0.899900	0.555800	0.875400
H991	H99	0.806900	0.405400	0.777400
C1491	C149	0.831000	0.530300	0.791100
H1001	H100	0.864400	0.635900	0.818800
C1501	C150	0.807800	0.582300	0.754300
N511	N51	0.817600	0.669400	0.751100
N521	N52	0.778300	0.541000	0.728100
C1511	C151	0.795200	0.715600	0.718400
C1521	C152	0.759100	0.592400	0.695200
C1531	C153	0.803600	0.813000	0.717900
N531	N53	0.766600	0.680500	0.689100
C1541	C154	0.727200	0.548000	0.663700
C1551	C155	0.837000	0.848600	0.745100
C1561	C156	0.777700	0.874800	0.694100
C1571	C157	0.708000	0.592200	0.627000
C1581	C158	0.716800	0.459300	0.670900
C1591	C159	0.843300	0.940800	0.746500
H1011	H101	0.854900	0.810000	0.762100
C1601	C160	0.785100	0.966600	0.698900
H1021	H102	0.755500	0.854400	0.674900
C1611	C161	0.678900	0.546100	0.598500
H1031	H103	0.714400	0.651600	0.621200
C1621	C162	0.687400	0.419200	0.641100
H1041	H104	0.729500	0.427600	0.695400
N541	N54	0.817700	0.998400	0.724300
H1051	H105	0.866300	0.963400	0.763600
H1061	H106	0.766800	0.007400	0.684100
N551	N55	0.668700	0.461100	0.604900
H1071	H107	0.665800	0.576300	0.573700
H1081	H108	0.680200	0.360100	0.646400
Zn141	Zn14	0.831180	0.135950	0.731150
Zn151	Zn15	0.625830	0.400160	0.559100
N561	N56	0.362500	0.656000	0.681700
I271	I27	0.877250	0.151650	0.804880
I281	I28	0.770250	0.233230	0.708840
I291	I29	0.603040	0.262190	0.596960
I301	I30	0.648940	0.403440	0.486840
N571	N57	0.580700	0.491600	0.555400
C1631	C163	0.565600	0.506100	0.591400
C1641	C164	0.563600	0.534500	0.518800
C1651	C165	0.533900	0.558900	0.591800
H1091	H109	0.577500	0.478300	0.617500
H1101	H110	0.573700	0.525300	0.493500
C1661	C166	0.532000	0.591700	0.516300
C1671	C167	0.516500	0.603700	0.554100
H1111	H111	0.523900	0.564900	0.617300
H1121	H112	0.521400	0.621300	0.490200
C1681	C168	0.482700	0.664100	0.554700
N581	N58	0.460900	0.644900	0.584900
N591	N59	0.477400	0.733600	0.527200
C1691	C169	0.432700	0.705500	0.586900
C1701	C170	0.448900	0.791000	0.533700
C1711	C171	0.408000	0.687900	0.619200
N601	N60	0.426600	0.781100	0.562700
C1721	C172	0.443700	0.873900	0.505900
C1731	C173	0.406800	0.602400	0.637500
C1741	C174	0.384900	0.754100	0.631300
C1751	C175	0.468600	0.896000	0.478500
C1761	C176	0.412000	0.931600	0.506800
C1771	C177	0.383400	0.589700	0.668700
H1131	H113	0.421300	0.554700	0.629300
C1781	C178	0.362000	0.732100	0.661300
H1141	H114	0.384600	0.812300	0.619700
C1791	C179	0.461700	0.973200	0.451900
H1151	H115	0.490200	0.859600	0.477500
C1801	C180	0.406300	0.005700	0.479500
H1161	H116	0.394900	0.919900	0.525700
H1171	H117	0.382300	0.532300	0.680900
H1181	H118	0.344700	0.776100	0.667400
H1191	H119	0.478900	0.987300	0.433500
H1201	H120	0.384800	0.042700	0.479700
I311	I31	0.379590	0.753650	0.944460
Zn161	Zn16	0.416310	0.868330	0.907570
I321	I32	0.473560	0.844910	0.868940
N611	N61	0.930900	0.527000	0.452300
N621	N62	0.375700	0.936400	0.861200
C1811	C181	0.347700	0.894100	0.832400
C1821	C182	0.380900	0.025700	0.855300
C1831	C183	0.325500	0.937400	0.797200
H1211	H121	0.343200	0.832800	0.836600
C1841	C184	0.359700	0.074300	0.821500
H1221	H122	0.399900	0.055800	0.875400
H1231	H123	0.306900	0.905400	0.777400
C1851	C185	0.331000	0.030300	0.791100
H1241	H124	0.364400	0.135900	0.818800
C1861	C186	0.307800	0.082300	0.754300
N631	N63	0.317600	0.169400	0.751100
N641	N64	0.278300	0.041000	0.728100
C1871	C187	0.295200	0.215600	0.718400
C1881	C188	0.259100	0.092400	0.695200
C1891	C189	0.303600	0.313000	0.717900
N651	N65	0.266600	0.180500	0.689100
C1901	C190	0.227200	0.048000	0.663700
C1911	C191	0.337000	0.348600	0.745100
C1921	C192	0.277700	0.374800	0.694100
C1931	C193	0.208000	0.092200	0.627000
C1941	C194	0.216800	0.959300	0.670900
C1951	C195	0.343300	0.440800	0.746500
H1251	H125	0.354900	0.310000	0.762100
C1961	C196	0.285100	0.466600	0.698900
H1261	H126	0.255500	0.354400	0.674900
C1971	C197	0.178900	0.046100	0.598500
H1271	H127	0.214400	0.151600	0.621200
C1981	C198	0.187400	0.919200	0.641100
H1281	H128	0.229500	0.927600	0.695400
N661	N66	0.317700	0.498400	0.724300
H1291	H129	0.366300	0.463400	0.763600
H1301	H130	0.266800	0.507400	0.684100
N671	N67	0.168700	0.961100	0.604900
H1311	H131	0.165800	0.076300	0.573700
H1321	H132	0.180200	0.860100	0.646400
Zn171	Zn17	0.331180	0.635950	0.731150
Zn181	Zn18	0.125830	0.900160	0.559100
N681	N68	0.862500	0.156000	0.681700
I331	I33	0.377250	0.651650	0.804880
I341	I34	0.270250	0.733230	0.708840
I351	I35	0.103040	0.762190	0.596960
I361	I36	0.148940	0.903440	0.486840
N691	N69	0.080700	0.991600	0.555400
C1991	C199	0.065600	0.006100	0.591400
C2001	C200	0.063600	0.034500	0.518800
C2011	C201	0.033900	0.058900	0.591800
H1331	H133	0.077500	0.978300	0.617500
H1341	H134	0.073700	0.025300	0.493500
C2021	C202	0.032000	0.091700	0.516300
C2031	C203	0.016500	0.103700	0.554100
H1351	H135	0.023900	0.064900	0.617300
H1361	H136	0.021400	0.121300	0.490200
C2041	C204	0.982700	0.164100	0.554700
N701	N70	0.960900	0.144900	0.584900
N711	N71	0.977400	0.233600	0.527200
C2051	C205	0.932700	0.205500	0.586900
C2061	C206	0.948900	0.291000	0.533700
C2071	C207	0.908000	0.187900	0.619200
N721	N72	0.926600	0.281100	0.562700
C2081	C208	0.943700	0.373900	0.505900
C2091	C209	0.906800	0.102400	0.637500
C2101	C210	0.884900	0.254100	0.631300
C2111	C211	0.968600	0.396000	0.478500
C2121	C212	0.912000	0.431600	0.506800
C2131	C213	0.883400	0.089700	0.668700
H1371	H137	0.921300	0.054700	0.629300
C2141	C214	0.862000	0.232100	0.661300
H1381	H138	0.884600	0.312300	0.619700
C2151	C215	0.961700	0.473200	0.451900
H1391	H139	0.990200	0.359600	0.477500
C2161	C216	0.906300	0.505700	0.479500
H1401	H140	0.894900	0.419900	0.525700
H1411	H141	0.882300	0.032300	0.680900
H1421	H142	0.844700	0.276100	0.667400
H1431	H143	0.978900	0.487300	0.433500
H1441	H144	0.884800	0.542700	0.479700
I371	I37	0.879590	0.746350	0.444460
Zn191	Zn19	0.916310	0.631670	0.407570
I381	I38	0.973560	0.655090	0.368940
N731	N73	0.430900	0.973000	0.952300
N741	N74	0.875700	0.563600	0.361200
C2171	C217	0.847700	0.605900	0.332400
C2181	C218	0.880900	0.474300	0.355300
C2191	C219	0.825500	0.562600	0.297200
H1451	H145	0.843200	0.667200	0.336600
C2201	C220	0.859700	0.425700	0.321500
H1461	H146	0.899900	0.444200	0.375400
H1471	H147	0.806900	0.594600	0.277400
C2211	C221	0.831000	0.469700	0.291100
H1481	H148	0.864400	0.364100	0.318800
C2221	C222	0.807800	0.417700	0.254300
N751	N75	0.817600	0.330600	0.251100
N761	N76	0.778300	0.459000	0.228100
C2231	C223	0.795200	0.284400	0.218400
C2241	C224	0.759100	0.407600	0.195200
C2251	C225	0.803600	0.187000	0.217900
N771	N77	0.766600	0.319500	0.189100
C2261	C226	0.727200	0.452000	0.163700
C2271	C227	0.837000	0.151400	0.245100
C2281	C228	0.777700	0.125200	0.194100
C2291	C229	0.708000	0.407800	0.127000
C2301	C230	0.716800	0.540700	0.170900
C2311	C231	0.843300	0.059200	0.246500
H1491	H149	0.854900	0.190000	0.262100
C2321	C232	0.785100	0.033400	0.198900
H1501	H150	0.755500	0.145600	0.174900
C2331	C233	0.678900	0.453900	0.098500
H1511	H151	0.714400	0.348400	0.121200
C2341	C234	0.687400	0.580800	0.141100
H1521	H152	0.729500	0.572400	0.195400
N781	N78	0.817700	0.001600	0.224300
H1531	H153	0.866300	0.036600	0.263600
H1541	H154	0.766800	0.992600	0.184100
N791	N79	0.668700	0.538900	0.104900
H1551	H155	0.665800	0.423700	0.073700
H1561	H156	0.680200	0.639900	0.146400
Zn201	Zn20	0.831180	0.864050	0.231150
Zn211	Zn21	0.625830	0.599840	0.059100
N801	N80	0.362500	0.344000	0.181700
I391	I39	0.877250	0.848350	0.304880
I401	I40	0.770250	0.766770	0.208840
I411	I41	0.603040	0.737810	0.096960
I421	I42	0.648940	0.596560	0.986840
N811	N81	0.580700	0.508400	0.055400
C2351	C235	0.565600	0.493900	0.091400
C2361	C236	0.563600	0.465500	0.018800
C2371	C237	0.533900	0.441100	0.091800
H1571	H157	0.577500	0.521700	0.117500
H1581	H158	0.573700	0.474700	0.993500
C2381	C238	0.532000	0.408300	0.016300
C2391	C239	0.516500	0.396300	0.054100
H1591	H159	0.523900	0.435100	0.117300
H1601	H160	0.521400	0.378700	0.990200
C2401	C240	0.482700	0.335900	0.054700
N821	N82	0.460900	0.355100	0.084900
N831	N83	0.477400	0.266400	0.027200
C2411	C241	0.432700	0.294500	0.086900
C2421	C242	0.448900	0.209000	0.033700
C2431	C243	0.408000	0.312100	0.119200
N841	N84	0.426600	0.218900	0.062700
C2441	C244	0.443700	0.126100	0.005900
C2451	C245	0.406800	0.397600	0.137500
C2461	C246	0.384900	0.245900	0.131300
C2471	C247	0.468600	0.104000	0.978500
C2481	C248	0.412000	0.068400	0.006800
C2491	C249	0.383400	0.410300	0.168700
H1611	H161	0.421300	0.445300	0.129300
C2501	C250	0.362000	0.267900	0.161300
H1621	H162	0.384600	0.187700	0.119700
C2511	C251	0.461700	0.026800	0.951900
H1631	H163	0.490200	0.140400	0.977500
C2521	C252	0.406300	0.994300	0.979500
H1641	H164	0.394900	0.080100	0.025700
H1651	H165	0.382300	0.467700	0.180900
H1661	H166	0.344700	0.223900	0.167400
H1671	H167	0.478900	0.012700	0.933500
H1681	H168	0.384800	0.957300	0.979700
I431	I43	0.379590	0.246350	0.444460
Zn221	Zn22	0.416310	0.131670	0.407570
I441	I44	0.473560	0.155090	0.368940
N851	N85	0.930900	0.473000	0.952300
N861	N86	0.375700	0.063600	0.361200
C2531	C253	0.347700	0.105900	0.332400
C2541	C254	0.380900	0.974300	0.355300
C2551	C255	0.325500	0.062600	0.297200
H1691	H169	0.343200	0.167200	0.336600
C2561	C256	0.359700	0.925700	0.321500
H1701	H170	0.399900	0.944200	0.375400
H1711	H171	0.306900	0.094600	0.277400
C2571	C257	0.331000	0.969700	0.291100
H1721	H172	0.364400	0.864100	0.318800
C2581	C258	0.307800	0.917700	0.254300
N871	N87	0.317600	0.830600	0.251100
N881	N88	0.278300	0.959000	0.228100
C2591	C259	0.295200	0.784400	0.218400
C2601	C260	0.259100	0.907600	0.195200
C2611	C261	0.303600	0.687000	0.217900
N891	N89	0.266600	0.819500	0.189100
C2621	C262	0.227200	0.952000	0.163700
C2631	C263	0.337000	0.651400	0.245100
C2641	C264	0.277700	0.625200	0.194100
C2651	C265	0.208000	0.907800	0.127000
C2661	C266	0.216800	0.040700	0.170900
C2671	C267	0.343300	0.559200	0.246500
H1731	H173	0.354900	0.690000	0.262100
C2681	C268	0.285100	0.533400	0.198900
H1741	H174	0.255500	0.645600	0.174900
C2691	C269	0.178900	0.953900	0.098500
H1751	H175	0.214400	0.848400	0.121200
C2701	C270	0.187400	0.080800	0.141100
H1761	H176	0.229500	0.072400	0.195400
N901	N90	0.317700	0.501600	0.224300
H1771	H177	0.366300	0.536600	0.263600
H1781	H178	0.266800	0.492600	0.184100
N911	N91	0.168700	0.038900	0.104900
H1791	H179	0.165800	0.923700	0.073700
H1801	H180	0.180200	0.139900	0.146400
Zn231	Zn23	0.331180	0.364050	0.231150
Zn241	Zn24	0.125830	0.099840	0.059100
N921	N92	0.862500	0.844000	0.181700
I451	I45	0.377250	0.348350	0.304880
I461	I46	0.270250	0.266770	0.208840
I471	I47	0.103040	0.237810	0.096960
I481	I48	0.148940	0.096560	0.986840
N931	N93	0.080700	0.008400	0.055400
C2711	C271	0.065600	0.993900	0.091400
C2721	C272	0.063600	0.965500	0.018800
C2731	C273	0.033900	0.941100	0.091800
H1811	H181	0.077500	0.021700	0.117500
H1821	H182	0.073700	0.974700	0.993500
C2741	C274	0.032000	0.908300	0.016300
C2751	C275	0.016500	0.896300	0.054100
H1831	H183	0.023900	0.935100	0.117300
H1841	H184	0.021400	0.878700	0.990200
C2761	C276	0.982700	0.835900	0.054700
N941	N94	0.960900	0.855100	0.084900
N951	N95	0.977400	0.766400	0.027200
C2771	C277	0.932700	0.794500	0.086900
C2781	C278	0.948900	0.709000	0.033700
C2791	C279	0.908000	0.812100	0.119200
N961	N96	0.926600	0.718900	0.062700
C2801	C280	0.943700	0.626100	0.005900
C2811	C281	0.906800	0.897600	0.137500
C2821	C282	0.884900	0.745900	0.131300
C2831	C283	0.968600	0.604000	0.978500
C2841	C284	0.912000	0.568400	0.006800
C2851	C285	0.883400	0.910300	0.168700
H1851	H185	0.921300	0.945300	0.129300
C2861	C286	0.862000	0.767900	0.161300
H1861	H186	0.884600	0.687700	0.119700
C2871	C287	0.961700	0.526800	0.951900
H1871	H187	0.990200	0.640400	0.977500
C2881	C288	0.906300	0.494300	0.979500
H1881	H188	0.894900	0.580100	0.025700
H1891	H189	0.882300	0.967700	0.180900
H1901	H190	0.844700	0.723900	0.167400
H1911	H191	0.978900	0.512700	0.933500
H1921	H192	0.884800	0.457300	0.979700
