data_IYOVOI_freeONLY_PM
_symmetry_space_group_name_H-M	'P1'
_cell_length_a	11.738000
_cell_length_b	16.581800
_cell_length_c	11.578500
_cell_angle_alpha	90.000000
_cell_angle_beta	113.514000
_cell_angle_gamma	90.000000
_symmetry_Int_Tables_number 1

loop_
_symmetry_equiv_pos_as_xyz
'x,y,z'

loop_
_atom_site_label
_atom_site_type_symbol
_atom_site_fract_x
_atom_site_fract_y
_atom_site_fract_z
Nd11	Nd1	0.309940	0.534070	0.424740
S11	S1	0.980500	0.300600	0.211430
O11	O1	0.460600	0.637900	0.444700
O21	O2	0.147700	0.445700	0.264700
O31	O3	0.110400	0.491600	0.426800
C11	C1	0.677800	0.831400	0.328000
H11	H1	0.742000	0.861000	0.321300
C21	C2	0.877400	0.283700	0.368300
H21	H2	0.832300	0.262200	0.411300
C31	C3	0.943400	0.358300	0.400300
H31	H3	0.943700	0.392400	0.464200
C41	C4	0.006700	0.373400	0.324400
C51	C5	0.092900	0.442000	0.339600
C61	C6	0.888500	0.247400	0.266600
C71	C7	0.553100	0.853500	0.273200
C81	C8	0.694200	0.758900	0.394600
H41	H4	0.771700	0.735500	0.437800
C91	C9	0.586900	0.725900	0.390500
O41	O4	0.813500	0.160200	0.092900
O51	O5	0.378100	0.927400	0.147700
O61	O6	0.655800	0.599700	0.483500
O71	O7	0.787600	0.122400	0.266700
C101	C10	0.565200	0.649000	0.445900
C111	C11	0.825800	0.172000	0.205600
C121	C12	0.494300	0.922900	0.191300
S21	S2	0.460580	0.783840	0.303560
O81	O8	0.563200	0.974100	0.167900
Nd21	Nd2	0.690060	0.034070	0.075260
S31	S3	0.019500	0.800600	0.288570
O91	O9	0.539400	0.137900	0.055300
O101	O10	0.852300	0.945700	0.235300
O111	O11	0.889600	0.991600	0.073200
C131	C13	0.322200	0.331400	0.172000
H51	H5	0.258000	0.361000	0.178700
C141	C14	0.122600	0.783700	0.131700
H61	H6	0.167700	0.762200	0.088700
C151	C15	0.056600	0.858300	0.099700
H71	H7	0.056300	0.892400	0.035800
C161	C16	0.993300	0.873400	0.175600
C171	C17	0.907100	0.942000	0.160400
C181	C18	0.111500	0.747400	0.233400
C191	C19	0.446900	0.353500	0.226800
C201	C20	0.305800	0.258900	0.105400
H81	H8	0.228300	0.235500	0.062200
C211	C21	0.413100	0.225900	0.109500
O121	O12	0.186500	0.660200	0.407100
O131	O13	0.621900	0.427400	0.352300
O141	O14	0.344200	0.099700	0.016500
O151	O15	0.212400	0.622400	0.233300
C221	C22	0.434800	0.149000	0.054100
C231	C23	0.174200	0.672000	0.294400
C241	C24	0.505700	0.422900	0.308700
S41	S4	0.539420	0.283840	0.196440
O161	O16	0.436800	0.474100	0.332100
Nd31	Nd3	0.690060	0.465930	0.575260
S51	S5	0.019500	0.699400	0.788570
O171	O17	0.539400	0.362100	0.555300
O181	O18	0.852300	0.554300	0.735300
O191	O19	0.889600	0.508400	0.573200
C251	C25	0.322200	0.168600	0.672000
H91	H9	0.258000	0.139000	0.678700
C261	C26	0.122600	0.716300	0.631700
H101	H10	0.167700	0.737800	0.588700
C271	C27	0.056600	0.641700	0.599700
H111	H11	0.056300	0.607600	0.535800
C281	C28	0.993300	0.626600	0.675600
C291	C29	0.907100	0.558000	0.660400
C301	C30	0.111500	0.752600	0.733400
C311	C31	0.446900	0.146500	0.726800
C321	C32	0.305800	0.241100	0.605400
H121	H12	0.228300	0.264500	0.562200
C331	C33	0.413100	0.274100	0.609500
O201	O20	0.186500	0.839800	0.907100
O211	O21	0.621900	0.072600	0.852300
O221	O22	0.344200	0.400300	0.516500
O231	O23	0.212400	0.877600	0.733300
C341	C34	0.434800	0.351000	0.554100
C351	C35	0.174200	0.828000	0.794400
C361	C36	0.505700	0.077100	0.808700
S61	S6	0.539420	0.216160	0.696440
O241	O24	0.436800	0.025900	0.832100
Nd41	Nd4	0.309940	0.965930	0.924740
S71	S7	0.980500	0.199400	0.711430
O251	O25	0.460600	0.862100	0.944700
O261	O26	0.147700	0.054300	0.764700
O271	O27	0.110400	0.008400	0.926800
C371	C37	0.677800	0.668600	0.828000
H131	H13	0.742000	0.639000	0.821300
C381	C38	0.877400	0.216300	0.868300
H141	H14	0.832300	0.237800	0.911300
C391	C39	0.943400	0.141700	0.900300
H151	H15	0.943700	0.107600	0.964200
C401	C40	0.006700	0.126600	0.824400
C411	C41	0.092900	0.058000	0.839600
C421	C42	0.888500	0.252600	0.766600
C431	C43	0.553100	0.646500	0.773200
C441	C44	0.694200	0.741100	0.894600
H161	H16	0.771700	0.764500	0.937800
C451	C45	0.586900	0.774100	0.890500
O281	O28	0.813500	0.339800	0.592900
O291	O29	0.378100	0.572600	0.647700
O301	O30	0.655800	0.900300	0.983500
O311	O31	0.787600	0.377600	0.766700
C461	C46	0.565200	0.851000	0.945900
C471	C47	0.825800	0.328000	0.705600
C481	C48	0.494300	0.577100	0.691300
S81	S8	0.460580	0.716160	0.803560
O321	O32	0.563200	0.525900	0.667900
