data_IYUHIU_ion_b_PM
_symmetry_space_group_name_H-M	'P1'
_cell_length_a	29.756000
_cell_length_b	14.528400
_cell_length_c	29.738800
_cell_angle_alpha	90.000000
_cell_angle_beta	90.000000
_cell_angle_gamma	90.000000
_symmetry_Int_Tables_number 1

loop_
_symmetry_equiv_pos_as_xyz
'x,y,z'

loop_
_atom_site_label
_atom_site_type_symbol
_atom_site_fract_x
_atom_site_fract_y
_atom_site_fract_z
In11	In1	0.874230	0.132120	0.693760
In21	In2	0.095320	0.123210	0.911910
In31	In3	0.694200	0.870960	0.852130
O41	O4	0.721730	0.995200	0.834200
O51	O5	0.128190	0.918840	0.933780
O61	O6	0.082250	0.875900	0.658350
O71	O7	0.066050	0.007780	0.942510
O81	O8	0.145910	0.946480	0.682720
O91	O9	0.096700	0.034190	0.859650
O101	O10	0.847380	0.007180	0.711220
O111	O11	0.931690	0.067100	0.678400
O121	O12	0.826510	0.116780	0.415520
O131	O13	0.056860	0.152070	0.858140
O141	O14	0.759230	0.145630	0.401430
O151	O15	0.740340	0.828600	0.809390
O161	O16	0.925340	0.148930	0.736370
O171	O17	0.834580	0.173950	0.742910
O181	O18	0.951920	0.826880	0.048080
O191	O19	0.638610	0.148180	0.537100
O201	O20	0.688390	0.075820	0.890700
O211	O21	0.660910	0.097870	0.598030
O221	O22	0.829460	0.116120	0.640970
O231	O23	0.878140	0.129390	0.582520
O241	O24	0.874370	0.927030	0.651210
C251	C25	0.069770	0.082070	0.836480
C261	C26	0.720580	0.125390	0.542980
C271	C27	0.766590	0.167550	0.809490
H281	H28	0.779120	0.102920	0.796490
C291	C29	0.088810	0.922430	0.945030
C301	C30	0.806310	0.834970	0.741000
H311	H31	0.793920	0.899610	0.754200
C321	C32	0.756280	0.122020	0.574380
H331	H33	0.748510	0.119850	0.609940
C341	C34	0.731310	0.130560	0.496590
H351	H35	0.704320	0.133280	0.472180
C361	C36	0.801750	0.123300	0.560560
C371	C37	0.787770	0.130900	0.431930
C381	C38	0.837370	0.835940	0.705270
C391	C39	0.012860	0.090330	0.772880
H401	H40	0.991320	0.129710	0.795080
C411	C41	0.712640	0.077170	0.857680
C421	C42	0.854300	0.925390	0.686960
C431	C43	0.776600	0.129490	0.481460
C441	C44	0.811260	0.126080	0.513900
H451	H45	0.845910	0.126210	0.502700
C461	C46	0.839190	0.123000	0.594790
C471	C47	0.672530	0.123440	0.559370
C481	C48	0.997310	0.067550	0.729210
C491	C49	0.065990	0.834390	0.960070
C501	C50	0.950710	0.095660	0.714070
C511	C51	0.055120	0.059780	0.789000
C521	C52	0.099080	0.931790	0.683850
C531	C53	0.027310	0.833290	0.987820
H541	H54	0.013140	0.898150	0.998710
C551	C55	0.069210	0.986610	0.715130
C561	C56	0.732040	0.166470	0.841830
C571	C57	0.083170	0.008950	0.759420
H581	H58	0.115840	0.986150	0.770990
C591	C59	0.025810	0.015000	0.700990
H601	H60	0.014410	0.997220	0.667530
N611	N61	0.786620	0.052380	0.174480
C621	C62	0.780220	0.975910	0.205560
N631	N63	0.964100	0.986680	0.566610
C641	C64	0.982560	0.899380	0.582110
N651	N65	0.835990	0.941180	0.862430
C661	C66	0.863310	0.982910	0.827250
N671	N67	0.577090	0.054520	0.930300
C681	C68	0.598830	0.126360	0.956690
N691	N69	0.791000	0.111440	0.958220
C701	C70	0.762370	0.124710	0.997450
N711	N71	0.036250	0.990100	0.091370
C721	C72	0.023700	0.060540	0.123930
In731	In73	0.624060	0.869370	0.193750
In741	In74	0.403050	0.876280	0.411700
In751	In75	0.804210	0.130490	0.351930
O761	O76	0.777000	0.006150	0.333460
O771	O77	0.370220	0.080660	0.433760
O781	O78	0.415900	0.122890	0.157490
O791	O79	0.432350	0.991680	0.442320
O801	O80	0.352300	0.054190	0.183230
O811	O81	0.401580	0.965530	0.359550
O821	O82	0.650800	0.994210	0.211500
O831	O83	0.566610	0.934240	0.178390
O841	O84	0.671960	0.885070	0.915690
O851	O85	0.441340	0.847510	0.357790
O861	O86	0.739160	0.855330	0.901610
O871	O87	0.757970	0.173020	0.309400
O881	O88	0.573050	0.852430	0.236400
O891	O89	0.663630	0.827180	0.242760
O901	O90	0.546450	0.172860	0.548040
O911	O91	0.859770	0.852760	0.037130
O921	O92	0.806700	0.926760	0.392300
O931	O93	0.837540	0.901920	0.098330
O941	O94	0.668880	0.885810	0.141030
O951	O95	0.620350	0.871830	0.082490
O961	O96	0.623790	0.074380	0.151530
C971	C97	0.428460	0.917730	0.336280
C981	C98	0.777870	0.875830	0.043160
C991	C99	0.731490	0.833730	0.309120
H1001	H100	0.719040	0.898260	0.295970
C1011	C101	0.409630	0.077030	0.444880
C1021	C102	0.691870	0.166500	0.241220
H1031	H103	0.704290	0.101900	0.254440
C1041	C104	0.742190	0.879550	0.074550
H1051	H105	0.749940	0.881070	0.110120
C1061	C106	0.767160	0.870790	0.996760
H1071	H107	0.794140	0.867280	0.972370
C1081	C108	0.696730	0.879300	0.060680
C1091	C109	0.710690	0.870850	0.932100
C1101	C110	0.660750	0.165440	0.205560
C1111	C111	0.485480	0.910320	0.272800
H1121	H112	0.507040	0.870900	0.294970
C1131	C113	0.784510	0.924710	0.357920
C1141	C114	0.643860	0.076010	0.187260
C1151	C115	0.721900	0.872940	0.981610
C1161	C116	0.687280	0.877700	0.014020
H1171	H117	0.652700	0.879580	0.002780
C1181	C118	0.659250	0.879010	0.094830
C1191	C119	0.825900	0.877110	0.059550
C1201	C120	0.501070	0.933520	0.229200
C1211	C121	0.432530	0.165090	0.459840
C1221	C122	0.547660	0.905630	0.214090
C1231	C123	0.443150	0.940470	0.288870
C1241	C124	0.399160	0.068250	0.183690
C1251	C125	0.471080	0.166200	0.487790
H1261	H126	0.485070	0.101310	0.498950
C1271	C127	0.429130	0.014050	0.215080
C1281	C128	0.765710	0.835160	0.341750
C1291	C129	0.415090	0.991330	0.259310
H1301	H130	0.382350	0.013750	0.270830
C1311	C131	0.472610	0.986130	0.201000
H1321	H132	0.484070	0.004220	0.167560
N1331	N133	0.711850	0.948760	0.675020
C1341	C134	0.718320	0.025730	0.705780
N1351	N135	0.548100	0.032890	0.065010
C1361	C136	0.520950	0.111580	0.078590
N1371	N137	0.663430	0.052420	0.365280
C1381	C138	0.635920	0.016780	0.328670
N1391	N139	0.945810	0.933200	0.450030
C1401	C140	0.902340	0.912780	0.429960
N1411	N141	0.722070	0.878820	0.467560
C1421	C142	0.756800	0.887410	0.501880
N1431	N143	0.469780	0.955750	0.616290
C1441	C144	0.493930	0.886910	0.642430
In1451	In145	0.124490	0.631050	0.307190
In1461	In146	0.903270	0.623050	0.088510
In1471	In147	0.304490	0.370080	0.148650
O1481	O148	0.276970	0.494390	0.166570
O1491	O149	0.870170	0.418730	0.066290
O1501	O150	0.915910	0.379600	0.343840
O1511	O151	0.932360	0.507540	0.057840
O1521	O152	0.852300	0.446680	0.317150
O1531	O153	0.901740	0.533630	0.140620
O1541	O154	0.151570	0.506700	0.289330
O1551	O155	0.065860	0.570710	0.323280
O1561	O156	0.171680	0.616020	0.584820
O1571	O157	0.941790	0.651190	0.142290
O1581	O158	0.238920	0.644930	0.599060
O1591	O159	0.258260	0.327810	0.191300
O1601	O160	0.074740	0.641290	0.262410
O1611	O161	0.165210	0.674090	0.259160
O1621	O162	0.046840	0.326700	0.952700
O1631	O163	0.359800	0.645930	0.463620
O1641	O164	0.311800	0.575800	0.111280
O1651	O165	0.337450	0.598080	0.402200
O1661	O166	0.167700	0.604570	0.360340
O1671	O167	0.121230	0.643640	0.417740
O1681	O168	0.120280	0.424850	0.346590
C1691	C169	0.928810	0.581110	0.163830
C1701	C170	0.277820	0.623900	0.457490
C1711	C171	0.232650	0.667100	0.191910
H1721	H172	0.220200	0.602500	0.205000
C1731	C173	0.909590	0.422280	0.055220
C1741	C174	0.191120	0.334090	0.258530
H1751	H175	0.203180	0.398780	0.245060
C1761	C176	0.242140	0.620770	0.426080
H1771	H177	0.249830	0.618680	0.390500
C1781	C178	0.267080	0.629130	0.503900
H1791	H179	0.294050	0.631500	0.528330
C1801	C180	0.196710	0.623210	0.439910
C1811	C181	0.210470	0.630140	0.568500
C1821	C182	0.159750	0.334930	0.293990
C1831	C183	0.986100	0.587800	0.227080
H1841	H184	0.007820	0.626380	0.204720
C1851	C185	0.286790	0.576780	0.143740
C1861	C186	0.142430	0.424080	0.312100
C1871	C187	0.221770	0.628770	0.519010
C1881	C188	0.187160	0.626330	0.486540
H1891	H189	0.152490	0.627290	0.497690
C1901	C190	0.159280	0.624760	0.405830
C1911	C191	0.325870	0.622230	0.441100
C1921	C192	0.001550	0.565520	0.270850
C1931	C193	0.932480	0.334200	0.040280
C1941	C194	0.048120	0.593570	0.286060
C1951	C195	0.943570	0.558320	0.211220
C1961	C196	0.899200	0.433030	0.317030
C1971	C197	0.971310	0.333080	0.012750
H1981	H198	0.985550	0.397900	0.001920
C1991	C199	0.929280	0.486380	0.285340
C2001	C200	0.267220	0.666010	0.159560
C2011	C201	0.915300	0.508550	0.241020
H2021	H202	0.882440	0.486580	0.229610
C2031	C203	0.972860	0.513980	0.299270
H2041	H204	0.984320	0.496050	0.332690
N2051	N205	0.212440	0.549290	0.824310
C2061	C206	0.218460	0.470880	0.794340
N2071	N207	0.072000	0.461550	0.448150
C2081	C208	0.058210	0.365460	0.445820
N2091	N209	0.164120	0.459810	0.137930
C2101	C210	0.133670	0.488300	0.173680
N2111	N211	0.460190	0.555990	0.065110
C2121	C212	0.415230	0.517130	0.061160
N2131	N213	0.211670	0.597010	0.040680
C2141	C214	0.235960	0.626950	0.000730
N2151	N215	0.958420	0.487110	0.914340
C2161	C216	0.971190	0.553600	0.879950
In2171	In217	0.374020	0.368860	0.807160
In2181	In218	0.594990	0.377030	0.588430
In2191	In219	0.193850	0.629700	0.648480
O2201	O220	0.221270	0.505600	0.667010
O2211	O221	0.627960	0.581470	0.566490
O2221	O222	0.582180	0.623700	0.842810
O2231	O223	0.565830	0.492520	0.557800
O2241	O224	0.645760	0.555080	0.816950
O2251	O225	0.596490	0.466690	0.640420
O2261	O226	0.346560	0.492740	0.788890
O2271	O227	0.432560	0.429720	0.823150
O2281	O228	0.326670	0.383450	0.085040
O2291	O229	0.556510	0.349010	0.642260
O2301	O230	0.259430	0.354340	0.099210
O2311	O231	0.240210	0.672200	0.690850
O2321	O232	0.423850	0.358670	0.762420
O2331	O233	0.333260	0.325520	0.759200
O2341	O234	0.451640	0.673180	0.452650
O2351	O235	0.138850	0.353260	0.963590
O2361	O236	0.188510	0.424890	0.610260
O2371	O237	0.161150	0.401580	0.902260
O2381	O238	0.331260	0.395660	0.860650
O2391	O239	0.377680	0.355700	0.918060
O2401	O240	0.377770	0.574930	0.846040
C2411	C241	0.569490	0.419230	0.663700
C2421	C242	0.220840	0.375300	0.957510
C2431	C243	0.265930	0.332670	0.692040
H2441	H244	0.278370	0.397170	0.705250
C2451	C245	0.588560	0.577890	0.555360
C2461	C246	0.307090	0.665790	0.758070
H2471	H247	0.294630	0.601170	0.744910
C2481	C248	0.256620	0.378670	0.926170
H2491	H249	0.248980	0.380950	0.890590
C2501	C250	0.231500	0.369850	0.003930
H2511	H251	0.204490	0.367290	0.028310
C2521	C252	0.302050	0.376210	0.940100
C2531	C253	0.287940	0.369120	0.068670
C2541	C254	0.338580	0.664750	0.793370
C2551	C255	0.512390	0.412340	0.727080
H2561	H256	0.490820	0.373010	0.704880
C2571	C257	0.212340	0.423510	0.643570
C2581	C258	0.355710	0.575550	0.811530
C2591	C259	0.276770	0.370460	0.019140
C2601	C260	0.311460	0.373080	0.986750
H2611	H261	0.346110	0.372210	0.997980
C2621	C262	0.339630	0.374790	0.906110
C2631	C263	0.172780	0.377100	0.941110
C2641	C264	0.496850	0.435260	0.770710
C2651	C265	0.565620	0.665960	0.540540
C2661	C266	0.450360	0.406830	0.785970
C2671	C267	0.554780	0.442250	0.711070
C2681	C268	0.598900	0.569390	0.816430
C2691	C269	0.526980	0.667060	0.512770
H2701	H270	0.512930	0.602210	0.501730
C2711	C271	0.568880	0.515520	0.784910
C2721	C272	0.231490	0.334080	0.659590
C2731	C273	0.582930	0.492790	0.740680
H2741	H274	0.615730	0.514970	0.729210
C2751	C275	0.525320	0.487880	0.798890
H2761	H276	0.513710	0.506600	0.832140
N2771	N277	0.285820	0.448600	0.325080
C2781	C278	0.280060	0.525930	0.294390
N2791	N279	0.427610	0.546310	0.937850
C2801	C280	0.440670	0.642490	0.942650
N2811	N281	0.334220	0.543550	0.635570
C2821	C282	0.363260	0.512830	0.672050
N2831	N283	0.048130	0.478640	0.566970
C2841	C284	0.086500	0.418180	0.573830
N2851	N285	0.273320	0.378660	0.533710
C2861	C286	0.237670	0.386250	0.500280
N2871	N287	0.538210	0.510630	0.412450
C2881	C288	0.525840	0.443060	0.378410
In2891	In289	0.124230	0.869940	0.306380
In2901	In290	0.903300	0.874720	0.088750
In2911	In291	0.304360	0.131180	0.148440
O2921	O292	0.276440	0.007280	0.166430
O2931	O293	0.870270	0.078940	0.066410
O2941	O294	0.915830	0.121750	0.342980
O2951	O295	0.932560	0.990230	0.058190
O2961	O296	0.852180	0.052940	0.317450
O2971	O297	0.901750	0.964390	0.140750
O2981	O298	0.150620	0.994660	0.288280
O2991	O299	0.066680	0.934250	0.321890
O3001	O300	0.171620	0.881600	0.584650
O3011	O301	0.941570	0.846500	0.142710
O3021	O302	0.238920	0.853480	0.598690
O3031	O303	0.257890	0.173610	0.190830
O3041	O304	0.073000	0.851550	0.264160
O3051	O305	0.163700	0.828400	0.257250
O3061	O306	0.046810	0.170740	0.952740
O3071	O307	0.359430	0.852320	0.463020
O3081	O308	0.312320	0.925670	0.111960
O3091	O309	0.337360	0.904820	0.402420
O3101	O310	0.169030	0.886850	0.359080
O3111	O311	0.120120	0.877540	0.417490
O3121	O312	0.123950	0.074390	0.348550
C3131	C313	0.928600	0.916750	0.164130
C3141	C314	0.277590	0.876170	0.457210
C3151	C315	0.232590	0.834330	0.191860
H3161	H316	0.220200	0.898930	0.204970
C3171	C317	0.909710	0.075430	0.055420
C3181	C318	0.191910	0.166950	0.259050
H3191	H319	0.204830	0.102460	0.246210
C3201	C320	0.241960	0.880840	0.425820
H3211	H321	0.249780	0.884150	0.390290
C3221	C322	0.266820	0.869410	0.503540
H3231	H323	0.293790	0.865600	0.527930
C3241	C324	0.196480	0.879420	0.439570
C3251	C325	0.210360	0.868070	0.568190
C3261	C326	0.160460	0.165690	0.294390
C3271	C327	0.985480	0.909450	0.227690
H3281	H328	0.007120	0.870240	0.205500
C3291	C329	0.286770	0.924760	0.143950
C3301	C330	0.143780	0.076240	0.312690
C3311	C331	0.221530	0.870420	0.518650
C3321	C332	0.186910	0.875070	0.486190
H3331	H333	0.152250	0.874500	0.497330
C3341	C334	0.159150	0.881280	0.405270
C3351	C335	0.325640	0.878130	0.440880
C3361	C336	0.000980	0.932490	0.271320
C3371	C337	0.932560	0.163510	0.040420
C3381	C338	0.047620	0.904940	0.286400
C3391	C339	0.943160	0.939560	0.211570
C3401	C340	0.899040	0.067110	0.316820
C3411	C341	0.971410	0.164570	0.012910
H3421	H342	0.985700	0.099690	0.002230
C3431	C343	0.928980	0.012830	0.285420
C3441	C344	0.267190	0.835480	0.159600
C3451	C345	0.915020	0.990270	0.241130
H3461	H346	0.882300	0.012700	0.229550
C3471	C347	0.972440	0.984860	0.299540
H3481	H348	0.983860	0.002860	0.333010
N3491	N349	0.212870	0.950160	0.822860
C3501	C350	0.218900	0.029430	0.793430
N3511	N351	0.049400	0.051430	0.433670
C3521	C352	0.022880	0.130760	0.419720
N3531	N353	0.162210	0.068720	0.135750
C3541	C354	0.137900	0.017350	0.170100
N3551	N355	0.444980	0.915070	0.036030
C3561	C356	0.405570	0.935000	0.063370
N3571	N357	0.192240	0.884670	0.042810
C3581	C358	0.238410	0.876560	0.026960
N3591	N359	0.960930	0.010700	0.911870
C3601	C360	0.972980	0.943590	0.877490
In3611	In361	0.374320	0.129730	0.806360
In3621	In362	0.595130	0.125530	0.588730
In3631	In363	0.193930	0.868790	0.648240
O3641	O364	0.221570	0.993030	0.666130
O3651	O365	0.627810	0.921140	0.566690
O3661	O366	0.582960	0.875730	0.841320
O3671	O367	0.565530	0.009930	0.558570
O3681	O368	0.646250	0.948810	0.817850
O3691	O369	0.597000	0.036460	0.640860
O3701	O370	0.347860	0.005230	0.788030
O3711	O371	0.431910	0.065500	0.821790
O3721	O372	0.326810	0.116330	0.084910
O3731	O373	0.556900	0.154070	0.642620
O3741	O374	0.259720	0.147420	0.098700
O3751	O375	0.240400	0.826410	0.690560
O3761	O376	0.425540	0.148500	0.764170
O3771	O377	0.334810	0.171200	0.757240
O3781	O378	0.451590	0.829080	0.452540
O3791	O379	0.139020	0.146620	0.963250
O3801	O380	0.186290	0.074860	0.611270
O3811	O381	0.161030	0.094660	0.902540
O3821	O382	0.329620	0.112280	0.859150
O3831	O383	0.378410	0.124120	0.917550
O3841	O384	0.375100	0.924750	0.847790
C3851	C385	0.570040	0.084060	0.664130
C3861	C386	0.220900	0.122650	0.957370
C3871	C387	0.266150	0.165370	0.691420
H3881	H388	0.278850	0.100560	0.704100
C3891	C389	0.588340	0.924690	0.555750
C3901	C390	0.307170	0.833000	0.758020
H3911	H391	0.294870	0.897660	0.744700
C3921	C392	0.256540	0.118360	0.925930
H3931	H393	0.248700	0.115280	0.890410
C3941	C394	0.231720	0.129140	0.003700
H3951	H395	0.204780	0.132520	0.028140
C3961	C396	0.302040	0.120050	0.939650
C3971	C397	0.288210	0.131230	0.068320
C3981	C398	0.338420	0.834020	0.793540
C3991	C399	0.513080	0.090980	0.727590
H4001	H400	0.491440	0.130280	0.705460
C4011	C401	0.211630	0.075550	0.643480
C4021	C402	0.355080	0.923310	0.812020
C4031	C403	0.277040	0.128690	0.018770
C4041	C404	0.311640	0.124240	0.986290
H4051	H405	0.346310	0.124800	0.997420
C4061	C406	0.339410	0.118840	0.905340
C4071	C407	0.172810	0.120920	0.941050
C4081	C408	0.497580	0.067620	0.771180
C4091	C409	0.565460	0.836670	0.540760
C4101	C410	0.450940	0.095020	0.786320
C4111	C411	0.555460	0.061200	0.711500
C4121	C412	0.599580	0.932720	0.816290
C4131	C413	0.526730	0.835590	0.513090
H4141	H414	0.512350	0.900500	0.502490
C4151	C415	0.569620	0.987380	0.785130
C4161	C416	0.231400	0.164620	0.659260
C4171	C417	0.583600	0.010370	0.740940
H4181	H418	0.616350	0.988090	0.729350
C4191	C419	0.526160	0.015100	0.799290
H4201	H420	0.514800	0.996860	0.832710
N4211	N421	0.286160	0.049450	0.323780
C4221	C422	0.279810	0.970660	0.294110
N4231	N423	0.461750	0.969740	0.913650
C4241	C424	0.480990	0.877930	0.910010
N4251	N425	0.340090	0.929250	0.641040
C4261	C426	0.368280	0.985160	0.670350
N4271	N427	0.074310	0.118390	0.557690
C4281	C428	0.094920	0.028360	0.551760
N4291	N429	0.292420	0.083830	0.549490
C4301	C430	0.264660	0.125710	0.514700
N4311	N431	0.535410	0.989940	0.408810
C4321	C432	0.523770	0.059140	0.375290
In4331	In433	0.873960	0.370400	0.693830
In4341	In434	0.095290	0.374800	0.911930
In4351	In435	0.693900	0.631650	0.851750
O4361	O436	0.720970	0.507060	0.833530
O4371	O437	0.128300	0.579160	0.933980
O4381	O438	0.082260	0.625340	0.659220
O4391	O439	0.066090	0.490320	0.942510
O4401	O440	0.145610	0.552370	0.682730
O4411	O441	0.096710	0.464400	0.859930
O4421	O442	0.847300	0.495330	0.711640
O4431	O443	0.931370	0.435790	0.678880
O4441	O444	0.826510	0.383890	0.415530
O4451	O445	0.056610	0.346920	0.858190
O4461	O446	0.759290	0.354170	0.401460
O4471	O447	0.740150	0.674360	0.809190
O4481	O448	0.924940	0.352730	0.736460
O4491	O449	0.834250	0.328470	0.742760
O4501	O450	0.951910	0.670890	0.047910
O4511	O451	0.638500	0.354400	0.536860
O4521	O452	0.687990	0.426570	0.890300
O4531	O453	0.660770	0.404230	0.597930
O4541	O454	0.829180	0.386680	0.641060
O4551	O455	0.877850	0.372490	0.582710
O4561	O456	0.873340	0.574960	0.651100
C4571	C457	0.069610	0.417050	0.836700
C4581	C458	0.720450	0.376750	0.542920
C4591	C459	0.766290	0.334760	0.809190
H4601	H460	0.778520	0.399350	0.795920
C4611	C461	0.088880	0.575620	0.945100
C4621	C462	0.806340	0.667810	0.741230
H4631	H463	0.794030	0.603260	0.754630
C4641	C464	0.756080	0.380640	0.574360
H4651	H465	0.748270	0.383400	0.609900
C4661	C466	0.731250	0.370560	0.496580
H4671	H467	0.704290	0.367200	0.472150
C4681	C468	0.801570	0.378970	0.560620
C4691	C469	0.787790	0.369520	0.431950
C4701	C470	0.837280	0.666530	0.705440
C4711	C471	0.012540	0.410200	0.773190
H4721	H472	0.990950	0.370620	0.795260
C4731	C473	0.712150	0.425170	0.857210
C4741	C474	0.853890	0.576950	0.687140
C4751	C475	0.776570	0.371600	0.481490
C4761	C476	0.811160	0.375600	0.513980
H4771	H477	0.845830	0.375240	0.502840
C4781	C478	0.838910	0.379310	0.594910
C4791	C479	0.672390	0.378840	0.559240
C4801	C480	0.996930	0.433980	0.729670
C4811	C481	0.066020	0.663660	0.960090
C4821	C482	0.950320	0.406430	0.714430
C4831	C483	0.054910	0.440070	0.789310
C4841	C484	0.098930	0.568590	0.684370
C4851	C485	0.027320	0.664740	0.987800
H4861	H486	0.013150	0.599840	0.998650
C4871	C487	0.068980	0.514150	0.715670
C4881	C488	0.731770	0.335880	0.841570
C4891	C489	0.083060	0.490870	0.759810
H4901	H490	0.115860	0.512950	0.771350
C4911	C491	0.025400	0.486910	0.701640
H4921	H492	0.013840	0.505970	0.668390
N4931	N493	0.785930	0.450620	0.175940
C4941	C494	0.779930	0.528330	0.206350
N4951	N495	0.936040	0.553470	0.564990
C4961	C496	0.950090	0.649540	0.564270
N4971	N497	0.834860	0.556570	0.862800
C4981	C498	0.862500	0.512930	0.828430
N4991	N499	0.539550	0.470780	0.939640
C5001	C500	0.584280	0.433680	0.931420
N5011	N501	0.833510	0.375500	0.951620
C5021	C502	0.786170	0.392180	0.961200
N5031	N503	0.033820	0.502040	0.093800
C5041	C504	0.021090	0.429050	0.124940
In5051	In505	0.624220	0.630770	0.193520
In5061	In506	0.403270	0.624780	0.411870
In5071	In507	0.804260	0.369840	0.351960
O5081	O508	0.776790	0.494320	0.334070
O5091	O509	0.370350	0.420310	0.433500
O5101	O510	0.416160	0.374820	0.159020
O5111	O511	0.432470	0.509200	0.442360
O5121	O512	0.352780	0.446960	0.183080
O5131	O513	0.401810	0.535180	0.359910
O5141	O514	0.651190	0.506150	0.211320
O5151	O515	0.566790	0.565450	0.178530
O5161	O516	0.671710	0.617650	0.915340
O5171	O517	0.442030	0.652570	0.358220
O5181	O518	0.739030	0.646150	0.901160
O5191	O519	0.758030	0.327260	0.309330
O5201	O520	0.573340	0.647860	0.236330
O5211	O521	0.664100	0.672650	0.242350
O5221	O522	0.546460	0.328810	0.547790
O5231	O523	0.859840	0.645940	0.036900
O5241	O524	0.810380	0.575400	0.390270
O5251	O525	0.837440	0.595800	0.097860
O5261	O526	0.668640	0.613910	0.140500
O5271	O527	0.620620	0.637460	0.082270
O5281	O528	0.624290	0.425820	0.151400
C5291	C529	0.428960	0.582480	0.336720
C5301	C530	0.777850	0.623610	0.042720
C5311	C531	0.731790	0.666500	0.309180
H5321	H532	0.719510	0.601800	0.296040
C5331	C533	0.409710	0.423870	0.444770
C5341	C534	0.691960	0.333650	0.241210
H5351	H535	0.704430	0.398220	0.254420
C5361	C536	0.742150	0.621050	0.074120
H5371	H537	0.749890	0.619060	0.109690
C5381	C538	0.767140	0.629160	0.996320
H5391	H539	0.794130	0.631650	0.971910
C5401	C540	0.696690	0.623490	0.060300
C5411	C541	0.710530	0.631210	0.931700
C5421	C542	0.660890	0.334790	0.205550
C5431	C543	0.485910	0.589670	0.273180
H5441	H544	0.507470	0.629390	0.295230
C5451	C545	0.785910	0.576490	0.357420
C5461	C546	0.644200	0.424240	0.187190
C5471	C547	0.721820	0.628970	0.981200
C5481	C548	0.687200	0.625980	0.013660
H5491	H549	0.652570	0.626110	0.002480
C5501	C550	0.659260	0.625170	0.094460
C5511	C551	0.825890	0.621370	0.059160
C5521	C552	0.501450	0.566120	0.229620
C5531	C553	0.432540	0.335800	0.459760
C5541	C554	0.547950	0.594230	0.214260
C5551	C555	0.443620	0.559490	0.289360
C5561	C556	0.399500	0.431040	0.184470
C5571	C557	0.471130	0.334770	0.487610
H5581	H558	0.485230	0.399670	0.498530
C5591	C559	0.429500	0.485400	0.215760
C5601	C560	0.766210	0.665680	0.341690
C5611	C561	0.415500	0.508520	0.259930
H5621	H562	0.382750	0.486270	0.271530
C5631	C563	0.473020	0.512960	0.201660
H5641	H564	0.484570	0.493970	0.168430
N5651	N565	0.712040	0.551750	0.676020
C5661	C566	0.718180	0.473720	0.706220
N5671	N567	0.572700	0.453350	0.060060
C5681	C568	0.554040	0.360780	0.057750
N5691	N569	0.660960	0.433980	0.360250
C5701	C570	0.634380	0.480960	0.326100
N5711	N571	0.958600	0.532770	0.443240
C5721	C572	0.913590	0.567760	0.434350
N5731	N573	0.703460	0.585140	0.454410
C5741	C574	0.729740	0.627070	0.490320
N5751	N575	0.463420	0.493720	0.591590
C5761	C576	0.475020	0.564140	0.624520
O5771	O577	0.109010	0.249010	0.887790
O5781	O578	0.882820	0.251380	0.660610
C5791	C579	0.820300	0.251180	0.757850
C5801	C580	0.784620	0.251160	0.793340
C5811	C581	0.715430	0.251180	0.858150
H5821	H582	0.688670	0.251170	0.882860
N5831	N583	0.895410	0.249910	0.225510
C5841	C584	0.846450	0.250890	0.225260
O5851	O585	0.389470	0.750410	0.387620
O5861	O586	0.615330	0.750230	0.160580
C5871	C587	0.677970	0.749900	0.257560
C5881	C588	0.713570	0.750000	0.293080
C5891	C589	0.782330	0.750590	0.358280
H5901	H590	0.808900	0.750920	0.383190
N5911	N591	0.600470	0.752500	0.723500
C5921	C592	0.649420	0.751900	0.725040
O5931	O593	0.889670	0.748800	0.112760
O5941	O594	0.116530	0.751090	0.339740
C5951	C595	0.178670	0.751060	0.243270
C5961	C596	0.214450	0.750740	0.207880
C5971	C597	0.283720	0.750780	0.143190
H5981	H598	0.310510	0.750820	0.118510
N5991	N599	0.102740	0.749230	0.776320
C6001	C600	0.151690	0.749230	0.775060
O6011	O601	0.608690	0.251440	0.612740
O6021	O602	0.381840	0.248690	0.839650
C6031	C603	0.319860	0.248520	0.743270
C6041	C604	0.284130	0.248880	0.707810
C6051	C605	0.214900	0.249520	0.643070
H6061	H606	0.188110	0.249810	0.618390
N6071	N607	0.395590	0.249390	0.276960
C6081	C608	0.346650	0.250020	0.275340
O6091	O609	0.661630	0.751550	0.838210
C6101	C610	0.852280	0.751140	0.687460
C6111	C611	0.007760	0.749000	0.002760
C6121	C612	0.790150	0.751460	0.759020
C6131	C613	0.755070	0.751490	0.794990
C6141	C614	0.967970	0.748920	0.034830
C6151	C615	0.084740	0.749040	0.947050
H6161	H616	0.114310	0.749050	0.925780
N6171	N617	0.536280	0.730920	0.023040
C6181	C618	0.564010	0.768680	0.987130
O6191	O619	0.836640	0.250130	0.338090
C6201	C620	0.645790	0.250150	0.187730
C6211	C621	0.490640	0.250560	0.502640
C6221	C622	0.708090	0.250070	0.259120
C6231	C623	0.743160	0.250120	0.295080
C6241	C624	0.530390	0.250750	0.534740
C6251	C625	0.413900	0.250440	0.446620
H6261	H626	0.384440	0.250410	0.425180
N6271	N627	0.978640	0.266060	0.596110
C6281	C628	0.973170	0.263230	0.547400
O6291	O629	0.336790	0.250520	0.162520
C6301	C630	0.144920	0.250190	0.311870
C6311	C631	0.990950	0.248800	0.997930
C6321	C632	0.207860	0.250590	0.241030
C6331	C633	0.243160	0.250700	0.205280
C6341	C634	0.030780	0.248740	0.965910
C6351	C635	0.913700	0.248860	0.053260
H6361	H636	0.884000	0.248890	0.074350
N6371	N637	0.477560	0.255130	0.918230
C6381	C638	0.469210	0.231370	0.965070
O6391	O639	0.161610	0.749350	0.662530
C6401	C640	0.353660	0.749410	0.811140
C6411	C641	0.507330	0.751310	0.497970
C6421	C642	0.290730	0.749390	0.740370
C6431	C643	0.255280	0.749340	0.704830
C6441	C644	0.467630	0.751200	0.465820
C6451	C645	0.584250	0.751310	0.553720
H6461	H646	0.613810	0.751290	0.575020
N6471	N647	0.023720	0.743880	0.428440
C6481	C648	0.040340	0.764910	0.473420
H6491	H649	0.772740	0.035640	0.143250
H6501	H650	0.820980	0.065310	0.170720
H6511	H651	0.798140	0.913930	0.192990
H6521	H652	0.743860	0.959730	0.208740
H6531	H653	0.793640	0.994310	0.239250
H6541	H654	0.983110	0.010920	0.539530
H6551	H655	0.965210	0.034610	0.592780
H6561	H656	0.981060	0.847620	0.554680
H6571	H657	0.962970	0.873680	0.611350
H6581	H658	0.018140	0.908580	0.592390
H6591	H659	0.821840	0.880140	0.850380
H6601	H660	0.810430	0.986760	0.871640
H6611	H661	0.841840	0.001760	0.798280
H6621	H662	0.889360	0.933520	0.815660
H6631	H663	0.879830	0.046240	0.840070
H6641	H664	0.551410	0.083450	0.910920
H6651	H665	0.563640	0.005020	0.951940
H6661	H666	0.613190	0.179540	0.934000
H6671	H667	0.626290	0.096210	0.977310
H6681	H668	0.573960	0.159490	0.979380
H6691	H669	0.787250	0.044160	0.946390
H6701	H670	0.824530	0.122770	0.967170
H6711	H671	0.772800	0.077300	0.024840
H6721	H672	0.726770	0.110410	0.988550
H6731	H673	0.765250	0.196730	0.009690
H6741	H674	0.016920	0.931070	0.096750
H6751	H675	0.070250	0.973880	0.095110
H6761	H676	0.987770	0.079260	0.119750
H6771	H677	0.044610	0.123090	0.118940
H6781	H678	0.028810	0.034330	0.158640
H6791	H679	0.726150	0.964570	0.643850
H6801	H680	0.677480	0.936430	0.670950
H6811	H681	0.754710	0.041410	0.709150
H6821	H682	0.704590	0.008200	0.739460
H6831	H683	0.700720	0.087750	0.692790
H6841	H684	0.544680	0.980430	0.088810
H6851	H685	0.581800	0.052710	0.062800
H6861	H686	0.485220	0.090700	0.082140
H6871	H687	0.523310	0.166750	0.052870
H6881	H688	0.533080	0.138760	0.111360
H6891	H689	0.687490	0.003300	0.374250
H6901	H690	0.643020	0.066940	0.392990
H6911	H691	0.657420	0.000020	0.299400
H6921	H692	0.610810	0.069180	0.318240
H6931	H693	0.618240	0.953180	0.339480
H6941	H694	0.951800	0.887340	0.476420
H6951	H695	0.945640	0.000610	0.462310
H6961	H696	0.875380	0.920570	0.455550
H6971	H697	0.901970	0.841070	0.416950
H6981	H698	0.895780	0.960940	0.401710
H6991	H699	0.733110	0.834110	0.442320
H7001	H700	0.715470	0.943510	0.453650
H7011	H701	0.787440	0.919220	0.487220
H7021	H702	0.765600	0.818530	0.515440
H7031	H703	0.744520	0.931130	0.529940
H7041	H704	0.478010	0.946230	0.582450
H7051	H705	0.481980	0.020530	0.625510
H7061	H706	0.482900	0.816950	0.632200
H7071	H707	0.486620	0.896540	0.678740
H7081	H708	0.530710	0.893380	0.636870
H7091	H709	0.178120	0.561370	0.829020
H7101	H710	0.227380	0.607530	0.810090
H7111	H711	0.203440	0.486090	0.760950
H7121	H712	0.201840	0.409030	0.808720
H7131	H713	0.254830	0.456220	0.789920
H7141	H714	0.106300	0.465060	0.455580
H7151	H715	0.053730	0.495120	0.473280
H7161	H716	0.064100	0.331200	0.478690
H7171	H717	0.077840	0.329030	0.419500
H7181	H718	0.021900	0.360870	0.437400
H7191	H719	0.145540	0.438610	0.109960
H7201	H720	0.183920	0.405200	0.149320
H7211	H721	0.112270	0.429430	0.184190
H7221	H722	0.111960	0.545690	0.161970
H7231	H723	0.153230	0.512340	0.203080
H7241	H724	0.478890	0.516920	0.087890
H7251	H725	0.457990	0.623860	0.076580
H7261	H726	0.417230	0.445150	0.048670
H7271	H727	0.394810	0.558560	0.037320
H7281	H728	0.398470	0.517400	0.094500
H7291	H729	0.207420	0.652860	0.062450
H7301	H730	0.230030	0.545540	0.056950
H7311	H731	0.217110	0.682930	0.983620
H7321	H732	0.239990	0.568580	0.976980
H7331	H733	0.269820	0.652670	0.010280
H7341	H734	0.925040	0.467140	0.909530
H7351	H735	0.961740	0.517190	0.946080
H7361	H736	0.968090	0.522040	0.846070
H7371	H737	0.006550	0.575740	0.884990
H7381	H738	0.948990	0.614980	0.881830
H7391	H739	0.270700	0.390030	0.311390
H7401	H740	0.270800	0.464030	0.355940
H7411	H741	0.294650	0.508860	0.261020
H7421	H742	0.297270	0.587850	0.307990
H7431	H743	0.243750	0.541510	0.290160
H7441	H744	0.438550	0.521650	0.906710
H7451	H745	0.392640	0.541010	0.939970
H7461	H746	0.424860	0.684340	0.915670
H7471	H747	0.477750	0.649210	0.940100
H7481	H748	0.429550	0.669240	0.975830
H7491	H749	0.353800	0.560610	0.607600
H7501	H750	0.316170	0.601420	0.646030
H7511	H751	0.383020	0.451760	0.661360
H7521	H752	0.342670	0.493590	0.701610
H7531	H753	0.386590	0.569000	0.681930
H7541	H754	0.057380	0.544620	0.577520
H7551	H755	0.022460	0.456560	0.588370
H7561	H756	0.115230	0.442450	0.553150
H7571	H757	0.077700	0.347140	0.563300
H7581	H758	0.096300	0.417590	0.609900
H7591	H759	0.263120	0.334080	0.559340
H7601	H760	0.280000	0.443620	0.547260
H7611	H761	0.228820	0.317030	0.487150
H7621	H762	0.249040	0.429840	0.471780
H7631	H763	0.207290	0.417710	0.515630
H7641	H764	0.532690	0.482930	0.444380
H7651	H765	0.518760	0.569920	0.408300
H7661	H766	0.546980	0.380430	0.382010
H7671	H767	0.530820	0.472470	0.344310
H7681	H768	0.489980	0.423460	0.382240
H7691	H769	0.178570	0.938850	0.828080
H7701	H770	0.228570	0.962710	0.853700
H7711	H771	0.202540	0.091000	0.808400
H7721	H772	0.203580	0.015440	0.760050
H7731	H773	0.255280	0.043820	0.788850
H7741	H774	0.033890	0.019720	0.461110
H7751	H775	0.081620	0.073020	0.442900
H7761	H776	0.989270	0.108010	0.407860
H7771	H777	0.040170	0.167570	0.391900
H7781	H778	0.018390	0.178550	0.448530
H7791	H779	0.190380	0.031070	0.125650
H7801	H780	0.172470	0.132020	0.148940
H7811	H781	0.160170	0.003870	0.199190
H7821	H782	0.126280	0.950380	0.156320
H7831	H783	0.108470	0.057630	0.181900
H7841	H784	0.437500	0.861400	0.013870
H7851	H785	0.471610	0.895680	0.056910
H7861	H786	0.396060	0.873030	0.083100
H7871	H787	0.376970	0.955110	0.041430
H7881	H788	0.412930	0.992320	0.086940
H7891	H789	0.177820	0.944490	0.029620
H7901	H790	0.192070	0.887870	0.077930
H7911	H791	0.238930	0.870020	0.989730
H7921	H792	0.254570	0.815000	0.042110
H7931	H793	0.257900	0.938470	0.036790
H7941	H794	0.927000	0.027970	0.908760
H7951	H795	0.980530	0.069830	0.907860
H7961	H796	0.967950	0.973670	0.843530
H7971	H797	0.951670	0.881160	0.880920
H7981	H798	0.008800	0.923470	0.881100
H7991	H799	0.270870	0.036350	0.354770
H8001	H800	0.271630	0.107770	0.309250
H8011	H801	0.296350	0.908860	0.308640
H8021	H802	0.294730	0.985210	0.260610
H8031	H803	0.243380	0.956280	0.289900
H8041	H804	0.478330	0.003910	0.939730
H8051	H805	0.428260	0.962470	0.923640
H8061	H806	0.517560	0.883090	0.903230
H8071	H807	0.464740	0.840330	0.881870
H8081	H808	0.475830	0.839130	0.941760
H8091	H809	0.358100	0.911550	0.612120
H8101	H810	0.311520	0.966820	0.632060
H8111	H811	0.380880	0.046330	0.651790
H8121	H812	0.397330	0.944080	0.682520
H8131	H813	0.348540	0.008890	0.699760
H8141	H814	0.097260	0.160100	0.574800
H8151	H815	0.046700	0.109930	0.579040
H8161	H816	0.126480	0.035370	0.532110
H8171	H817	0.071650	0.982360	0.533210
H8181	H818	0.102530	0.997350	0.585040
H8191	H819	0.320290	0.052200	0.534650
H8201	H820	0.273500	0.034670	0.566770
H8211	H821	0.252380	0.072140	0.491050
H8221	H822	0.284650	0.177090	0.495570
H8231	H823	0.235260	0.160500	0.530270
H8241	H824	0.528420	0.015530	0.440890
H8251	H825	0.569600	0.974430	0.406560
H8261	H826	0.487620	0.077340	0.378030
H8271	H827	0.530290	0.031970	0.340990
H8281	H828	0.544250	0.122180	0.380570
H8291	H829	0.770880	0.392120	0.189770
H8301	H830	0.820240	0.438450	0.171260
H8311	H831	0.794450	0.511870	0.239830
H8321	H832	0.743580	0.543670	0.210430
H8331	H833	0.797060	0.590200	0.192590
H8341	H834	0.953870	0.516520	0.540700
H8351	H835	0.901640	0.549480	0.558110
H8361	H836	0.942910	0.680210	0.530800
H8371	H837	0.986700	0.654610	0.571170
H8381	H838	0.931560	0.688990	0.590370
H8391	H839	0.821610	0.617960	0.850150
H8401	H840	0.854500	0.570630	0.891130
H8411	H841	0.841680	0.496130	0.798700
H8421	H842	0.877400	0.448250	0.841650
H8431	H843	0.889810	0.560280	0.817800
H8441	H844	0.520570	0.466660	0.910170
H8451	H845	0.542240	0.539520	0.949690
H8461	H846	0.581900	0.360190	0.921340
H8471	H847	0.605070	0.439040	0.962340
H8481	H848	0.600870	0.473000	0.904060
H8491	H849	0.844220	0.316970	0.969050
H8501	H850	0.852440	0.432400	0.961870
H8511	H851	0.765640	0.332730	0.949800
H8521	H852	0.774590	0.454890	0.943280
H8531	H853	0.781220	0.402050	0.997930
H8541	H854	0.068680	0.510290	0.094110
H8551	H855	0.018450	0.563630	0.103450
H8561	H856	0.031050	0.447960	0.159730
H8571	H857	0.038000	0.363690	0.115400
H8581	H858	0.984140	0.418450	0.124100
H8591	H859	0.727770	0.538040	0.645320
H8601	H860	0.726240	0.610580	0.690420
H8611	H861	0.754580	0.459700	0.710920
H8621	H862	0.701880	0.411470	0.691870
H8631	H863	0.702890	0.489000	0.739470
H8641	H864	0.607710	0.449900	0.057500
H8651	H865	0.563700	0.483630	0.090630
H8661	H866	0.566910	0.318650	0.086150
H8671	H867	0.563880	0.327510	0.025580
H8681	H868	0.516770	0.363790	0.059730
H8691	H869	0.640740	0.419260	0.388080
H8701	H870	0.687550	0.476420	0.370070
H8711	H871	0.607730	0.434400	0.313180
H8721	H872	0.656240	0.501720	0.297750
H8731	H873	0.618660	0.543760	0.340470
H8741	H874	0.956310	0.467020	0.457340
H8751	H875	0.975080	0.576850	0.465570
H8761	H876	0.896060	0.521690	0.410280
H8771	H877	0.915590	0.638000	0.419680
H8781	H878	0.893960	0.570720	0.466110
H8791	H879	0.723470	0.537650	0.437260
H8801	H880	0.692700	0.636180	0.432090
H8811	H881	0.759510	0.662620	0.475930
H8821	H882	0.741430	0.573390	0.514210
H8831	H883	0.708840	0.677790	0.508880
H8841	H884	0.470810	0.517740	0.559330
H8851	H885	0.429130	0.478940	0.593640
H8861	H886	0.454890	0.627330	0.618370
H8871	H887	0.511280	0.581560	0.621960
H8881	H888	0.468060	0.538600	0.659020
H8891	H889	0.906890	0.190710	0.209150
H8901	H890	0.906920	0.250070	0.258730
H8911	H891	0.833310	0.188890	0.242750
H8921	H892	0.833860	0.251120	0.190090
H8931	H893	0.833920	0.313440	0.242720
H8941	H894	0.589480	0.811400	0.706560
H8951	H895	0.587760	0.752620	0.756270
H8961	H896	0.663280	0.752100	0.690340
H8971	H897	0.661440	0.689280	0.742800
H8981	H898	0.661800	0.813820	0.743130
H8991	H899	0.090210	0.748950	0.743470
H9001	H900	0.091490	0.808130	0.793090
H9011	H901	0.163970	0.811320	0.757040
H9021	H902	0.163990	0.686780	0.757350
H9031	H903	0.165350	0.749600	0.809830
H9041	H904	0.406520	0.190440	0.293900
H9051	H905	0.406880	0.307950	0.293990
H9061	H906	0.334320	0.188100	0.257220
H9071	H907	0.334670	0.312660	0.257580
H9081	H908	0.332740	0.249730	0.310020
H9091	H909	0.876280	0.750980	0.660070
H9101	H910	0.502400	0.742370	0.015700
H9111	H911	0.544450	0.763010	0.053420
H9121	H912	0.559100	0.844340	0.984950
H9131	H913	0.554680	0.736860	0.954450
H9141	H914	0.599960	0.754140	0.993970
H9151	H915	0.621710	0.250200	0.160400
H9161	H916	0.963180	0.208560	0.610490
H9171	H917	0.963860	0.325990	0.608720
H9181	H918	0.989120	0.200180	0.533570
H9191	H919	0.989120	0.324640	0.531860
H9201	H920	0.936900	0.262460	0.538560
H9211	H921	0.120630	0.249930	0.339010
H9221	H922	0.462960	0.204110	0.898190
H9231	H923	0.512230	0.251640	0.912820
H9241	H924	0.482580	0.161640	0.972620
H9251	H925	0.432530	0.232630	0.971880
H9261	H926	0.485820	0.282300	0.987330
H9271	H927	0.377920	0.749490	0.838310
H9281	H928	0.038350	0.788720	0.405170
H9291	H929	0.988800	0.751630	0.427750
H9301	H930	0.077220	0.753620	0.475110
H9311	H931	0.023770	0.719660	0.498520
H9321	H932	0.033190	0.837920	0.481890
H9331	H933	0.856110	0.926760	0.890380
H9341	H934	0.966570	0.982370	0.943660
H9351	H935	0.979210	0.429340	0.912070
H9361	H936	0.808630	0.512340	0.871650
H9371	H937	0.727290	0.890030	0.688180
H9381	H938	0.942610	0.525480	0.596670
H9391	H939	0.012830	0.265820	0.604120
H9401	H940	0.976640	0.529440	0.413150
H9411	H941	0.970870	0.926210	0.425640
H9421	H942	0.770980	0.465500	0.144980
H9431	H943	0.559990	0.493000	0.033690
H9441	H944	0.475980	0.554770	0.033740
H9451	H945	0.453850	0.973850	0.017820
H9461	H946	0.542170	0.660240	0.025670
H9471	H947	0.180240	0.571160	0.031300
H9481	H948	0.173820	0.827330	0.032240
H9491	H949	0.023590	0.484420	0.061340
H9501	H950	0.330370	0.869450	0.657990
H9511	H951	0.692750	0.852640	0.482110
H9521	H952	0.675580	0.551590	0.468180
H9531	H953	0.677720	0.562620	0.670690
H9541	H954	0.589140	0.693890	0.706540
H9551	H955	0.320100	0.436260	0.329910
H9561	H956	0.311890	0.490810	0.627030
H9571	H957	0.302370	0.352810	0.518480
H9581	H958	0.320520	0.060790	0.328600
H9591	H959	0.303210	0.134590	0.571960
H9601	H960	0.227500	0.535240	0.855310
H9611	H961	0.091500	0.690620	0.793330
H9621	H962	0.031940	0.676040	0.420140
H9631	H963	0.227170	0.892020	0.807910
H9641	H964	0.065770	0.493250	0.417210
H9651	H965	0.408370	0.249330	0.244220
H9661	H966	0.516620	0.930300	0.403100
H9671	H967	0.673720	0.372710	0.346990
H9681	H968	0.572200	0.527430	0.409120
H9691	H969	0.679480	0.112670	0.354740
H9701	H970	0.930810	0.977010	0.556420
H9711	H971	0.184740	0.515130	0.129020
H9721	H972	0.141220	0.079840	0.108090
H9731	H973	0.481870	0.433980	0.598090
H9741	H974	0.523750	0.432620	0.964860
H9751	H975	0.442310	0.507220	0.963380
H9761	H976	0.837740	0.365190	0.917080
H9771	H977	0.781670	0.157810	0.933010
H9781	H978	0.030690	0.014840	0.058860
H9791	H979	0.537210	0.009200	0.033660
H9801	H980	0.770760	0.111060	0.187190
H9811	H981	0.907460	0.308220	0.208810
H9821	H982	0.051580	0.004740	0.407030
H9831	H983	0.600710	0.023530	0.909160
