data_IZEQUB_freeONLY_PM
_symmetry_space_group_name_H-M	'P1'
_cell_length_a	27.266200
_cell_length_b	11.539600
_cell_length_c	13.967800
_cell_angle_alpha	90.000000
_cell_angle_beta	90.000000
_cell_angle_gamma	90.000000
_symmetry_Int_Tables_number 1

loop_
_symmetry_equiv_pos_as_xyz
'x,y,z'

loop_
_atom_site_label
_atom_site_type_symbol
_atom_site_fract_x
_atom_site_fract_y
_atom_site_fract_z
O11	O1	0.056170	0.967400	0.278200
O21	O2	0.052500	0.062300	0.415700
C11	C1	0.072200	0.037100	0.338700
C21	C2	0.205040	0.222300	0.274700
C31	C3	0.294860	0.476800	0.227200
C41	C4	0.119700	0.098800	0.316500
C51	C5	0.184100	0.226200	0.364600
H11	H1	0.199400	0.271600	0.413800
C61	C6	0.142000	0.166600	0.384900
H21	H2	0.127800	0.172200	0.447600
C71	C7	0.182400	0.154300	0.205700
H31	H3	0.196200	0.149600	0.142600
C81	C8	0.140200	0.093200	0.227000
H41	H4	0.125100	0.046300	0.178500
C91	C9	0.331900	0.493400	0.291000
H51	H5	0.330600	0.455200	0.352000
C101	C10	0.299000	0.529000	0.139700
H61	H6	0.273600	0.519100	0.092800
C111	C11	0.339800	0.596400	0.118100
H71	H7	0.342400	0.631100	0.055800
C121	C12	0.376190	0.614200	0.183600
C131	C13	0.419470	0.690200	0.158600
C141	C14	0.370800	0.562800	0.270500
H81	H8	0.395100	0.576100	0.319000
O31	O3	0.446570	0.721700	0.225800
O41	O4	0.425210	0.714700	0.072500
O51	O5	0.443830	0.032600	0.778200
O61	O6	0.447500	0.937700	0.915700
C151	C15	0.427800	0.962900	0.838700
C161	C16	0.294960	0.777700	0.774700
C171	C17	0.205140	0.523200	0.727200
C181	C18	0.380300	0.901200	0.816500
C191	C19	0.315900	0.773800	0.864600
H91	H9	0.300600	0.728400	0.913800
C201	C20	0.358000	0.833400	0.884900
H101	H10	0.372200	0.827800	0.947600
C211	C21	0.317600	0.845700	0.705700
H111	H11	0.303800	0.850400	0.642600
C221	C22	0.359800	0.906800	0.727000
H121	H12	0.374900	0.953700	0.678500
C231	C23	0.168100	0.506600	0.791000
H131	H13	0.169400	0.544800	0.852000
C241	C24	0.201000	0.471000	0.639700
H141	H14	0.226400	0.480900	0.592800
C251	C25	0.160200	0.403600	0.618100
H151	H15	0.157600	0.368900	0.555800
C261	C26	0.123810	0.385800	0.683600
C271	C27	0.080530	0.309800	0.658600
C281	C28	0.129200	0.437200	0.770500
H161	H16	0.104900	0.423900	0.819000
O71	O7	0.053430	0.278300	0.725800
O81	O8	0.074790	0.285300	0.572500
O91	O9	0.443830	0.967400	0.221800
O101	O10	0.447500	0.062300	0.084300
C291	C29	0.427800	0.037100	0.161300
C301	C30	0.294960	0.222300	0.225300
C311	C31	0.205140	0.476800	0.272800
C321	C32	0.380300	0.098800	0.183500
C331	C33	0.315900	0.226200	0.135400
H171	H17	0.300600	0.271600	0.086200
C341	C34	0.358000	0.166600	0.115100
H181	H18	0.372200	0.172200	0.052400
C351	C35	0.317600	0.154300	0.294300
H191	H19	0.303800	0.149600	0.357400
C361	C36	0.359800	0.093200	0.273000
H201	H20	0.374900	0.046300	0.321500
C371	C37	0.168100	0.493400	0.209000
H211	H21	0.169400	0.455200	0.148000
C381	C38	0.201000	0.529000	0.360300
H221	H22	0.226400	0.519100	0.407200
C391	C39	0.160200	0.596400	0.381900
H231	H23	0.157600	0.631100	0.444200
C401	C40	0.123810	0.614200	0.316400
C411	C41	0.080530	0.690200	0.341400
C421	C42	0.129200	0.562800	0.229500
H241	H24	0.104900	0.576100	0.181000
O111	O11	0.053430	0.721700	0.274200
O121	O12	0.074790	0.714700	0.427500
O131	O13	0.056170	0.032600	0.721800
O141	O14	0.052500	0.937700	0.584300
C431	C43	0.072200	0.962900	0.661300
C441	C44	0.205040	0.777700	0.725300
C451	C45	0.294860	0.523200	0.772800
C461	C46	0.119700	0.901200	0.683500
C471	C47	0.184100	0.773800	0.635400
H251	H25	0.199400	0.728400	0.586200
C481	C48	0.142000	0.833400	0.615100
H261	H26	0.127800	0.827800	0.552400
C491	C49	0.182400	0.845700	0.794300
H271	H27	0.196200	0.850400	0.857400
C501	C50	0.140200	0.906800	0.773000
H281	H28	0.125100	0.953700	0.821500
C511	C51	0.331900	0.506600	0.709000
H291	H29	0.330600	0.544800	0.648000
C521	C52	0.299000	0.471000	0.860300
H301	H30	0.273600	0.480900	0.907200
C531	C53	0.339800	0.403600	0.881900
H311	H31	0.342400	0.368900	0.944200
C541	C54	0.376190	0.385800	0.816400
C551	C55	0.419470	0.309800	0.841400
C561	C56	0.370800	0.437200	0.729500
H321	H32	0.395100	0.423900	0.681000
O151	O15	0.446570	0.278300	0.774200
O161	O16	0.425210	0.285300	0.927500
O171	O17	0.943830	0.032600	0.721800
O181	O18	0.947500	0.937700	0.584300
C571	C57	0.927800	0.962900	0.661300
C581	C58	0.794960	0.777700	0.725300
C591	C59	0.705140	0.523200	0.772800
C601	C60	0.880300	0.901200	0.683500
C611	C61	0.815900	0.773800	0.635400
H331	H33	0.800600	0.728400	0.586200
C621	C62	0.858000	0.833400	0.615100
H341	H34	0.872200	0.827800	0.552400
C631	C63	0.817600	0.845700	0.794300
H351	H35	0.803800	0.850400	0.857400
C641	C64	0.859800	0.906800	0.773000
H361	H36	0.874900	0.953700	0.821500
C651	C65	0.668100	0.506600	0.709000
H371	H37	0.669400	0.544800	0.648000
C661	C66	0.701000	0.471000	0.860300
H381	H38	0.726400	0.480900	0.907200
C671	C67	0.660200	0.403600	0.881900
H391	H39	0.657600	0.368900	0.944200
C681	C68	0.623810	0.385800	0.816400
C691	C69	0.580530	0.309800	0.841400
C701	C70	0.629200	0.437200	0.729500
H401	H40	0.604900	0.423900	0.681000
O191	O19	0.553430	0.278300	0.774200
O201	O20	0.574790	0.285300	0.927500
O211	O21	0.556170	0.967400	0.221800
O221	O22	0.552500	0.062300	0.084300
C711	C71	0.572200	0.037100	0.161300
C721	C72	0.705040	0.222300	0.225300
C731	C73	0.794860	0.476800	0.272800
C741	C74	0.619700	0.098800	0.183500
C751	C75	0.684100	0.226200	0.135400
H411	H41	0.699400	0.271600	0.086200
C761	C76	0.642000	0.166600	0.115100
H421	H42	0.627800	0.172200	0.052400
C771	C77	0.682400	0.154300	0.294300
H431	H43	0.696200	0.149600	0.357400
C781	C78	0.640200	0.093200	0.273000
H441	H44	0.625100	0.046300	0.321500
C791	C79	0.831900	0.493400	0.209000
H451	H45	0.830600	0.455200	0.148000
C801	C80	0.799000	0.529000	0.360300
H461	H46	0.773600	0.519100	0.407200
C811	C81	0.839800	0.596400	0.381900
H471	H47	0.842400	0.631100	0.444200
C821	C82	0.876190	0.614200	0.316400
C831	C83	0.919470	0.690200	0.341400
C841	C84	0.870800	0.562800	0.229500
H481	H48	0.895100	0.576100	0.181000
O231	O23	0.946570	0.721700	0.274200
O241	O24	0.925210	0.714700	0.427500
O251	O25	0.556170	0.032600	0.778200
O261	O26	0.552500	0.937700	0.915700
C851	C85	0.572200	0.962900	0.838700
C861	C86	0.705040	0.777700	0.774700
C871	C87	0.794860	0.523200	0.727200
C881	C88	0.619700	0.901200	0.816500
C891	C89	0.684100	0.773800	0.864600
H491	H49	0.699400	0.728400	0.913800
C901	C90	0.642000	0.833400	0.884900
H501	H50	0.627800	0.827800	0.947600
C911	C91	0.682400	0.845700	0.705700
H511	H51	0.696200	0.850400	0.642600
C921	C92	0.640200	0.906800	0.727000
H521	H52	0.625100	0.953700	0.678500
C931	C93	0.831900	0.506600	0.791000
H531	H53	0.830600	0.544800	0.852000
C941	C94	0.799000	0.471000	0.639700
H541	H54	0.773600	0.480900	0.592800
C951	C95	0.839800	0.403600	0.618100
H551	H55	0.842400	0.368900	0.555800
C961	C96	0.876190	0.385800	0.683600
C971	C97	0.919470	0.309800	0.658600
C981	C98	0.870800	0.437200	0.770500
H561	H56	0.895100	0.423900	0.819000
O271	O27	0.946570	0.278300	0.725800
O281	O28	0.925210	0.285300	0.572500
O291	O29	0.943830	0.967400	0.278200
O301	O30	0.947500	0.062300	0.415700
C991	C99	0.927800	0.037100	0.338700
C1001	C100	0.794960	0.222300	0.274700
C1011	C101	0.705140	0.476800	0.227200
C1021	C102	0.880300	0.098800	0.316500
C1031	C103	0.815900	0.226200	0.364600
H571	H57	0.800600	0.271600	0.413800
C1041	C104	0.858000	0.166600	0.384900
H581	H58	0.872200	0.172200	0.447600
C1051	C105	0.817600	0.154300	0.205700
H591	H59	0.803800	0.149600	0.142600
C1061	C106	0.859800	0.093200	0.227000
H601	H60	0.874900	0.046300	0.178500
C1071	C107	0.668100	0.493400	0.291000
H611	H61	0.669400	0.455200	0.352000
C1081	C108	0.701000	0.529000	0.139700
H621	H62	0.726400	0.519100	0.092800
C1091	C109	0.660200	0.596400	0.118100
H631	H63	0.657600	0.631100	0.055800
C1101	C110	0.623810	0.614200	0.183600
C1111	C111	0.580530	0.690200	0.158600
C1121	C112	0.629200	0.562800	0.270500
H641	H64	0.604900	0.576100	0.319000
O311	O31	0.553430	0.721700	0.225800
O321	O32	0.574790	0.714700	0.072500
Ni11	Ni1	0.000000	0.850300	0.281370
O331	O33	0.000000	0.844200	0.429500
O341	O34	0.000000	0.849900	0.134600
Ni21	Ni2	0.500000	0.149700	0.781370
O351	O35	0.500000	0.155800	0.929500
O361	O36	0.500000	0.150100	0.634600
Ni31	Ni3	0.500000	0.850300	0.218630
O371	O37	0.500000	0.844200	0.070500
O381	O38	0.500000	0.849900	0.365400
Ni41	Ni4	0.000000	0.149700	0.718630
O391	O39	0.000000	0.155800	0.570500
O401	O40	0.000000	0.150100	0.865400
Ni51	Ni5	0.000000	0.000000	0.500000
Ni61	Ni6	0.500000	0.000000	0.000000
C1131	C113	0.250000	0.289500	0.250000
C1141	C114	0.250000	0.406600	0.250000
C1151	C115	0.250000	0.710500	0.750000
C1161	C116	0.250000	0.593400	0.750000
C1171	C117	0.750000	0.710500	0.750000
C1181	C118	0.750000	0.593400	0.750000
C1191	C119	0.750000	0.289500	0.250000
C1201	C120	0.750000	0.406600	0.250000
