data_IZOTUM_freeONLY_PM
_symmetry_space_group_name_H-M	'P1'
_cell_length_a	10.014400
_cell_length_b	10.126000
_cell_length_c	20.436300
_cell_angle_alpha	90.000000
_cell_angle_beta	90.000000
_cell_angle_gamma	90.000000
_symmetry_Int_Tables_number 1

loop_
_symmetry_equiv_pos_as_xyz
'x,y,z'

loop_
_atom_site_label
_atom_site_type_symbol
_atom_site_fract_x
_atom_site_fract_y
_atom_site_fract_z
C11	C1	0.671800	0.025900	0.135000
H11	H1	0.634100	0.091000	0.104000
H21	H2	0.596500	0.983200	0.158200
Ag11	Ag1	0.005380	0.232040	0.272500
Ag21	Ag2	0.509640	0.234170	0.521650
N11	N1	0.588300	0.382900	0.447300
C21	C2	0.731000	0.546000	0.380300
H31	H3	0.767000	0.615400	0.409400
H41	H4	0.675000	0.588800	0.346400
C31	C3	0.653000	0.454800	0.417100
N21	N2	0.112300	0.064900	0.320300
N31	N3	0.420000	0.069000	0.459800
C41	C4	0.843600	0.471900	0.348400
C51	C5	0.290800	0.457100	0.117200
H51	H5	0.368900	0.489300	0.142200
H61	H6	0.323500	0.403300	0.080000
C61	C6	0.745700	0.926400	0.098700
C71	C7	0.293500	0.918600	0.376000
H71	H7	0.251600	0.841600	0.397700
H81	H8	0.357400	0.885800	0.342700
C81	C8	0.203500	0.376200	0.159900
C91	C9	0.363000	0.000200	0.424200
C101	C10	0.190700	0.000900	0.344700
C111	C11	0.754100	0.093700	0.181800
C121	C12	0.212100	0.569700	0.092800
N41	N4	0.138400	0.312400	0.190300
N51	N5	0.923900	0.410500	0.325000
N61	N6	0.821200	0.147400	0.217000
N71	N7	0.809600	0.851000	0.072300
N81	N8	0.155000	0.658500	0.074400
C131	C13	0.828200	0.974100	0.635000
H91	H9	0.865900	0.909000	0.604000
H101	H10	0.903500	0.016800	0.658200
Ag31	Ag3	0.494620	0.767960	0.772500
Ag41	Ag4	0.990360	0.765830	0.021650
N91	N9	0.911700	0.617100	0.947300
C141	C14	0.769000	0.454000	0.880300
H111	H11	0.733000	0.384600	0.909400
H121	H12	0.825000	0.411200	0.846400
C151	C15	0.847000	0.545200	0.917100
N101	N10	0.387700	0.935100	0.820300
N111	N11	0.080000	0.931000	0.959800
C161	C16	0.656400	0.528100	0.848400
C171	C17	0.209200	0.542900	0.617200
H131	H13	0.131100	0.510700	0.642200
H141	H14	0.176500	0.596700	0.580000
C181	C18	0.754300	0.073600	0.598700
C191	C19	0.206500	0.081400	0.876000
H151	H15	0.248400	0.158400	0.897700
H161	H16	0.142600	0.114200	0.842700
C201	C20	0.296500	0.623800	0.659900
C211	C21	0.137000	0.999800	0.924200
C221	C22	0.309300	0.999100	0.844700
C231	C23	0.745900	0.906300	0.681800
C241	C24	0.287900	0.430300	0.592800
N121	N12	0.361600	0.687600	0.690300
N131	N13	0.576100	0.589500	0.825000
N141	N14	0.678800	0.852600	0.717000
N151	N15	0.690400	0.149000	0.572300
N161	N16	0.345000	0.341500	0.574400
C251	C25	0.328200	0.525900	0.365000
H171	H17	0.365900	0.591000	0.396000
H181	H18	0.403500	0.483200	0.341800
Ag51	Ag5	0.994620	0.732040	0.227500
Ag61	Ag6	0.490360	0.734170	0.978350
N171	N17	0.411700	0.882900	0.052700
C261	C26	0.269000	0.046000	0.119700
H191	H19	0.233000	0.115400	0.090600
H201	H20	0.325000	0.088800	0.153600
C271	C27	0.347000	0.954800	0.082900
N181	N18	0.887700	0.564900	0.179700
N191	N19	0.580000	0.569000	0.040200
C281	C28	0.156400	0.971900	0.151600
C291	C29	0.709200	0.957100	0.382800
H211	H21	0.631100	0.989300	0.357800
H221	H22	0.676500	0.903300	0.420000
C301	C30	0.254300	0.426400	0.401300
C311	C31	0.706500	0.418600	0.124000
H231	H23	0.748400	0.341600	0.102300
H241	H24	0.642600	0.385800	0.157300
C321	C32	0.796500	0.876200	0.340100
C331	C33	0.637000	0.500200	0.075800
C341	C34	0.809300	0.500900	0.155300
C351	C35	0.245900	0.593700	0.318200
C361	C36	0.787900	0.069700	0.407200
N201	N20	0.861600	0.812400	0.309700
N211	N21	0.076100	0.910500	0.175000
N221	N22	0.178800	0.647400	0.283000
N231	N23	0.190400	0.351000	0.427700
N241	N24	0.845000	0.158500	0.425600
C371	C37	0.171800	0.474100	0.865000
H251	H25	0.134100	0.409000	0.896000
H261	H26	0.096500	0.516800	0.841800
Ag71	Ag7	0.505380	0.267960	0.727500
Ag81	Ag8	0.009640	0.265830	0.478350
N251	N25	0.088300	0.117100	0.552700
C381	C38	0.231000	0.954000	0.619700
H271	H27	0.267000	0.884600	0.590600
H281	H28	0.175000	0.911200	0.653600
C391	C39	0.153000	0.045200	0.582900
N261	N26	0.612300	0.435100	0.679700
N271	N27	0.920000	0.431000	0.540200
C401	C40	0.343600	0.028100	0.651600
C411	C41	0.790800	0.042900	0.882800
H291	H29	0.868900	0.010700	0.857800
H301	H30	0.823500	0.096700	0.920000
C421	C42	0.245700	0.573600	0.901300
C431	C43	0.793500	0.581400	0.624000
H311	H31	0.751600	0.658400	0.602300
H321	H32	0.857400	0.614200	0.657300
C441	C44	0.703500	0.123800	0.840100
C451	C45	0.863000	0.499800	0.575800
C461	C46	0.690700	0.499100	0.655300
C471	C47	0.254100	0.406300	0.818200
C481	C48	0.712100	0.930300	0.907200
N281	N28	0.638400	0.187600	0.809700
N291	N29	0.423900	0.089500	0.675000
N301	N30	0.321200	0.352600	0.783000
N311	N31	0.309600	0.649000	0.927700
N321	N32	0.655000	0.841500	0.925600
