data_IZOWAW_freeONLY_PM
_symmetry_space_group_name_H-M	'P1'
_cell_length_a	21.621200
_cell_length_b	22.550200
_cell_length_c	26.215400
_cell_angle_alpha	115.474000
_cell_angle_beta	114.354000
_cell_angle_gamma	90.000000
_symmetry_Int_Tables_number 1

loop_
_symmetry_equiv_pos_as_xyz
'x,y,z'

loop_
_atom_site_label
_atom_site_type_symbol
_atom_site_fract_x
_atom_site_fract_y
_atom_site_fract_z
Zn11	Zn1	0.812880	0.755650	0.390180
Zn21	Zn2	0.865780	0.690570	0.605360
Zn31	Zn3	0.948230	0.640590	0.100400
Zn41	Zn4	0.577300	0.634530	0.390180
Zn51	Zn5	0.739580	0.914790	0.605360
Zn61	Zn6	0.152170	0.459810	0.100400
Zn71	Zn7	0.187120	0.365470	0.609820
Zn81	Zn8	0.134220	0.085210	0.394640
Zn91	Zn9	0.051770	0.540190	0.899600
Zn101	Zn10	0.422700	0.244350	0.609820
Zn111	Zn11	0.260420	0.309430	0.394640
Zn121	Zn12	0.847830	0.359410	0.899600
Mo11	Mo1	0.702380	0.605280	0.334660
Mo21	Mo2	0.722420	0.567240	0.453240
Mo31	Mo3	0.868660	0.644680	0.454420
Mo41	Mo4	0.937080	0.766870	0.542180
Mo51	Mo5	0.895280	0.863860	0.660720
Mo61	Mo6	0.684860	0.635260	0.541320
Mo71	Mo7	0.126950	0.625000	0.163120
Mo81	Mo8	0.067400	0.675410	0.046280
Mo91	Mo9	0.868440	0.476180	0.051100
Mo101	Mo10	0.632280	0.729380	0.334660
Mo111	Mo11	0.730820	0.886000	0.453240
Mo121	Mo12	0.585760	0.809740	0.454420
Mo131	Mo13	0.605100	0.775310	0.542180
Mo141	Mo14	0.765440	0.796860	0.660720
Mo151	Mo15	0.856460	0.906060	0.541320
Mo161	Mo16	0.036170	0.538120	0.163120
Mo171	Mo17	0.978880	0.370870	0.046280
Mo181	Mo18	0.182660	0.574920	0.051100
Mo191	Mo19	0.297620	0.270620	0.665340
Mo201	Mo20	0.277580	0.114000	0.546760
Mo211	Mo21	0.131340	0.190260	0.545580
Mo221	Mo22	0.062920	0.224690	0.457820
Mo231	Mo23	0.104720	0.203140	0.339280
Mo241	Mo24	0.315140	0.093940	0.458680
Mo251	Mo25	0.873050	0.461880	0.836880
Mo261	Mo26	0.932600	0.629130	0.953720
Mo271	Mo27	0.131560	0.425080	0.948900
Mo281	Mo28	0.367720	0.394720	0.665340
Mo291	Mo29	0.269180	0.432760	0.546760
Mo301	Mo30	0.414240	0.355320	0.545580
Mo311	Mo31	0.394900	0.233130	0.457820
Mo321	Mo32	0.234560	0.136140	0.339280
Mo331	Mo33	0.143540	0.364740	0.458680
Mo341	Mo34	0.963830	0.375000	0.836880
Mo351	Mo35	0.021120	0.324590	0.953720
Mo361	Mo36	0.817340	0.523820	0.948900
H11	H1	0.010600	0.919900	0.423600
H21	H2	0.037200	0.868700	0.274200
H31	H3	0.914000	0.737000	0.266200
H41	H4	0.413000	0.503700	0.423600
H51	H5	0.237000	0.405500	0.274200
H61	H6	0.352200	0.529200	0.266200
H71	H7	0.989400	0.496300	0.576400
H81	H8	0.962800	0.594500	0.725800
H91	H9	0.086000	0.470800	0.733800
H101	H10	0.587000	0.080100	0.576400
H111	H11	0.763000	0.131300	0.725800
H121	H12	0.647800	0.263000	0.733800
C11	C1	0.950500	0.828200	0.347200
C21	C2	0.997000	0.891100	0.380800
C31	C3	0.020210	0.906510	0.347220
C41	C4	0.009800	0.859100	0.290400
C51	C5	0.964700	0.798500	0.253200
C61	C6	0.939100	0.780600	0.285000
C71	C7	0.914480	0.811380	0.378160
C81	C8	0.065400	0.976600	0.382200
C91	C9	0.963600	0.751700	0.195400
C101	C10	0.396700	0.519000	0.347200
C111	C11	0.383800	0.489700	0.380800
C121	C12	0.327010	0.440710	0.347220
C131	C13	0.280600	0.431300	0.290400
C141	C14	0.288500	0.454700	0.253200
C151	C15	0.345900	0.504400	0.285000
C161	C16	0.463680	0.566780	0.378160
C171	C17	0.316800	0.405600	0.382200
C181	C18	0.231800	0.443700	0.195400
C191	C19	0.049500	0.481000	0.652800
C201	C20	0.003000	0.510300	0.619200
C211	C21	0.979790	0.559290	0.652780
C221	C22	0.990200	0.568700	0.709600
C231	C23	0.035300	0.545300	0.746800
C241	C24	0.060900	0.495600	0.715000
C251	C25	0.085520	0.433220	0.621840
C261	C26	0.934600	0.594400	0.617800
C271	C27	0.036400	0.556300	0.804600
C281	C28	0.603300	0.171800	0.652800
C291	C29	0.616200	0.108900	0.619200
C301	C30	0.672990	0.093490	0.652780
C311	C31	0.719400	0.140900	0.709600
C321	C32	0.711500	0.201500	0.746800
C331	C33	0.654100	0.219400	0.715000
C341	C34	0.536320	0.188620	0.621840
C351	C35	0.683200	0.023400	0.617800
C361	C36	0.768200	0.248300	0.804600
O11	O1	0.668410	0.553110	0.253220
O21	O2	0.796960	0.607260	0.363120
O31	O3	0.683440	0.548540	0.362280
O41	O4	0.724850	0.694050	0.342500
O51	O5	0.706360	0.489060	0.440920
O61	O6	0.638510	0.602310	0.449420
O71	O7	0.773040	0.624970	0.543880
O81	O8	0.819770	0.566870	0.456940
O91	O9	0.939110	0.613410	0.442820
O101	O10	0.879510	0.729490	0.451020
O111	O11	0.901470	0.691970	0.548540
O121	O12	0.021700	0.762600	0.554800
O131	O13	0.956530	0.815830	0.632260
O141	O14	0.936890	0.859090	0.537780
O151	O15	0.947330	0.912730	0.742460
O161	O16	0.736140	0.705440	0.629880
O171	O17	0.855040	0.778140	0.652480
O181	O18	0.657690	0.572790	0.551380
O191	O19	0.856700	0.766200	0.340600
O201	O20	0.073390	0.996990	0.347380
O211	O21	0.176130	0.674130	0.237660
O221	O22	0.034270	0.611970	0.146540
O231	O23	0.111400	0.695700	0.135800
O241	O24	0.201670	0.606370	0.136140
O251	O25	0.085460	0.749460	0.057720
O261	O26	0.979150	0.658250	0.046100
O271	O27	0.788900	0.470100	0.053800
O281	O28	0.872530	0.559730	0.041660
O291	O29	0.915500	0.695400	0.164000
O301	O30	0.008000	0.753100	0.177400
O311	O31	0.161930	0.653730	0.049460
O321	O32	0.935240	0.843340	0.430280
O331	O33	0.088550	0.006450	0.435700
O341	O34	0.584810	0.700110	0.253220
O351	O35	0.566160	0.755860	0.363120
O361	O36	0.678840	0.813740	0.362280
O371	O37	0.617650	0.648450	0.342500
O381	O38	0.734560	0.951860	0.440920
O391	O39	0.810910	0.847110	0.449420
O401	O40	0.770840	0.918910	0.543880
O411	O41	0.637170	0.890070	0.456940
O421	O42	0.503710	0.829410	0.442820
O431	O43	0.571510	0.721530	0.451020
O441	O44	0.647070	0.856570	0.548540
O451	O45	0.533100	0.792200	0.554800
O461	O46	0.675730	0.816430	0.632260
O471	O47	0.600890	0.678690	0.537780
O481	O48	0.795130	0.829730	0.742460
O491	O49	0.893740	0.924440	0.629880
O501	O50	0.797440	0.874340	0.652480
O511	O51	0.893690	0.978590	0.551380
O521	O52	0.483900	0.574400	0.340600
O531	O53	0.273990	0.350390	0.347380
O541	O54	0.061530	0.563530	0.237660
O551	O55	0.112270	0.534570	0.146540
O561	O56	0.024400	0.440100	0.135800
O571	O57	0.934470	0.529770	0.136140
O581	O58	0.972260	0.308260	0.057720
O591	O59	0.066950	0.387850	0.046100
O601	O60	0.264900	0.583700	0.053800
O611	O61	0.169130	0.481930	0.041660
O621	O62	0.248500	0.468600	0.164000
O631	O63	0.169400	0.424300	0.177400
O641	O64	0.887530	0.395730	0.049460
O651	O65	0.495040	0.586940	0.430280
O661	O66	0.347150	0.429250	0.435700
O671	O67	0.331590	0.299890	0.746780
O681	O68	0.203040	0.244140	0.636880
O691	O69	0.316560	0.186260	0.637720
O701	O70	0.275150	0.351550	0.657500
O711	O71	0.293640	0.048140	0.559080
O721	O72	0.361490	0.152890	0.550580
O731	O73	0.226960	0.081090	0.456120
O741	O74	0.180230	0.109930	0.543060
O751	O75	0.060890	0.170590	0.557180
O761	O76	0.120490	0.278470	0.548980
O771	O77	0.098530	0.143430	0.451460
O781	O78	0.978300	0.207800	0.445200
O791	O79	0.043470	0.183570	0.367740
O801	O80	0.063110	0.321310	0.462220
O811	O81	0.052670	0.170270	0.257540
O821	O82	0.263860	0.075560	0.370120
O831	O83	0.144960	0.125660	0.347520
O841	O84	0.342310	0.021410	0.448620
O851	O85	0.143300	0.425600	0.659400
O861	O86	0.926610	0.649610	0.652620
O871	O87	0.823870	0.436470	0.762340
O881	O88	0.965730	0.465430	0.853460
O891	O89	0.888600	0.559900	0.864200
O901	O90	0.798330	0.470230	0.863860
O911	O91	0.914540	0.691740	0.942280
O921	O92	0.020850	0.612150	0.953900
O931	O93	0.211100	0.416300	0.946200
O941	O94	0.127470	0.518070	0.958340
O951	O95	0.084500	0.531400	0.836000
O961	O96	0.992000	0.575700	0.822600
O971	O97	0.838070	0.604270	0.950540
O981	O98	0.064760	0.413060	0.569720
O991	O99	0.911450	0.570750	0.564300
O1001	O100	0.415190	0.446890	0.746780
O1011	O101	0.433840	0.392740	0.636880
O1021	O102	0.321160	0.451460	0.637720
O1031	O103	0.382350	0.305950	0.657500
O1041	O104	0.265440	0.510940	0.559080
O1051	O105	0.189090	0.397690	0.550580
O1061	O106	0.229160	0.375030	0.456120
O1071	O107	0.362830	0.433130	0.543060
O1081	O108	0.496290	0.386590	0.557180
O1091	O109	0.428490	0.270510	0.548980
O1101	O110	0.352930	0.308030	0.451460
O1111	O111	0.466900	0.237400	0.445200
O1121	O112	0.324270	0.184170	0.367740
O1131	O113	0.399110	0.140910	0.462220
O1141	O114	0.204870	0.087270	0.257540
O1151	O115	0.106260	0.294560	0.370120
O1161	O116	0.202560	0.221860	0.347520
O1171	O117	0.106310	0.427210	0.448620
O1181	O118	0.516100	0.233800	0.659400
O1191	O119	0.726010	0.003010	0.652620
O1201	O120	0.938470	0.325870	0.762340
O1211	O121	0.887730	0.388030	0.853460
O1221	O122	0.975600	0.304300	0.864200
O1231	O123	0.065530	0.393630	0.863860
O1241	O124	0.027740	0.250540	0.942280
O1251	O125	0.933050	0.341750	0.953900
O1261	O126	0.735100	0.529900	0.946200
O1271	O127	0.830870	0.440270	0.958340
O1281	O128	0.751500	0.304600	0.836000
O1291	O129	0.830600	0.246900	0.822600
O1301	O130	0.112470	0.346270	0.950540
O1311	O131	0.504960	0.156660	0.569720
O1321	O132	0.652850	0.993550	0.564300
