data_j_PM
_symmetry_space_group_name_H-M	'P1'
_cell_length_a	14.564900
_cell_length_b	7.800100
_cell_length_c	16.804200
_cell_angle_alpha	90.000000
_cell_angle_beta	105.718000
_cell_angle_gamma	90.000000
_symmetry_Int_Tables_number 1

loop_
_symmetry_equiv_pos_as_xyz
'x,y,z'

loop_
_atom_site_label
_atom_site_type_symbol
_atom_site_fract_x
_atom_site_fract_y
_atom_site_fract_z
Cd11	Cd1	0.133300	0.349310	0.159800
Br11	Br1	0.574170	0.874340	0.919090
C11	C1	0.874700	0.099800	0.042500
C21	C2	0.845100	0.074600	0.957400
H11	H1	0.886300	0.105400	0.924600
C31	C3	0.756300	0.005200	0.920070
C41	C4	0.697300	0.962600	0.969700
C51	C5	0.726300	0.981300	0.054500
H21	H2	0.686000	0.946600	0.087600
C61	C6	0.815300	0.051500	0.090700
H31	H3	0.835800	0.066600	0.148900
C71	C7	0.969100	0.183400	0.079600
C81	C8	0.725600	0.994500	0.826900
C91	C9	0.303500	0.536400	0.105500
H41	H4	0.333900	0.569800	0.160700
C101	C10	0.208800	0.433500	0.999300
H51	H5	0.155400	0.375500	0.964700
C111	C11	0.421400	0.667300	0.038400
H61	H6	0.439200	0.745800	0.086500
H71	H7	0.407500	0.738000	0.987600
C121	C12	0.505300	0.549200	0.040000
H81	H8	0.564400	0.618700	0.051400
H91	H9	0.512500	0.466300	0.085900
N11	N1	0.223700	0.447500	0.082180
N21	N2	0.274700	0.507300	0.971100
N31	N3	0.334800	0.572300	0.040700
O11	O1	0.013380	0.252600	0.034680
O21	O2	0.002400	0.180600	0.158390
O31	O3	0.770100	0.897300	0.791540
O41	O4	0.661820	0.096600	0.791730
O51	O5	0.032480	0.589300	0.125070
H101	H10	0.051000	0.675600	0.168900
H111	H11	0.038100	0.638200	0.072900
Cd21	Cd2	0.366700	0.849310	0.340200
Br21	Br2	0.925830	0.374340	0.580910
C131	C13	0.625300	0.599800	0.457500
C141	C14	0.654900	0.574600	0.542600
H121	H12	0.613700	0.605400	0.575400
C151	C15	0.743700	0.505200	0.579930
C161	C16	0.802700	0.462600	0.530300
C171	C17	0.773700	0.481300	0.445500
H131	H13	0.814000	0.446600	0.412400
C181	C18	0.684700	0.551500	0.409300
H141	H14	0.664200	0.566600	0.351100
C191	C19	0.530900	0.683400	0.420400
C201	C20	0.774400	0.494500	0.673100
C211	C21	0.196500	0.036400	0.394500
H151	H15	0.166100	0.069800	0.339300
C221	C22	0.291200	0.933500	0.500700
H161	H16	0.344600	0.875500	0.535300
C231	C23	0.078600	0.167300	0.461600
H171	H17	0.060800	0.245800	0.413500
H181	H18	0.092500	0.238000	0.512400
C241	C24	0.994700	0.049200	0.460000
H191	H19	0.935600	0.118700	0.448600
H201	H20	0.987500	0.966300	0.414100
N41	N4	0.276300	0.947500	0.417820
N51	N5	0.225300	0.007300	0.528900
N61	N6	0.165200	0.072300	0.459300
O61	O6	0.486620	0.752600	0.465320
O71	O7	0.497600	0.680600	0.341610
O81	O8	0.729900	0.397300	0.708460
O91	O9	0.838180	0.596600	0.708270
O101	O10	0.467520	0.089300	0.374930
H211	H21	0.449000	0.175600	0.331100
H221	H22	0.461900	0.138200	0.427100
Cd31	Cd3	0.866700	0.650690	0.840200
Br31	Br3	0.425830	0.125660	0.080910
C251	C25	0.125300	0.900200	0.957500
C261	C26	0.154900	0.925400	0.042600
H231	H23	0.113700	0.894600	0.075400
C271	C27	0.243700	0.994800	0.079930
C281	C28	0.302700	0.037400	0.030300
C291	C29	0.273700	0.018700	0.945500
H241	H24	0.314000	0.053400	0.912400
C301	C30	0.184700	0.948500	0.909300
H251	H25	0.164200	0.933400	0.851100
C311	C31	0.030900	0.816600	0.920400
C321	C32	0.274400	0.005500	0.173100
C331	C33	0.696500	0.463600	0.894500
H261	H26	0.666100	0.430200	0.839300
C341	C34	0.791200	0.566500	0.000700
H271	H27	0.844600	0.624500	0.035300
C351	C35	0.578600	0.332700	0.961600
H281	H28	0.560800	0.254200	0.913500
H291	H29	0.592500	0.262000	0.012400
C361	C36	0.494700	0.450800	0.960000
H301	H30	0.435600	0.381300	0.948600
H311	H31	0.487500	0.533700	0.914100
N71	N7	0.776300	0.552500	0.917820
N81	N8	0.725300	0.492700	0.028900
N91	N9	0.665200	0.427700	0.959300
O111	O11	0.986620	0.747400	0.965320
O121	O12	0.997600	0.819400	0.841610
O131	O13	0.229900	0.102700	0.208460
O141	O14	0.338180	0.903400	0.208270
O151	O15	0.967520	0.410700	0.874930
H321	H32	0.949000	0.324400	0.831100
H331	H33	0.961900	0.361800	0.927100
Cd41	Cd4	0.633300	0.150690	0.659800
Br41	Br4	0.074170	0.625660	0.419090
C371	C37	0.374700	0.400200	0.542500
C381	C38	0.345100	0.425400	0.457400
H341	H34	0.386300	0.394600	0.424600
C391	C39	0.256300	0.494800	0.420070
C401	C40	0.197300	0.537400	0.469700
C411	C41	0.226300	0.518700	0.554500
H351	H35	0.186000	0.553400	0.587600
C421	C42	0.315300	0.448500	0.590700
H361	H36	0.335800	0.433400	0.648900
C431	C43	0.469100	0.316600	0.579600
C441	C44	0.225600	0.505500	0.326900
C451	C45	0.803500	0.963600	0.605500
H371	H37	0.833900	0.930200	0.660700
C461	C46	0.708800	0.066500	0.499300
H381	H38	0.655400	0.124500	0.464700
C471	C47	0.921400	0.832700	0.538400
H391	H39	0.939200	0.754200	0.586500
H401	H40	0.907500	0.762000	0.487600
C481	C48	0.005300	0.950800	0.540000
H411	H41	0.064400	0.881300	0.551400
H421	H42	0.012500	0.033700	0.585900
N101	N10	0.723700	0.052500	0.582180
N111	N11	0.774700	0.992700	0.471100
N121	N12	0.834800	0.927700	0.540700
O161	O16	0.513380	0.247400	0.534680
O171	O17	0.502400	0.319400	0.658390
O181	O18	0.270100	0.602700	0.291540
O191	O19	0.161820	0.403400	0.291730
O201	O20	0.532480	0.910700	0.625070
H431	H43	0.551000	0.824400	0.668900
H441	H44	0.538100	0.861800	0.572900
