data_j_PM
_symmetry_space_group_name_H-M	'P1'
_cell_length_a	12.219000
_cell_length_b	12.815000
_cell_length_c	20.585000
_cell_angle_alpha	95.187000
_cell_angle_beta	92.184000
_cell_angle_gamma	105.724000
_symmetry_Int_Tables_number 1

loop_
_symmetry_equiv_pos_as_xyz
'x,y,z'

loop_
_atom_site_label
_atom_site_type_symbol
_atom_site_fract_x
_atom_site_fract_y
_atom_site_fract_z
Cd11	Cd1	0.291080	0.682310	0.236290
Cd21	Cd2	0.776830	0.544270	0.289850
S11	S1	0.543510	0.174460	0.501120
S21	S2	0.372100	0.114490	0.480350
S31	S3	0.933230	0.117140	0.070240
S41	S4	0.069720	0.209910	0.027960
O11	O1	0.461400	0.792500	0.191600
O21	O2	0.295300	0.770600	0.139980
O31	O3	0.259000	0.573600	0.332900
O41	O4	0.432200	0.631600	0.299500
O51	O5	0.761900	0.423500	0.187120
O61	O6	0.868800	0.596900	0.198300
O71	O7	0.794700	0.729400	0.324800
O81	O8	0.885500	0.653700	0.387500
N11	N1	0.689000	0.418400	0.356800
N21	N2	0.323300	0.829200	0.317800
N31	N3	0.225200	0.518900	0.170400
N41	N4	0.047400	0.851600	0.168600
O91	O9	0.596200	0.541200	0.245000
O101	O10	0.104300	0.695500	0.239150
C11	C1	0.709900	0.326600	0.451500
H11	H1	0.755700	0.314200	0.485400
C21	C2	0.594200	0.268800	0.443200
C31	C3	0.523300	0.288600	0.393300
H21	H2	0.445300	0.255200	0.387700
C41	C4	0.584100	0.366200	0.351300
H31	H3	0.541400	0.379500	0.316200
C51	C5	0.753200	0.398500	0.411100
H41	H4	0.829300	0.438200	0.418300
C61	C6	0.394700	0.811400	0.145400
C71	C7	0.451400	0.892100	0.096200
C81	C8	0.561400	0.964800	0.111500
H51	H5	0.602300	0.963100	0.150200
C91	C9	0.605100	0.035700	0.069400
H61	H6	0.673700	0.087300	0.082600
C101	C10	0.558400	0.039400	0.008800
C111	C11	0.394700	0.888800	0.037300
H71	H7	0.324100	0.838400	0.027400
C121	C12	0.266000	0.500600	0.110300
H81	H8	0.324600	0.556100	0.097200
C131	C13	0.226500	0.404900	0.067200
H91	H9	0.261000	0.393800	0.028600
C141	C14	0.132200	0.327900	0.086100
C151	C15	0.087400	0.345100	0.147500
H101	H10	0.027200	0.291900	0.161300
C161	C16	0.133100	0.439100	0.185700
H111	H11	0.100000	0.450500	0.224700
C171	C17	0.118500	0.916800	0.130400
H121	H12	0.188900	0.904900	0.122800
C181	C18	0.087900	0.002800	0.101800
H131	H13	0.140000	0.049600	0.078400
C191	C19	0.981700	0.016300	0.108800
C201	C20	0.912900	0.952100	0.144700
H141	H14	0.839800	0.959100	0.149700
C211	C21	0.365500	0.586200	0.335700
C221	C22	0.451800	0.992800	0.378900
H151	H15	0.524100	0.041400	0.385800
C231	C23	0.426000	0.903700	0.330200
H161	H16	0.484400	0.895200	0.304400
C241	C24	0.359500	0.003500	0.416800
C251	C25	0.258100	0.930900	0.409500
H171	H17	0.199800	0.936100	0.436300
C261	C26	0.876600	0.485500	0.098600
C271	C27	0.978000	0.566200	0.079700
H181	H18	0.010600	0.629200	0.107600
C281	C28	0.027700	0.548700	0.018400
C291	C29	0.122400	0.631200	0.999200
C301	C30	0.835500	0.385300	0.059100
C311	C31	0.832400	0.501800	0.164900
C321	C32	0.402400	0.543400	0.401900
C331	C33	0.864100	0.734300	0.373800
C341	C34	0.902300	0.842100	0.416300
C351	C35	0.873600	0.935200	0.395500
H191	H19	0.829900	0.928600	0.356600
C361	C36	0.959500	0.848300	0.472100
H201	H20	0.966100	0.784400	0.488000
C371	C37	0.948500	0.873100	0.175500
H211	H21	0.898900	0.832700	0.203000
C381	C38	0.242600	0.842200	0.357200
H221	H22	0.171600	0.791300	0.350900
C391	C39	0.540100	0.536200	0.489600
C401	C40	0.647900	0.584900	0.512200
H231	H23	0.699100	0.640800	0.494200
C411	C41	0.909800	0.034300	0.432300
C421	C42	0.013700	0.953400	0.510500
C431	C43	0.330200	0.464400	0.431500
H241	H24	0.256400	0.439200	0.412300
C441	C44	0.530900	0.593900	0.423100
H251	H25	0.586800	0.643300	0.403300
Cd31	Cd3	0.708920	0.317690	0.763710
Cd41	Cd4	0.223170	0.455730	0.710150
S51	S5	0.456490	0.825540	0.498880
S61	S6	0.627900	0.885510	0.519650
S71	S7	0.066770	0.882860	0.929760
S81	S8	0.930280	0.790090	0.972040
O111	O11	0.538600	0.207500	0.808400
O121	O12	0.704700	0.229400	0.860020
O131	O13	0.741000	0.426400	0.667100
O141	O14	0.567800	0.368400	0.700500
O151	O15	0.238100	0.576500	0.812880
O161	O16	0.131200	0.403100	0.801700
O171	O17	0.205300	0.270600	0.675200
O181	O18	0.114500	0.346300	0.612500
N51	N5	0.311000	0.581600	0.643200
N61	N6	0.676700	0.170800	0.682200
N71	N7	0.774800	0.481100	0.829600
N81	N8	0.952600	0.148400	0.831400
O191	O19	0.403800	0.458800	0.755000
O201	O20	0.895700	0.304500	0.760850
C451	C45	0.290100	0.673400	0.548500
H261	H26	0.244300	0.685800	0.514600
C461	C46	0.405800	0.731200	0.556800
C471	C47	0.476700	0.711400	0.606700
H271	H27	0.554700	0.744800	0.612300
C481	C48	0.415900	0.633800	0.648700
H281	H28	0.458600	0.620500	0.683800
C491	C49	0.246800	0.601500	0.588900
H291	H29	0.170700	0.561800	0.581700
C501	C50	0.605300	0.188600	0.854600
C511	C51	0.548600	0.107900	0.903800
C521	C52	0.438600	0.035200	0.888500
H301	H30	0.397700	0.036900	0.849800
C531	C53	0.394900	0.964300	0.930600
H311	H31	0.326300	0.912700	0.917400
C541	C54	0.441600	0.960600	0.991200
C551	C55	0.605300	0.111200	0.962700
H321	H32	0.675900	0.161600	0.972600
C561	C56	0.734000	0.499400	0.889700
H331	H33	0.675400	0.443900	0.902800
C571	C57	0.773500	0.595100	0.932800
H341	H34	0.739000	0.606200	0.971400
C581	C58	0.867800	0.672100	0.913900
C591	C59	0.912600	0.654900	0.852500
H351	H35	0.972800	0.708100	0.838700
C601	C60	0.866900	0.560900	0.814300
H361	H36	0.900000	0.549500	0.775300
C611	C61	0.881500	0.083200	0.869600
H371	H37	0.811100	0.095100	0.877200
C621	C62	0.912100	0.997200	0.898200
H381	H38	0.860000	0.950400	0.921600
C631	C63	0.018300	0.983700	0.891200
C641	C64	0.087100	0.047900	0.855300
H391	H39	0.160200	0.040900	0.850300
C651	C65	0.634500	0.413800	0.664300
C661	C66	0.548200	0.007200	0.621100
H401	H40	0.475900	0.958600	0.614200
C671	C67	0.574000	0.096300	0.669800
H411	H41	0.515600	0.104800	0.695600
C681	C68	0.640500	0.996500	0.583200
C691	C69	0.741900	0.069100	0.590500
H421	H42	0.800200	0.063900	0.563700
C701	C70	0.123400	0.514500	0.901400
C711	C71	0.022000	0.433800	0.920300
H431	H43	0.989400	0.370800	0.892400
C721	C72	0.972300	0.451300	0.981600
C731	C73	0.877600	0.368800	0.000800
C741	C74	0.164500	0.614700	0.940900
C751	C75	0.167600	0.498200	0.835100
C761	C76	0.597600	0.456600	0.598100
C771	C77	0.135900	0.265700	0.626200
C781	C78	0.097700	0.157900	0.583700
C791	C79	0.126400	0.064800	0.604500
H441	H44	0.170100	0.071400	0.643400
C801	C80	0.040500	0.151700	0.527900
H451	H45	0.033900	0.215600	0.512000
C811	C81	0.051500	0.126900	0.824500
H461	H46	0.101100	0.167300	0.797000
C821	C82	0.757400	0.157800	0.642800
H471	H47	0.828400	0.208700	0.649100
C831	C83	0.459900	0.463800	0.510400
C841	C84	0.352100	0.415100	0.487800
H481	H48	0.300900	0.359200	0.505800
C851	C85	0.090200	0.965700	0.567700
C861	C86	0.986300	0.046600	0.489500
C871	C87	0.669800	0.535600	0.568500
H491	H49	0.743600	0.560800	0.587700
C881	C88	0.469100	0.406100	0.576900
H501	H50	0.413200	0.356700	0.596700
