data_ja0752540-file002_freeONLY_PM
_symmetry_space_group_name_H-M	'P1'
_cell_length_a	13.690000
_cell_length_b	27.596000
_cell_length_c	45.419000
_cell_angle_alpha	90.000000
_cell_angle_beta	90.000000
_cell_angle_gamma	90.000000
_symmetry_Int_Tables_number 1

loop_
_symmetry_equiv_pos_as_xyz
'x,y,z'

loop_
_atom_site_label
_atom_site_type_symbol
_atom_site_fract_x
_atom_site_fract_y
_atom_site_fract_z
Zn11	Zn1	0.347390	0.549470	0.924500
Zn21	Zn2	0.637340	0.472380	0.409510
Zn31	Zn3	0.843670	0.252390	0.314170
Zn41	Zn4	0.156330	0.247610	0.814170
Zn51	Zn5	0.656330	0.752390	0.685830
Zn61	Zn6	0.862660	0.972380	0.590490
Zn71	Zn7	0.362660	0.027620	0.909510
Zn81	Zn8	0.152610	0.049470	0.075500
Zn91	Zn9	0.137340	0.527620	0.090490
Zn101	Zn10	0.847390	0.450530	0.575500
Zn111	Zn11	0.343670	0.747610	0.185830
Zn121	Zn12	0.652610	0.950530	0.424500
H11	H1	0.585700	0.832700	0.724000
H21	H2	0.888200	0.384300	0.473900
H31	H3	0.647300	0.080700	0.970800
H41	H4	0.517800	0.801300	0.276800
H51	H5	0.924900	0.419800	0.634400
H61	H6	0.857700	0.194400	0.869600
H71	H7	0.085700	0.167300	0.776000
H81	H8	0.598700	0.652300	0.405800
H91	H9	0.447300	0.768300	0.667900
H101	H10	0.313600	0.400600	0.384200
H111	H11	0.694500	0.811200	0.632600
H121	H12	0.452300	0.649800	0.838200
H131	H13	0.541800	0.691500	0.728900
H141	H14	0.968900	0.569000	0.123600
H151	H15	0.388200	0.615700	0.026100
H161	H16	0.625500	0.771000	0.409400
H171	H17	0.901300	0.152300	0.594200
H181	H18	0.947300	0.231700	0.832100
H191	H19	0.153200	0.156700	0.065500
H201	H20	0.686400	0.099400	0.884200
H211	H21	0.186400	0.900600	0.615800
H221	H22	0.531100	0.069000	0.876400
H231	H23	0.558500	0.588200	0.327100
H241	H24	0.357700	0.805600	0.630400
H251	H25	0.122800	0.423400	0.073500
H261	H26	0.441500	0.911800	0.827100
H271	H27	0.147300	0.919300	0.529200
H281	H28	0.846800	0.343300	0.565500
H291	H29	0.507600	0.448100	0.461600
H301	H30	0.193400	0.091500	0.015700
H311	H31	0.475500	0.655900	0.271100
H321	H32	0.352700	0.419300	0.470800
H331	H33	0.992400	0.948100	0.538400
H341	H34	0.346800	0.656700	0.934500
H351	H35	0.877200	0.076600	0.573500
H361	H36	0.952300	0.350200	0.661800
H371	H37	0.613200	0.848300	0.593800
H381	H38	0.007600	0.551900	0.038400
H391	H39	0.482200	0.698700	0.776800
H401	H40	0.864300	0.060500	0.008100
H411	H41	0.582900	0.513500	0.350100
H421	H42	0.806600	0.408500	0.515700
H431	H43	0.113200	0.151700	0.906200
H441	H44	0.941500	0.088200	0.672900
H451	H45	0.377200	0.923400	0.926500
H461	H46	0.975500	0.344100	0.228900
H471	H47	0.805500	0.311200	0.367400
H481	H48	0.024500	0.155900	0.728900
H491	H49	0.414300	0.667300	0.224000
H501	H50	0.874500	0.271000	0.590600
H511	H51	0.075100	0.080200	0.134400
H521	H52	0.082900	0.486500	0.149900
H531	H53	0.047700	0.149800	0.161800
H541	H54	0.852700	0.580700	0.029200
H551	H55	0.914300	0.332700	0.276000
H561	H56	0.458200	0.808500	0.228900
H571	H57	0.041800	0.308500	0.771100
H581	H58	0.424900	0.580200	0.865600
H591	H59	0.111800	0.115700	0.973900
H601	H60	0.305500	0.688800	0.132600
H611	H61	0.401300	0.847700	0.905800
H621	H62	0.031100	0.931000	0.623600
H631	H63	0.451500	0.963700	0.451200
H641	H64	0.492400	0.051900	0.961600
H651	H65	0.611800	0.884300	0.526100
H661	H66	0.386800	0.651700	0.093800
H671	H67	0.642300	0.694400	0.130400
H681	H68	0.306600	0.591500	0.984300
H691	H69	0.693400	0.908500	0.484300
H701	H70	0.958200	0.191500	0.271100
H711	H71	0.635700	0.560500	0.991900
H721	H72	0.017800	0.198700	0.223200
H731	H73	0.982200	0.301300	0.723200
H741	H74	0.653200	0.843300	0.434500
H751	H75	0.917100	0.013500	0.649900
H761	H76	0.886800	0.348300	0.406200
H771	H77	0.058500	0.411800	0.172900
H781	H78	0.575100	0.919800	0.365600
H791	H79	0.417100	0.986500	0.850100
H801	H80	0.468900	0.431000	0.376400
H811	H81	0.524500	0.844100	0.771100
H821	H82	0.548500	0.536300	0.951200
H831	H83	0.374500	0.729000	0.909400
H841	H84	0.135700	0.439500	0.508100
H851	H85	0.622800	0.576600	0.426500
H861	H86	0.813600	0.599400	0.115800
H871	H87	0.048500	0.463700	0.548800
H881	H88	0.951500	0.036300	0.048800
H891	H89	0.547700	0.850200	0.338200
H901	H90	0.052700	0.268300	0.332100
H911	H91	0.142300	0.305600	0.369600
H921	H92	0.364300	0.939500	0.491900
H931	H93	0.194500	0.188800	0.867400
H941	H94	0.125500	0.229000	0.090600
H951	H95	0.552700	0.731700	0.167900
H961	H96	0.098700	0.347700	0.094200
C11	C1	0.115200	0.198840	0.100130
C21	C2	0.625400	0.914800	0.485790
C31	C3	0.577400	0.832150	0.608780
C41	C4	0.976300	0.169480	0.892150
C51	C5	0.852400	0.589500	0.099540
C61	C6	0.923100	0.144980	0.916380
C71	C7	0.912900	0.042300	0.638460
C81	C8	0.072200	0.413220	0.152410
C91	C9	0.125400	0.085200	0.014210
C101	C10	0.817000	0.592890	0.071450
C111	C11	0.996200	0.226520	0.233630
C121	C12	0.568000	0.567620	0.990660
C131	C13	0.625200	0.809890	0.631940
C141	C14	0.577200	0.899900	0.510630
C151	C15	0.647600	0.089500	0.900460
C161	C16	0.935800	0.176490	0.649850
C171	C17	0.072900	0.306830	0.369690
C181	C18	0.927100	0.193170	0.869690
C191	C19	0.922800	0.399900	0.489370
C201	C20	0.922200	0.128420	0.635960
C211	C21	0.935100	0.305330	0.264930
C221	C22	0.499800	0.727600	0.279370
C231	C23	0.422600	0.667850	0.108780
C241	C24	0.503800	0.726520	0.766370
C251	C25	0.404000	0.875850	0.893730
C261	C26	0.596000	0.624150	0.393730
C271	C27	0.519200	0.715000	0.152640
C281	C28	0.999800	0.272400	0.220630
C291	C29	0.567700	0.757960	0.353840
C301	C30	0.496200	0.773480	0.266370
C311	C31	0.586200	0.889120	0.374500
C321	C32	0.624400	0.078600	0.951070
C331	C33	0.539700	0.722590	0.737880
C341	C34	0.932000	0.067620	0.009340
C351	C35	0.430800	0.652170	0.858010
C361	C36	0.476300	0.830520	0.607850
C371	C37	0.030900	0.277520	0.189330
C381	C38	0.214300	0.389920	0.433660
C391	C39	0.029200	0.187560	0.736890
C401	C40	0.183000	0.907110	0.571450
C411	C41	0.432300	0.742040	0.853840
C421	C42	0.923400	0.108570	0.960300
C431	C43	0.427800	0.913220	0.847590
C441	C44	0.467500	0.438700	0.445530
C451	C45	0.374600	0.585200	0.985790
C461	C46	0.904000	0.124150	0.606270
C471	C47	0.683000	0.092890	0.928550
C481	C48	0.069200	0.152170	0.141990
C491	C49	0.427100	0.806830	0.630310
C501	C50	0.927800	0.086780	0.652410
C511	C51	0.076900	0.355020	0.416380
C521	C52	0.039700	0.277410	0.762120
C531	C53	0.913800	0.389120	0.625500
C541	C54	0.555100	0.071500	0.896000
C551	C55	0.084000	0.197100	0.129080
C561	C56	0.874600	0.414800	0.514210
C571	C57	0.922600	0.332150	0.391220
C581	C58	0.930800	0.347830	0.641990
C591	C59	0.413800	0.610880	0.874500
C601	C60	0.875600	0.578600	0.048930
C611	C61	0.087100	0.457700	0.138460
C621	C62	0.889800	0.078870	0.594030
C631	C63	0.000200	0.227600	0.720630
C641	C64	0.368700	0.655590	0.914700
C651	C65	0.374800	0.690110	0.131940
C661	C66	0.960300	0.222590	0.262120
C671	C67	0.019200	0.285000	0.347360
C681	C68	0.460300	0.777410	0.237880
C691	C69	0.576600	0.608570	0.039700
C701	C70	0.470800	0.687560	0.263110
C711	C71	0.584000	0.802900	0.370920
C721	C72	0.980800	0.215000	0.847360
C731	C73	0.023100	0.407710	0.486940
C741	C74	0.587100	0.542300	0.361540
C751	C75	0.023700	0.330520	0.392150
C761	C76	0.423100	0.855020	0.583620
C771	C77	0.569200	0.847830	0.358010
C781	C78	0.384800	0.698840	0.899870
C791	C79	0.970800	0.312440	0.236890
C801	C80	0.064200	0.323510	0.149850
C811	C81	0.577800	0.628420	0.364040
C821	C82	0.967500	0.561300	0.054470
C831	C83	0.874800	0.309890	0.368060
C841	C84	0.969100	0.222480	0.689330
C851	C85	0.055100	0.928500	0.604000
C861	C86	0.077400	0.167850	0.891220
C871	C87	0.469100	0.777520	0.810670
C881	C88	0.432000	0.932380	0.490660
C891	C89	0.523100	0.592290	0.013060
C901	C90	0.916000	0.302900	0.629080
C911	C91	0.532500	0.061300	0.945530
C921	C92	0.096000	0.375850	0.106270
C931	C93	0.416000	0.697100	0.870920
C941	C94	0.631300	0.844410	0.414700
C951	C95	0.422200	0.871580	0.864040
C961	C96	0.868700	0.344410	0.585300
C971	C97	0.944900	0.571500	0.104000
C981	C98	0.610200	0.578870	0.405970
C991	C99	0.572900	0.693170	0.130310
C1001	C100	0.484500	0.946790	0.466450
C1011	C101	0.435800	0.823510	0.850150
C1021	C102	0.375600	0.421400	0.451070
C1031	C103	0.064900	0.194670	0.764930
C1041	C104	0.444900	0.428500	0.396000
C1051	C105	0.317000	0.407110	0.428550
C1061	C106	0.785700	0.110080	0.933660
C1071	C107	0.984500	0.053210	0.033550
C1081	C108	0.352400	0.410500	0.400460
C1091	C109	0.086200	0.110880	0.125500
C1101	C110	0.564900	0.805330	0.735070
C1111	C111	0.476900	0.907710	0.513060
C1121	C112	0.389800	0.921130	0.905970
C1131	C113	0.932300	0.257960	0.646160
C1141	C114	0.529200	0.812440	0.763110
C1151	C115	0.131300	0.155590	0.085300
C1161	C116	0.976900	0.092290	0.986940
C1171	C117	0.523700	0.669480	0.107850
C1181	C118	0.285700	0.889920	0.566340
C1191	C119	0.564200	0.676490	0.350150
C1201	C120	0.435100	0.694670	0.235070
C1211	C121	0.032500	0.938700	0.554470
C1221	C122	0.884800	0.301160	0.600130
C1231	C123	0.423400	0.891430	0.539700
C1241	C124	0.076600	0.391430	0.460300
C1251	C125	0.515500	0.553210	0.966450
C1261	C126	0.480800	0.785000	0.652640
C1271	C127	0.500200	0.772400	0.779370
C1281	C128	0.125200	0.190110	0.868060
C1291	C129	0.124400	0.921400	0.548930
C1301	C130	0.714300	0.610080	0.066340
C1311	C131	0.015500	0.446790	0.533550
C1321	C132	0.147600	0.910500	0.599540
C1331	C133	0.003800	0.273480	0.733630
C1341	C134	0.530900	0.722480	0.310670
C1351	C135	0.068000	0.432380	0.509340
C1361	C136	0.067700	0.242040	0.146160
C1371	C137	0.077800	0.371580	0.135960
C1381	C138	0.412900	0.957700	0.861540
C1391	C139	0.110200	0.421130	0.094030
C1401	C140	0.572200	0.586780	0.347590
C1411	C141	0.615200	0.801160	0.399870
C1421	C142	0.077200	0.100100	0.989370
C1431	C143	0.576900	0.644980	0.083620
C1441	C144	0.422800	0.600100	0.010630
I11	I1	0.220090	0.512150	0.041010
I21	I2	0.783920	0.921480	0.630760
I31	I3	0.716080	0.421480	0.369230
I41	I4	0.431590	0.481650	0.896440
I51	I5	0.931590	0.518350	0.603560
I61	I6	0.068410	0.981650	0.103560
I71	I7	0.216080	0.578520	0.130770
I81	I8	0.163560	0.555020	0.932590
I91	I9	0.808760	0.803630	0.695550
I101	I10	0.568410	0.018350	0.396440
I111	I11	0.720090	0.487850	0.458990
I121	I12	0.663560	0.444980	0.567410
I131	I13	0.308760	0.196370	0.804450
I141	I14	0.836440	0.944980	0.432590
I151	I15	0.327210	0.837670	0.174470
I161	I16	0.191240	0.696370	0.195550
I171	I17	0.827210	0.162330	0.325530
I181	I18	0.336440	0.055020	0.067410
I191	I19	0.172790	0.337670	0.825530
I201	I20	0.672790	0.662330	0.674470
I211	I21	0.779910	0.987850	0.541010
I221	I22	0.691240	0.303630	0.304450
I231	I23	0.279910	0.012150	0.958990
I241	I24	0.283920	0.078520	0.869240
N11	N1	0.974000	0.132210	0.940180
N21	N2	0.921200	0.286860	0.346790
N31	N3	0.571300	0.760840	0.722650
N41	N4	0.607000	0.538510	0.390280
N51	N5	0.928700	0.260840	0.277350
N61	N6	0.171300	0.403270	0.458800
N71	N7	0.117100	0.112120	0.097990
N81	N8	0.328700	0.903270	0.541200
N91	N9	0.002100	0.557450	0.081750
N101	N10	0.327500	0.865100	0.588160
N111	N11	0.526000	0.632210	0.059820
N121	N12	0.040800	0.322010	0.178420
N131	N13	0.921300	0.215240	0.632650
N141	N14	0.043900	0.236420	0.174350
N151	N15	0.882900	0.387880	0.597990
N161	N16	0.578700	0.715240	0.367350
N171	N17	0.421300	0.784760	0.867350
N181	N18	0.026000	0.367790	0.440180
N191	N19	0.543900	0.763580	0.325650
N201	N20	0.672500	0.634900	0.088160
N211	N21	0.393000	0.961490	0.890280
N221	N22	0.382900	0.612120	0.902010
N231	N23	0.959200	0.177990	0.678420
N241	N24	0.497900	0.057450	0.918250
N251	N25	0.474000	0.867790	0.559820
N261	N26	0.581200	0.937980	0.463380
N271	N27	0.456100	0.736420	0.825650
N281	N28	0.997900	0.942550	0.581750
N291	N29	0.172500	0.365100	0.411840
N301	N30	0.617100	0.887880	0.402010
N311	N31	0.502100	0.442550	0.418250
N321	N32	0.421200	0.713140	0.153210
N331	N33	0.893000	0.038510	0.609720
N341	N34	0.078700	0.284760	0.132650
N351	N35	0.827500	0.134900	0.911840
N361	N36	0.459200	0.822010	0.821580
N371	N37	0.671300	0.596730	0.041200
N381	N38	0.428700	0.739160	0.222650
N391	N39	0.081200	0.062020	0.036620
N401	N40	0.107000	0.461490	0.109720
N411	N41	0.078800	0.213140	0.846790
N421	N42	0.071300	0.239160	0.777350
N431	N43	0.418800	0.562020	0.963380
N441	N44	0.578800	0.786860	0.653210
N451	N45	0.956100	0.263580	0.674350
N461	N46	0.828700	0.096730	0.958800
N471	N47	0.918800	0.437980	0.536620
N481	N48	0.540800	0.677990	0.321580
Zn131	Zn13	0.347390	0.049470	0.575500
Zn141	Zn14	0.343670	0.247610	0.314170
Zn151	Zn15	0.656330	0.252390	0.814170
Zn161	Zn16	0.847390	0.950530	0.924500
Zn171	Zn17	0.156330	0.747610	0.685830
Zn181	Zn18	0.652610	0.450530	0.075500
Zn191	Zn19	0.862660	0.472380	0.909510
Zn201	Zn20	0.152610	0.549470	0.424500
Zn211	Zn21	0.362660	0.527620	0.590490
Zn221	Zn22	0.843670	0.752390	0.185830
Zn231	Zn23	0.137340	0.027620	0.409510
Zn241	Zn24	0.637340	0.972380	0.090490
H971	H97	0.877200	0.576600	0.926500
H981	H98	0.992400	0.448100	0.961600
H991	H99	0.041800	0.808500	0.728900
H1001	H100	0.048500	0.963700	0.951200
H1011	H101	0.805500	0.811200	0.132600
H1021	H102	0.968900	0.069000	0.376400
H1031	H103	0.386800	0.151700	0.406200
H1041	H104	0.548500	0.036300	0.548800
H1051	H105	0.142300	0.805600	0.130400
H1061	H106	0.582900	0.013500	0.149900
H1071	H107	0.153200	0.656700	0.434500
H1081	H108	0.864300	0.560500	0.491900
H1091	H109	0.901300	0.652300	0.905800
H1101	H110	0.547700	0.350200	0.161800
H1111	H111	0.541800	0.191500	0.771100
H1121	H112	0.951500	0.536300	0.451200
H1131	H113	0.507600	0.948100	0.038400
H1141	H114	0.874500	0.771000	0.909400
H1151	H115	0.653200	0.343300	0.065500
H1161	H116	0.531100	0.569000	0.623600
H1171	H117	0.147300	0.419300	0.970800
H1181	H118	0.441500	0.411800	0.672900
H1191	H119	0.524500	0.344100	0.728900
H1201	H120	0.113200	0.651700	0.593800
H1211	H121	0.357700	0.305600	0.869600
H1221	H122	0.575100	0.419800	0.134400
H1231	H123	0.007600	0.051900	0.461600
H1241	H124	0.852700	0.080700	0.470800
H1251	H125	0.613200	0.348300	0.906200
H1261	H126	0.075100	0.580200	0.365600
H1271	H127	0.952300	0.850200	0.838200
H1281	H128	0.694500	0.311200	0.867400
H1291	H129	0.374500	0.229000	0.590600
H1301	H130	0.458200	0.308500	0.271100
H1311	H131	0.806600	0.908500	0.984300
H1321	H132	0.024500	0.655900	0.771100
H1331	H133	0.122800	0.923400	0.426500
H1341	H134	0.982200	0.801300	0.776800
H1351	H135	0.958200	0.691500	0.228900
H1361	H136	0.452300	0.149800	0.661800
H1371	H137	0.031100	0.431000	0.876400
H1381	H138	0.517800	0.301300	0.223200
H1391	H139	0.917100	0.513500	0.850100
H1401	H140	0.085700	0.667300	0.724000
H1411	H141	0.941500	0.588200	0.827100
H1421	H142	0.186400	0.400600	0.884200
H1431	H143	0.947300	0.731700	0.667900
H1441	H144	0.686400	0.599400	0.615800
H1451	H145	0.475500	0.155900	0.228900
H1461	H146	0.813600	0.099400	0.384200
H1471	H147	0.424900	0.080200	0.634400
H1481	H148	0.313600	0.900600	0.115800
H1491	H149	0.111800	0.615700	0.526100
H1501	H150	0.414300	0.167300	0.276000
H1511	H151	0.647300	0.580700	0.529200
H1521	H152	0.492400	0.551900	0.538400
H1531	H153	0.975500	0.844100	0.271100
H1541	H154	0.468900	0.931000	0.123600
H1551	H155	0.846800	0.843300	0.934500
H1561	H156	0.417100	0.486500	0.649900
H1571	H157	0.558500	0.088200	0.172900
H1581	H158	0.611800	0.384300	0.973900
H1591	H159	0.364300	0.439500	0.008100
H1601	H160	0.194500	0.688800	0.632600
H1611	H161	0.305500	0.188800	0.367400
H1621	H162	0.622800	0.076600	0.073500
H1631	H163	0.125500	0.729000	0.409400
H1641	H164	0.552700	0.231700	0.332100
H1651	H165	0.635700	0.060500	0.508100
H1661	H166	0.098700	0.847700	0.405800
H1671	H167	0.857700	0.694400	0.630400
H1681	H168	0.306600	0.091500	0.515700
H1691	H169	0.388200	0.115700	0.473900
H1701	H170	0.914300	0.832700	0.224000
H1711	H171	0.451500	0.463700	0.048800
H1721	H172	0.047700	0.649800	0.338200
H1731	H173	0.058500	0.911800	0.327100
H1741	H174	0.888200	0.884300	0.026100
H1751	H175	0.135700	0.939500	0.991900
H1761	H176	0.585700	0.332700	0.776000
H1771	H177	0.598700	0.152300	0.094200
H1781	H178	0.352700	0.919300	0.029200
H1791	H179	0.052700	0.768300	0.167900
H1801	H180	0.886800	0.848300	0.093800
H1811	H181	0.924900	0.919800	0.865600
H1821	H182	0.447300	0.268300	0.832100
H1831	H183	0.082900	0.986500	0.350100
H1841	H184	0.693400	0.408500	0.015700
H1851	H185	0.625500	0.271000	0.090600
H1861	H186	0.482200	0.198700	0.723200
H1871	H187	0.193400	0.591500	0.484300
H1881	H188	0.346800	0.156700	0.565500
H1891	H189	0.377200	0.423400	0.573500
H1901	H190	0.642300	0.194400	0.369600
H1911	H191	0.401300	0.347700	0.594200
H1921	H192	0.017800	0.698700	0.276800
C1451	C145	0.032500	0.438700	0.945530
C1461	C146	0.317000	0.907110	0.071450
C1471	C147	0.785700	0.610080	0.566340
C1481	C148	0.967500	0.061300	0.445530
C1491	C149	0.932000	0.567620	0.490660
C1501	C150	0.714300	0.110080	0.433660
C1511	C151	0.874600	0.914800	0.985790
C1521	C152	0.484500	0.446790	0.033550
C1531	C153	0.039700	0.777410	0.737880
C1541	C154	0.577200	0.399900	0.989370
C1551	C155	0.460300	0.277410	0.262120
C1561	C156	0.077400	0.667850	0.608780
C1571	C157	0.976900	0.592290	0.513060
C1581	C158	0.055100	0.428500	0.896000
C1591	C159	0.077200	0.600100	0.510630
C1601	C160	0.023100	0.907710	0.013060
C1611	C161	0.125400	0.585200	0.485790
C1621	C162	0.904000	0.624150	0.893730
C1631	C163	0.930800	0.847830	0.858010
C1641	C164	0.868700	0.844410	0.914700
C1651	C165	0.647600	0.589500	0.599540
C1661	C166	0.422800	0.100100	0.489370
C1671	C167	0.884800	0.801160	0.899870
C1681	C168	0.923100	0.644980	0.583620
C1691	C169	0.927100	0.693170	0.630310
C1701	C170	0.003800	0.773480	0.766370
C1711	C171	0.532500	0.561300	0.554470
C1721	C172	0.030900	0.777520	0.310670
C1731	C173	0.480800	0.285000	0.847360
C1741	C174	0.076600	0.891430	0.039700
C1751	C175	0.969100	0.722480	0.810670
C1761	C176	0.624400	0.578600	0.548930
C1771	C177	0.422200	0.371580	0.635960
C1781	C178	0.586200	0.389120	0.125500
C1791	C179	0.587100	0.042300	0.138460
C1801	C180	0.368700	0.155590	0.585300
C1811	C181	0.467500	0.938700	0.054470
C1821	C182	0.110200	0.921130	0.405970
C1831	C183	0.539700	0.222590	0.762120
C1841	C184	0.996200	0.726520	0.266370
C1851	C185	0.384800	0.198840	0.600130
C1861	C186	0.076900	0.855020	0.083620
C1871	C187	0.567700	0.257960	0.146160
C1881	C188	0.932300	0.757960	0.853840
C1891	C189	0.069200	0.652170	0.358010
C1901	C190	0.029200	0.687560	0.763110
C1911	C191	0.555100	0.571500	0.604000
C1921	C192	0.374800	0.190110	0.368060
C1931	C193	0.935100	0.805330	0.235070
C1941	C194	0.072200	0.913220	0.347590
C1951	C195	0.087100	0.957700	0.361540
C1961	C196	0.469100	0.277520	0.689330
C1971	C197	0.413800	0.110880	0.625500
C1981	C198	0.423400	0.391430	0.960300
C1991	C199	0.596000	0.124150	0.106270
C2001	C200	0.577800	0.128420	0.135960
C2011	C201	0.375600	0.921400	0.048930
C2021	C202	0.500200	0.272400	0.720630
C2031	C203	0.922200	0.628420	0.864040
C2041	C204	0.131300	0.655590	0.414700
C2051	C205	0.019200	0.785000	0.152640
C2061	C206	0.852400	0.089500	0.400460
C2071	C207	0.352400	0.910500	0.099540
C2081	C208	0.064900	0.694670	0.735070
C2091	C209	0.889800	0.578870	0.905970
C2101	C210	0.000200	0.727600	0.779370
C2111	C211	0.912900	0.542300	0.861540
C2121	C212	0.631300	0.344410	0.085300
C2131	C213	0.572200	0.086780	0.152410
C2141	C214	0.576600	0.108570	0.460300
C2151	C215	0.427800	0.413220	0.652410
C2161	C216	0.068000	0.932380	0.990660
C2171	C217	0.125200	0.690110	0.631940
C2181	C218	0.432300	0.242040	0.646160
C2191	C219	0.432000	0.432380	0.009340
C2201	C220	0.435100	0.194670	0.264930
C2211	C221	0.584000	0.302900	0.129080
C2221	C222	0.064200	0.823510	0.350150
C2231	C223	0.999800	0.772400	0.279370
C2241	C224	0.568000	0.067620	0.509340
C2251	C225	0.476300	0.330520	0.892150
C2261	C226	0.067700	0.742040	0.353840
C2271	C227	0.529200	0.312440	0.736890
C2281	C228	0.572900	0.193170	0.369690
C2291	C229	0.576900	0.144980	0.416380
C2301	C230	0.499800	0.227600	0.220630
C2311	C231	0.817000	0.092890	0.428550
C2321	C232	0.916000	0.802900	0.870920
C2331	C233	0.072900	0.806830	0.130310
C2341	C234	0.523700	0.169480	0.392150
C2351	C235	0.923400	0.608570	0.539700
C2361	C236	0.214300	0.889920	0.066340
C2371	C237	0.577400	0.332150	0.891220
C2381	C238	0.430800	0.152170	0.641990
C2391	C239	0.523100	0.092290	0.486940
C2401	C240	0.183000	0.407110	0.928550
C2411	C241	0.423100	0.355020	0.916380
C2421	C242	0.625200	0.309890	0.868060
C2431	C243	0.960300	0.722590	0.237880
C2441	C244	0.922600	0.832150	0.108780
C2451	C245	0.147600	0.410500	0.900460
C2461	C246	0.519200	0.215000	0.347360
C2471	C247	0.435800	0.323510	0.649850
C2481	C248	0.374600	0.085200	0.514210
C2491	C249	0.976300	0.669480	0.607850
C2501	C250	0.096000	0.875850	0.393730
C2511	C251	0.530900	0.222480	0.189330
C2521	C252	0.124400	0.421400	0.951070
C2531	C253	0.875600	0.078600	0.451070
C2541	C254	0.404000	0.375850	0.606270
C2551	C255	0.444900	0.928500	0.104000
C2561	C256	0.569200	0.347830	0.141990
C2571	C257	0.610200	0.078870	0.094030
C2581	C258	0.023700	0.830520	0.107850
C2591	C259	0.564900	0.305330	0.764930
C2601	C260	0.422600	0.167850	0.391220
C2611	C261	0.984500	0.553210	0.466450
C2621	C262	0.115200	0.698840	0.399870
C2631	C263	0.927800	0.586780	0.847590
C2641	C264	0.980800	0.715000	0.652640
C2651	C265	0.683000	0.592890	0.571450
C2661	C266	0.515500	0.053210	0.533550
C2671	C267	0.625400	0.414800	0.014210
C2681	C268	0.412900	0.457700	0.638460
C2691	C269	0.615200	0.301160	0.100130
C2701	C270	0.874800	0.809890	0.131940
C2711	C271	0.015500	0.946790	0.966450
C2721	C272	0.913800	0.889120	0.874500
C2731	C273	0.086200	0.610880	0.374500
C2741	C274	0.935800	0.676490	0.850150
C2751	C275	0.084000	0.697100	0.370920
C2761	C276	0.564200	0.176490	0.149850
C2771	C277	0.389800	0.421130	0.594030
C2781	C278	0.285700	0.389920	0.933660
C2791	C279	0.944900	0.071500	0.396000
C2801	C280	0.476900	0.407710	0.986940
C2811	C281	0.427100	0.306830	0.869690
C2821	C282	0.496200	0.273480	0.233630
C2831	C283	0.922800	0.899900	0.010630
C2841	C284	0.503800	0.226520	0.733630
C2851	C285	0.970800	0.812440	0.263110
C2861	C286	0.470800	0.187560	0.236890
C2871	C287	0.077800	0.871580	0.364040
C2881	C288	0.416000	0.197100	0.629080
I251	I25	0.163560	0.055020	0.567410
I261	I26	0.663560	0.944980	0.932590
I271	I27	0.431590	0.981650	0.603560
I281	I28	0.827210	0.662330	0.174470
I291	I29	0.283920	0.578520	0.630760
I301	I30	0.216080	0.078520	0.369230
I311	I31	0.836440	0.444980	0.067410
I321	I32	0.327210	0.337670	0.325530
I331	I33	0.672790	0.162330	0.825530
I341	I34	0.783920	0.421480	0.869240
I351	I35	0.691240	0.803630	0.195550
I361	I36	0.779910	0.487850	0.958990
I371	I37	0.931590	0.018350	0.896440
I381	I38	0.336440	0.555020	0.432590
I391	I39	0.191240	0.196370	0.304450
I401	I40	0.808760	0.303630	0.804450
I411	I41	0.172790	0.837670	0.674470
I421	I42	0.568410	0.518350	0.103560
I431	I43	0.220090	0.012150	0.458990
I441	I44	0.720090	0.987850	0.041010
I451	I45	0.308760	0.696370	0.695550
I461	I46	0.279910	0.512150	0.541010
I471	I47	0.716080	0.921480	0.130770
I481	I48	0.068410	0.481650	0.396440
N491	N49	0.578700	0.215240	0.132650
N501	N50	0.617100	0.387880	0.097990
N511	N51	0.328700	0.403270	0.958800
N521	N52	0.526000	0.132210	0.440180
N531	N53	0.959200	0.677990	0.821580
N541	N54	0.581200	0.437980	0.036620
N551	N55	0.172500	0.865100	0.088160
N561	N56	0.040800	0.822010	0.321580
N571	N57	0.921200	0.786860	0.153210
N581	N58	0.540800	0.177990	0.178420
N591	N59	0.117100	0.612120	0.402010
N601	N60	0.393000	0.461490	0.609720
N611	N61	0.081200	0.562020	0.463380
N621	N62	0.421200	0.213140	0.346790
N631	N63	0.607000	0.038510	0.109720
N641	N64	0.428700	0.239160	0.277350
N651	N65	0.327500	0.365100	0.911840
N661	N66	0.171300	0.903270	0.041200
N671	N67	0.827500	0.634900	0.588160
N681	N68	0.078700	0.784760	0.367350
N691	N69	0.974000	0.632210	0.559820
N701	N70	0.107000	0.961490	0.390280
N711	N71	0.543900	0.263580	0.174350
N721	N72	0.918800	0.937980	0.963380
N731	N73	0.578800	0.286860	0.846790
N741	N74	0.078800	0.713140	0.653210
N751	N75	0.928700	0.760840	0.222650
N761	N76	0.418800	0.062020	0.536620
N771	N77	0.421300	0.284760	0.632650
N781	N78	0.502100	0.942550	0.081750
N791	N79	0.497900	0.557450	0.581750
N801	N80	0.043900	0.736420	0.325650
N811	N81	0.026000	0.867790	0.059820
N821	N82	0.456100	0.236420	0.674350
N831	N83	0.882900	0.887880	0.902010
N841	N84	0.921300	0.715240	0.867350
N851	N85	0.671300	0.096730	0.458800
N861	N86	0.382900	0.112120	0.597990
N871	N87	0.997900	0.442550	0.918250
N881	N88	0.474000	0.367790	0.940180
N891	N89	0.459200	0.322010	0.678420
N901	N90	0.571300	0.260840	0.777350
N911	N91	0.893000	0.538510	0.890280
N921	N92	0.956100	0.763580	0.825650
N931	N93	0.002100	0.057450	0.418250
N941	N94	0.071300	0.739160	0.722650
N951	N95	0.828700	0.596730	0.541200
N961	N96	0.672500	0.134900	0.411840
