data_ja109659k_si_002_freeONLY_PM
_symmetry_space_group_name_H-M	'P1'
_cell_length_a	15.394400
_cell_length_b	15.394400
_cell_length_c	15.394400
_cell_angle_alpha	90.000000
_cell_angle_beta	90.000000
_cell_angle_gamma	90.000000
_symmetry_Int_Tables_number 1

loop_
_symmetry_equiv_pos_as_xyz
'x,y,z'

loop_
_atom_site_label
_atom_site_type_symbol
_atom_site_fract_x
_atom_site_fract_y
_atom_site_fract_z
C11	C1	0.340850	0.769830	0.769830
C21	C2	0.696110	0.696110	0.806610
C31	C3	0.303890	0.806610	0.696110
C41	C4	0.303890	0.696110	0.806610
C51	C5	0.303890	0.193390	0.303890
C61	C6	0.883140	0.346770	0.346770
C71	C7	0.303890	0.806610	0.303890
C81	C8	0.769830	0.230170	0.340850
C91	C9	0.806610	0.696110	0.696110
C101	C10	0.303890	0.193390	0.696110
C111	C11	0.659150	0.230170	0.769830
C121	C12	0.340850	0.769830	0.230170
C131	C13	0.346770	0.653230	0.883140
C141	C14	0.193390	0.696110	0.303890
C151	C15	0.346770	0.653230	0.116860
C161	C16	0.193390	0.303890	0.303890
C171	C17	0.806610	0.696110	0.303890
C181	C18	0.230170	0.769830	0.659150
C191	C19	0.303890	0.696110	0.193390
C201	C20	0.230170	0.769830	0.340850
C211	C21	0.346770	0.346770	0.116860
C221	C22	0.769830	0.769830	0.659150
C231	C23	0.696110	0.696110	0.193390
C241	C24	0.340850	0.230170	0.769830
C251	C25	0.193390	0.696110	0.696110
C261	C26	0.769830	0.659150	0.769830
C271	C27	0.653230	0.116860	0.346770
C281	C28	0.883140	0.653230	0.653230
C291	C29	0.653230	0.346770	0.883140
C301	C30	0.230170	0.659150	0.230170
C311	C31	0.346770	0.346770	0.883140
C321	C32	0.696110	0.806610	0.303890
C331	C33	0.230170	0.230170	0.659150
C341	C34	0.653230	0.653230	0.883140
C351	C35	0.116860	0.653230	0.653230
C361	C36	0.193390	0.303890	0.696110
C371	C37	0.303890	0.303890	0.806610
C381	C38	0.653230	0.653230	0.116860
C391	C39	0.346770	0.116860	0.653230
C401	C40	0.659150	0.230170	0.230170
C411	C41	0.696110	0.303890	0.806610
C421	C42	0.659150	0.769830	0.769830
C431	C43	0.116860	0.346770	0.653230
C441	C44	0.653230	0.346770	0.116860
C451	C45	0.116860	0.653230	0.346770
C461	C46	0.116860	0.346770	0.346770
C471	C47	0.769830	0.340850	0.769830
C481	C48	0.653230	0.883140	0.653230
C491	C49	0.230170	0.340850	0.769830
C501	C50	0.696110	0.193390	0.696110
C511	C51	0.696110	0.806610	0.696110
C521	C52	0.230170	0.230170	0.340850
C531	C53	0.883140	0.346770	0.653230
C541	C54	0.659150	0.769830	0.230170
C551	C55	0.696110	0.303890	0.193390
C561	C56	0.346770	0.883140	0.653230
C571	C57	0.769830	0.340850	0.230170
C581	C58	0.883140	0.653230	0.346770
C591	C59	0.769830	0.230170	0.659150
C601	C60	0.230170	0.659150	0.769830
C611	C61	0.346770	0.883140	0.346770
C621	C62	0.653230	0.116860	0.653230
C631	C63	0.303890	0.303890	0.193390
C641	C64	0.340850	0.230170	0.230170
C651	C65	0.769830	0.769830	0.340850
C661	C66	0.806610	0.303890	0.303890
C671	C67	0.653230	0.883140	0.346770
C681	C68	0.696110	0.193390	0.303890
C691	C69	0.769830	0.659150	0.230170
C701	C70	0.230170	0.340850	0.230170
C711	C71	0.806610	0.303890	0.696110
C721	C72	0.346770	0.116860	0.346770
Cl11	Cl1	0.500000	0.000000	0.500000
Cl21	Cl2	0.500000	0.500000	0.000000
Cl31	Cl3	0.000000	0.500000	0.500000
Cu11	Cu1	0.335140	0.500000	0.000000
Cu21	Cu2	0.000000	0.335140	0.500000
Cu31	Cu3	0.000000	0.500000	0.335140
Cu41	Cu4	0.500000	0.664860	0.000000
Cu51	Cu5	0.500000	0.335140	0.000000
Cu61	Cu6	0.000000	0.500000	0.664860
Cu71	Cu7	0.664860	0.000000	0.500000
Cu81	Cu8	0.664860	0.500000	0.000000
Cu91	Cu9	0.500000	0.000000	0.664860
Cu101	Cu10	0.000000	0.664860	0.500000
Cu111	Cu11	0.500000	0.000000	0.335140
Cu121	Cu12	0.335140	0.000000	0.500000
H11	H1	0.390200	0.794500	0.794500
H21	H2	0.205500	0.609800	0.794500
H31	H3	0.794500	0.390200	0.794500
H41	H4	0.390200	0.205500	0.794500
H51	H5	0.609800	0.794500	0.794500
H61	H6	0.205500	0.390200	0.205500
H71	H7	0.205500	0.205500	0.609800
H81	H8	0.390200	0.794500	0.205500
H91	H9	0.205500	0.390200	0.794500
H101	H10	0.205500	0.609800	0.205500
H111	H11	0.794500	0.794500	0.609800
H121	H12	0.794500	0.205500	0.609800
H131	H13	0.205500	0.794500	0.390200
H141	H14	0.609800	0.205500	0.794500
H151	H15	0.390200	0.205500	0.205500
H161	H16	0.794500	0.794500	0.390200
H171	H17	0.794500	0.609800	0.794500
H181	H18	0.794500	0.205500	0.390200
H191	H19	0.205500	0.794500	0.609800
H201	H20	0.794500	0.609800	0.205500
H211	H21	0.794500	0.390200	0.205500
H221	H22	0.205500	0.205500	0.390200
H231	H23	0.609800	0.794500	0.205500
H241	H24	0.609800	0.205500	0.205500
O11	O1	0.585200	0.687960	0.910400
O21	O2	0.910400	0.312040	0.585200
O31	O3	0.910400	0.687960	0.414800
O41	O4	0.687960	0.910400	0.585200
O51	O5	0.089600	0.414800	0.312040
O61	O6	0.312040	0.089600	0.585200
O71	O7	0.687960	0.414800	0.089600
O81	O8	0.089600	0.687960	0.414800
O91	O9	0.414800	0.687960	0.910400
O101	O10	0.312040	0.585200	0.910400
O111	O11	0.089600	0.585200	0.312040
O121	O12	0.585200	0.089600	0.312040
O131	O13	0.414800	0.910400	0.312040
O141	O14	0.414800	0.089600	0.312040
O151	O15	0.312040	0.089600	0.414800
O161	O16	0.585200	0.312040	0.910400
O171	O17	0.585200	0.312040	0.089600
O181	O18	0.312040	0.414800	0.910400
O191	O19	0.585200	0.089600	0.687960
O201	O20	0.687960	0.585200	0.910400
O211	O21	0.414800	0.089600	0.687960
O221	O22	0.089600	0.414800	0.687960
O231	O23	0.089600	0.312040	0.585200
O241	O24	0.687960	0.089600	0.585200
O251	O25	0.585200	0.910400	0.687960
O261	O26	0.910400	0.312040	0.414800
O271	O27	0.414800	0.910400	0.687960
O281	O28	0.910400	0.585200	0.312040
O291	O29	0.089600	0.687960	0.585200
O301	O30	0.687960	0.910400	0.414800
O311	O31	0.414800	0.687960	0.089600
O321	O32	0.687960	0.585200	0.089600
O331	O33	0.910400	0.414800	0.312040
O341	O34	0.585200	0.687960	0.089600
O351	O35	0.312040	0.910400	0.414800
O361	O36	0.585200	0.910400	0.312040
O371	O37	0.312040	0.585200	0.089600
O381	O38	0.414800	0.312040	0.089600
O391	O39	0.312040	0.414800	0.089600
O401	O40	0.910400	0.414800	0.687960
O411	O41	0.910400	0.585200	0.687960
O421	O42	0.089600	0.312040	0.414800
O431	O43	0.687960	0.089600	0.414800
O441	O44	0.910400	0.687960	0.585200
O451	O45	0.089600	0.585200	0.687960
O461	O46	0.414800	0.312040	0.910400
O471	O47	0.687960	0.414800	0.910400
O481	O48	0.312040	0.910400	0.585200
