data_ja110042b_si_003_freeONLY_PM
_symmetry_space_group_name_H-M	'P1'
_cell_length_a	29.915400
_cell_length_b	29.915400
_cell_length_c	29.915400
_cell_angle_alpha	60.000000
_cell_angle_beta	60.000000
_cell_angle_gamma	60.000000
_symmetry_Int_Tables_number 1

loop_
_symmetry_equiv_pos_as_xyz
'x,y,z'

loop_
_atom_site_label
_atom_site_type_symbol
_atom_site_fract_x
_atom_site_fract_y
_atom_site_fract_z
Co11	Co1	0.265190	0.011490	0.734810
Co21	Co2	0.638290	0.361710	0.012750
Co31	Co3	0.012750	0.361710	0.987250
Co41	Co4	0.012750	0.987250	0.638290
Co51	Co5	0.012750	0.638290	0.361710
Co61	Co6	0.011490	0.734810	0.265190
Co71	Co7	0.987250	0.361710	0.638290
Co81	Co8	0.361710	0.987250	0.012750
Co91	Co9	0.011490	0.265190	0.988510
Co101	Co10	0.987250	0.012750	0.361710
Co111	Co11	0.734810	0.011490	0.988510
Co121	Co12	0.734810	0.988510	0.265190
Co131	Co13	0.734810	0.265190	0.011490
Co141	Co14	0.638290	0.012750	0.987250
Co151	Co15	0.988510	0.265190	0.734810
Co161	Co16	0.265190	0.734810	0.988510
Co171	Co17	0.361710	0.638290	0.987250
Co181	Co18	0.638290	0.987250	0.361710
Co191	Co19	0.988510	0.734810	0.011490
Co201	Co20	0.988510	0.011490	0.265190
Co211	Co21	0.011490	0.988510	0.734810
Co221	Co22	0.987250	0.638290	0.012750
Co231	Co23	0.361710	0.012750	0.638290
Co241	Co24	0.265190	0.988510	0.011490
H11	H1	0.984900	0.159500	0.677100
H21	H2	0.300700	0.184500	0.550300
H31	H3	0.837200	0.015800	0.688400
H41	H4	0.242900	0.979700	0.309700
H51	H5	0.162800	0.541400	0.984200
H61	H6	0.677100	0.984900	0.159500
H71	H7	0.263300	0.948100	0.383500
H81	H8	0.964500	0.550300	0.184500
H91	H9	0.757100	0.690300	0.532300
H101	H10	0.035500	0.699300	0.449700
H111	H11	0.699300	0.815500	0.449700
H121	H12	0.699300	0.035500	0.815500
H131	H13	0.840500	0.322900	0.015100
H141	H14	0.300700	0.964500	0.184500
H151	H15	0.311600	0.162800	0.984200
H161	H16	0.815500	0.035500	0.449700
H171	H17	0.690300	0.532300	0.757100
H181	H18	0.690300	0.757100	0.020300
H191	H19	0.309700	0.242900	0.979700
H201	H20	0.458600	0.688400	0.015800
H211	H21	0.051900	0.594900	0.616500
H221	H22	0.677100	0.159500	0.178500
H231	H23	0.162800	0.984200	0.311600
H241	H24	0.616500	0.594900	0.736700
H251	H25	0.405100	0.383500	0.948100
H261	H26	0.242900	0.309700	0.467700
H271	H27	0.984900	0.178500	0.159500
H281	H28	0.736700	0.594900	0.051900
H291	H29	0.757100	0.020300	0.690300
H301	H30	0.840500	0.015100	0.821500
H311	H31	0.159500	0.178500	0.677100
H321	H32	0.979700	0.242900	0.467700
H331	H33	0.020300	0.757100	0.532300
H341	H34	0.015100	0.821500	0.840500
H351	H35	0.015800	0.688400	0.837200
H361	H36	0.964500	0.184500	0.300700
H371	H37	0.550300	0.300700	0.184500
H381	H38	0.690300	0.020300	0.532300
H391	H39	0.178500	0.677100	0.159500
H401	H40	0.699300	0.449700	0.035500
H411	H41	0.300700	0.550300	0.964500
H421	H42	0.184500	0.964500	0.550300
H431	H43	0.984200	0.541400	0.311600
H441	H44	0.184500	0.300700	0.964500
H451	H45	0.821500	0.840500	0.015100
H461	H46	0.964500	0.300700	0.550300
H471	H47	0.405100	0.263300	0.383500
H481	H48	0.035500	0.449700	0.815500
H491	H49	0.051900	0.616500	0.736700
H501	H50	0.322900	0.015100	0.840500
H511	H51	0.688400	0.015800	0.458600
H521	H52	0.467700	0.979700	0.242900
H531	H53	0.688400	0.458600	0.837200
H541	H54	0.979700	0.467700	0.309700
H551	H55	0.616500	0.736700	0.051900
H561	H56	0.309700	0.467700	0.242900
H571	H57	0.263300	0.383500	0.405100
H581	H58	0.015800	0.837200	0.458600
H591	H59	0.688400	0.837200	0.015800
H601	H60	0.616500	0.051900	0.594900
H611	H61	0.677100	0.178500	0.984900
H621	H62	0.594900	0.051900	0.736700
H631	H63	0.757100	0.532300	0.020300
H641	H64	0.178500	0.159500	0.984900
H651	H65	0.159500	0.677100	0.984900
H661	H66	0.594900	0.736700	0.616500
H671	H67	0.383500	0.948100	0.405100
H681	H68	0.815500	0.449700	0.699300
H691	H69	0.532300	0.690300	0.020300
H701	H70	0.948100	0.405100	0.383500
H711	H71	0.948100	0.383500	0.263300
H721	H72	0.449700	0.035500	0.699300
H731	H73	0.815500	0.699300	0.035500
H741	H74	0.405100	0.948100	0.263300
H751	H75	0.984900	0.677100	0.178500
H761	H76	0.015800	0.458600	0.688400
H771	H77	0.383500	0.263300	0.948100
H781	H78	0.541400	0.162800	0.311600
H791	H79	0.263300	0.405100	0.948100
H801	H80	0.159500	0.984900	0.178500
H811	H81	0.736700	0.616500	0.594900
H821	H82	0.322900	0.840500	0.821500
H831	H83	0.948100	0.263300	0.405100
H841	H84	0.550300	0.964500	0.300700
H851	H85	0.532300	0.020300	0.757100
H861	H86	0.594900	0.616500	0.051900
H871	H87	0.020300	0.690300	0.757100
H881	H88	0.736700	0.051900	0.616500
H891	H89	0.458600	0.015800	0.837200
H901	H90	0.015100	0.322900	0.821500
H911	H91	0.467700	0.242900	0.309700
H921	H92	0.984200	0.162800	0.541400
H931	H93	0.311600	0.541400	0.162800
H941	H94	0.449700	0.699300	0.815500
H951	H95	0.242900	0.467700	0.979700
H961	H96	0.821500	0.015100	0.322900
H971	H97	0.322900	0.821500	0.015100
H981	H98	0.984200	0.311600	0.162800
H991	H99	0.311600	0.984200	0.541400
H1001	H100	0.467700	0.309700	0.979700
H1011	H101	0.184500	0.550300	0.300700
H1021	H102	0.550300	0.184500	0.964500
H1031	H103	0.541400	0.984200	0.162800
H1041	H104	0.821500	0.322900	0.840500
H1051	H105	0.541400	0.311600	0.984200
H1061	H106	0.458600	0.837200	0.688400
H1071	H107	0.015100	0.840500	0.322900
H1081	H108	0.979700	0.309700	0.242900
H1091	H109	0.449700	0.815500	0.035500
H1101	H110	0.035500	0.815500	0.699300
H1111	H111	0.020300	0.532300	0.690300
H1121	H112	0.178500	0.984900	0.677100
H1131	H113	0.840500	0.821500	0.322900
H1141	H114	0.532300	0.757100	0.690300
H1151	H115	0.837200	0.458600	0.015800
H1161	H116	0.837200	0.688400	0.458600
H1171	H117	0.162800	0.311600	0.541400
H1181	H118	0.383500	0.405100	0.263300
H1191	H119	0.309700	0.979700	0.467700
H1201	H120	0.051900	0.736700	0.594900
C11	C1	0.234730	0.974830	0.172270
C21	C2	0.821300	0.357700	0.018100
C31	C3	0.381830	0.025170	0.765270
C41	C4	0.561600	0.277000	0.980600
C51	C5	0.090890	0.995290	0.276710
C61	C6	0.030700	0.433700	0.799100
C71	C7	0.018100	0.802900	0.821300
C81	C8	0.630400	0.702000	0.049400
C91	C9	0.030700	0.736500	0.433700
C101	C10	0.736500	0.433700	0.030700
C111	C11	0.298000	0.950600	0.369600
C121	C12	0.051300	0.540900	0.724900
C131	C13	0.386350	0.015350	0.848250
C141	C14	0.362890	0.723290	0.004710
C151	C15	0.004710	0.723290	0.909110
C161	C16	0.369600	0.298000	0.950600
C171	C17	0.065000	0.511000	0.935000
C181	C18	0.065000	0.489000	0.511000
C191	C19	0.025170	0.381830	0.827730
C201	C20	0.984650	0.613650	0.249950
C211	C21	0.618170	0.172270	0.974830
C221	C22	0.948700	0.459100	0.275100
C231	C23	0.765270	0.827730	0.381830
C241	C24	0.750050	0.386350	0.848250
C251	C25	0.236700	0.539500	0.971100
C261	C26	0.004710	0.362890	0.723290
C271	C27	0.460500	0.028900	0.763300
C281	C28	0.952300	0.402500	0.315100
C291	C29	0.684900	0.597500	0.669900
C301	C30	0.197100	0.642300	0.178700
C311	C31	0.028900	0.763300	0.460500
C321	C32	0.827730	0.025170	0.381830
C331	C33	0.765270	0.381830	0.025170
C341	C34	0.049400	0.702000	0.618200
C351	C35	0.330100	0.315100	0.402500
C361	C36	0.275100	0.317100	0.948700
C371	C37	0.618200	0.630400	0.049400
C381	C38	0.172270	0.234730	0.974830
C391	C39	0.277000	0.180800	0.980600
C401	C40	0.252700	0.236700	0.971100
C411	C41	0.995290	0.637110	0.276710
C421	C42	0.459100	0.317100	0.275100
C431	C43	0.049400	0.618200	0.630400
C441	C44	0.090890	0.276710	0.637110
C451	C45	0.249950	0.613650	0.151750
C461	C46	0.935000	0.065000	0.511000
C471	C47	0.723290	0.362890	0.909110
C481	C48	0.969300	0.566300	0.200900
C491	C49	0.974830	0.172270	0.234730
C501	C50	0.566300	0.969300	0.263500
C511	C51	0.682900	0.724900	0.540900
C521	C52	0.736300	0.025100	0.886100
C531	C53	0.381800	0.369600	0.950600
C541	C54	0.047700	0.669900	0.597500
C551	C55	0.561600	0.980600	0.180800
C561	C56	0.763300	0.028900	0.747300
C571	C57	0.200900	0.969300	0.566300
C581	C58	0.025100	0.736300	0.352500
C591	C59	0.019400	0.723000	0.819200
C601	C60	0.263700	0.113900	0.647500
C611	C61	0.647500	0.263700	0.113900
C621	C62	0.018100	0.821300	0.357700
C631	C63	0.630400	0.049400	0.618200
C641	C64	0.642300	0.178700	0.197100
C651	C65	0.974830	0.234730	0.618170
C661	C66	0.090890	0.637110	0.995290
C671	C67	0.736500	0.030700	0.799100
C681	C68	0.747300	0.460500	0.763300
C691	C69	0.980600	0.277000	0.180800
C701	C70	0.950600	0.381800	0.369600
C711	C71	0.948700	0.317100	0.459100
C721	C72	0.386350	0.750050	0.015350
C731	C73	0.200900	0.566300	0.263500
C741	C74	0.317100	0.275100	0.459100
C751	C75	0.948700	0.275100	0.317100
C761	C76	0.909110	0.723290	0.362890
C771	C77	0.180800	0.980600	0.277000
C781	C78	0.352500	0.025100	0.736300
C791	C79	0.939300	0.435100	0.564900
C801	C80	0.511000	0.935000	0.065000
C811	C81	0.352500	0.886100	0.025100
C821	C82	0.540900	0.724900	0.051300
C831	C83	0.723000	0.438400	0.819200
C841	C84	0.647500	0.113900	0.974900
C851	C85	0.433700	0.030700	0.736500
C861	C86	0.252700	0.539500	0.236700
C871	C87	0.197100	0.178700	0.981900
C881	C88	0.684900	0.669900	0.047700
C891	C89	0.886100	0.352500	0.736300
C901	C90	0.357700	0.802900	0.018100
C911	C91	0.315100	0.952300	0.402500
C921	C92	0.723000	0.019400	0.438400
C931	C93	0.019400	0.819200	0.438400
C941	C94	0.618200	0.702000	0.630400
C951	C95	0.561600	0.180800	0.277000
C961	C96	0.702000	0.618200	0.049400
C971	C97	0.263700	0.647500	0.974900
C981	C98	0.047700	0.597500	0.684900
C991	C99	0.025100	0.352500	0.886100
C1001	C100	0.637110	0.995290	0.090890
C1011	C101	0.950600	0.369600	0.298000
C1021	C102	0.015350	0.848250	0.386350
C1031	C103	0.736300	0.886100	0.352500
C1041	C104	0.974900	0.113900	0.263700
C1051	C105	0.909110	0.362890	0.004710
C1061	C106	0.750050	0.848250	0.015350
C1071	C107	0.276710	0.995290	0.637110
C1081	C108	0.357700	0.018100	0.821300
C1091	C109	0.984650	0.249950	0.151750
C1101	C110	0.821300	0.802900	0.357700
C1111	C111	0.381830	0.765270	0.827730
C1121	C112	0.178700	0.197100	0.642300
C1131	C113	0.974900	0.263700	0.647500
C1141	C114	0.630400	0.618200	0.702000
C1151	C115	0.724900	0.051300	0.540900
C1161	C116	0.381800	0.950600	0.298000
C1171	C117	0.642300	0.981900	0.178700
C1181	C118	0.564900	0.060700	0.939300
C1191	C119	0.819200	0.723000	0.438400
C1201	C120	0.981900	0.197100	0.178700
C1211	C121	0.236700	0.971100	0.252700
C1221	C122	0.848250	0.386350	0.015350
C1231	C123	0.613650	0.984650	0.151750
C1241	C124	0.435100	0.939300	0.060700
C1251	C125	0.974900	0.647500	0.113900
C1261	C126	0.459100	0.948700	0.317100
C1271	C127	0.736500	0.799100	0.433700
C1281	C128	0.909110	0.004710	0.723290
C1291	C129	0.995290	0.090890	0.637110
C1301	C130	0.249950	0.984650	0.613650
C1311	C131	0.030700	0.799100	0.736500
C1321	C132	0.249950	0.151750	0.984650
C1331	C133	0.669900	0.684900	0.597500
C1341	C134	0.971100	0.252700	0.236700
C1351	C135	0.566300	0.263500	0.200900
C1361	C136	0.723000	0.819200	0.019400
C1371	C137	0.060700	0.564900	0.435100
C1381	C138	0.004710	0.909110	0.362890
C1391	C139	0.015350	0.750050	0.848250
C1401	C140	0.702000	0.049400	0.630400
C1411	C141	0.939300	0.564900	0.060700
C1421	C142	0.736300	0.352500	0.025100
C1431	C143	0.015350	0.386350	0.750050
C1441	C144	0.489000	0.065000	0.935000
C1451	C145	0.438400	0.819200	0.723000
C1461	C146	0.952300	0.330100	0.402500
C1471	C147	0.971100	0.539500	0.252700
C1481	C148	0.763300	0.460500	0.028900
C1491	C149	0.051300	0.724900	0.682900
C1501	C150	0.180800	0.277000	0.561600
C1511	C151	0.511000	0.065000	0.489000
C1521	C152	0.178700	0.981900	0.197100
C1531	C153	0.647500	0.974900	0.263700
C1541	C154	0.747300	0.763300	0.028900
C1551	C155	0.236700	0.252700	0.539500
C1561	C156	0.113900	0.974900	0.647500
C1571	C157	0.402500	0.952300	0.330100
C1581	C158	0.317100	0.459100	0.948700
C1591	C159	0.819200	0.019400	0.723000
C1601	C160	0.540900	0.051300	0.682900
C1611	C161	0.298000	0.381800	0.950600
C1621	C162	0.827730	0.765270	0.025170
C1631	C163	0.025100	0.886100	0.736300
C1641	C164	0.540900	0.682900	0.724900
C1651	C165	0.723290	0.909110	0.004710
C1661	C166	0.151750	0.249950	0.613650
C1671	C167	0.362890	0.004710	0.909110
C1681	C168	0.263500	0.200900	0.566300
C1691	C169	0.028900	0.460500	0.747300
C1701	C170	0.298000	0.369600	0.381800
C1711	C171	0.151750	0.613650	0.984650
C1721	C172	0.018100	0.357700	0.802900
C1731	C173	0.827730	0.381830	0.765270
C1741	C174	0.438400	0.723000	0.019400
C1751	C175	0.969300	0.263500	0.566300
C1761	C176	0.178700	0.642300	0.981900
C1771	C177	0.618200	0.049400	0.702000
C1781	C178	0.597500	0.669900	0.684900
C1791	C179	0.935000	0.511000	0.489000
C1801	C180	0.369600	0.950600	0.381800
C1811	C181	0.234730	0.618170	0.974830
C1821	C182	0.939300	0.060700	0.435100
C1831	C183	0.539500	0.971100	0.236700
C1841	C184	0.802900	0.018100	0.357700
C1851	C185	0.886100	0.025100	0.352500
C1861	C186	0.402500	0.330100	0.315100
C1871	C187	0.065000	0.935000	0.489000
C1881	C188	0.799100	0.736500	0.030700
C1891	C189	0.539500	0.236700	0.252700
C1901	C190	0.315100	0.330100	0.952300
C1911	C191	0.172270	0.618170	0.234730
C1921	C192	0.597500	0.684900	0.047700
C1931	C193	0.113900	0.647500	0.263700
C1941	C194	0.047700	0.684900	0.669900
C1951	C195	0.277000	0.561600	0.180800
C1961	C196	0.763300	0.747300	0.460500
C1971	C197	0.618170	0.234730	0.172270
C1981	C198	0.886100	0.736300	0.025100
C1991	C199	0.317100	0.948700	0.275100
C2001	C200	0.802900	0.821300	0.018100
C2011	C201	0.386350	0.848250	0.750050
C2021	C202	0.952300	0.315100	0.330100
C2031	C203	0.352500	0.736300	0.886100
C2041	C204	0.460500	0.763300	0.747300
C2051	C205	0.539500	0.252700	0.971100
C2061	C206	0.151750	0.984650	0.249950
C2071	C207	0.025170	0.827730	0.765270
C2081	C208	0.819200	0.438400	0.019400
C2091	C209	0.747300	0.028900	0.460500
C2101	C210	0.637110	0.276710	0.995290
C2111	C211	0.682900	0.540900	0.051300
C2121	C212	0.642300	0.197100	0.981900
C2131	C213	0.981900	0.178700	0.642300
C2141	C214	0.848250	0.750050	0.386350
C2151	C215	0.381800	0.298000	0.369600
C2161	C216	0.489000	0.511000	0.065000
C2171	C217	0.799100	0.030700	0.433700
C2181	C218	0.980600	0.561600	0.277000
C2191	C219	0.263700	0.974900	0.113900
C2201	C220	0.435100	0.564900	0.939300
C2211	C221	0.460500	0.747300	0.028900
C2221	C222	0.618170	0.974830	0.234730
C2231	C223	0.357700	0.821300	0.802900
C2241	C224	0.765270	0.025170	0.827730
C2251	C225	0.564900	0.435100	0.060700
C2261	C226	0.669900	0.047700	0.684900
C2271	C227	0.019400	0.438400	0.723000
C2281	C228	0.438400	0.019400	0.819200
C2291	C229	0.435100	0.060700	0.564900
C2301	C230	0.025170	0.765270	0.381830
C2311	C231	0.060700	0.939300	0.564900
C2321	C232	0.802900	0.357700	0.821300
C2331	C233	0.637110	0.090890	0.276710
C2341	C234	0.969300	0.200900	0.263500
C2351	C235	0.276710	0.090890	0.995290
C2361	C236	0.981900	0.642300	0.197100
C2371	C237	0.381830	0.827730	0.025170
C2381	C238	0.459100	0.275100	0.948700
C2391	C239	0.433700	0.736500	0.799100
C2401	C240	0.489000	0.935000	0.511000
C2411	C241	0.330100	0.952300	0.315100
C2421	C242	0.113900	0.263700	0.974900
C2431	C243	0.974830	0.618170	0.172270
C2441	C244	0.950600	0.298000	0.381800
C2451	C245	0.180800	0.561600	0.980600
C2461	C246	0.263500	0.969300	0.200900
C2471	C247	0.724900	0.540900	0.682900
C2481	C248	0.597500	0.047700	0.669900
C2491	C249	0.051300	0.682900	0.540900
C2501	C250	0.848250	0.015350	0.750050
C2511	C251	0.750050	0.015350	0.386350
C2521	C252	0.995290	0.276710	0.090890
C2531	C253	0.799100	0.433700	0.736500
C2541	C254	0.511000	0.489000	0.935000
C2551	C255	0.275100	0.459100	0.317100
C2561	C256	0.200900	0.263500	0.969300
C2571	C257	0.702000	0.630400	0.618200
C2581	C258	0.330100	0.402500	0.952300
C2591	C259	0.402500	0.315100	0.952300
C2601	C260	0.060700	0.435100	0.939300
C2611	C261	0.984650	0.151750	0.613650
C2621	C262	0.971100	0.236700	0.539500
C2631	C263	0.724900	0.682900	0.051300
C2641	C264	0.935000	0.489000	0.065000
C2651	C265	0.362890	0.909110	0.723290
C2661	C266	0.252700	0.971100	0.539500
C2671	C267	0.172270	0.974830	0.618170
C2681	C268	0.433700	0.799100	0.030700
C2691	C269	0.263500	0.566300	0.969300
C2701	C270	0.197100	0.981900	0.642300
C2711	C271	0.684900	0.047700	0.597500
C2721	C272	0.369600	0.381800	0.298000
C2731	C273	0.821300	0.018100	0.802900
C2741	C274	0.566300	0.200900	0.969300
C2751	C275	0.669900	0.597500	0.047700
C2761	C276	0.723290	0.004710	0.362890
C2771	C277	0.613650	0.151750	0.249950
C2781	C278	0.234730	0.172270	0.618170
C2791	C279	0.564900	0.939300	0.435100
C2801	C280	0.049400	0.630400	0.702000
C2811	C281	0.276710	0.637110	0.090890
C2821	C282	0.980600	0.180800	0.561600
C2831	C283	0.028900	0.747300	0.763300
C2841	C284	0.277000	0.980600	0.561600
C2851	C285	0.613650	0.249950	0.984650
C2861	C286	0.682900	0.051300	0.724900
C2871	C287	0.315100	0.402500	0.330100
C2881	C288	0.275100	0.948700	0.459100
N11	N1	0.282500	0.967700	0.485700
N21	N2	0.485700	0.264100	0.282500
N31	N3	0.282500	0.485700	0.264100
N41	N4	0.717500	0.032300	0.514300
N51	N5	0.264100	0.967700	0.282500
N61	N6	0.487100	0.079100	0.512900
N71	N7	0.735900	0.514300	0.032300
N81	N8	0.264100	0.485700	0.967700
N91	N9	0.735900	0.032300	0.717500
N101	N10	0.282500	0.264100	0.967700
N111	N11	0.512900	0.487100	0.079100
N121	N12	0.514300	0.717500	0.032300
N131	N13	0.032300	0.514300	0.717500
N141	N14	0.967700	0.282500	0.264100
N151	N15	0.967700	0.264100	0.485700
N161	N16	0.514300	0.735900	0.717500
N171	N17	0.920900	0.512900	0.079100
N181	N18	0.487100	0.512900	0.920900
N191	N19	0.967700	0.485700	0.282500
N201	N20	0.079100	0.487100	0.920900
N211	N21	0.717500	0.514300	0.735900
N221	N22	0.079100	0.920900	0.512900
N231	N23	0.485700	0.967700	0.264100
N241	N24	0.920900	0.079100	0.487100
N251	N25	0.512900	0.920900	0.487100
N261	N26	0.717500	0.735900	0.032300
N271	N27	0.079100	0.512900	0.487100
N281	N28	0.735900	0.717500	0.514300
N291	N29	0.514300	0.032300	0.735900
N301	N30	0.032300	0.717500	0.735900
N311	N31	0.487100	0.920900	0.079100
N321	N32	0.920900	0.487100	0.512900
N331	N33	0.032300	0.735900	0.514300
N341	N34	0.264100	0.282500	0.485700
N351	N35	0.485700	0.282500	0.967700
N361	N36	0.512900	0.079100	0.920900
O11	O1	0.931800	0.239000	0.350000
O21	O2	0.971000	0.429600	0.570400
O31	O3	0.998800	0.197800	0.802200
O41	O4	0.802200	0.998800	0.197800
O51	O5	0.390370	0.677210	0.001590
O61	O6	0.750670	0.931950	0.001690
O71	O7	0.930830	0.390370	0.001590
O81	O8	0.197800	0.001200	0.802200
O91	O9	0.677210	0.001590	0.390370
O101	O10	0.322790	0.998410	0.609630
O111	O11	0.908180	0.687920	0.025080
O121	O12	0.068200	0.650000	0.520800
O131	O13	0.479200	0.931800	0.350000
O141	O14	0.029000	0.429600	0.971000
O151	O15	0.304740	0.907400	0.023960
O161	O16	0.249330	0.068050	0.998310
O171	O17	0.998410	0.069170	0.609630
O181	O18	0.621180	0.091820	0.974920
O191	O19	0.479200	0.350000	0.239000
O201	O20	0.695260	0.092600	0.976040
O211	O21	0.570400	0.429600	0.029000
O221	O22	0.974920	0.091820	0.312080
O231	O23	0.239000	0.931800	0.479200
O241	O24	0.378820	0.687920	0.908180
O251	O25	0.931950	0.315690	0.001690
O261	O26	0.429600	0.029000	0.570400
O271	O27	0.763900	0.907400	0.304740
O281	O28	0.091820	0.621180	0.312080
O291	O29	0.931950	0.750670	0.315690
O301	O30	0.908180	0.025080	0.378820
O311	O31	0.378820	0.025080	0.687920
O321	O32	0.390370	0.001590	0.930830
O331	O33	0.930830	0.001590	0.677210
O341	O34	0.687920	0.908180	0.378820
O351	O35	0.908180	0.378820	0.687920
O361	O36	0.001200	0.197800	0.998800
O371	O37	0.236100	0.092600	0.695260
O381	O38	0.907400	0.023960	0.304740
O391	O39	0.974920	0.621180	0.091820
O401	O40	0.998800	0.802200	0.001200
O411	O41	0.350000	0.479200	0.931800
O421	O42	0.976040	0.236100	0.695260
O431	O43	0.315690	0.931950	0.750670
O441	O44	0.971000	0.029000	0.429600
O451	O45	0.001590	0.677210	0.930830
O461	O46	0.249330	0.998310	0.684310
O471	O47	0.239000	0.350000	0.931800
O481	O48	0.684310	0.249330	0.998310
O491	O49	0.236100	0.976040	0.092600
O501	O50	0.001590	0.930830	0.390370
O511	O51	0.974920	0.312080	0.621180
O521	O52	0.695260	0.976040	0.236100
O531	O53	0.763900	0.304740	0.023960
O541	O54	0.429600	0.971000	0.029000
O551	O55	0.315690	0.001690	0.931950
O561	O56	0.092600	0.976040	0.695260
O571	O57	0.763900	0.023960	0.907400
O581	O58	0.677210	0.930830	0.001590
O591	O59	0.069170	0.609630	0.998410
O601	O60	0.091820	0.974920	0.621180
O611	O61	0.750670	0.315690	0.931950
O621	O62	0.068050	0.249330	0.684310
O631	O63	0.068050	0.684310	0.998310
O641	O64	0.687920	0.025080	0.908180
O651	O65	0.621180	0.974920	0.312080
O661	O66	0.312080	0.091820	0.621180
O671	O67	0.312080	0.974920	0.091820
O681	O68	0.390370	0.930830	0.677210
O691	O69	0.520800	0.650000	0.761000
O701	O70	0.695260	0.236100	0.092600
O711	O71	0.023960	0.907400	0.763900
O721	O72	0.520800	0.761000	0.068200
O731	O73	0.350000	0.931800	0.239000
O741	O74	0.907400	0.763900	0.023960
O751	O75	0.520800	0.068200	0.650000
O761	O76	0.609630	0.322790	0.998410
O771	O77	0.068200	0.761000	0.650000
O781	O78	0.761000	0.068200	0.520800
O791	O79	0.650000	0.761000	0.520800
O801	O80	0.429600	0.570400	0.971000
O811	O81	0.378820	0.908180	0.025080
O821	O82	0.025080	0.908180	0.687920
O831	O83	0.001200	0.802200	0.197800
O841	O84	0.609630	0.069170	0.322790
O851	O85	0.001690	0.931950	0.315690
O861	O86	0.092600	0.236100	0.976040
O871	O87	0.069170	0.998410	0.322790
O881	O88	0.684310	0.068050	0.249330
O891	O89	0.001690	0.315690	0.750670
O901	O90	0.621180	0.312080	0.091820
O911	O91	0.322790	0.609630	0.069170
O921	O92	0.907400	0.304740	0.763900
O931	O93	0.236100	0.695260	0.976040
O941	O94	0.001690	0.750670	0.931950
O951	O95	0.239000	0.479200	0.350000
O961	O96	0.304740	0.763900	0.907400
O971	O97	0.609630	0.998410	0.069170
O981	O98	0.802200	0.197800	0.001200
O991	O99	0.025080	0.687920	0.378820
O1001	O100	0.197800	0.802200	0.998800
O1011	O101	0.931950	0.001690	0.750670
O1021	O102	0.761000	0.520800	0.650000
O1031	O103	0.930830	0.677210	0.390370
O1041	O104	0.068050	0.998310	0.249330
O1051	O105	0.029000	0.971000	0.570400
O1061	O106	0.312080	0.621180	0.974920
O1071	O107	0.570400	0.971000	0.429600
O1081	O108	0.650000	0.520800	0.068200
O1091	O109	0.092600	0.695260	0.236100
O1101	O110	0.802200	0.001200	0.998800
O1111	O111	0.197800	0.998800	0.001200
O1121	O112	0.650000	0.068200	0.761000
O1131	O113	0.931800	0.479200	0.239000
O1141	O114	0.023960	0.304740	0.907400
O1151	O115	0.304740	0.023960	0.763900
O1161	O116	0.998310	0.684310	0.249330
O1171	O117	0.677210	0.390370	0.930830
O1181	O118	0.998310	0.068050	0.684310
O1191	O119	0.068200	0.520800	0.761000
O1201	O120	0.998410	0.609630	0.322790
O1211	O121	0.998410	0.322790	0.069170
O1221	O122	0.761000	0.650000	0.068200
O1231	O123	0.998800	0.001200	0.197800
O1241	O124	0.322790	0.069170	0.998410
O1251	O125	0.570400	0.029000	0.971000
O1261	O126	0.001200	0.998800	0.802200
O1271	O127	0.069170	0.322790	0.609630
O1281	O128	0.025080	0.378820	0.908180
O1291	O129	0.249330	0.684310	0.068050
O1301	O130	0.029000	0.570400	0.429600
O1311	O131	0.976040	0.695260	0.092600
O1321	O132	0.315690	0.750670	0.001690
O1331	O133	0.479200	0.239000	0.931800
O1341	O134	0.091820	0.312080	0.974920
O1351	O135	0.971000	0.570400	0.029000
O1361	O136	0.684310	0.998310	0.068050
O1371	O137	0.350000	0.239000	0.479200
O1381	O138	0.976040	0.092600	0.236100
O1391	O139	0.931800	0.350000	0.479200
O1401	O140	0.998310	0.249330	0.068050
O1411	O141	0.001590	0.390370	0.677210
O1421	O142	0.750670	0.001690	0.315690
O1431	O143	0.687920	0.378820	0.025080
O1441	O144	0.023960	0.763900	0.304740
