data_ja202303b_si_002_freeONLY_PM
_symmetry_space_group_name_H-M	'P1'
_cell_length_a	30.567800
_cell_length_b	30.567800
_cell_length_c	30.567800
_cell_angle_alpha	90.000000
_cell_angle_beta	90.000000
_cell_angle_gamma	90.000000
_symmetry_Int_Tables_number 1

loop_
_symmetry_equiv_pos_as_xyz
'x,y,z'

loop_
_atom_site_label
_atom_site_type_symbol
_atom_site_fract_x
_atom_site_fract_y
_atom_site_fract_z
Ag11	Ag1	0.130480	0.788770	0.187940
C11	C1	0.093500	0.038700	0.097500
C21	C2	0.137800	0.032600	0.103400
H11	H1	0.157400	0.054100	0.094600
C31	C3	0.153400	0.994500	0.122600
H21	H2	0.183400	0.990200	0.125800
C41	C4	0.124800	0.963600	0.136500
C51	C5	0.079700	0.969600	0.132300
H31	H3	0.060200	0.948700	0.142700
C61	C6	0.064800	0.007200	0.112300
H41	H4	0.034900	0.011400	0.108800
C71	C7	0.180200	0.918700	0.177000
H51	H5	0.201400	0.940100	0.181400
C81	C8	0.181700	0.875900	0.189800
H61	H6	0.205300	0.862800	0.203900
C91	C9	0.120900	0.885100	0.157500
H71	H7	0.093800	0.879400	0.144800
C101	C10	0.150300	0.691300	0.203900
H81	H8	0.179600	0.698200	0.207700
C111	C11	0.080200	0.697200	0.193500
H91	H9	0.052500	0.709000	0.188800
C121	C12	0.090300	0.653700	0.199900
H101	H10	0.071000	0.630300	0.199800
C131	C13	0.158300	0.612700	0.216400
C141	C14	0.192300	0.615000	0.247100
H111	H11	0.199400	0.641700	0.259900
C151	C15	0.215200	0.577900	0.258200
H121	H12	0.237400	0.579200	0.279000
C161	C16	0.204800	0.538100	0.238100
C171	C17	0.170500	0.537000	0.207800
H131	H13	0.163300	0.510700	0.194400
C181	C18	0.147500	0.573700	0.197400
H141	H14	0.124600	0.572200	0.177500
C191	C19	0.296700	0.510800	0.212200
H151	H15	0.281700	0.518100	0.186700
C201	C20	0.342300	0.510600	0.213300
H161	H16	0.357800	0.517900	0.188200
C211	C21	0.437700	0.475200	0.275500
C221	C22	0.479200	0.486000	0.265700
N11	N1	0.144400	0.855500	0.179200
N21	N2	0.140700	0.923400	0.156400
N31	N3	0.118900	0.719600	0.195300
N41	N4	0.133800	0.652100	0.206400
O11	O1	0.097100	0.817200	0.236800
Ag21	Ag2	0.630480	0.288770	0.687940
C231	C23	0.593500	0.538700	0.597500
C241	C24	0.637800	0.532600	0.603400
H171	H17	0.657400	0.554100	0.594600
C251	C25	0.653400	0.494500	0.622600
H181	H18	0.683400	0.490200	0.625800
C261	C26	0.624800	0.463600	0.636500
C271	C27	0.579700	0.469600	0.632300
H191	H19	0.560200	0.448700	0.642700
C281	C28	0.564800	0.507200	0.612300
H201	H20	0.534900	0.511400	0.608800
C291	C29	0.680200	0.418700	0.677000
H211	H21	0.701400	0.440100	0.681400
C301	C30	0.681700	0.375900	0.689800
H221	H22	0.705300	0.362800	0.703900
C311	C31	0.620900	0.385100	0.657500
H231	H23	0.593800	0.379400	0.644800
C321	C32	0.650300	0.191300	0.703900
H241	H24	0.679600	0.198200	0.707700
C331	C33	0.580200	0.197200	0.693500
H251	H25	0.552500	0.209000	0.688800
C341	C34	0.590300	0.153700	0.699900
H261	H26	0.571000	0.130300	0.699800
C351	C35	0.658300	0.112700	0.716400
C361	C36	0.692300	0.115000	0.747100
H271	H27	0.699400	0.141700	0.759900
C371	C37	0.715200	0.077900	0.758200
H281	H28	0.737400	0.079200	0.779000
C381	C38	0.704800	0.038100	0.738100
C391	C39	0.670500	0.037000	0.707800
H291	H29	0.663300	0.010700	0.694400
C401	C40	0.647500	0.073700	0.697400
H301	H30	0.624600	0.072200	0.677500
C411	C41	0.796700	0.010800	0.712200
H311	H31	0.781700	0.018100	0.686700
C421	C42	0.842300	0.010600	0.713300
H321	H32	0.857800	0.017900	0.688200
C431	C43	0.937700	0.975200	0.775500
C441	C44	0.979200	0.986000	0.765700
N51	N5	0.644400	0.355500	0.679200
N61	N6	0.640700	0.423400	0.656400
N71	N7	0.618900	0.219600	0.695300
N81	N8	0.633800	0.152100	0.706400
O21	O2	0.597100	0.317200	0.736800
Ag31	Ag3	0.369520	0.211230	0.687940
C451	C45	0.406500	0.961300	0.597500
C461	C46	0.362200	0.967400	0.603400
H331	H33	0.342600	0.945900	0.594600
C471	C47	0.346600	0.005500	0.622600
H341	H34	0.316600	0.009800	0.625800
C481	C48	0.375200	0.036400	0.636500
C491	C49	0.420300	0.030400	0.632300
H351	H35	0.439800	0.051300	0.642700
C501	C50	0.435200	0.992800	0.612300
H361	H36	0.465100	0.988600	0.608800
C511	C51	0.319800	0.081300	0.677000
H371	H37	0.298600	0.059900	0.681400
C521	C52	0.318300	0.124100	0.689800
H381	H38	0.294700	0.137200	0.703900
C531	C53	0.379100	0.114900	0.657500
H391	H39	0.406200	0.120600	0.644800
C541	C54	0.349700	0.308700	0.703900
H401	H40	0.320400	0.301800	0.707700
C551	C55	0.419800	0.302800	0.693500
H411	H41	0.447500	0.291000	0.688800
C561	C56	0.409700	0.346300	0.699900
H421	H42	0.429000	0.369700	0.699800
C571	C57	0.341700	0.387300	0.716400
C581	C58	0.307700	0.385000	0.747100
H431	H43	0.300600	0.358300	0.759900
C591	C59	0.284800	0.422100	0.758200
H441	H44	0.262600	0.420800	0.779000
C601	C60	0.295200	0.461900	0.738100
C611	C61	0.329500	0.463000	0.707800
H451	H45	0.336700	0.489300	0.694400
C621	C62	0.352500	0.426300	0.697400
H461	H46	0.375400	0.427800	0.677500
C631	C63	0.203300	0.489200	0.712200
H471	H47	0.218300	0.481900	0.686700
C641	C64	0.157700	0.489400	0.713300
H481	H48	0.142200	0.482100	0.688200
C651	C65	0.062300	0.524800	0.775500
C661	C66	0.020800	0.514000	0.765700
N91	N9	0.355600	0.144500	0.679200
N101	N10	0.359300	0.076600	0.656400
N111	N11	0.381100	0.280400	0.695300
N121	N12	0.366200	0.347900	0.706400
O31	O3	0.402900	0.182800	0.736800
Ag41	Ag4	0.869520	0.711230	0.187940
C671	C67	0.906500	0.461300	0.097500
C681	C68	0.862200	0.467400	0.103400
H491	H49	0.842600	0.445900	0.094600
C691	C69	0.846600	0.505500	0.122600
H501	H50	0.816600	0.509800	0.125800
C701	C70	0.875200	0.536400	0.136500
C711	C71	0.920300	0.530400	0.132300
H511	H51	0.939800	0.551300	0.142700
C721	C72	0.935200	0.492800	0.112300
H521	H52	0.965100	0.488600	0.108800
C731	C73	0.819800	0.581300	0.177000
H531	H53	0.798600	0.559900	0.181400
C741	C74	0.818300	0.624100	0.189800
H541	H54	0.794700	0.637200	0.203900
C751	C75	0.879100	0.614900	0.157500
H551	H55	0.906200	0.620600	0.144800
C761	C76	0.849700	0.808700	0.203900
H561	H56	0.820400	0.801800	0.207700
C771	C77	0.919800	0.802800	0.193500
H571	H57	0.947500	0.791000	0.188800
C781	C78	0.909700	0.846300	0.199900
H581	H58	0.929000	0.869700	0.199800
C791	C79	0.841700	0.887300	0.216400
C801	C80	0.807700	0.885000	0.247100
H591	H59	0.800600	0.858300	0.259900
C811	C81	0.784800	0.922100	0.258200
H601	H60	0.762600	0.920800	0.279000
C821	C82	0.795200	0.961900	0.238100
C831	C83	0.829500	0.963000	0.207800
H611	H61	0.836700	0.989300	0.194400
C841	C84	0.852500	0.926300	0.197400
H621	H62	0.875400	0.927800	0.177500
C851	C85	0.703300	0.989200	0.212200
H631	H63	0.718300	0.981900	0.186700
C861	C86	0.657700	0.989400	0.213300
H641	H64	0.642200	0.982100	0.188200
C871	C87	0.562300	0.024800	0.275500
C881	C88	0.520800	0.014000	0.265700
N131	N13	0.855600	0.644500	0.179200
N141	N14	0.859300	0.576600	0.156400
N151	N15	0.881100	0.780400	0.195300
N161	N16	0.866200	0.847900	0.206400
O41	O4	0.902900	0.682800	0.236800
Ag51	Ag5	0.869520	0.288770	0.312060
C891	C89	0.906500	0.538700	0.402500
C901	C90	0.862200	0.532600	0.396600
H651	H65	0.842600	0.554100	0.405400
C911	C91	0.846600	0.494500	0.377400
H661	H66	0.816600	0.490200	0.374200
C921	C92	0.875200	0.463600	0.363500
C931	C93	0.920300	0.469600	0.367700
H671	H67	0.939800	0.448700	0.357300
C941	C94	0.935200	0.507200	0.387700
H681	H68	0.965100	0.511400	0.391200
C951	C95	0.819800	0.418700	0.323000
H691	H69	0.798600	0.440100	0.318600
C961	C96	0.818300	0.375900	0.310200
H701	H70	0.794700	0.362800	0.296100
C971	C97	0.879100	0.385100	0.342500
H711	H71	0.906200	0.379400	0.355200
C981	C98	0.849700	0.191300	0.296100
H721	H72	0.820400	0.198200	0.292300
C991	C99	0.919800	0.197200	0.306500
H731	H73	0.947500	0.209000	0.311200
C1001	C100	0.909700	0.153700	0.300100
H741	H74	0.929000	0.130300	0.300200
C1011	C101	0.841700	0.112700	0.283600
C1021	C102	0.807700	0.115000	0.252900
H751	H75	0.800600	0.141700	0.240100
C1031	C103	0.784800	0.077900	0.241800
H761	H76	0.762600	0.079200	0.221000
C1041	C104	0.795200	0.038100	0.261900
C1051	C105	0.829500	0.037000	0.292200
H771	H77	0.836700	0.010700	0.305600
C1061	C106	0.852500	0.073700	0.302600
H781	H78	0.875400	0.072200	0.322500
C1071	C107	0.703300	0.010800	0.287800
H791	H79	0.718300	0.018100	0.313300
C1081	C108	0.657700	0.010600	0.286700
H801	H80	0.642200	0.017900	0.311800
C1091	C109	0.562300	0.975200	0.224500
C1101	C110	0.520800	0.986000	0.234300
N171	N17	0.855600	0.355500	0.320800
N181	N18	0.859300	0.423400	0.343600
N191	N19	0.881100	0.219600	0.304700
N201	N20	0.866200	0.152100	0.293600
O51	O5	0.902900	0.317200	0.263200
Ag61	Ag6	0.369520	0.788770	0.812060
C1111	C111	0.406500	0.038700	0.902500
C1121	C112	0.362200	0.032600	0.896600
H811	H81	0.342600	0.054100	0.905400
C1131	C113	0.346600	0.994500	0.877400
H821	H82	0.316600	0.990200	0.874200
C1141	C114	0.375200	0.963600	0.863500
C1151	C115	0.420300	0.969600	0.867700
H831	H83	0.439800	0.948700	0.857300
C1161	C116	0.435200	0.007200	0.887700
H841	H84	0.465100	0.011400	0.891200
C1171	C117	0.319800	0.918700	0.823000
H851	H85	0.298600	0.940100	0.818600
C1181	C118	0.318300	0.875900	0.810200
H861	H86	0.294700	0.862800	0.796100
C1191	C119	0.379100	0.885100	0.842500
H871	H87	0.406200	0.879400	0.855200
C1201	C120	0.349700	0.691300	0.796100
H881	H88	0.320400	0.698200	0.792300
C1211	C121	0.419800	0.697200	0.806500
H891	H89	0.447500	0.709000	0.811200
C1221	C122	0.409700	0.653700	0.800100
H901	H90	0.429000	0.630300	0.800200
C1231	C123	0.341700	0.612700	0.783600
C1241	C124	0.307700	0.615000	0.752900
H911	H91	0.300600	0.641700	0.740100
C1251	C125	0.284800	0.577900	0.741800
H921	H92	0.262600	0.579200	0.721000
C1261	C126	0.295200	0.538100	0.761900
C1271	C127	0.329500	0.537000	0.792200
H931	H93	0.336700	0.510700	0.805600
C1281	C128	0.352500	0.573700	0.802600
H941	H94	0.375400	0.572200	0.822500
C1291	C129	0.203300	0.510800	0.787800
H951	H95	0.218300	0.518100	0.813300
C1301	C130	0.157700	0.510600	0.786700
H961	H96	0.142200	0.517900	0.811800
C1311	C131	0.062300	0.475200	0.724500
C1321	C132	0.020800	0.486000	0.734300
N211	N21	0.355600	0.855500	0.820800
N221	N22	0.359300	0.923400	0.843600
N231	N23	0.381100	0.719600	0.804700
N241	N24	0.366200	0.652100	0.793600
O61	O6	0.402900	0.817200	0.763200
Ag71	Ag7	0.630480	0.711230	0.812060
C1331	C133	0.593500	0.461300	0.902500
C1341	C134	0.637800	0.467400	0.896600
H971	H97	0.657400	0.445900	0.905400
C1351	C135	0.653400	0.505500	0.877400
H981	H98	0.683400	0.509800	0.874200
C1361	C136	0.624800	0.536400	0.863500
C1371	C137	0.579700	0.530400	0.867700
H991	H99	0.560200	0.551300	0.857300
C1381	C138	0.564800	0.492800	0.887700
H1001	H100	0.534900	0.488600	0.891200
C1391	C139	0.680200	0.581300	0.823000
H1011	H101	0.701400	0.559900	0.818600
C1401	C140	0.681700	0.624100	0.810200
H1021	H102	0.705300	0.637200	0.796100
C1411	C141	0.620900	0.614900	0.842500
H1031	H103	0.593800	0.620600	0.855200
C1421	C142	0.650300	0.808700	0.796100
H1041	H104	0.679600	0.801800	0.792300
C1431	C143	0.580200	0.802800	0.806500
H1051	H105	0.552500	0.791000	0.811200
C1441	C144	0.590300	0.846300	0.800100
H1061	H106	0.571000	0.869700	0.800200
C1451	C145	0.658300	0.887300	0.783600
C1461	C146	0.692300	0.885000	0.752900
H1071	H107	0.699400	0.858300	0.740100
C1471	C147	0.715200	0.922100	0.741800
H1081	H108	0.737400	0.920800	0.721000
C1481	C148	0.704800	0.961900	0.761900
C1491	C149	0.670500	0.963000	0.792200
H1091	H109	0.663300	0.989300	0.805600
C1501	C150	0.647500	0.926300	0.802600
H1101	H110	0.624600	0.927800	0.822500
C1511	C151	0.796700	0.989200	0.787800
H1111	H111	0.781700	0.981900	0.813300
C1521	C152	0.842300	0.989400	0.786700
H1121	H112	0.857800	0.982100	0.811800
C1531	C153	0.937700	0.024800	0.724500
C1541	C154	0.979200	0.014000	0.734300
N251	N25	0.644400	0.644500	0.820800
N261	N26	0.640700	0.576600	0.843600
N271	N27	0.618900	0.780400	0.804700
N281	N28	0.633800	0.847900	0.793600
O71	O7	0.597100	0.682800	0.763200
Ag81	Ag8	0.130480	0.211230	0.312060
C1551	C155	0.093500	0.961300	0.402500
C1561	C156	0.137800	0.967400	0.396600
H1131	H113	0.157400	0.945900	0.405400
C1571	C157	0.153400	0.005500	0.377400
H1141	H114	0.183400	0.009800	0.374200
C1581	C158	0.124800	0.036400	0.363500
C1591	C159	0.079700	0.030400	0.367700
H1151	H115	0.060200	0.051300	0.357300
C1601	C160	0.064800	0.992800	0.387700
H1161	H116	0.034900	0.988600	0.391200
C1611	C161	0.180200	0.081300	0.323000
H1171	H117	0.201400	0.059900	0.318600
C1621	C162	0.181700	0.124100	0.310200
H1181	H118	0.205300	0.137200	0.296100
C1631	C163	0.120900	0.114900	0.342500
H1191	H119	0.093800	0.120600	0.355200
C1641	C164	0.150300	0.308700	0.296100
H1201	H120	0.179600	0.301800	0.292300
C1651	C165	0.080200	0.302800	0.306500
H1211	H121	0.052500	0.291000	0.311200
C1661	C166	0.090300	0.346300	0.300100
H1221	H122	0.071000	0.369700	0.300200
C1671	C167	0.158300	0.387300	0.283600
C1681	C168	0.192300	0.385000	0.252900
H1231	H123	0.199400	0.358300	0.240100
C1691	C169	0.215200	0.422100	0.241800
H1241	H124	0.237400	0.420800	0.221000
C1701	C170	0.204800	0.461900	0.261900
C1711	C171	0.170500	0.463000	0.292200
H1251	H125	0.163300	0.489300	0.305600
C1721	C172	0.147500	0.426300	0.302600
H1261	H126	0.124600	0.427800	0.322500
C1731	C173	0.296700	0.489200	0.287800
H1271	H127	0.281700	0.481900	0.313300
C1741	C174	0.342300	0.489400	0.286700
H1281	H128	0.357800	0.482100	0.311800
C1751	C175	0.437700	0.524800	0.224500
C1761	C176	0.479200	0.514000	0.234300
N291	N29	0.144400	0.144500	0.320800
N301	N30	0.140700	0.076600	0.343600
N311	N31	0.118900	0.280400	0.304700
N321	N32	0.133800	0.347900	0.293600
O81	O8	0.097100	0.182800	0.263200
Ag91	Ag9	0.187940	0.130480	0.788770
C1771	C177	0.097500	0.093500	0.038700
C1781	C178	0.103400	0.137800	0.032600
H1291	H129	0.094600	0.157400	0.054100
C1791	C179	0.122600	0.153400	0.994500
H1301	H130	0.125800	0.183400	0.990200
C1801	C180	0.136500	0.124800	0.963600
C1811	C181	0.132300	0.079700	0.969600
H1311	H131	0.142700	0.060200	0.948700
C1821	C182	0.112300	0.064800	0.007200
H1321	H132	0.108800	0.034900	0.011400
C1831	C183	0.177000	0.180200	0.918700
H1331	H133	0.181400	0.201400	0.940100
C1841	C184	0.189800	0.181700	0.875900
H1341	H134	0.203900	0.205300	0.862800
C1851	C185	0.157500	0.120900	0.885100
H1351	H135	0.144800	0.093800	0.879400
C1861	C186	0.203900	0.150300	0.691300
H1361	H136	0.207700	0.179600	0.698200
C1871	C187	0.193500	0.080200	0.697200
H1371	H137	0.188800	0.052500	0.709000
C1881	C188	0.199900	0.090300	0.653700
H1381	H138	0.199800	0.071000	0.630300
C1891	C189	0.216400	0.158300	0.612700
C1901	C190	0.247100	0.192300	0.615000
H1391	H139	0.259900	0.199400	0.641700
C1911	C191	0.258200	0.215200	0.577900
H1401	H140	0.279000	0.237400	0.579200
C1921	C192	0.238100	0.204800	0.538100
C1931	C193	0.207800	0.170500	0.537000
H1411	H141	0.194400	0.163300	0.510700
C1941	C194	0.197400	0.147500	0.573700
H1421	H142	0.177500	0.124600	0.572200
C1951	C195	0.212200	0.296700	0.510800
H1431	H143	0.186700	0.281700	0.518100
C1961	C196	0.213300	0.342300	0.510600
H1441	H144	0.188200	0.357800	0.517900
C1971	C197	0.275500	0.437700	0.475200
C1981	C198	0.265700	0.479200	0.486000
N331	N33	0.179200	0.144400	0.855500
N341	N34	0.156400	0.140700	0.923400
N351	N35	0.195300	0.118900	0.719600
N361	N36	0.206400	0.133800	0.652100
O91	O9	0.236800	0.097100	0.817200
Ag101	Ag10	0.687940	0.630480	0.288770
C1991	C199	0.597500	0.593500	0.538700
C2001	C200	0.603400	0.637800	0.532600
H1451	H145	0.594600	0.657400	0.554100
C2011	C201	0.622600	0.653400	0.494500
H1461	H146	0.625800	0.683400	0.490200
C2021	C202	0.636500	0.624800	0.463600
C2031	C203	0.632300	0.579700	0.469600
H1471	H147	0.642700	0.560200	0.448700
C2041	C204	0.612300	0.564800	0.507200
H1481	H148	0.608800	0.534900	0.511400
C2051	C205	0.677000	0.680200	0.418700
H1491	H149	0.681400	0.701400	0.440100
C2061	C206	0.689800	0.681700	0.375900
H1501	H150	0.703900	0.705300	0.362800
C2071	C207	0.657500	0.620900	0.385100
H1511	H151	0.644800	0.593800	0.379400
C2081	C208	0.703900	0.650300	0.191300
H1521	H152	0.707700	0.679600	0.198200
C2091	C209	0.693500	0.580200	0.197200
H1531	H153	0.688800	0.552500	0.209000
C2101	C210	0.699900	0.590300	0.153700
H1541	H154	0.699800	0.571000	0.130300
C2111	C211	0.716400	0.658300	0.112700
C2121	C212	0.747100	0.692300	0.115000
H1551	H155	0.759900	0.699400	0.141700
C2131	C213	0.758200	0.715200	0.077900
H1561	H156	0.779000	0.737400	0.079200
C2141	C214	0.738100	0.704800	0.038100
C2151	C215	0.707800	0.670500	0.037000
H1571	H157	0.694400	0.663300	0.010700
C2161	C216	0.697400	0.647500	0.073700
H1581	H158	0.677500	0.624600	0.072200
C2171	C217	0.712200	0.796700	0.010800
H1591	H159	0.686700	0.781700	0.018100
C2181	C218	0.713300	0.842300	0.010600
H1601	H160	0.688200	0.857800	0.017900
C2191	C219	0.775500	0.937700	0.975200
C2201	C220	0.765700	0.979200	0.986000
N371	N37	0.679200	0.644400	0.355500
N381	N38	0.656400	0.640700	0.423400
N391	N39	0.695300	0.618900	0.219600
N401	N40	0.706400	0.633800	0.152100
O101	O10	0.736800	0.597100	0.317200
Ag111	Ag11	0.687940	0.369520	0.211230
C2211	C221	0.597500	0.406500	0.961300
C2221	C222	0.603400	0.362200	0.967400
H1611	H161	0.594600	0.342600	0.945900
C2231	C223	0.622600	0.346600	0.005500
H1621	H162	0.625800	0.316600	0.009800
C2241	C224	0.636500	0.375200	0.036400
C2251	C225	0.632300	0.420300	0.030400
H1631	H163	0.642700	0.439800	0.051300
C2261	C226	0.612300	0.435200	0.992800
H1641	H164	0.608800	0.465100	0.988600
C2271	C227	0.677000	0.319800	0.081300
H1651	H165	0.681400	0.298600	0.059900
C2281	C228	0.689800	0.318300	0.124100
H1661	H166	0.703900	0.294700	0.137200
C2291	C229	0.657500	0.379100	0.114900
H1671	H167	0.644800	0.406200	0.120600
C2301	C230	0.703900	0.349700	0.308700
H1681	H168	0.707700	0.320400	0.301800
C2311	C231	0.693500	0.419800	0.302800
H1691	H169	0.688800	0.447500	0.291000
C2321	C232	0.699900	0.409700	0.346300
H1701	H170	0.699800	0.429000	0.369700
C2331	C233	0.716400	0.341700	0.387300
C2341	C234	0.747100	0.307700	0.385000
H1711	H171	0.759900	0.300600	0.358300
C2351	C235	0.758200	0.284800	0.422100
H1721	H172	0.779000	0.262600	0.420800
C2361	C236	0.738100	0.295200	0.461900
C2371	C237	0.707800	0.329500	0.463000
H1731	H173	0.694400	0.336700	0.489300
C2381	C238	0.697400	0.352500	0.426300
H1741	H174	0.677500	0.375400	0.427800
C2391	C239	0.712200	0.203300	0.489200
H1751	H175	0.686700	0.218300	0.481900
C2401	C240	0.713300	0.157700	0.489400
H1761	H176	0.688200	0.142200	0.482100
C2411	C241	0.775500	0.062300	0.524800
C2421	C242	0.765700	0.020800	0.514000
N411	N41	0.679200	0.355600	0.144500
N421	N42	0.656400	0.359300	0.076600
N431	N43	0.695300	0.381100	0.280400
N441	N44	0.706400	0.366200	0.347900
O111	O11	0.736800	0.402900	0.182800
Ag121	Ag12	0.187940	0.869520	0.711230
C2431	C243	0.097500	0.906500	0.461300
C2441	C244	0.103400	0.862200	0.467400
H1771	H177	0.094600	0.842600	0.445900
C2451	C245	0.122600	0.846600	0.505500
H1781	H178	0.125800	0.816600	0.509800
C2461	C246	0.136500	0.875200	0.536400
C2471	C247	0.132300	0.920300	0.530400
H1791	H179	0.142700	0.939800	0.551300
C2481	C248	0.112300	0.935200	0.492800
H1801	H180	0.108800	0.965100	0.488600
C2491	C249	0.177000	0.819800	0.581300
H1811	H181	0.181400	0.798600	0.559900
C2501	C250	0.189800	0.818300	0.624100
H1821	H182	0.203900	0.794700	0.637200
C2511	C251	0.157500	0.879100	0.614900
H1831	H183	0.144800	0.906200	0.620600
C2521	C252	0.203900	0.849700	0.808700
H1841	H184	0.207700	0.820400	0.801800
C2531	C253	0.193500	0.919800	0.802800
H1851	H185	0.188800	0.947500	0.791000
C2541	C254	0.199900	0.909700	0.846300
H1861	H186	0.199800	0.929000	0.869700
C2551	C255	0.216400	0.841700	0.887300
C2561	C256	0.247100	0.807700	0.885000
H1871	H187	0.259900	0.800600	0.858300
C2571	C257	0.258200	0.784800	0.922100
H1881	H188	0.279000	0.762600	0.920800
C2581	C258	0.238100	0.795200	0.961900
C2591	C259	0.207800	0.829500	0.963000
H1891	H189	0.194400	0.836700	0.989300
C2601	C260	0.197400	0.852500	0.926300
H1901	H190	0.177500	0.875400	0.927800
C2611	C261	0.212200	0.703300	0.989200
H1911	H191	0.186700	0.718300	0.981900
C2621	C262	0.213300	0.657700	0.989400
H1921	H192	0.188200	0.642200	0.982100
C2631	C263	0.275500	0.562300	0.024800
C2641	C264	0.265700	0.520800	0.014000
N451	N45	0.179200	0.855600	0.644500
N461	N46	0.156400	0.859300	0.576600
N471	N47	0.195300	0.881100	0.780400
N481	N48	0.206400	0.866200	0.847900
O121	O12	0.236800	0.902900	0.682800
Ag131	Ag13	0.312060	0.869520	0.288770
C2651	C265	0.402500	0.906500	0.538700
C2661	C266	0.396600	0.862200	0.532600
H1931	H193	0.405400	0.842600	0.554100
C2671	C267	0.377400	0.846600	0.494500
H1941	H194	0.374200	0.816600	0.490200
C2681	C268	0.363500	0.875200	0.463600
C2691	C269	0.367700	0.920300	0.469600
H1951	H195	0.357300	0.939800	0.448700
C2701	C270	0.387700	0.935200	0.507200
H1961	H196	0.391200	0.965100	0.511400
C2711	C271	0.323000	0.819800	0.418700
H1971	H197	0.318600	0.798600	0.440100
C2721	C272	0.310200	0.818300	0.375900
H1981	H198	0.296100	0.794700	0.362800
C2731	C273	0.342500	0.879100	0.385100
H1991	H199	0.355200	0.906200	0.379400
C2741	C274	0.296100	0.849700	0.191300
H2001	H200	0.292300	0.820400	0.198200
C2751	C275	0.306500	0.919800	0.197200
H2011	H201	0.311200	0.947500	0.209000
C2761	C276	0.300100	0.909700	0.153700
H2021	H202	0.300200	0.929000	0.130300
C2771	C277	0.283600	0.841700	0.112700
C2781	C278	0.252900	0.807700	0.115000
H2031	H203	0.240100	0.800600	0.141700
C2791	C279	0.241800	0.784800	0.077900
H2041	H204	0.221000	0.762600	0.079200
C2801	C280	0.261900	0.795200	0.038100
C2811	C281	0.292200	0.829500	0.037000
H2051	H205	0.305600	0.836700	0.010700
C2821	C282	0.302600	0.852500	0.073700
H2061	H206	0.322500	0.875400	0.072200
C2831	C283	0.287800	0.703300	0.010800
H2071	H207	0.313300	0.718300	0.018100
C2841	C284	0.286700	0.657700	0.010600
H2081	H208	0.311800	0.642200	0.017900
C2851	C285	0.224500	0.562300	0.975200
C2861	C286	0.234300	0.520800	0.986000
N491	N49	0.320800	0.855600	0.355500
N501	N50	0.343600	0.859300	0.423400
N511	N51	0.304700	0.881100	0.219600
N521	N52	0.293600	0.866200	0.152100
O131	O13	0.263200	0.902900	0.317200
Ag141	Ag14	0.812060	0.369520	0.788770
C2871	C287	0.902500	0.406500	0.038700
C2881	C288	0.896600	0.362200	0.032600
H2091	H209	0.905400	0.342600	0.054100
C2891	C289	0.877400	0.346600	0.994500
H2101	H210	0.874200	0.316600	0.990200
C2901	C290	0.863500	0.375200	0.963600
C2911	C291	0.867700	0.420300	0.969600
H2111	H211	0.857300	0.439800	0.948700
C2921	C292	0.887700	0.435200	0.007200
H2121	H212	0.891200	0.465100	0.011400
C2931	C293	0.823000	0.319800	0.918700
H2131	H213	0.818600	0.298600	0.940100
C2941	C294	0.810200	0.318300	0.875900
H2141	H214	0.796100	0.294700	0.862800
C2951	C295	0.842500	0.379100	0.885100
H2151	H215	0.855200	0.406200	0.879400
C2961	C296	0.796100	0.349700	0.691300
H2161	H216	0.792300	0.320400	0.698200
C2971	C297	0.806500	0.419800	0.697200
H2171	H217	0.811200	0.447500	0.709000
C2981	C298	0.800100	0.409700	0.653700
H2181	H218	0.800200	0.429000	0.630300
C2991	C299	0.783600	0.341700	0.612700
C3001	C300	0.752900	0.307700	0.615000
H2191	H219	0.740100	0.300600	0.641700
C3011	C301	0.741800	0.284800	0.577900
H2201	H220	0.721000	0.262600	0.579200
C3021	C302	0.761900	0.295200	0.538100
C3031	C303	0.792200	0.329500	0.537000
H2211	H221	0.805600	0.336700	0.510700
C3041	C304	0.802600	0.352500	0.573700
H2221	H222	0.822500	0.375400	0.572200
C3051	C305	0.787800	0.203300	0.510800
H2231	H223	0.813300	0.218300	0.518100
C3061	C306	0.786700	0.157700	0.510600
H2241	H224	0.811800	0.142200	0.517900
C3071	C307	0.724500	0.062300	0.475200
C3081	C308	0.734300	0.020800	0.486000
N531	N53	0.820800	0.355600	0.855500
N541	N54	0.843600	0.359300	0.923400
N551	N55	0.804700	0.381100	0.719600
N561	N56	0.793600	0.366200	0.652100
O141	O14	0.763200	0.402900	0.817200
Ag151	Ag15	0.812060	0.630480	0.711230
C3091	C309	0.902500	0.593500	0.461300
C3101	C310	0.896600	0.637800	0.467400
H2251	H225	0.905400	0.657400	0.445900
C3111	C311	0.877400	0.653400	0.505500
H2261	H226	0.874200	0.683400	0.509800
C3121	C312	0.863500	0.624800	0.536400
C3131	C313	0.867700	0.579700	0.530400
H2271	H227	0.857300	0.560200	0.551300
C3141	C314	0.887700	0.564800	0.492800
H2281	H228	0.891200	0.534900	0.488600
C3151	C315	0.823000	0.680200	0.581300
H2291	H229	0.818600	0.701400	0.559900
C3161	C316	0.810200	0.681700	0.624100
H2301	H230	0.796100	0.705300	0.637200
C3171	C317	0.842500	0.620900	0.614900
H2311	H231	0.855200	0.593800	0.620600
C3181	C318	0.796100	0.650300	0.808700
H2321	H232	0.792300	0.679600	0.801800
C3191	C319	0.806500	0.580200	0.802800
H2331	H233	0.811200	0.552500	0.791000
C3201	C320	0.800100	0.590300	0.846300
H2341	H234	0.800200	0.571000	0.869700
C3211	C321	0.783600	0.658300	0.887300
C3221	C322	0.752900	0.692300	0.885000
H2351	H235	0.740100	0.699400	0.858300
C3231	C323	0.741800	0.715200	0.922100
H2361	H236	0.721000	0.737400	0.920800
C3241	C324	0.761900	0.704800	0.961900
C3251	C325	0.792200	0.670500	0.963000
H2371	H237	0.805600	0.663300	0.989300
C3261	C326	0.802600	0.647500	0.926300
H2381	H238	0.822500	0.624600	0.927800
C3271	C327	0.787800	0.796700	0.989200
H2391	H239	0.813300	0.781700	0.981900
C3281	C328	0.786700	0.842300	0.989400
H2401	H240	0.811800	0.857800	0.982100
C3291	C329	0.724500	0.937700	0.024800
C3301	C330	0.734300	0.979200	0.014000
N571	N57	0.820800	0.644400	0.644500
N581	N58	0.843600	0.640700	0.576600
N591	N59	0.804700	0.618900	0.780400
N601	N60	0.793600	0.633800	0.847900
O151	O15	0.763200	0.597100	0.682800
Ag161	Ag16	0.312060	0.130480	0.211230
C3311	C331	0.402500	0.093500	0.961300
C3321	C332	0.396600	0.137800	0.967400
H2411	H241	0.405400	0.157400	0.945900
C3331	C333	0.377400	0.153400	0.005500
H2421	H242	0.374200	0.183400	0.009800
C3341	C334	0.363500	0.124800	0.036400
C3351	C335	0.367700	0.079700	0.030400
H2431	H243	0.357300	0.060200	0.051300
C3361	C336	0.387700	0.064800	0.992800
H2441	H244	0.391200	0.034900	0.988600
C3371	C337	0.323000	0.180200	0.081300
H2451	H245	0.318600	0.201400	0.059900
C3381	C338	0.310200	0.181700	0.124100
H2461	H246	0.296100	0.205300	0.137200
C3391	C339	0.342500	0.120900	0.114900
H2471	H247	0.355200	0.093800	0.120600
C3401	C340	0.296100	0.150300	0.308700
H2481	H248	0.292300	0.179600	0.301800
C3411	C341	0.306500	0.080200	0.302800
H2491	H249	0.311200	0.052500	0.291000
C3421	C342	0.300100	0.090300	0.346300
H2501	H250	0.300200	0.071000	0.369700
C3431	C343	0.283600	0.158300	0.387300
C3441	C344	0.252900	0.192300	0.385000
H2511	H251	0.240100	0.199400	0.358300
C3451	C345	0.241800	0.215200	0.422100
H2521	H252	0.221000	0.237400	0.420800
C3461	C346	0.261900	0.204800	0.461900
C3471	C347	0.292200	0.170500	0.463000
H2531	H253	0.305600	0.163300	0.489300
C3481	C348	0.302600	0.147500	0.426300
H2541	H254	0.322500	0.124600	0.427800
C3491	C349	0.287800	0.296700	0.489200
H2551	H255	0.313300	0.281700	0.481900
C3501	C350	0.286700	0.342300	0.489400
H2561	H256	0.311800	0.357800	0.482100
C3511	C351	0.224500	0.437700	0.524800
C3521	C352	0.234300	0.479200	0.514000
N611	N61	0.320800	0.144400	0.144500
N621	N62	0.343600	0.140700	0.076600
N631	N63	0.304700	0.118900	0.280400
N641	N64	0.293600	0.133800	0.347900
O161	O16	0.263200	0.097100	0.182800
Ag171	Ag17	0.788770	0.187940	0.130480
C3531	C353	0.038700	0.097500	0.093500
C3541	C354	0.032600	0.103400	0.137800
H2571	H257	0.054100	0.094600	0.157400
C3551	C355	0.994500	0.122600	0.153400
H2581	H258	0.990200	0.125800	0.183400
C3561	C356	0.963600	0.136500	0.124800
C3571	C357	0.969600	0.132300	0.079700
H2591	H259	0.948700	0.142700	0.060200
C3581	C358	0.007200	0.112300	0.064800
H2601	H260	0.011400	0.108800	0.034900
C3591	C359	0.918700	0.177000	0.180200
H2611	H261	0.940100	0.181400	0.201400
C3601	C360	0.875900	0.189800	0.181700
H2621	H262	0.862800	0.203900	0.205300
C3611	C361	0.885100	0.157500	0.120900
H2631	H263	0.879400	0.144800	0.093800
C3621	C362	0.691300	0.203900	0.150300
H2641	H264	0.698200	0.207700	0.179600
C3631	C363	0.697200	0.193500	0.080200
H2651	H265	0.709000	0.188800	0.052500
C3641	C364	0.653700	0.199900	0.090300
H2661	H266	0.630300	0.199800	0.071000
C3651	C365	0.612700	0.216400	0.158300
C3661	C366	0.615000	0.247100	0.192300
H2671	H267	0.641700	0.259900	0.199400
C3671	C367	0.577900	0.258200	0.215200
H2681	H268	0.579200	0.279000	0.237400
C3681	C368	0.538100	0.238100	0.204800
C3691	C369	0.537000	0.207800	0.170500
H2691	H269	0.510700	0.194400	0.163300
C3701	C370	0.573700	0.197400	0.147500
H2701	H270	0.572200	0.177500	0.124600
C3711	C371	0.510800	0.212200	0.296700
H2711	H271	0.518100	0.186700	0.281700
C3721	C372	0.510600	0.213300	0.342300
H2721	H272	0.517900	0.188200	0.357800
C3731	C373	0.475200	0.275500	0.437700
C3741	C374	0.486000	0.265700	0.479200
N651	N65	0.855500	0.179200	0.144400
N661	N66	0.923400	0.156400	0.140700
N671	N67	0.719600	0.195300	0.118900
N681	N68	0.652100	0.206400	0.133800
O171	O17	0.817200	0.236800	0.097100
Ag181	Ag18	0.288770	0.687940	0.630480
C3751	C375	0.538700	0.597500	0.593500
C3761	C376	0.532600	0.603400	0.637800
H2731	H273	0.554100	0.594600	0.657400
C3771	C377	0.494500	0.622600	0.653400
H2741	H274	0.490200	0.625800	0.683400
C3781	C378	0.463600	0.636500	0.624800
C3791	C379	0.469600	0.632300	0.579700
H2751	H275	0.448700	0.642700	0.560200
C3801	C380	0.507200	0.612300	0.564800
H2761	H276	0.511400	0.608800	0.534900
C3811	C381	0.418700	0.677000	0.680200
H2771	H277	0.440100	0.681400	0.701400
C3821	C382	0.375900	0.689800	0.681700
H2781	H278	0.362800	0.703900	0.705300
C3831	C383	0.385100	0.657500	0.620900
H2791	H279	0.379400	0.644800	0.593800
C3841	C384	0.191300	0.703900	0.650300
H2801	H280	0.198200	0.707700	0.679600
C3851	C385	0.197200	0.693500	0.580200
H2811	H281	0.209000	0.688800	0.552500
C3861	C386	0.153700	0.699900	0.590300
H2821	H282	0.130300	0.699800	0.571000
C3871	C387	0.112700	0.716400	0.658300
C3881	C388	0.115000	0.747100	0.692300
H2831	H283	0.141700	0.759900	0.699400
C3891	C389	0.077900	0.758200	0.715200
H2841	H284	0.079200	0.779000	0.737400
C3901	C390	0.038100	0.738100	0.704800
C3911	C391	0.037000	0.707800	0.670500
H2851	H285	0.010700	0.694400	0.663300
C3921	C392	0.073700	0.697400	0.647500
H2861	H286	0.072200	0.677500	0.624600
C3931	C393	0.010800	0.712200	0.796700
H2871	H287	0.018100	0.686700	0.781700
C3941	C394	0.010600	0.713300	0.842300
H2881	H288	0.017900	0.688200	0.857800
C3951	C395	0.975200	0.775500	0.937700
C3961	C396	0.986000	0.765700	0.979200
N691	N69	0.355500	0.679200	0.644400
N701	N70	0.423400	0.656400	0.640700
N711	N71	0.219600	0.695300	0.618900
N721	N72	0.152100	0.706400	0.633800
O181	O18	0.317200	0.736800	0.597100
Ag191	Ag19	0.211230	0.687940	0.369520
C3971	C397	0.961300	0.597500	0.406500
C3981	C398	0.967400	0.603400	0.362200
H2891	H289	0.945900	0.594600	0.342600
C3991	C399	0.005500	0.622600	0.346600
H2901	H290	0.009800	0.625800	0.316600
C4001	C400	0.036400	0.636500	0.375200
C4011	C401	0.030400	0.632300	0.420300
H2911	H291	0.051300	0.642700	0.439800
C4021	C402	0.992800	0.612300	0.435200
H2921	H292	0.988600	0.608800	0.465100
C4031	C403	0.081300	0.677000	0.319800
H2931	H293	0.059900	0.681400	0.298600
C4041	C404	0.124100	0.689800	0.318300
H2941	H294	0.137200	0.703900	0.294700
C4051	C405	0.114900	0.657500	0.379100
H2951	H295	0.120600	0.644800	0.406200
C4061	C406	0.308700	0.703900	0.349700
H2961	H296	0.301800	0.707700	0.320400
C4071	C407	0.302800	0.693500	0.419800
H2971	H297	0.291000	0.688800	0.447500
C4081	C408	0.346300	0.699900	0.409700
H2981	H298	0.369700	0.699800	0.429000
C4091	C409	0.387300	0.716400	0.341700
C4101	C410	0.385000	0.747100	0.307700
H2991	H299	0.358300	0.759900	0.300600
C4111	C411	0.422100	0.758200	0.284800
H3001	H300	0.420800	0.779000	0.262600
C4121	C412	0.461900	0.738100	0.295200
C4131	C413	0.463000	0.707800	0.329500
H3011	H301	0.489300	0.694400	0.336700
C4141	C414	0.426300	0.697400	0.352500
H3021	H302	0.427800	0.677500	0.375400
C4151	C415	0.489200	0.712200	0.203300
H3031	H303	0.481900	0.686700	0.218300
C4161	C416	0.489400	0.713300	0.157700
H3041	H304	0.482100	0.688200	0.142200
C4171	C417	0.524800	0.775500	0.062300
C4181	C418	0.514000	0.765700	0.020800
N731	N73	0.144500	0.679200	0.355600
N741	N74	0.076600	0.656400	0.359300
N751	N75	0.280400	0.695300	0.381100
N761	N76	0.347900	0.706400	0.366200
O191	O19	0.182800	0.736800	0.402900
Ag201	Ag20	0.711230	0.187940	0.869520
C4191	C419	0.461300	0.097500	0.906500
C4201	C420	0.467400	0.103400	0.862200
H3051	H305	0.445900	0.094600	0.842600
C4211	C421	0.505500	0.122600	0.846600
H3061	H306	0.509800	0.125800	0.816600
C4221	C422	0.536400	0.136500	0.875200
C4231	C423	0.530400	0.132300	0.920300
H3071	H307	0.551300	0.142700	0.939800
C4241	C424	0.492800	0.112300	0.935200
H3081	H308	0.488600	0.108800	0.965100
C4251	C425	0.581300	0.177000	0.819800
H3091	H309	0.559900	0.181400	0.798600
C4261	C426	0.624100	0.189800	0.818300
H3101	H310	0.637200	0.203900	0.794700
C4271	C427	0.614900	0.157500	0.879100
H3111	H311	0.620600	0.144800	0.906200
C4281	C428	0.808700	0.203900	0.849700
H3121	H312	0.801800	0.207700	0.820400
C4291	C429	0.802800	0.193500	0.919800
H3131	H313	0.791000	0.188800	0.947500
C4301	C430	0.846300	0.199900	0.909700
H3141	H314	0.869700	0.199800	0.929000
C4311	C431	0.887300	0.216400	0.841700
C4321	C432	0.885000	0.247100	0.807700
H3151	H315	0.858300	0.259900	0.800600
C4331	C433	0.922100	0.258200	0.784800
H3161	H316	0.920800	0.279000	0.762600
C4341	C434	0.961900	0.238100	0.795200
C4351	C435	0.963000	0.207800	0.829500
H3171	H317	0.989300	0.194400	0.836700
C4361	C436	0.926300	0.197400	0.852500
H3181	H318	0.927800	0.177500	0.875400
C4371	C437	0.989200	0.212200	0.703300
H3191	H319	0.981900	0.186700	0.718300
C4381	C438	0.989400	0.213300	0.657700
H3201	H320	0.982100	0.188200	0.642200
C4391	C439	0.024800	0.275500	0.562300
C4401	C440	0.014000	0.265700	0.520800
N771	N77	0.644500	0.179200	0.855600
N781	N78	0.576600	0.156400	0.859300
N791	N79	0.780400	0.195300	0.881100
N801	N80	0.847900	0.206400	0.866200
O201	O20	0.682800	0.236800	0.902900
Ag211	Ag21	0.288770	0.312060	0.869520
C4411	C441	0.538700	0.402500	0.906500
C4421	C442	0.532600	0.396600	0.862200
H3211	H321	0.554100	0.405400	0.842600
C4431	C443	0.494500	0.377400	0.846600
H3221	H322	0.490200	0.374200	0.816600
C4441	C444	0.463600	0.363500	0.875200
C4451	C445	0.469600	0.367700	0.920300
H3231	H323	0.448700	0.357300	0.939800
C4461	C446	0.507200	0.387700	0.935200
H3241	H324	0.511400	0.391200	0.965100
C4471	C447	0.418700	0.323000	0.819800
H3251	H325	0.440100	0.318600	0.798600
C4481	C448	0.375900	0.310200	0.818300
H3261	H326	0.362800	0.296100	0.794700
C4491	C449	0.385100	0.342500	0.879100
H3271	H327	0.379400	0.355200	0.906200
C4501	C450	0.191300	0.296100	0.849700
H3281	H328	0.198200	0.292300	0.820400
C4511	C451	0.197200	0.306500	0.919800
H3291	H329	0.209000	0.311200	0.947500
C4521	C452	0.153700	0.300100	0.909700
H3301	H330	0.130300	0.300200	0.929000
C4531	C453	0.112700	0.283600	0.841700
C4541	C454	0.115000	0.252900	0.807700
H3311	H331	0.141700	0.240100	0.800600
C4551	C455	0.077900	0.241800	0.784800
H3321	H332	0.079200	0.221000	0.762600
C4561	C456	0.038100	0.261900	0.795200
C4571	C457	0.037000	0.292200	0.829500
H3331	H333	0.010700	0.305600	0.836700
C4581	C458	0.073700	0.302600	0.852500
H3341	H334	0.072200	0.322500	0.875400
C4591	C459	0.010800	0.287800	0.703300
H3351	H335	0.018100	0.313300	0.718300
C4601	C460	0.010600	0.286700	0.657700
H3361	H336	0.017900	0.311800	0.642200
C4611	C461	0.975200	0.224500	0.562300
C4621	C462	0.986000	0.234300	0.520800
N811	N81	0.355500	0.320800	0.855600
N821	N82	0.423400	0.343600	0.859300
N831	N83	0.219600	0.304700	0.881100
N841	N84	0.152100	0.293600	0.866200
O211	O21	0.317200	0.263200	0.902900
Ag221	Ag22	0.788770	0.812060	0.369520
C4631	C463	0.038700	0.902500	0.406500
C4641	C464	0.032600	0.896600	0.362200
H3371	H337	0.054100	0.905400	0.342600
C4651	C465	0.994500	0.877400	0.346600
H3381	H338	0.990200	0.874200	0.316600
C4661	C466	0.963600	0.863500	0.375200
C4671	C467	0.969600	0.867700	0.420300
H3391	H339	0.948700	0.857300	0.439800
C4681	C468	0.007200	0.887700	0.435200
H3401	H340	0.011400	0.891200	0.465100
C4691	C469	0.918700	0.823000	0.319800
H3411	H341	0.940100	0.818600	0.298600
C4701	C470	0.875900	0.810200	0.318300
H3421	H342	0.862800	0.796100	0.294700
C4711	C471	0.885100	0.842500	0.379100
H3431	H343	0.879400	0.855200	0.406200
C4721	C472	0.691300	0.796100	0.349700
H3441	H344	0.698200	0.792300	0.320400
C4731	C473	0.697200	0.806500	0.419800
H3451	H345	0.709000	0.811200	0.447500
C4741	C474	0.653700	0.800100	0.409700
H3461	H346	0.630300	0.800200	0.429000
C4751	C475	0.612700	0.783600	0.341700
C4761	C476	0.615000	0.752900	0.307700
H3471	H347	0.641700	0.740100	0.300600
C4771	C477	0.577900	0.741800	0.284800
H3481	H348	0.579200	0.721000	0.262600
C4781	C478	0.538100	0.761900	0.295200
C4791	C479	0.537000	0.792200	0.329500
H3491	H349	0.510700	0.805600	0.336700
C4801	C480	0.573700	0.802600	0.352500
H3501	H350	0.572200	0.822500	0.375400
C4811	C481	0.510800	0.787800	0.203300
H3511	H351	0.518100	0.813300	0.218300
C4821	C482	0.510600	0.786700	0.157700
H3521	H352	0.517900	0.811800	0.142200
C4831	C483	0.475200	0.724500	0.062300
C4841	C484	0.486000	0.734300	0.020800
N851	N85	0.855500	0.820800	0.355600
N861	N86	0.923400	0.843600	0.359300
N871	N87	0.719600	0.804700	0.381100
N881	N88	0.652100	0.793600	0.366200
O221	O22	0.817200	0.763200	0.402900
Ag231	Ag23	0.711230	0.812060	0.630480
C4851	C485	0.461300	0.902500	0.593500
C4861	C486	0.467400	0.896600	0.637800
H3531	H353	0.445900	0.905400	0.657400
C4871	C487	0.505500	0.877400	0.653400
H3541	H354	0.509800	0.874200	0.683400
C4881	C488	0.536400	0.863500	0.624800
C4891	C489	0.530400	0.867700	0.579700
H3551	H355	0.551300	0.857300	0.560200
C4901	C490	0.492800	0.887700	0.564800
H3561	H356	0.488600	0.891200	0.534900
C4911	C491	0.581300	0.823000	0.680200
H3571	H357	0.559900	0.818600	0.701400
C4921	C492	0.624100	0.810200	0.681700
H3581	H358	0.637200	0.796100	0.705300
C4931	C493	0.614900	0.842500	0.620900
H3591	H359	0.620600	0.855200	0.593800
C4941	C494	0.808700	0.796100	0.650300
H3601	H360	0.801800	0.792300	0.679600
C4951	C495	0.802800	0.806500	0.580200
H3611	H361	0.791000	0.811200	0.552500
C4961	C496	0.846300	0.800100	0.590300
H3621	H362	0.869700	0.800200	0.571000
C4971	C497	0.887300	0.783600	0.658300
C4981	C498	0.885000	0.752900	0.692300
H3631	H363	0.858300	0.740100	0.699400
C4991	C499	0.922100	0.741800	0.715200
H3641	H364	0.920800	0.721000	0.737400
C5001	C500	0.961900	0.761900	0.704800
C5011	C501	0.963000	0.792200	0.670500
H3651	H365	0.989300	0.805600	0.663300
C5021	C502	0.926300	0.802600	0.647500
H3661	H366	0.927800	0.822500	0.624600
C5031	C503	0.989200	0.787800	0.796700
H3671	H367	0.981900	0.813300	0.781700
C5041	C504	0.989400	0.786700	0.842300
H3681	H368	0.982100	0.811800	0.857800
C5051	C505	0.024800	0.724500	0.937700
C5061	C506	0.014000	0.734300	0.979200
N891	N89	0.644500	0.820800	0.644400
N901	N90	0.576600	0.843600	0.640700
N911	N91	0.780400	0.804700	0.618900
N921	N92	0.847900	0.793600	0.633800
O231	O23	0.682800	0.763200	0.597100
Ag241	Ag24	0.211230	0.312060	0.130480
C5071	C507	0.961300	0.402500	0.093500
C5081	C508	0.967400	0.396600	0.137800
H3691	H369	0.945900	0.405400	0.157400
C5091	C509	0.005500	0.377400	0.153400
H3701	H370	0.009800	0.374200	0.183400
C5101	C510	0.036400	0.363500	0.124800
C5111	C511	0.030400	0.367700	0.079700
H3711	H371	0.051300	0.357300	0.060200
C5121	C512	0.992800	0.387700	0.064800
H3721	H372	0.988600	0.391200	0.034900
C5131	C513	0.081300	0.323000	0.180200
H3731	H373	0.059900	0.318600	0.201400
C5141	C514	0.124100	0.310200	0.181700
H3741	H374	0.137200	0.296100	0.205300
C5151	C515	0.114900	0.342500	0.120900
H3751	H375	0.120600	0.355200	0.093800
C5161	C516	0.308700	0.296100	0.150300
H3761	H376	0.301800	0.292300	0.179600
C5171	C517	0.302800	0.306500	0.080200
H3771	H377	0.291000	0.311200	0.052500
C5181	C518	0.346300	0.300100	0.090300
H3781	H378	0.369700	0.300200	0.071000
C5191	C519	0.387300	0.283600	0.158300
C5201	C520	0.385000	0.252900	0.192300
H3791	H379	0.358300	0.240100	0.199400
C5211	C521	0.422100	0.241800	0.215200
H3801	H380	0.420800	0.221000	0.237400
C5221	C522	0.461900	0.261900	0.204800
C5231	C523	0.463000	0.292200	0.170500
H3811	H381	0.489300	0.305600	0.163300
C5241	C524	0.426300	0.302600	0.147500
H3821	H382	0.427800	0.322500	0.124600
C5251	C525	0.489200	0.287800	0.296700
H3831	H383	0.481900	0.313300	0.281700
C5261	C526	0.489400	0.286700	0.342300
H3841	H384	0.482100	0.311800	0.357800
C5271	C527	0.524800	0.224500	0.437700
C5281	C528	0.514000	0.234300	0.479200
N931	N93	0.144500	0.320800	0.144400
N941	N94	0.076600	0.343600	0.140700
N951	N95	0.280400	0.304700	0.118900
N961	N96	0.347900	0.293600	0.133800
O241	O24	0.182800	0.263200	0.097100
C5291	C529	0.274500	0.500000	0.250000
C5301	C530	0.364500	0.500000	0.250000
N971	N97	0.411900	0.500000	0.250000
N981	N98	0.227500	0.500000	0.250000
C5311	C531	0.225500	0.500000	0.750000
C5321	C532	0.135500	0.500000	0.750000
N991	N99	0.088100	0.500000	0.750000
N1001	N100	0.272500	0.500000	0.750000
C5331	C533	0.725500	0.000000	0.250000
C5341	C534	0.635500	0.000000	0.250000
N1011	N101	0.588100	0.000000	0.250000
N1021	N102	0.772500	0.000000	0.250000
C5351	C535	0.774500	0.000000	0.750000
C5361	C536	0.864500	0.000000	0.750000
N1031	N103	0.911900	0.000000	0.750000
N1041	N104	0.727500	0.000000	0.750000
C5371	C537	0.250000	0.274500	0.500000
C5381	C538	0.250000	0.364500	0.500000
N1051	N105	0.250000	0.411900	0.500000
N1061	N106	0.250000	0.227500	0.500000
C5391	C539	0.750000	0.225500	0.500000
C5401	C540	0.750000	0.135500	0.500000
N1071	N107	0.750000	0.088100	0.500000
N1081	N108	0.750000	0.272500	0.500000
C5411	C541	0.250000	0.725500	0.000000
C5421	C542	0.250000	0.635500	0.000000
N1091	N109	0.250000	0.588100	0.000000
N1101	N110	0.250000	0.772500	0.000000
C5431	C543	0.750000	0.774500	0.000000
C5441	C544	0.750000	0.864500	0.000000
N1111	N111	0.750000	0.911900	0.000000
N1121	N112	0.750000	0.727500	0.000000
C5451	C545	0.500000	0.250000	0.274500
C5461	C546	0.500000	0.250000	0.364500
N1131	N113	0.500000	0.250000	0.411900
N1141	N114	0.500000	0.250000	0.227500
C5471	C547	0.500000	0.750000	0.225500
C5481	C548	0.500000	0.750000	0.135500
N1151	N115	0.500000	0.750000	0.088100
N1161	N116	0.500000	0.750000	0.272500
C5491	C549	0.000000	0.250000	0.725500
C5501	C550	0.000000	0.250000	0.635500
N1171	N117	0.000000	0.250000	0.588100
N1181	N118	0.000000	0.250000	0.772500
C5511	C551	0.000000	0.750000	0.774500
C5521	C552	0.000000	0.750000	0.864500
N1191	N119	0.000000	0.750000	0.911900
N1201	N120	0.000000	0.750000	0.727500
N1211	N121	0.077400	0.077400	0.077400
N1221	N122	0.577400	0.577400	0.577400
N1231	N123	0.422600	0.922600	0.577400
N1241	N124	0.922600	0.422600	0.077400
N1251	N125	0.922600	0.577400	0.422600
N1261	N126	0.422600	0.077400	0.922600
N1271	N127	0.577400	0.422600	0.922600
N1281	N128	0.077400	0.922600	0.422600
Ag251	Ag25	0.038770	0.380480	0.437940
C5531	C553	0.288700	0.343500	0.347500
C5541	C554	0.282600	0.387800	0.353400
H3851	H385	0.304100	0.407400	0.344600
C5551	C555	0.244500	0.403400	0.372600
H3861	H386	0.240200	0.433400	0.375800
C5561	C556	0.213600	0.374800	0.386500
C5571	C557	0.219600	0.329700	0.382300
H3871	H387	0.198700	0.310200	0.392700
C5581	C558	0.257200	0.314800	0.362300
H3881	H388	0.261400	0.284900	0.358800
C5591	C559	0.168700	0.430200	0.427000
H3891	H389	0.190100	0.451400	0.431400
C5601	C560	0.125900	0.431700	0.439800
H3901	H390	0.112800	0.455300	0.453900
C5611	C561	0.135100	0.370900	0.407500
H3911	H391	0.129400	0.343800	0.394800
C5621	C562	0.941300	0.400300	0.453900
H3921	H392	0.948200	0.429600	0.457700
C5631	C563	0.947200	0.330200	0.443500
H3931	H393	0.959000	0.302500	0.438800
C5641	C564	0.903700	0.340300	0.449900
H3941	H394	0.880300	0.321000	0.449800
C5651	C565	0.862700	0.408300	0.466400
C5661	C566	0.865000	0.442300	0.497100
H3951	H395	0.891700	0.449400	0.509900
C5671	C567	0.827900	0.465200	0.508200
H3961	H396	0.829200	0.487400	0.529000
C5681	C568	0.788100	0.454800	0.488100
C5691	C569	0.787000	0.420500	0.457800
H3971	H397	0.760700	0.413300	0.444400
C5701	C570	0.823700	0.397500	0.447400
H3981	H398	0.822200	0.374600	0.427500
C5711	C571	0.760800	0.546700	0.462200
H3991	H399	0.768100	0.531700	0.436700
C5721	C572	0.760600	0.592300	0.463300
H4001	H400	0.767900	0.607800	0.438200
C5731	C573	0.725200	0.687700	0.525500
C5741	C574	0.736000	0.729200	0.515700
N1291	N129	0.105500	0.394400	0.429200
N1301	N130	0.173400	0.390700	0.406400
N1311	N131	0.969600	0.368900	0.445300
N1321	N132	0.902100	0.383800	0.456400
O251	O25	0.067200	0.347100	0.486800
Ag261	Ag26	0.538770	0.880480	0.937940
C5751	C575	0.788700	0.843500	0.847500
C5761	C576	0.782600	0.887800	0.853400
H4011	H401	0.804100	0.907400	0.844600
C5771	C577	0.744500	0.903400	0.872600
H4021	H402	0.740200	0.933400	0.875800
C5781	C578	0.713600	0.874800	0.886500
C5791	C579	0.719600	0.829700	0.882300
H4031	H403	0.698700	0.810200	0.892700
C5801	C580	0.757200	0.814800	0.862300
H4041	H404	0.761400	0.784900	0.858800
C5811	C581	0.668700	0.930200	0.927000
H4051	H405	0.690100	0.951400	0.931400
C5821	C582	0.625900	0.931700	0.939800
H4061	H406	0.612800	0.955300	0.953900
C5831	C583	0.635100	0.870900	0.907500
H4071	H407	0.629400	0.843800	0.894800
C5841	C584	0.441300	0.900300	0.953900
H4081	H408	0.448200	0.929600	0.957700
C5851	C585	0.447200	0.830200	0.943500
H4091	H409	0.459000	0.802500	0.938800
C5861	C586	0.403700	0.840300	0.949900
H4101	H410	0.380300	0.821000	0.949800
C5871	C587	0.362700	0.908300	0.966400
C5881	C588	0.365000	0.942300	0.997100
H4111	H411	0.391700	0.949400	0.009900
C5891	C589	0.327900	0.965200	0.008200
H4121	H412	0.329200	0.987400	0.029000
C5901	C590	0.288100	0.954800	0.988100
C5911	C591	0.287000	0.920500	0.957800
H4131	H413	0.260700	0.913300	0.944400
C5921	C592	0.323700	0.897500	0.947400
H4141	H414	0.322200	0.874600	0.927500
C5931	C593	0.260800	0.046700	0.962200
H4151	H415	0.268100	0.031700	0.936700
C5941	C594	0.260600	0.092300	0.963300
H4161	H416	0.267900	0.107800	0.938200
C5951	C595	0.225200	0.187700	0.025500
C5961	C596	0.236000	0.229200	0.015700
N1331	N133	0.605500	0.894400	0.929200
N1341	N134	0.673400	0.890700	0.906400
N1351	N135	0.469600	0.868900	0.945300
N1361	N136	0.402100	0.883800	0.956400
O261	O26	0.567200	0.847100	0.986800
Ag271	Ag27	0.461230	0.619520	0.937940
C5971	C597	0.211300	0.656500	0.847500
C5981	C598	0.217400	0.612200	0.853400
H4171	H417	0.195900	0.592600	0.844600
C5991	C599	0.255500	0.596600	0.872600
H4181	H418	0.259800	0.566600	0.875800
C6001	C600	0.286400	0.625200	0.886500
C6011	C601	0.280400	0.670300	0.882300
H4191	H419	0.301300	0.689800	0.892700
C6021	C602	0.242800	0.685200	0.862300
H4201	H420	0.238600	0.715100	0.858800
C6031	C603	0.331300	0.569800	0.927000
H4211	H421	0.309900	0.548600	0.931400
C6041	C604	0.374100	0.568300	0.939800
H4221	H422	0.387200	0.544700	0.953900
C6051	C605	0.364900	0.629100	0.907500
H4231	H423	0.370600	0.656200	0.894800
C6061	C606	0.558700	0.599700	0.953900
H4241	H424	0.551800	0.570400	0.957700
C6071	C607	0.552800	0.669800	0.943500
H4251	H425	0.541000	0.697500	0.938800
C6081	C608	0.596300	0.659700	0.949900
H4261	H426	0.619700	0.679000	0.949800
C6091	C609	0.637300	0.591700	0.966400
C6101	C610	0.635000	0.557700	0.997100
H4271	H427	0.608300	0.550600	0.009900
C6111	C611	0.672100	0.534800	0.008200
H4281	H428	0.670800	0.512600	0.029000
C6121	C612	0.711900	0.545200	0.988100
C6131	C613	0.713000	0.579500	0.957800
H4291	H429	0.739300	0.586700	0.944400
C6141	C614	0.676300	0.602500	0.947400
H4301	H430	0.677800	0.625400	0.927500
C6151	C615	0.739200	0.453300	0.962200
H4311	H431	0.731900	0.468300	0.936700
C6161	C616	0.739400	0.407700	0.963300
H4321	H432	0.732100	0.392200	0.938200
C6171	C617	0.774800	0.312300	0.025500
C6181	C618	0.764000	0.270800	0.015700
N1371	N137	0.394500	0.605600	0.929200
N1381	N138	0.326600	0.609300	0.906400
N1391	N139	0.530400	0.631100	0.945300
N1401	N140	0.597900	0.616200	0.956400
O271	O27	0.432800	0.652900	0.986800
Ag281	Ag28	0.961230	0.119520	0.437940
C6191	C619	0.711300	0.156500	0.347500
C6201	C620	0.717400	0.112200	0.353400
H4331	H433	0.695900	0.092600	0.344600
C6211	C621	0.755500	0.096600	0.372600
H4341	H434	0.759800	0.066600	0.375800
C6221	C622	0.786400	0.125200	0.386500
C6231	C623	0.780400	0.170300	0.382300
H4351	H435	0.801300	0.189800	0.392700
C6241	C624	0.742800	0.185200	0.362300
H4361	H436	0.738600	0.215100	0.358800
C6251	C625	0.831300	0.069800	0.427000
H4371	H437	0.809900	0.048600	0.431400
C6261	C626	0.874100	0.068300	0.439800
H4381	H438	0.887200	0.044700	0.453900
C6271	C627	0.864900	0.129100	0.407500
H4391	H439	0.870600	0.156200	0.394800
C6281	C628	0.058700	0.099700	0.453900
H4401	H440	0.051800	0.070400	0.457700
C6291	C629	0.052800	0.169800	0.443500
H4411	H441	0.041000	0.197500	0.438800
C6301	C630	0.096300	0.159700	0.449900
H4421	H442	0.119700	0.179000	0.449800
C6311	C631	0.137300	0.091700	0.466400
C6321	C632	0.135000	0.057700	0.497100
H4431	H443	0.108300	0.050600	0.509900
C6331	C633	0.172100	0.034800	0.508200
H4441	H444	0.170800	0.012600	0.529000
C6341	C634	0.211900	0.045200	0.488100
C6351	C635	0.213000	0.079500	0.457800
H4451	H445	0.239300	0.086700	0.444400
C6361	C636	0.176300	0.102500	0.447400
H4461	H446	0.177800	0.125400	0.427500
C6371	C637	0.239200	0.953300	0.462200
H4471	H447	0.231900	0.968300	0.436700
C6381	C638	0.239400	0.907700	0.463300
H4481	H448	0.232100	0.892200	0.438200
C6391	C639	0.274800	0.812300	0.525500
C6401	C640	0.264000	0.770800	0.515700
N1411	N141	0.894500	0.105600	0.429200
N1421	N142	0.826600	0.109300	0.406400
N1431	N143	0.030400	0.131100	0.445300
N1441	N144	0.097900	0.116200	0.456400
O281	O28	0.932800	0.152900	0.486800
Ag291	Ag29	0.538770	0.119520	0.562060
C6411	C641	0.788700	0.156500	0.652500
C6421	C642	0.782600	0.112200	0.646600
H4491	H449	0.804100	0.092600	0.655400
C6431	C643	0.744500	0.096600	0.627400
H4501	H450	0.740200	0.066600	0.624200
C6441	C644	0.713600	0.125200	0.613500
C6451	C645	0.719600	0.170300	0.617700
H4511	H451	0.698700	0.189800	0.607300
C6461	C646	0.757200	0.185200	0.637700
H4521	H452	0.761400	0.215100	0.641200
C6471	C647	0.668700	0.069800	0.573000
H4531	H453	0.690100	0.048600	0.568600
C6481	C648	0.625900	0.068300	0.560200
H4541	H454	0.612800	0.044700	0.546100
C6491	C649	0.635100	0.129100	0.592500
H4551	H455	0.629400	0.156200	0.605200
C6501	C650	0.441300	0.099700	0.546100
H4561	H456	0.448200	0.070400	0.542300
C6511	C651	0.447200	0.169800	0.556500
H4571	H457	0.459000	0.197500	0.561200
C6521	C652	0.403700	0.159700	0.550100
H4581	H458	0.380300	0.179000	0.550200
C6531	C653	0.362700	0.091700	0.533600
C6541	C654	0.365000	0.057700	0.502900
H4591	H459	0.391700	0.050600	0.490100
C6551	C655	0.327900	0.034800	0.491800
H4601	H460	0.329200	0.012600	0.471000
C6561	C656	0.288100	0.045200	0.511900
C6571	C657	0.287000	0.079500	0.542200
H4611	H461	0.260700	0.086700	0.555600
C6581	C658	0.323700	0.102500	0.552600
H4621	H462	0.322200	0.125400	0.572500
C6591	C659	0.260800	0.953300	0.537800
H4631	H463	0.268100	0.968300	0.563300
C6601	C660	0.260600	0.907700	0.536700
H4641	H464	0.267900	0.892200	0.561800
C6611	C661	0.225200	0.812300	0.474500
C6621	C662	0.236000	0.770800	0.484300
N1451	N145	0.605500	0.105600	0.570800
N1461	N146	0.673400	0.109300	0.593600
N1471	N147	0.469600	0.131100	0.554700
N1481	N148	0.402100	0.116200	0.543600
O291	O29	0.567200	0.152900	0.513200
Ag301	Ag30	0.038770	0.619520	0.062060
C6631	C663	0.288700	0.656500	0.152500
C6641	C664	0.282600	0.612200	0.146600
H4651	H465	0.304100	0.592600	0.155400
C6651	C665	0.244500	0.596600	0.127400
H4661	H466	0.240200	0.566600	0.124200
C6661	C666	0.213600	0.625200	0.113500
C6671	C667	0.219600	0.670300	0.117700
H4671	H467	0.198700	0.689800	0.107300
C6681	C668	0.257200	0.685200	0.137700
H4681	H468	0.261400	0.715100	0.141200
C6691	C669	0.168700	0.569800	0.073000
H4691	H469	0.190100	0.548600	0.068600
C6701	C670	0.125900	0.568300	0.060200
H4701	H470	0.112800	0.544700	0.046100
C6711	C671	0.135100	0.629100	0.092500
H4711	H471	0.129400	0.656200	0.105200
C6721	C672	0.941300	0.599700	0.046100
H4721	H472	0.948200	0.570400	0.042300
C6731	C673	0.947200	0.669800	0.056500
H4731	H473	0.959000	0.697500	0.061200
C6741	C674	0.903700	0.659700	0.050100
H4741	H474	0.880300	0.679000	0.050200
C6751	C675	0.862700	0.591700	0.033600
C6761	C676	0.865000	0.557700	0.002900
H4751	H475	0.891700	0.550600	0.990100
C6771	C677	0.827900	0.534800	0.991800
H4761	H476	0.829200	0.512600	0.971000
C6781	C678	0.788100	0.545200	0.011900
C6791	C679	0.787000	0.579500	0.042200
H4771	H477	0.760700	0.586700	0.055600
C6801	C680	0.823700	0.602500	0.052600
H4781	H478	0.822200	0.625400	0.072500
C6811	C681	0.760800	0.453300	0.037800
H4791	H479	0.768100	0.468300	0.063300
C6821	C682	0.760600	0.407700	0.036700
H4801	H480	0.767900	0.392200	0.061800
C6831	C683	0.725200	0.312300	0.974500
C6841	C684	0.736000	0.270800	0.984300
N1491	N149	0.105500	0.605600	0.070800
N1501	N150	0.173400	0.609300	0.093600
N1511	N151	0.969600	0.631100	0.054700
N1521	N152	0.902100	0.616200	0.043600
O301	O30	0.067200	0.652900	0.013200
Ag311	Ag31	0.961230	0.880480	0.062060
C6851	C685	0.711300	0.843500	0.152500
C6861	C686	0.717400	0.887800	0.146600
H4811	H481	0.695900	0.907400	0.155400
C6871	C687	0.755500	0.903400	0.127400
H4821	H482	0.759800	0.933400	0.124200
C6881	C688	0.786400	0.874800	0.113500
C6891	C689	0.780400	0.829700	0.117700
H4831	H483	0.801300	0.810200	0.107300
C6901	C690	0.742800	0.814800	0.137700
H4841	H484	0.738600	0.784900	0.141200
C6911	C691	0.831300	0.930200	0.073000
H4851	H485	0.809900	0.951400	0.068600
C6921	C692	0.874100	0.931700	0.060200
H4861	H486	0.887200	0.955300	0.046100
C6931	C693	0.864900	0.870900	0.092500
H4871	H487	0.870600	0.843800	0.105200
C6941	C694	0.058700	0.900300	0.046100
H4881	H488	0.051800	0.929600	0.042300
C6951	C695	0.052800	0.830200	0.056500
H4891	H489	0.041000	0.802500	0.061200
C6961	C696	0.096300	0.840300	0.050100
H4901	H490	0.119700	0.821000	0.050200
C6971	C697	0.137300	0.908300	0.033600
C6981	C698	0.135000	0.942300	0.002900
H4911	H491	0.108300	0.949400	0.990100
C6991	C699	0.172100	0.965200	0.991800
H4921	H492	0.170800	0.987400	0.971000
C7001	C700	0.211900	0.954800	0.011900
C7011	C701	0.213000	0.920500	0.042200
H4931	H493	0.239300	0.913300	0.055600
C7021	C702	0.176300	0.897500	0.052600
H4941	H494	0.177800	0.874600	0.072500
C7031	C703	0.239200	0.046700	0.037800
H4951	H495	0.231900	0.031700	0.063300
C7041	C704	0.239400	0.092300	0.036700
H4961	H496	0.232100	0.107800	0.061800
C7051	C705	0.274800	0.187700	0.974500
C7061	C706	0.264000	0.229200	0.984300
N1531	N153	0.894500	0.894400	0.070800
N1541	N154	0.826600	0.890700	0.093600
N1551	N155	0.030400	0.868900	0.054700
N1561	N156	0.097900	0.883800	0.043600
O311	O31	0.932800	0.847100	0.013200
Ag321	Ag32	0.461230	0.380480	0.562060
C7071	C707	0.211300	0.343500	0.652500
C7081	C708	0.217400	0.387800	0.646600
H4971	H497	0.195900	0.407400	0.655400
C7091	C709	0.255500	0.403400	0.627400
H4981	H498	0.259800	0.433400	0.624200
C7101	C710	0.286400	0.374800	0.613500
C7111	C711	0.280400	0.329700	0.617700
H4991	H499	0.301300	0.310200	0.607300
C7121	C712	0.242800	0.314800	0.637700
H5001	H500	0.238600	0.284900	0.641200
C7131	C713	0.331300	0.430200	0.573000
H5011	H501	0.309900	0.451400	0.568600
C7141	C714	0.374100	0.431700	0.560200
H5021	H502	0.387200	0.455300	0.546100
C7151	C715	0.364900	0.370900	0.592500
H5031	H503	0.370600	0.343800	0.605200
C7161	C716	0.558700	0.400300	0.546100
H5041	H504	0.551800	0.429600	0.542300
C7171	C717	0.552800	0.330200	0.556500
H5051	H505	0.541000	0.302500	0.561200
C7181	C718	0.596300	0.340300	0.550100
H5061	H506	0.619700	0.321000	0.550200
C7191	C719	0.637300	0.408300	0.533600
C7201	C720	0.635000	0.442300	0.502900
H5071	H507	0.608300	0.449400	0.490100
C7211	C721	0.672100	0.465200	0.491800
H5081	H508	0.670800	0.487400	0.471000
C7221	C722	0.711900	0.454800	0.511900
C7231	C723	0.713000	0.420500	0.542200
H5091	H509	0.739300	0.413300	0.555600
C7241	C724	0.676300	0.397500	0.552600
H5101	H510	0.677800	0.374600	0.572500
C7251	C725	0.739200	0.546700	0.537800
H5111	H511	0.731900	0.531700	0.563300
C7261	C726	0.739400	0.592300	0.536700
H5121	H512	0.732100	0.607800	0.561800
C7271	C727	0.774800	0.687700	0.474500
C7281	C728	0.764000	0.729200	0.484300
N1571	N157	0.394500	0.394400	0.570800
N1581	N158	0.326600	0.390700	0.593600
N1591	N159	0.530400	0.368900	0.554700
N1601	N160	0.597900	0.383800	0.543600
O321	O32	0.432800	0.347100	0.513200
Ag331	Ag33	0.380480	0.437940	0.038770
C7291	C729	0.343500	0.347500	0.288700
C7301	C730	0.387800	0.353400	0.282600
H5131	H513	0.407400	0.344600	0.304100
C7311	C731	0.403400	0.372600	0.244500
H5141	H514	0.433400	0.375800	0.240200
C7321	C732	0.374800	0.386500	0.213600
C7331	C733	0.329700	0.382300	0.219600
H5151	H515	0.310200	0.392700	0.198700
C7341	C734	0.314800	0.362300	0.257200
H5161	H516	0.284900	0.358800	0.261400
C7351	C735	0.430200	0.427000	0.168700
H5171	H517	0.451400	0.431400	0.190100
C7361	C736	0.431700	0.439800	0.125900
H5181	H518	0.455300	0.453900	0.112800
C7371	C737	0.370900	0.407500	0.135100
H5191	H519	0.343800	0.394800	0.129400
C7381	C738	0.400300	0.453900	0.941300
H5201	H520	0.429600	0.457700	0.948200
C7391	C739	0.330200	0.443500	0.947200
H5211	H521	0.302500	0.438800	0.959000
C7401	C740	0.340300	0.449900	0.903700
H5221	H522	0.321000	0.449800	0.880300
C7411	C741	0.408300	0.466400	0.862700
C7421	C742	0.442300	0.497100	0.865000
H5231	H523	0.449400	0.509900	0.891700
C7431	C743	0.465200	0.508200	0.827900
H5241	H524	0.487400	0.529000	0.829200
C7441	C744	0.454800	0.488100	0.788100
C7451	C745	0.420500	0.457800	0.787000
H5251	H525	0.413300	0.444400	0.760700
C7461	C746	0.397500	0.447400	0.823700
H5261	H526	0.374600	0.427500	0.822200
C7471	C747	0.546700	0.462200	0.760800
H5271	H527	0.531700	0.436700	0.768100
C7481	C748	0.592300	0.463300	0.760600
H5281	H528	0.607800	0.438200	0.767900
C7491	C749	0.687700	0.525500	0.725200
C7501	C750	0.729200	0.515700	0.736000
N1611	N161	0.394400	0.429200	0.105500
N1621	N162	0.390700	0.406400	0.173400
N1631	N163	0.368900	0.445300	0.969600
N1641	N164	0.383800	0.456400	0.902100
O331	O33	0.347100	0.486800	0.067200
Ag341	Ag34	0.880480	0.937940	0.538770
C7511	C751	0.843500	0.847500	0.788700
C7521	C752	0.887800	0.853400	0.782600
H5291	H529	0.907400	0.844600	0.804100
C7531	C753	0.903400	0.872600	0.744500
H5301	H530	0.933400	0.875800	0.740200
C7541	C754	0.874800	0.886500	0.713600
C7551	C755	0.829700	0.882300	0.719600
H5311	H531	0.810200	0.892700	0.698700
C7561	C756	0.814800	0.862300	0.757200
H5321	H532	0.784900	0.858800	0.761400
C7571	C757	0.930200	0.927000	0.668700
H5331	H533	0.951400	0.931400	0.690100
C7581	C758	0.931700	0.939800	0.625900
H5341	H534	0.955300	0.953900	0.612800
C7591	C759	0.870900	0.907500	0.635100
H5351	H535	0.843800	0.894800	0.629400
C7601	C760	0.900300	0.953900	0.441300
H5361	H536	0.929600	0.957700	0.448200
C7611	C761	0.830200	0.943500	0.447200
H5371	H537	0.802500	0.938800	0.459000
C7621	C762	0.840300	0.949900	0.403700
H5381	H538	0.821000	0.949800	0.380300
C7631	C763	0.908300	0.966400	0.362700
C7641	C764	0.942300	0.997100	0.365000
H5391	H539	0.949400	0.009900	0.391700
C7651	C765	0.965200	0.008200	0.327900
H5401	H540	0.987400	0.029000	0.329200
C7661	C766	0.954800	0.988100	0.288100
C7671	C767	0.920500	0.957800	0.287000
H5411	H541	0.913300	0.944400	0.260700
C7681	C768	0.897500	0.947400	0.323700
H5421	H542	0.874600	0.927500	0.322200
C7691	C769	0.046700	0.962200	0.260800
H5431	H543	0.031700	0.936700	0.268100
C7701	C770	0.092300	0.963300	0.260600
H5441	H544	0.107800	0.938200	0.267900
C7711	C771	0.187700	0.025500	0.225200
C7721	C772	0.229200	0.015700	0.236000
N1651	N165	0.894400	0.929200	0.605500
N1661	N166	0.890700	0.906400	0.673400
N1671	N167	0.868900	0.945300	0.469600
N1681	N168	0.883800	0.956400	0.402100
O341	O34	0.847100	0.986800	0.567200
Ag351	Ag35	0.619520	0.937940	0.461230
C7731	C773	0.656500	0.847500	0.211300
C7741	C774	0.612200	0.853400	0.217400
H5451	H545	0.592600	0.844600	0.195900
C7751	C775	0.596600	0.872600	0.255500
H5461	H546	0.566600	0.875800	0.259800
C7761	C776	0.625200	0.886500	0.286400
C7771	C777	0.670300	0.882300	0.280400
H5471	H547	0.689800	0.892700	0.301300
C7781	C778	0.685200	0.862300	0.242800
H5481	H548	0.715100	0.858800	0.238600
C7791	C779	0.569800	0.927000	0.331300
H5491	H549	0.548600	0.931400	0.309900
C7801	C780	0.568300	0.939800	0.374100
H5501	H550	0.544700	0.953900	0.387200
C7811	C781	0.629100	0.907500	0.364900
H5511	H551	0.656200	0.894800	0.370600
C7821	C782	0.599700	0.953900	0.558700
H5521	H552	0.570400	0.957700	0.551800
C7831	C783	0.669800	0.943500	0.552800
H5531	H553	0.697500	0.938800	0.541000
C7841	C784	0.659700	0.949900	0.596300
H5541	H554	0.679000	0.949800	0.619700
C7851	C785	0.591700	0.966400	0.637300
C7861	C786	0.557700	0.997100	0.635000
H5551	H555	0.550600	0.009900	0.608300
C7871	C787	0.534800	0.008200	0.672100
H5561	H556	0.512600	0.029000	0.670800
C7881	C788	0.545200	0.988100	0.711900
C7891	C789	0.579500	0.957800	0.713000
H5571	H557	0.586700	0.944400	0.739300
C7901	C790	0.602500	0.947400	0.676300
H5581	H558	0.625400	0.927500	0.677800
C7911	C791	0.453300	0.962200	0.739200
H5591	H559	0.468300	0.936700	0.731900
C7921	C792	0.407700	0.963300	0.739400
H5601	H560	0.392200	0.938200	0.732100
C7931	C793	0.312300	0.025500	0.774800
C7941	C794	0.270800	0.015700	0.764000
N1691	N169	0.605600	0.929200	0.394500
N1701	N170	0.609300	0.906400	0.326600
N1711	N171	0.631100	0.945300	0.530400
N1721	N172	0.616200	0.956400	0.597900
O351	O35	0.652900	0.986800	0.432800
Ag361	Ag36	0.119520	0.437940	0.961230
C7951	C795	0.156500	0.347500	0.711300
C7961	C796	0.112200	0.353400	0.717400
H5611	H561	0.092600	0.344600	0.695900
C7971	C797	0.096600	0.372600	0.755500
H5621	H562	0.066600	0.375800	0.759800
C7981	C798	0.125200	0.386500	0.786400
C7991	C799	0.170300	0.382300	0.780400
H5631	H563	0.189800	0.392700	0.801300
C8001	C800	0.185200	0.362300	0.742800
H5641	H564	0.215100	0.358800	0.738600
C8011	C801	0.069800	0.427000	0.831300
H5651	H565	0.048600	0.431400	0.809900
C8021	C802	0.068300	0.439800	0.874100
H5661	H566	0.044700	0.453900	0.887200
C8031	C803	0.129100	0.407500	0.864900
H5671	H567	0.156200	0.394800	0.870600
C8041	C804	0.099700	0.453900	0.058700
H5681	H568	0.070400	0.457700	0.051800
C8051	C805	0.169800	0.443500	0.052800
H5691	H569	0.197500	0.438800	0.041000
C8061	C806	0.159700	0.449900	0.096300
H5701	H570	0.179000	0.449800	0.119700
C8071	C807	0.091700	0.466400	0.137300
C8081	C808	0.057700	0.497100	0.135000
H5711	H571	0.050600	0.509900	0.108300
C8091	C809	0.034800	0.508200	0.172100
H5721	H572	0.012600	0.529000	0.170800
C8101	C810	0.045200	0.488100	0.211900
C8111	C811	0.079500	0.457800	0.213000
H5731	H573	0.086700	0.444400	0.239300
C8121	C812	0.102500	0.447400	0.176300
H5741	H574	0.125400	0.427500	0.177800
C8131	C813	0.953300	0.462200	0.239200
H5751	H575	0.968300	0.436700	0.231900
C8141	C814	0.907700	0.463300	0.239400
H5761	H576	0.892200	0.438200	0.232100
C8151	C815	0.812300	0.525500	0.274800
C8161	C816	0.770800	0.515700	0.264000
N1731	N173	0.105600	0.429200	0.894500
N1741	N174	0.109300	0.406400	0.826600
N1751	N175	0.131100	0.445300	0.030400
N1761	N176	0.116200	0.456400	0.097900
O361	O36	0.152900	0.486800	0.932800
Ag371	Ag37	0.119520	0.562060	0.538770
C8171	C817	0.156500	0.652500	0.788700
C8181	C818	0.112200	0.646600	0.782600
H5771	H577	0.092600	0.655400	0.804100
C8191	C819	0.096600	0.627400	0.744500
H5781	H578	0.066600	0.624200	0.740200
C8201	C820	0.125200	0.613500	0.713600
C8211	C821	0.170300	0.617700	0.719600
H5791	H579	0.189800	0.607300	0.698700
C8221	C822	0.185200	0.637700	0.757200
H5801	H580	0.215100	0.641200	0.761400
C8231	C823	0.069800	0.573000	0.668700
H5811	H581	0.048600	0.568600	0.690100
C8241	C824	0.068300	0.560200	0.625900
H5821	H582	0.044700	0.546100	0.612800
C8251	C825	0.129100	0.592500	0.635100
H5831	H583	0.156200	0.605200	0.629400
C8261	C826	0.099700	0.546100	0.441300
H5841	H584	0.070400	0.542300	0.448200
C8271	C827	0.169800	0.556500	0.447200
H5851	H585	0.197500	0.561200	0.459000
C8281	C828	0.159700	0.550100	0.403700
H5861	H586	0.179000	0.550200	0.380300
C8291	C829	0.091700	0.533600	0.362700
C8301	C830	0.057700	0.502900	0.365000
H5871	H587	0.050600	0.490100	0.391700
C8311	C831	0.034800	0.491800	0.327900
H5881	H588	0.012600	0.471000	0.329200
C8321	C832	0.045200	0.511900	0.288100
C8331	C833	0.079500	0.542200	0.287000
H5891	H589	0.086700	0.555600	0.260700
C8341	C834	0.102500	0.552600	0.323700
H5901	H590	0.125400	0.572500	0.322200
C8351	C835	0.953300	0.537800	0.260800
H5911	H591	0.968300	0.563300	0.268100
C8361	C836	0.907700	0.536700	0.260600
H5921	H592	0.892200	0.561800	0.267900
C8371	C837	0.812300	0.474500	0.225200
C8381	C838	0.770800	0.484300	0.236000
N1771	N177	0.105600	0.570800	0.605500
N1781	N178	0.109300	0.593600	0.673400
N1791	N179	0.131100	0.554700	0.469600
N1801	N180	0.116200	0.543600	0.402100
O371	O37	0.152900	0.513200	0.567200
Ag381	Ag38	0.619520	0.062060	0.038770
C8391	C839	0.656500	0.152500	0.288700
C8401	C840	0.612200	0.146600	0.282600
H5931	H593	0.592600	0.155400	0.304100
C8411	C841	0.596600	0.127400	0.244500
H5941	H594	0.566600	0.124200	0.240200
C8421	C842	0.625200	0.113500	0.213600
C8431	C843	0.670300	0.117700	0.219600
H5951	H595	0.689800	0.107300	0.198700
C8441	C844	0.685200	0.137700	0.257200
H5961	H596	0.715100	0.141200	0.261400
C8451	C845	0.569800	0.073000	0.168700
H5971	H597	0.548600	0.068600	0.190100
C8461	C846	0.568300	0.060200	0.125900
H5981	H598	0.544700	0.046100	0.112800
C8471	C847	0.629100	0.092500	0.135100
H5991	H599	0.656200	0.105200	0.129400
C8481	C848	0.599700	0.046100	0.941300
H6001	H600	0.570400	0.042300	0.948200
C8491	C849	0.669800	0.056500	0.947200
H6011	H601	0.697500	0.061200	0.959000
C8501	C850	0.659700	0.050100	0.903700
H6021	H602	0.679000	0.050200	0.880300
C8511	C851	0.591700	0.033600	0.862700
C8521	C852	0.557700	0.002900	0.865000
H6031	H603	0.550600	0.990100	0.891700
C8531	C853	0.534800	0.991800	0.827900
H6041	H604	0.512600	0.971000	0.829200
C8541	C854	0.545200	0.011900	0.788100
C8551	C855	0.579500	0.042200	0.787000
H6051	H605	0.586700	0.055600	0.760700
C8561	C856	0.602500	0.052600	0.823700
H6061	H606	0.625400	0.072500	0.822200
C8571	C857	0.453300	0.037800	0.760800
H6071	H607	0.468300	0.063300	0.768100
C8581	C858	0.407700	0.036700	0.760600
H6081	H608	0.392200	0.061800	0.767900
C8591	C859	0.312300	0.974500	0.725200
C8601	C860	0.270800	0.984300	0.736000
N1811	N181	0.605600	0.070800	0.105500
N1821	N182	0.609300	0.093600	0.173400
N1831	N183	0.631100	0.054700	0.969600
N1841	N184	0.616200	0.043600	0.902100
O381	O38	0.652900	0.013200	0.067200
Ag391	Ag39	0.880480	0.062060	0.961230
C8611	C861	0.843500	0.152500	0.711300
C8621	C862	0.887800	0.146600	0.717400
H6091	H609	0.907400	0.155400	0.695900
C8631	C863	0.903400	0.127400	0.755500
H6101	H610	0.933400	0.124200	0.759800
C8641	C864	0.874800	0.113500	0.786400
C8651	C865	0.829700	0.117700	0.780400
H6111	H611	0.810200	0.107300	0.801300
C8661	C866	0.814800	0.137700	0.742800
H6121	H612	0.784900	0.141200	0.738600
C8671	C867	0.930200	0.073000	0.831300
H6131	H613	0.951400	0.068600	0.809900
C8681	C868	0.931700	0.060200	0.874100
H6141	H614	0.955300	0.046100	0.887200
C8691	C869	0.870900	0.092500	0.864900
H6151	H615	0.843800	0.105200	0.870600
C8701	C870	0.900300	0.046100	0.058700
H6161	H616	0.929600	0.042300	0.051800
C8711	C871	0.830200	0.056500	0.052800
H6171	H617	0.802500	0.061200	0.041000
C8721	C872	0.840300	0.050100	0.096300
H6181	H618	0.821000	0.050200	0.119700
C8731	C873	0.908300	0.033600	0.137300
C8741	C874	0.942300	0.002900	0.135000
H6191	H619	0.949400	0.990100	0.108300
C8751	C875	0.965200	0.991800	0.172100
H6201	H620	0.987400	0.971000	0.170800
C8761	C876	0.954800	0.011900	0.211900
C8771	C877	0.920500	0.042200	0.213000
H6211	H621	0.913300	0.055600	0.239300
C8781	C878	0.897500	0.052600	0.176300
H6221	H622	0.874600	0.072500	0.177800
C8791	C879	0.046700	0.037800	0.239200
H6231	H623	0.031700	0.063300	0.231900
C8801	C880	0.092300	0.036700	0.239400
H6241	H624	0.107800	0.061800	0.232100
C8811	C881	0.187700	0.974500	0.274800
C8821	C882	0.229200	0.984300	0.264000
N1851	N185	0.894400	0.070800	0.894500
N1861	N186	0.890700	0.093600	0.826600
N1871	N187	0.868900	0.054700	0.030400
N1881	N188	0.883800	0.043600	0.097900
O391	O39	0.847100	0.013200	0.932800
Ag401	Ag40	0.380480	0.562060	0.461230
C8831	C883	0.343500	0.652500	0.211300
C8841	C884	0.387800	0.646600	0.217400
H6251	H625	0.407400	0.655400	0.195900
C8851	C885	0.403400	0.627400	0.255500
H6261	H626	0.433400	0.624200	0.259800
C8861	C886	0.374800	0.613500	0.286400
C8871	C887	0.329700	0.617700	0.280400
H6271	H627	0.310200	0.607300	0.301300
C8881	C888	0.314800	0.637700	0.242800
H6281	H628	0.284900	0.641200	0.238600
C8891	C889	0.430200	0.573000	0.331300
H6291	H629	0.451400	0.568600	0.309900
C8901	C890	0.431700	0.560200	0.374100
H6301	H630	0.455300	0.546100	0.387200
C8911	C891	0.370900	0.592500	0.364900
H6311	H631	0.343800	0.605200	0.370600
C8921	C892	0.400300	0.546100	0.558700
H6321	H632	0.429600	0.542300	0.551800
C8931	C893	0.330200	0.556500	0.552800
H6331	H633	0.302500	0.561200	0.541000
C8941	C894	0.340300	0.550100	0.596300
H6341	H634	0.321000	0.550200	0.619700
C8951	C895	0.408300	0.533600	0.637300
C8961	C896	0.442300	0.502900	0.635000
H6351	H635	0.449400	0.490100	0.608300
C8971	C897	0.465200	0.491800	0.672100
H6361	H636	0.487400	0.471000	0.670800
C8981	C898	0.454800	0.511900	0.711900
C8991	C899	0.420500	0.542200	0.713000
H6371	H637	0.413300	0.555600	0.739300
C9001	C900	0.397500	0.552600	0.676300
H6381	H638	0.374600	0.572500	0.677800
C9011	C901	0.546700	0.537800	0.739200
H6391	H639	0.531700	0.563300	0.731900
C9021	C902	0.592300	0.536700	0.739400
H6401	H640	0.607800	0.561800	0.732100
C9031	C903	0.687700	0.474500	0.774800
C9041	C904	0.729200	0.484300	0.764000
N1891	N189	0.394400	0.570800	0.394500
N1901	N190	0.390700	0.593600	0.326600
N1911	N191	0.368900	0.554700	0.530400
N1921	N192	0.383800	0.543600	0.597900
O401	O40	0.347100	0.513200	0.432800
Ag411	Ag41	0.437940	0.038770	0.380480
C9051	C905	0.347500	0.288700	0.343500
C9061	C906	0.353400	0.282600	0.387800
H6411	H641	0.344600	0.304100	0.407400
C9071	C907	0.372600	0.244500	0.403400
H6421	H642	0.375800	0.240200	0.433400
C9081	C908	0.386500	0.213600	0.374800
C9091	C909	0.382300	0.219600	0.329700
H6431	H643	0.392700	0.198700	0.310200
C9101	C910	0.362300	0.257200	0.314800
H6441	H644	0.358800	0.261400	0.284900
C9111	C911	0.427000	0.168700	0.430200
H6451	H645	0.431400	0.190100	0.451400
C9121	C912	0.439800	0.125900	0.431700
H6461	H646	0.453900	0.112800	0.455300
C9131	C913	0.407500	0.135100	0.370900
H6471	H647	0.394800	0.129400	0.343800
C9141	C914	0.453900	0.941300	0.400300
H6481	H648	0.457700	0.948200	0.429600
C9151	C915	0.443500	0.947200	0.330200
H6491	H649	0.438800	0.959000	0.302500
C9161	C916	0.449900	0.903700	0.340300
H6501	H650	0.449800	0.880300	0.321000
C9171	C917	0.466400	0.862700	0.408300
C9181	C918	0.497100	0.865000	0.442300
H6511	H651	0.509900	0.891700	0.449400
C9191	C919	0.508200	0.827900	0.465200
H6521	H652	0.529000	0.829200	0.487400
C9201	C920	0.488100	0.788100	0.454800
C9211	C921	0.457800	0.787000	0.420500
H6531	H653	0.444400	0.760700	0.413300
C9221	C922	0.447400	0.823700	0.397500
H6541	H654	0.427500	0.822200	0.374600
C9231	C923	0.462200	0.760800	0.546700
H6551	H655	0.436700	0.768100	0.531700
C9241	C924	0.463300	0.760600	0.592300
H6561	H656	0.438200	0.767900	0.607800
C9251	C925	0.525500	0.725200	0.687700
C9261	C926	0.515700	0.736000	0.729200
N1931	N193	0.429200	0.105500	0.394400
N1941	N194	0.406400	0.173400	0.390700
N1951	N195	0.445300	0.969600	0.368900
N1961	N196	0.456400	0.902100	0.383800
O411	O41	0.486800	0.067200	0.347100
Ag421	Ag42	0.937940	0.538770	0.880480
C9271	C927	0.847500	0.788700	0.843500
C9281	C928	0.853400	0.782600	0.887800
H6571	H657	0.844600	0.804100	0.907400
C9291	C929	0.872600	0.744500	0.903400
H6581	H658	0.875800	0.740200	0.933400
C9301	C930	0.886500	0.713600	0.874800
C9311	C931	0.882300	0.719600	0.829700
H6591	H659	0.892700	0.698700	0.810200
C9321	C932	0.862300	0.757200	0.814800
H6601	H660	0.858800	0.761400	0.784900
C9331	C933	0.927000	0.668700	0.930200
H6611	H661	0.931400	0.690100	0.951400
C9341	C934	0.939800	0.625900	0.931700
H6621	H662	0.953900	0.612800	0.955300
C9351	C935	0.907500	0.635100	0.870900
H6631	H663	0.894800	0.629400	0.843800
C9361	C936	0.953900	0.441300	0.900300
H6641	H664	0.957700	0.448200	0.929600
C9371	C937	0.943500	0.447200	0.830200
H6651	H665	0.938800	0.459000	0.802500
C9381	C938	0.949900	0.403700	0.840300
H6661	H666	0.949800	0.380300	0.821000
C9391	C939	0.966400	0.362700	0.908300
C9401	C940	0.997100	0.365000	0.942300
H6671	H667	0.009900	0.391700	0.949400
C9411	C941	0.008200	0.327900	0.965200
H6681	H668	0.029000	0.329200	0.987400
C9421	C942	0.988100	0.288100	0.954800
C9431	C943	0.957800	0.287000	0.920500
H6691	H669	0.944400	0.260700	0.913300
C9441	C944	0.947400	0.323700	0.897500
H6701	H670	0.927500	0.322200	0.874600
C9451	C945	0.962200	0.260800	0.046700
H6711	H671	0.936700	0.268100	0.031700
C9461	C946	0.963300	0.260600	0.092300
H6721	H672	0.938200	0.267900	0.107800
C9471	C947	0.025500	0.225200	0.187700
C9481	C948	0.015700	0.236000	0.229200
N1971	N197	0.929200	0.605500	0.894400
N1981	N198	0.906400	0.673400	0.890700
N1991	N199	0.945300	0.469600	0.868900
N2001	N200	0.956400	0.402100	0.883800
O421	O42	0.986800	0.567200	0.847100
Ag431	Ag43	0.937940	0.461230	0.619520
C9491	C949	0.847500	0.211300	0.656500
C9501	C950	0.853400	0.217400	0.612200
H6731	H673	0.844600	0.195900	0.592600
C9511	C951	0.872600	0.255500	0.596600
H6741	H674	0.875800	0.259800	0.566600
C9521	C952	0.886500	0.286400	0.625200
C9531	C953	0.882300	0.280400	0.670300
H6751	H675	0.892700	0.301300	0.689800
C9541	C954	0.862300	0.242800	0.685200
H6761	H676	0.858800	0.238600	0.715100
C9551	C955	0.927000	0.331300	0.569800
H6771	H677	0.931400	0.309900	0.548600
C9561	C956	0.939800	0.374100	0.568300
H6781	H678	0.953900	0.387200	0.544700
C9571	C957	0.907500	0.364900	0.629100
H6791	H679	0.894800	0.370600	0.656200
C9581	C958	0.953900	0.558700	0.599700
H6801	H680	0.957700	0.551800	0.570400
C9591	C959	0.943500	0.552800	0.669800
H6811	H681	0.938800	0.541000	0.697500
C9601	C960	0.949900	0.596300	0.659700
H6821	H682	0.949800	0.619700	0.679000
C9611	C961	0.966400	0.637300	0.591700
C9621	C962	0.997100	0.635000	0.557700
H6831	H683	0.009900	0.608300	0.550600
C9631	C963	0.008200	0.672100	0.534800
H6841	H684	0.029000	0.670800	0.512600
C9641	C964	0.988100	0.711900	0.545200
C9651	C965	0.957800	0.713000	0.579500
H6851	H685	0.944400	0.739300	0.586700
C9661	C966	0.947400	0.676300	0.602500
H6861	H686	0.927500	0.677800	0.625400
C9671	C967	0.962200	0.739200	0.453300
H6871	H687	0.936700	0.731900	0.468300
C9681	C968	0.963300	0.739400	0.407700
H6881	H688	0.938200	0.732100	0.392200
C9691	C969	0.025500	0.774800	0.312300
C9701	C970	0.015700	0.764000	0.270800
N2011	N201	0.929200	0.394500	0.605600
N2021	N202	0.906400	0.326600	0.609300
N2031	N203	0.945300	0.530400	0.631100
N2041	N204	0.956400	0.597900	0.616200
O431	O43	0.986800	0.432800	0.652900
Ag441	Ag44	0.437940	0.961230	0.119520
C9711	C971	0.347500	0.711300	0.156500
C9721	C972	0.353400	0.717400	0.112200
H6891	H689	0.344600	0.695900	0.092600
C9731	C973	0.372600	0.755500	0.096600
H6901	H690	0.375800	0.759800	0.066600
C9741	C974	0.386500	0.786400	0.125200
C9751	C975	0.382300	0.780400	0.170300
H6911	H691	0.392700	0.801300	0.189800
C9761	C976	0.362300	0.742800	0.185200
H6921	H692	0.358800	0.738600	0.215100
C9771	C977	0.427000	0.831300	0.069800
H6931	H693	0.431400	0.809900	0.048600
C9781	C978	0.439800	0.874100	0.068300
H6941	H694	0.453900	0.887200	0.044700
C9791	C979	0.407500	0.864900	0.129100
H6951	H695	0.394800	0.870600	0.156200
C9801	C980	0.453900	0.058700	0.099700
H6961	H696	0.457700	0.051800	0.070400
C9811	C981	0.443500	0.052800	0.169800
H6971	H697	0.438800	0.041000	0.197500
C9821	C982	0.449900	0.096300	0.159700
H6981	H698	0.449800	0.119700	0.179000
C9831	C983	0.466400	0.137300	0.091700
C9841	C984	0.497100	0.135000	0.057700
H6991	H699	0.509900	0.108300	0.050600
C9851	C985	0.508200	0.172100	0.034800
H7001	H700	0.529000	0.170800	0.012600
C9861	C986	0.488100	0.211900	0.045200
C9871	C987	0.457800	0.213000	0.079500
H7011	H701	0.444400	0.239300	0.086700
C9881	C988	0.447400	0.176300	0.102500
H7021	H702	0.427500	0.177800	0.125400
C9891	C989	0.462200	0.239200	0.953300
H7031	H703	0.436700	0.231900	0.968300
C9901	C990	0.463300	0.239400	0.907700
H7041	H704	0.438200	0.232100	0.892200
C9911	C991	0.525500	0.274800	0.812300
C9921	C992	0.515700	0.264000	0.770800
N2051	N205	0.429200	0.894500	0.105600
N2061	N206	0.406400	0.826600	0.109300
N2071	N207	0.445300	0.030400	0.131100
N2081	N208	0.456400	0.097900	0.116200
O441	O44	0.486800	0.932800	0.152900
Ag451	Ag45	0.562060	0.538770	0.119520
C9931	C993	0.652500	0.788700	0.156500
C9941	C994	0.646600	0.782600	0.112200
H7051	H705	0.655400	0.804100	0.092600
C9951	C995	0.627400	0.744500	0.096600
H7061	H706	0.624200	0.740200	0.066600
C9961	C996	0.613500	0.713600	0.125200
C9971	C997	0.617700	0.719600	0.170300
H7071	H707	0.607300	0.698700	0.189800
C9981	C998	0.637700	0.757200	0.185200
H7081	H708	0.641200	0.761400	0.215100
C9991	C999	0.573000	0.668700	0.069800
H7091	H709	0.568600	0.690100	0.048600
C10001	C1000	0.560200	0.625900	0.068300
H7101	H710	0.546100	0.612800	0.044700
C10011	C1001	0.592500	0.635100	0.129100
H7111	H711	0.605200	0.629400	0.156200
C10021	C1002	0.546100	0.441300	0.099700
H7121	H712	0.542300	0.448200	0.070400
C10031	C1003	0.556500	0.447200	0.169800
H7131	H713	0.561200	0.459000	0.197500
C10041	C1004	0.550100	0.403700	0.159700
H7141	H714	0.550200	0.380300	0.179000
C10051	C1005	0.533600	0.362700	0.091700
C10061	C1006	0.502900	0.365000	0.057700
H7151	H715	0.490100	0.391700	0.050600
C10071	C1007	0.491800	0.327900	0.034800
H7161	H716	0.471000	0.329200	0.012600
C10081	C1008	0.511900	0.288100	0.045200
C10091	C1009	0.542200	0.287000	0.079500
H7171	H717	0.555600	0.260700	0.086700
C10101	C1010	0.552600	0.323700	0.102500
H7181	H718	0.572500	0.322200	0.125400
C10111	C1011	0.537800	0.260800	0.953300
H7191	H719	0.563300	0.268100	0.968300
C10121	C1012	0.536700	0.260600	0.907700
H7201	H720	0.561800	0.267900	0.892200
C10131	C1013	0.474500	0.225200	0.812300
C10141	C1014	0.484300	0.236000	0.770800
N2091	N209	0.570800	0.605500	0.105600
N2101	N210	0.593600	0.673400	0.109300
N2111	N211	0.554700	0.469600	0.131100
N2121	N212	0.543600	0.402100	0.116200
O451	O45	0.513200	0.567200	0.152900
Ag461	Ag46	0.062060	0.038770	0.619520
C10151	C1015	0.152500	0.288700	0.656500
C10161	C1016	0.146600	0.282600	0.612200
H7211	H721	0.155400	0.304100	0.592600
C10171	C1017	0.127400	0.244500	0.596600
H7221	H722	0.124200	0.240200	0.566600
C10181	C1018	0.113500	0.213600	0.625200
C10191	C1019	0.117700	0.219600	0.670300
H7231	H723	0.107300	0.198700	0.689800
C10201	C1020	0.137700	0.257200	0.685200
H7241	H724	0.141200	0.261400	0.715100
C10211	C1021	0.073000	0.168700	0.569800
H7251	H725	0.068600	0.190100	0.548600
C10221	C1022	0.060200	0.125900	0.568300
H7261	H726	0.046100	0.112800	0.544700
C10231	C1023	0.092500	0.135100	0.629100
H7271	H727	0.105200	0.129400	0.656200
C10241	C1024	0.046100	0.941300	0.599700
H7281	H728	0.042300	0.948200	0.570400
C10251	C1025	0.056500	0.947200	0.669800
H7291	H729	0.061200	0.959000	0.697500
C10261	C1026	0.050100	0.903700	0.659700
H7301	H730	0.050200	0.880300	0.679000
C10271	C1027	0.033600	0.862700	0.591700
C10281	C1028	0.002900	0.865000	0.557700
H7311	H731	0.990100	0.891700	0.550600
C10291	C1029	0.991800	0.827900	0.534800
H7321	H732	0.971000	0.829200	0.512600
C10301	C1030	0.011900	0.788100	0.545200
C10311	C1031	0.042200	0.787000	0.579500
H7331	H733	0.055600	0.760700	0.586700
C10321	C1032	0.052600	0.823700	0.602500
H7341	H734	0.072500	0.822200	0.625400
C10331	C1033	0.037800	0.760800	0.453300
H7351	H735	0.063300	0.768100	0.468300
C10341	C1034	0.036700	0.760600	0.407700
H7361	H736	0.061800	0.767900	0.392200
C10351	C1035	0.974500	0.725200	0.312300
C10361	C1036	0.984300	0.736000	0.270800
N2131	N213	0.070800	0.105500	0.605600
N2141	N214	0.093600	0.173400	0.609300
N2151	N215	0.054700	0.969600	0.631100
N2161	N216	0.043600	0.902100	0.616200
O461	O46	0.013200	0.067200	0.652900
Ag471	Ag47	0.062060	0.961230	0.880480
C10371	C1037	0.152500	0.711300	0.843500
C10381	C1038	0.146600	0.717400	0.887800
H7371	H737	0.155400	0.695900	0.907400
C10391	C1039	0.127400	0.755500	0.903400
H7381	H738	0.124200	0.759800	0.933400
C10401	C1040	0.113500	0.786400	0.874800
C10411	C1041	0.117700	0.780400	0.829700
H7391	H739	0.107300	0.801300	0.810200
C10421	C1042	0.137700	0.742800	0.814800
H7401	H740	0.141200	0.738600	0.784900
C10431	C1043	0.073000	0.831300	0.930200
H7411	H741	0.068600	0.809900	0.951400
C10441	C1044	0.060200	0.874100	0.931700
H7421	H742	0.046100	0.887200	0.955300
C10451	C1045	0.092500	0.864900	0.870900
H7431	H743	0.105200	0.870600	0.843800
C10461	C1046	0.046100	0.058700	0.900300
H7441	H744	0.042300	0.051800	0.929600
C10471	C1047	0.056500	0.052800	0.830200
H7451	H745	0.061200	0.041000	0.802500
C10481	C1048	0.050100	0.096300	0.840300
H7461	H746	0.050200	0.119700	0.821000
C10491	C1049	0.033600	0.137300	0.908300
C10501	C1050	0.002900	0.135000	0.942300
H7471	H747	0.990100	0.108300	0.949400
C10511	C1051	0.991800	0.172100	0.965200
H7481	H748	0.971000	0.170800	0.987400
C10521	C1052	0.011900	0.211900	0.954800
C10531	C1053	0.042200	0.213000	0.920500
H7491	H749	0.055600	0.239300	0.913300
C10541	C1054	0.052600	0.176300	0.897500
H7501	H750	0.072500	0.177800	0.874600
C10551	C1055	0.037800	0.239200	0.046700
H7511	H751	0.063300	0.231900	0.031700
C10561	C1056	0.036700	0.239400	0.092300
H7521	H752	0.061800	0.232100	0.107800
C10571	C1057	0.974500	0.274800	0.187700
C10581	C1058	0.984300	0.264000	0.229200
N2171	N217	0.070800	0.894500	0.894400
N2181	N218	0.093600	0.826600	0.890700
N2191	N219	0.054700	0.030400	0.868900
N2201	N220	0.043600	0.097900	0.883800
O471	O47	0.013200	0.932800	0.847100
Ag481	Ag48	0.562060	0.461230	0.380480
C10591	C1059	0.652500	0.211300	0.343500
C10601	C1060	0.646600	0.217400	0.387800
H7531	H753	0.655400	0.195900	0.407400
C10611	C1061	0.627400	0.255500	0.403400
H7541	H754	0.624200	0.259800	0.433400
C10621	C1062	0.613500	0.286400	0.374800
C10631	C1063	0.617700	0.280400	0.329700
H7551	H755	0.607300	0.301300	0.310200
C10641	C1064	0.637700	0.242800	0.314800
H7561	H756	0.641200	0.238600	0.284900
C10651	C1065	0.573000	0.331300	0.430200
H7571	H757	0.568600	0.309900	0.451400
C10661	C1066	0.560200	0.374100	0.431700
H7581	H758	0.546100	0.387200	0.455300
C10671	C1067	0.592500	0.364900	0.370900
H7591	H759	0.605200	0.370600	0.343800
C10681	C1068	0.546100	0.558700	0.400300
H7601	H760	0.542300	0.551800	0.429600
C10691	C1069	0.556500	0.552800	0.330200
H7611	H761	0.561200	0.541000	0.302500
C10701	C1070	0.550100	0.596300	0.340300
H7621	H762	0.550200	0.619700	0.321000
C10711	C1071	0.533600	0.637300	0.408300
C10721	C1072	0.502900	0.635000	0.442300
H7631	H763	0.490100	0.608300	0.449400
C10731	C1073	0.491800	0.672100	0.465200
H7641	H764	0.471000	0.670800	0.487400
C10741	C1074	0.511900	0.711900	0.454800
C10751	C1075	0.542200	0.713000	0.420500
H7651	H765	0.555600	0.739300	0.413300
C10761	C1076	0.552600	0.676300	0.397500
H7661	H766	0.572500	0.677800	0.374600
C10771	C1077	0.537800	0.739200	0.546700
H7671	H767	0.563300	0.731900	0.531700
C10781	C1078	0.536700	0.739400	0.592300
H7681	H768	0.561800	0.732100	0.607800
C10791	C1079	0.474500	0.774800	0.687700
C10801	C1080	0.484300	0.764000	0.729200
N2211	N221	0.570800	0.394500	0.394400
N2221	N222	0.593600	0.326600	0.390700
N2231	N223	0.554700	0.530400	0.368900
N2241	N224	0.543600	0.597900	0.383800
O481	O48	0.513200	0.432800	0.347100
C10811	C1081	0.750000	0.524500	0.500000
C10821	C1082	0.750000	0.614500	0.500000
N2251	N225	0.750000	0.661900	0.500000
N2261	N226	0.750000	0.477500	0.500000
C10831	C1083	0.750000	0.475500	0.000000
C10841	C1084	0.750000	0.385500	0.000000
N2271	N227	0.750000	0.338100	0.000000
N2281	N228	0.750000	0.522500	0.000000
C10851	C1085	0.250000	0.975500	0.500000
C10861	C1086	0.250000	0.885500	0.500000
N2291	N229	0.250000	0.838100	0.500000
N2301	N230	0.250000	0.022500	0.500000
C10871	C1087	0.250000	0.024500	0.000000
C10881	C1088	0.250000	0.114500	0.000000
N2311	N231	0.250000	0.161900	0.000000
N2321	N232	0.250000	0.977500	0.000000
C10891	C1089	0.524500	0.500000	0.750000
C10901	C1090	0.614500	0.500000	0.750000
N2331	N233	0.661900	0.500000	0.750000
N2341	N234	0.477500	0.500000	0.750000
C10911	C1091	0.475500	0.000000	0.750000
C10921	C1092	0.385500	0.000000	0.750000
N2351	N235	0.338100	0.000000	0.750000
N2361	N236	0.522500	0.000000	0.750000
C10931	C1093	0.975500	0.500000	0.250000
C10941	C1094	0.885500	0.500000	0.250000
N2371	N237	0.838100	0.500000	0.250000
N2381	N238	0.022500	0.500000	0.250000
C10951	C1095	0.024500	0.000000	0.250000
C10961	C1096	0.114500	0.000000	0.250000
N2391	N239	0.161900	0.000000	0.250000
N2401	N240	0.977500	0.000000	0.250000
C10971	C1097	0.500000	0.750000	0.524500
C10981	C1098	0.500000	0.750000	0.614500
N2411	N241	0.500000	0.750000	0.661900
N2421	N242	0.500000	0.750000	0.477500
C10991	C1099	0.000000	0.750000	0.475500
C11001	C1100	0.000000	0.750000	0.385500
N2431	N243	0.000000	0.750000	0.338100
N2441	N244	0.000000	0.750000	0.522500
C11011	C1101	0.500000	0.250000	0.975500
C11021	C1102	0.500000	0.250000	0.885500
N2451	N245	0.500000	0.250000	0.838100
N2461	N246	0.500000	0.250000	0.022500
C11031	C1103	0.000000	0.250000	0.024500
C11041	C1104	0.000000	0.250000	0.114500
N2471	N247	0.000000	0.250000	0.161900
N2481	N248	0.000000	0.250000	0.977500
N2491	N249	0.327400	0.327400	0.327400
N2501	N250	0.827400	0.827400	0.827400
N2511	N251	0.172600	0.672600	0.827400
N2521	N252	0.672600	0.172600	0.327400
N2531	N253	0.827400	0.172600	0.672600
N2541	N254	0.327400	0.672600	0.172600
N2551	N255	0.672600	0.827400	0.172600
N2561	N256	0.172600	0.327400	0.672600
