data_ja203898s_si_006_freeONLY_PM
_symmetry_space_group_name_H-M	'P1'
_cell_length_a	18.500000
_cell_length_b	18.500000
_cell_length_c	19.404200
_cell_angle_alpha	61.529900
_cell_angle_beta	61.529900
_cell_angle_gamma	60.000000
_symmetry_Int_Tables_number 1

loop_
_symmetry_equiv_pos_as_xyz
'x,y,z'

loop_
_atom_site_label
_atom_site_type_symbol
_atom_site_fract_x
_atom_site_fract_y
_atom_site_fract_z
Cu11	Cu1	0.511690	0.955940	0.574310
Cu21	Cu2	0.488310	0.044060	0.425690
Cu31	Cu3	0.958060	0.511690	0.574310
Cu41	Cu4	0.041940	0.488310	0.425690
Cu51	Cu5	0.955940	0.958060	0.574310
Cu61	Cu6	0.044060	0.041940	0.425690
H11	H1	0.991690	0.260970	0.483830
H21	H2	0.144000	0.986600	0.271030
H31	H3	0.372090	0.090400	0.336940
H41	H4	0.344560	0.391740	0.178420
H51	H5	0.799430	0.627910	0.663060
H61	H6	0.710350	0.753610	0.990900
H71	H7	0.413720	0.562940	0.005570
H81	H8	0.289650	0.246390	0.009100
H91	H9	0.666820	0.785830	0.778830
H101	H10	0.454860	0.289650	0.009100
H111	H11	0.914720	0.655440	0.821580
H121	H12	0.909600	0.799430	0.663060
H131	H13	0.551600	0.279370	0.163840
H141	H14	0.699680	0.402300	0.868970
H151	H15	0.796420	0.385510	0.667160
H161	H16	0.431520	0.744890	0.115970
H171	H17	0.970950	0.300320	0.131030
H181	H18	0.214170	0.231480	0.221170
H191	H19	0.562940	0.017770	0.005570
H201	H20	0.609290	0.219240	0.335600
H211	H21	0.598370	0.144000	0.271030
H221	H22	0.013400	0.401630	0.728970
H231	H23	0.655440	0.608260	0.821580
H241	H24	0.279370	0.005190	0.163840
H251	H25	0.753610	0.545140	0.990900
H261	H26	0.448400	0.720630	0.836160
H271	H27	0.164130	0.390710	0.664400
H281	H28	0.614490	0.849090	0.332840
H291	H29	0.263510	0.991690	0.483830
H301	H30	0.437060	0.982230	0.994430
H311	H31	0.385510	0.150910	0.667160
H321	H32	0.150910	0.796420	0.667160
H331	H33	0.568480	0.255110	0.884030
H341	H34	0.597700	0.970950	0.131030
H351	H35	0.720630	0.994810	0.836160
H361	H36	0.008310	0.739030	0.516170
H371	H37	0.402300	0.029050	0.868970
H381	H38	0.390710	0.780760	0.664400
H391	H39	0.029050	0.699680	0.868970
H401	H40	0.005190	0.551600	0.163840
H411	H41	0.351680	0.351420	0.106930
H421	H42	0.292380	0.568480	0.884030
H431	H43	0.648580	0.810030	0.893070
H441	H44	0.401630	0.856000	0.728970
H451	H45	0.739030	0.736490	0.516170
H461	H46	0.203580	0.614490	0.332840
H471	H47	0.780760	0.164130	0.664400
H481	H48	0.608260	0.914720	0.821580
H491	H49	0.351420	0.189970	0.106930
H501	H50	0.810030	0.648320	0.893070
H511	H51	0.219240	0.835870	0.335600
H521	H52	0.333180	0.214170	0.221170
H531	H53	0.744890	0.707620	0.115970
H541	H54	0.986600	0.598370	0.271030
H551	H55	0.994810	0.448400	0.836160
H561	H56	0.835870	0.609290	0.335600
H571	H57	0.085280	0.344560	0.178420
H581	H58	0.736490	0.008310	0.516170
H591	H59	0.189970	0.351680	0.106930
H601	H60	0.300320	0.597700	0.131030
H611	H61	0.391740	0.085280	0.178420
H621	H62	0.586280	0.437060	0.994430
H631	H63	0.255110	0.292380	0.884030
H641	H64	0.627910	0.909600	0.663060
H651	H65	0.785830	0.768520	0.778830
H661	H66	0.260970	0.263510	0.483830
H671	H67	0.200570	0.372090	0.336940
H681	H68	0.090400	0.200570	0.336940
H691	H69	0.017770	0.413720	0.005570
H701	H70	0.545140	0.710350	0.990900
H711	H71	0.231480	0.333180	0.221170
H721	H72	0.768520	0.666820	0.778830
H731	H73	0.648320	0.648580	0.893070
H741	H74	0.849090	0.203580	0.332840
H751	H75	0.707620	0.431520	0.115970
H761	H76	0.856000	0.013400	0.728970
H771	H77	0.246390	0.454860	0.009100
H781	H78	0.982230	0.586280	0.994430
C11	C1	0.224680	0.572650	0.908240
C21	C2	0.163460	0.641530	0.868400
C31	C3	0.427350	0.705570	0.091760
C41	C4	0.801910	0.492130	0.020600
C51	C5	0.055790	0.613670	0.453590
C61	C6	0.581780	0.397940	0.970280
C71	C7	0.602060	0.950000	0.029720
C81	C8	0.160400	0.413720	0.296560
C91	C9	0.602330	0.067380	0.463220
C101	C10	0.336340	0.889090	0.567470
C111	C11	0.812660	0.211400	0.637340
C121	C12	0.511900	0.367810	0.010000
C131	C13	0.110910	0.792900	0.432530
C141	C14	0.207100	0.336340	0.567470
C151	C15	0.326610	0.163460	0.868400
C161	C16	0.076340	0.646290	0.899990
C171	C17	0.160480	0.039870	0.260920
C181	C18	0.039870	0.538730	0.260920
C191	C19	0.219380	0.725770	0.325010
C201	C20	0.100980	0.671960	0.426410
C211	C21	0.176660	0.389380	0.232000
C221	C22	0.870680	0.839600	0.703440
C231	C23	0.051290	0.513010	0.198580
C241	C24	0.201960	0.176660	0.232000
C251	C25	0.839520	0.960130	0.739080
C261	C26	0.798040	0.823340	0.768000
C271	C27	0.889710	0.488100	0.990000
C281	C28	0.461270	0.839520	0.739080
C291	C29	0.733670	0.732760	0.464780
C301	C30	0.565780	0.739270	0.813360
C311	C31	0.486990	0.762880	0.801420
C321	C32	0.121590	0.390580	0.136090
C331	C33	0.762880	0.948710	0.801420
C341	C34	0.358470	0.673390	0.131600
C351	C35	0.377380	0.076340	0.899990
C361	C36	0.434220	0.260730	0.186640
C371	C37	0.725770	0.729840	0.325010
C381	C38	0.199350	0.899020	0.573590
C391	C39	0.187340	0.788600	0.362660
C401	C40	0.671960	0.800650	0.426410
C411	C41	0.867070	0.602330	0.463220
C421	C42	0.123050	0.944210	0.546410
C431	C43	0.685360	0.801910	0.020600
C441	C44	0.839600	0.586280	0.703440
C451	C45	0.390580	0.351740	0.136090
C461	C46	0.267240	0.931210	0.535220
C471	C47	0.274230	0.270160	0.674990
C481	C48	0.294430	0.224680	0.908240
C491	C49	0.673390	0.836540	0.131600
C501	C50	0.648260	0.878410	0.863910
C511	C51	0.923660	0.353710	0.100010
C521	C52	0.788600	0.661400	0.362660
C531	C53	0.418220	0.602060	0.029720
C541	C54	0.609420	0.648260	0.863910
C551	C55	0.488100	0.632190	0.990000
C561	C56	0.800650	0.100980	0.426410
C571	C57	0.586280	0.870680	0.703440
C581	C58	0.110290	0.511900	0.010000
C591	C59	0.328040	0.199350	0.573590
C601	C60	0.050000	0.581780	0.970280
C611	C61	0.960130	0.461270	0.739080
C621	C62	0.797070	0.177600	0.359780
C631	C63	0.507870	0.314640	0.979400
C641	C64	0.260730	0.118410	0.186640
C651	C65	0.266330	0.267240	0.535220
C661	C66	0.732760	0.068790	0.464780
C671	C67	0.944210	0.386330	0.546410
C681	C68	0.353710	0.622620	0.100010
C691	C69	0.367810	0.110290	0.010000
C701	C70	0.334450	0.202930	0.640220
C711	C71	0.351740	0.121590	0.136090
C721	C72	0.270160	0.780620	0.674990
C731	C73	0.948710	0.486990	0.801420
C741	C74	0.836540	0.358470	0.131600
C751	C75	0.822400	0.334450	0.640220
C761	C76	0.729840	0.219380	0.325010
C771	C77	0.067380	0.867070	0.463220
C781	C78	0.663660	0.110910	0.432530
C791	C79	0.889090	0.207100	0.567470
C801	C80	0.397940	0.050000	0.970280
C811	C81	0.661400	0.187340	0.362660
C821	C82	0.386330	0.123050	0.546410
C831	C83	0.338600	0.812660	0.637340
C841	C84	0.641530	0.326610	0.868400
C851	C85	0.413720	0.129320	0.296560
C861	C86	0.876950	0.055790	0.453590
C871	C87	0.950000	0.418220	0.029720
C881	C88	0.899020	0.328040	0.573590
C891	C89	0.932620	0.132930	0.536780
C901	C90	0.389380	0.201960	0.232000
C911	C91	0.237120	0.051290	0.198580
C921	C92	0.513010	0.237120	0.198580
C931	C93	0.665550	0.797070	0.359780
C941	C94	0.572650	0.294430	0.908240
C951	C95	0.397670	0.932620	0.536780
C961	C96	0.705570	0.775320	0.091760
C971	C97	0.792900	0.663660	0.432530
C981	C98	0.492130	0.685360	0.020600
C991	C99	0.198090	0.507870	0.979400
C1001	C100	0.610620	0.798040	0.768000
C1011	C101	0.177600	0.665550	0.359780
C1021	C102	0.823340	0.610620	0.768000
C1031	C103	0.613670	0.876950	0.453590
C1041	C104	0.878410	0.609420	0.863910
C1051	C105	0.739270	0.881590	0.813360
C1061	C106	0.132930	0.397670	0.536780
C1071	C107	0.632190	0.889710	0.990000
C1081	C108	0.202930	0.822400	0.640220
C1091	C109	0.646290	0.377380	0.899990
C1101	C110	0.118410	0.434220	0.186640
C1111	C111	0.780620	0.274230	0.674990
C1121	C112	0.538730	0.160480	0.260920
C1131	C113	0.881590	0.565780	0.813360
C1141	C114	0.931210	0.266330	0.535220
C1151	C115	0.068790	0.733670	0.464780
C1161	C116	0.775320	0.427350	0.091760
C1171	C117	0.622620	0.923660	0.100010
C1181	C118	0.314640	0.198090	0.979400
C1191	C119	0.129320	0.160400	0.296560
C1201	C120	0.211400	0.338600	0.637340
N11	N1	0.711780	0.273450	0.752270
N21	N2	0.515670	0.886790	0.686700
N31	N3	0.910840	0.515670	0.686700
N41	N4	0.706330	0.314020	0.793130
N51	N5	0.813480	0.293670	0.206870
N61	N6	0.089160	0.484330	0.313300
N71	N7	0.314020	0.186520	0.793130
N81	N8	0.288220	0.726550	0.247730
N91	N9	0.273450	0.262500	0.752270
N101	N10	0.685980	0.813480	0.206870
N111	N11	0.262500	0.711780	0.752270
N121	N12	0.726550	0.737500	0.247730
N131	N13	0.886790	0.910840	0.686700
N141	N14	0.186520	0.706330	0.793130
N151	N15	0.113210	0.089160	0.313300
N161	N16	0.484330	0.113210	0.313300
N171	N17	0.293670	0.685980	0.206870
N181	N18	0.737500	0.288220	0.247730
O11	O1	0.987990	0.135720	0.465350
O21	O2	0.872520	0.003190	0.526040
O31	O3	0.391630	0.080840	0.077170
O41	O4	0.054540	0.925890	0.595520
O51	O5	0.925890	0.424050	0.595520
O61	O6	0.127480	0.996810	0.473960
O71	O7	0.450360	0.391630	0.077170
O81	O8	0.589060	0.012010	0.534650
O91	O9	0.074110	0.575950	0.404480
O101	O10	0.915820	0.064350	0.585290
O111	O11	0.080840	0.450360	0.077170
O121	O12	0.434540	0.915820	0.585290
O131	O13	0.598250	0.872520	0.526040
O141	O14	0.565460	0.084180	0.414710
O151	O15	0.919160	0.549640	0.922830
O161	O16	0.401750	0.127480	0.473960
O171	O17	0.608370	0.919160	0.922830
O181	O18	0.935650	0.565460	0.414710
O191	O19	0.945460	0.074110	0.404480
O201	O20	0.864280	0.589060	0.534650
O211	O21	0.410940	0.987990	0.465350
O221	O22	0.996810	0.401750	0.473960
O231	O23	0.549640	0.608370	0.922830
O241	O24	0.424050	0.054540	0.595520
O251	O25	0.084180	0.935650	0.414710
O261	O26	0.135720	0.410940	0.465350
O271	O27	0.064350	0.434540	0.585290
O281	O28	0.012010	0.864280	0.534650
O291	O29	0.575950	0.945460	0.404480
O301	O30	0.003190	0.598250	0.526040
