data_ja206917z_si_001_freeONLY_PM
_symmetry_space_group_name_H-M	'P1'
_cell_length_a	16.033900
_cell_length_b	19.411000
_cell_length_c	19.411000
_cell_angle_alpha	120.000000
_cell_angle_beta	90.000000
_cell_angle_gamma	90.000000
_symmetry_Int_Tables_number 1

loop_
_symmetry_equiv_pos_as_xyz
'x,y,z'

loop_
_atom_site_label
_atom_site_type_symbol
_atom_site_fract_x
_atom_site_fract_y
_atom_site_fract_z
Mn11	Mn1	0.750000	0.485210	0.514790
Mn21	Mn2	0.250000	0.514790	0.485210
Mn31	Mn3	0.916670	0.514790	0.029580
Mn41	Mn4	0.583330	0.970420	0.485210
Mn51	Mn5	0.083330	0.029580	0.514790
Mn61	Mn6	0.416670	0.485210	0.970420
Cr11	Cr1	0.325150	0.640000	0.808930
Cr21	Cr2	0.341510	0.360000	0.168930
Cr31	Cr3	0.841510	0.640000	0.831070
Cr41	Cr4	0.825150	0.360000	0.191070
Cr51	Cr5	0.508180	0.168930	0.808930
Cr61	Cr6	0.674850	0.808930	0.640000
Cr71	Cr7	0.174850	0.191070	0.360000
Cr81	Cr8	0.658490	0.168930	0.360000
Cr91	Cr9	0.158490	0.831070	0.640000
Cr101	Cr10	0.008180	0.831070	0.191070
Cr111	Cr11	0.991820	0.191070	0.831070
Cr121	Cr12	0.491820	0.808930	0.168930
C11	C1	0.991200	0.936600	0.136500
C21	C2	0.502300	0.862100	0.329100
C31	C3	0.131570	0.860800	0.792900
C41	C4	0.002300	0.137900	0.670900
C51	C5	0.497700	0.329100	0.862100
C61	C6	0.535100	0.139200	0.932100
C71	C7	0.567200	0.079200	0.408200
C81	C8	0.912000	0.696600	0.120800
C91	C9	0.847700	0.552300	0.906800
C101	C10	0.831030	0.533000	0.670900
C111	C11	0.835630	0.467000	0.137900
C121	C12	0.318970	0.552300	0.645500
C131	C13	0.400530	0.671000	0.079200
C141	C14	0.657870	0.863500	0.800100
C151	C15	0.432800	0.408200	0.079200
C161	C16	0.331030	0.467000	0.329100
C171	C17	0.900530	0.329000	0.920800
C181	C18	0.964900	0.067900	0.860800
C191	C19	0.266130	0.329000	0.408200
C201	C20	0.324530	0.199900	0.063400
C211	C21	0.681030	0.645500	0.552300
C221	C22	0.035100	0.860800	0.067900
C231	C23	0.168970	0.670900	0.533000
C241	C24	0.412000	0.303400	0.879200
C251	C25	0.766130	0.671000	0.591800
C261	C26	0.067200	0.920800	0.591800
C271	C27	0.164370	0.137900	0.467000
C281	C28	0.675470	0.063400	0.199900
C291	C29	0.152300	0.906800	0.552300
C301	C30	0.868430	0.792900	0.860800
C311	C31	0.508800	0.863500	0.063400
C321	C32	0.818970	0.447700	0.354500
C331	C33	0.921330	0.424200	0.120800
C341	C34	0.078670	0.120800	0.424200
C351	C35	0.175470	0.936600	0.800100
C361	C36	0.368430	0.207100	0.139200
C371	C37	0.745330	0.575800	0.696600
C381	C38	0.599470	0.079200	0.671000
C391	C39	0.733870	0.408200	0.329000
C401	C40	0.842130	0.199900	0.136500
C411	C41	0.181030	0.354500	0.447700
C421	C42	0.985630	0.354500	0.906800
C431	C43	0.701770	0.932100	0.792900
C441	C44	0.464900	0.932100	0.139200
C451	C45	0.652300	0.093200	0.447700
C461	C46	0.157870	0.136500	0.199900
C471	C47	0.008800	0.136500	0.936600
C481	C48	0.754670	0.303400	0.424200
C491	C49	0.932800	0.591800	0.920800
C501	C50	0.014370	0.906800	0.354500
C511	C51	0.588000	0.879200	0.303400
C521	C52	0.233870	0.591800	0.671000
C531	C53	0.088000	0.120800	0.696600
C541	C54	0.824530	0.800100	0.936600
C551	C55	0.298230	0.792900	0.932100
C561	C56	0.485630	0.645500	0.093200
C571	C57	0.254670	0.696600	0.575800
C581	C58	0.342130	0.800100	0.863500
C591	C59	0.421330	0.575800	0.879200
C601	C60	0.245330	0.424200	0.303400
C611	C61	0.664370	0.862100	0.533000
C621	C62	0.335630	0.533000	0.862100
C631	C63	0.631570	0.139200	0.207100
C641	C64	0.578670	0.879200	0.575800
C651	C65	0.099470	0.920800	0.329000
C661	C66	0.997700	0.670900	0.137900
C671	C67	0.491200	0.063400	0.863500
C681	C68	0.347700	0.447700	0.093200
C691	C69	0.668970	0.329100	0.467000
C701	C70	0.201770	0.067900	0.207100
C711	C71	0.514370	0.093200	0.645500
C721	C72	0.798230	0.207100	0.067900
O11	O1	0.797100	0.564600	0.863180
O21	O2	0.510400	0.400280	0.884980
O31	O3	0.822930	0.515300	0.115020
O41	O4	0.117070	0.727700	0.552300
O51	O5	0.617070	0.272300	0.447700
O61	O6	0.322930	0.484700	0.884980
O71	O7	0.156270	0.599720	0.484700
O81	O8	0.450400	0.824600	0.272300
O91	O9	0.989600	0.115020	0.599720
O101	O10	0.219070	0.087500	0.279100
O111	O11	0.516000	0.037900	0.416700
O121	O12	0.846630	0.134400	0.131300
O131	O13	0.153370	0.131300	0.134400
O141	O14	0.869570	0.435400	0.298580
O151	O15	0.382930	0.447700	0.272300
O161	O16	0.947600	0.087500	0.808400
O171	O17	0.284830	0.851000	0.995900
O181	O18	0.716270	0.824600	0.552300
O191	O19	0.679970	0.003100	0.134400
O201	O20	0.405300	0.230220	0.857260
O211	O21	0.365230	0.733500	0.804630
O221	O22	0.523570	0.911290	0.556400
O231	O23	0.177070	0.115020	0.515300
O241	O24	0.036230	0.298580	0.863180
O251	O25	0.202900	0.863180	0.564600
O261	O26	0.048500	0.855100	0.004100
O271	O27	0.484000	0.416700	0.037900
O281	O28	0.320030	0.134400	0.003100
O291	O29	0.190230	0.443600	0.354890
O301	O30	0.056400	0.885970	0.634300
O311	O31	0.668600	0.062650	0.489100
O321	O32	0.998070	0.937350	0.426450
O331	O33	0.498070	0.062650	0.573550
O341	O34	0.501930	0.573550	0.062650
O351	O35	0.179970	0.996900	0.865600
O361	O36	0.552400	0.191600	0.912500
O371	O37	0.118170	0.855100	0.851000
O381	O38	0.719070	0.912500	0.720900
O391	O39	0.443600	0.365700	0.114030
O401	O40	0.001930	0.426450	0.937350
O411	O41	0.168600	0.937350	0.510900
O421	O42	0.856900	0.645110	0.088710
O431	O43	0.451500	0.995900	0.144900
O441	O44	0.690230	0.556400	0.645110
O451	O45	0.489600	0.884980	0.400280
O461	O46	0.664730	0.573550	0.510900
O471	O47	0.134770	0.195370	0.266500
O481	O48	0.698570	0.071130	0.266500
O491	O49	0.905300	0.769780	0.142740
O501	O50	0.963770	0.863180	0.298580
O511	O51	0.182670	0.583300	0.621200
O521	O52	0.738630	0.627040	0.769780
O531	O53	0.261370	0.769780	0.627040
O541	O54	0.835270	0.489100	0.426450
O551	O55	0.052400	0.808400	0.087500
O561	O56	0.309770	0.645110	0.556400
O571	O57	0.150670	0.962100	0.378800
O581	O58	0.215170	0.004100	0.149000
O591	O59	0.723070	0.365700	0.251670
O601	O60	0.843730	0.484700	0.599720
O611	O61	0.049600	0.727700	0.175400
O621	O62	0.986700	0.996900	0.131300
O631	O63	0.094700	0.142740	0.769780
O641	O64	0.130430	0.298580	0.435400
O651	O65	0.831400	0.510900	0.937350
O661	O66	0.643100	0.911290	0.354890
O671	O67	0.468100	0.071130	0.804630
O681	O68	0.882930	0.552300	0.727700
O691	O69	0.536230	0.701420	0.136820
O701	O70	0.297100	0.435400	0.136820
O711	O71	0.463770	0.136820	0.701420
O721	O72	0.849330	0.378800	0.962100
O731	O73	0.776930	0.748330	0.634300
O741	O74	0.610270	0.114030	0.748330
O751	O75	0.614270	0.191600	0.279100
O761	O76	0.984000	0.583300	0.962100
O771	O77	0.385730	0.279100	0.191600
O781	O78	0.677070	0.884980	0.484700
O791	O79	0.023570	0.088710	0.443600
O801	O80	0.114270	0.808400	0.720900
O811	O81	0.349330	0.621200	0.037900
O821	O82	0.016000	0.962100	0.583300
O831	O83	0.571970	0.857260	0.627040
O841	O84	0.476430	0.556400	0.911290
O851	O85	0.549600	0.272300	0.824600
O861	O86	0.276930	0.251670	0.365700
O871	O87	0.143100	0.088710	0.645110
O881	O88	0.164730	0.426450	0.489100
O891	O89	0.531900	0.804630	0.071130
O901	O90	0.223070	0.634300	0.748330
O911	O91	0.809770	0.354890	0.443600
O921	O92	0.556400	0.114030	0.365700
O931	O93	0.820030	0.865600	0.996900
O941	O94	0.780930	0.279100	0.087500
O951	O95	0.702900	0.136820	0.435400
O961	O96	0.283730	0.552300	0.824600
O971	O97	0.486700	0.003100	0.868700
O981	O98	0.715170	0.995900	0.851000
O991	O99	0.331400	0.489100	0.062650
O1001	O100	0.343730	0.515300	0.400280
O1011	O101	0.031900	0.195370	0.928870
O1021	O102	0.110270	0.885970	0.251670
O1031	O103	0.013300	0.131300	0.996900
O1041	O104	0.301430	0.266500	0.071130
O1051	O105	0.428030	0.627040	0.857260
O1061	O106	0.198570	0.928870	0.733500
O1071	O107	0.784830	0.149000	0.004100
O1081	O108	0.801430	0.733500	0.928870
O1091	O109	0.513300	0.868700	0.003100
O1101	O110	0.650670	0.037900	0.621200
O1111	O111	0.346630	0.865600	0.868700
O1121	O112	0.656270	0.400280	0.515300
O1131	O113	0.951500	0.004100	0.855100
O1141	O114	0.881830	0.851000	0.855100
O1151	O115	0.389730	0.748330	0.114030
O1161	O116	0.885730	0.720900	0.808400
O1171	O117	0.950400	0.175400	0.727700
O1181	O118	0.381830	0.149000	0.144900
O1191	O119	0.618170	0.144900	0.149000
O1201	O120	0.976430	0.443600	0.088710
O1211	O121	0.356900	0.354890	0.911290
O1221	O122	0.865230	0.266500	0.195370
O1231	O123	0.634770	0.804630	0.733500
O1241	O124	0.783730	0.447700	0.175400
O1251	O125	0.548500	0.144900	0.995900
O1261	O126	0.369570	0.564600	0.701420
O1271	O127	0.280930	0.720900	0.912500
O1281	O128	0.761370	0.230220	0.372960
O1291	O129	0.216270	0.175400	0.447700
O1301	O130	0.943600	0.634300	0.885970
O1311	O131	0.889730	0.251670	0.885970
O1321	O132	0.010400	0.599720	0.115020
O1331	O133	0.238630	0.372960	0.230220
O1341	O134	0.928030	0.372960	0.142740
O1351	O135	0.447600	0.912500	0.191600
O1361	O136	0.594700	0.857260	0.230220
O1371	O137	0.335270	0.510900	0.573550
O1381	O138	0.817330	0.621200	0.583300
O1391	O139	0.630430	0.701420	0.564600
O1401	O140	0.653370	0.868700	0.865600
O1411	O141	0.968100	0.928870	0.195370
O1421	O142	0.317330	0.378800	0.416700
O1431	O143	0.071970	0.142740	0.372960
O1441	O144	0.682670	0.416700	0.378800
