data_ja3082523_si_004_freeONLY_PM
_symmetry_space_group_name_H-M	'P1'
_cell_length_a	42.980600
_cell_length_b	42.980600
_cell_length_c	42.980600
_cell_angle_alpha	90.000000
_cell_angle_beta	90.000000
_cell_angle_gamma	90.000000
_symmetry_Int_Tables_number 1

loop_
_symmetry_equiv_pos_as_xyz
'x,y,z'

loop_
_atom_site_label
_atom_site_type_symbol
_atom_site_fract_x
_atom_site_fract_y
_atom_site_fract_z
Zn11	Zn1	0.277220	0.215550	0.278840
Zn21	Zn2	0.727090	0.268320	0.231610
Zn31	Zn3	0.727320	0.714350	0.781150
Zn41	Zn4	0.276520	0.217580	0.728350
Zn51	Zn5	0.227760	0.217520	0.779440
Zn61	Zn6	0.776080	0.765640	0.234910
Zn71	Zn7	0.725280	0.715480	0.236920
Zn81	Zn8	0.777390	0.218720	0.232590
Zn91	Zn9	0.277640	0.267450	0.778710
Zn101	Zn10	0.228570	0.763780	0.231610
Zn111	Zn11	0.776370	0.713540	0.730670
Zn121	Zn12	0.229520	0.767970	0.779260
Zn131	Zn13	0.726960	0.266580	0.778210
Zn141	Zn14	0.278070	0.764690	0.282300
Zn151	Zn15	0.228090	0.267820	0.729190
Zn161	Zn16	0.778680	0.763860	0.780460
Zn171	Zn17	0.726830	0.215920	0.729330
Zn181	Zn18	0.776530	0.715830	0.285110
Zn191	Zn19	0.727170	0.219810	0.282750
Zn201	Zn20	0.279220	0.766570	0.730390
Zn211	Zn21	0.776980	0.265630	0.729170
Zn221	Zn22	0.228850	0.717240	0.730250
Zn231	Zn23	0.227430	0.715770	0.283380
Zn241	Zn24	0.727730	0.763820	0.731260
Zn251	Zn25	0.278580	0.716650	0.780170
Zn261	Zn26	0.227290	0.265660	0.279010
Zn271	Zn27	0.726430	0.765800	0.285400
Zn281	Zn28	0.278340	0.714240	0.233800
Zn291	Zn29	0.226550	0.216560	0.228840
Zn301	Zn30	0.777620	0.269060	0.280980
Zn311	Zn31	0.776300	0.216140	0.779820
Zn321	Zn32	0.277150	0.265100	0.229050
H11	H1	0.805380	0.964080	0.242360
H21	H2	0.288710	0.563760	0.787630
H31	H3	0.479380	0.906600	0.236270
H41	H4	0.793050	0.282290	0.429240
H51	H5	0.296930	0.726300	0.033820
H61	H6	0.574750	0.203280	0.723750
H71	H7	0.876560	0.707540	0.290910
H81	H8	0.302050	0.461630	0.233940
H91	H9	0.077290	0.706660	0.723320
H101	H10	0.290500	0.713580	0.932570
H111	H11	0.293890	0.460980	0.037000
H121	H12	0.712940	0.213940	0.576410
H131	H13	0.516410	0.446840	0.837790
H141	H14	0.708490	0.763380	0.933140
H151	H15	0.216740	0.864370	0.784360
H161	H16	0.772080	0.035290	0.648450
H171	H17	0.225590	0.616500	0.300400
H181	H18	0.213870	0.123240	0.217750
H191	H19	0.640690	0.937930	0.496880
H201	H20	0.640460	0.445040	0.993280
H211	H21	0.471270	0.238360	0.299200
H221	H22	0.803640	0.726530	0.934610
H231	H23	0.290200	0.120140	0.283090
H241	H24	0.074900	0.719320	0.298740
H251	H25	0.942010	0.329070	0.621530
H261	H26	0.373060	0.210190	0.713310
H271	H27	0.974020	0.745700	0.302530
H281	H28	0.548800	0.788180	0.368220
H291	H29	0.291170	0.211330	0.431450
H301	H30	0.498480	0.865340	0.299440
H311	H31	0.294110	0.916250	0.716630
H321	H32	0.266290	0.920100	0.306280
H331	H33	0.148290	0.442970	0.504520
H341	H34	0.784070	0.621040	0.717630
H351	H35	0.533490	0.364190	0.286620
H361	H36	0.168890	0.526470	0.540470
H371	H37	0.285910	0.959300	0.544270
H381	H38	0.714570	0.361740	0.784950
H391	H39	0.711510	0.278910	0.927960
H401	H40	0.722780	0.780690	0.638210
H411	H41	0.284780	0.031430	0.140790
H421	H42	0.355260	0.769440	0.945560
H431	H43	0.080190	0.784020	0.787640
H441	H44	0.033250	0.366950	0.784960
H451	H45	0.623520	0.420570	0.474090
H461	H46	0.215800	0.566000	0.719100
H471	H47	0.759710	0.962080	0.078620
H481	H48	0.019650	0.793730	0.712480
H491	H49	0.373270	0.271310	0.792760
H501	H50	0.775060	0.201920	0.075130
H511	H51	0.037340	0.284250	0.368370
H521	H52	0.532250	0.864500	0.785470
H531	H53	0.876090	0.207440	0.787170
H541	H54	0.632310	0.780780	0.293640
H551	H55	0.721630	0.923340	0.292880
H561	H56	0.241370	0.917870	0.207790
H571	H57	0.279320	0.530910	0.646060
H581	H58	0.617330	0.954680	0.189030
H591	H59	0.526280	0.292360	0.191130
H601	H60	0.805010	0.102620	0.579570
H611	H61	0.279950	0.503960	0.561310
H621	H62	0.622770	0.839290	0.557340
H631	H63	0.686890	0.016830	0.653030
H641	H64	0.365040	0.532780	0.210290
H651	H65	0.205420	0.021510	0.232650
H661	H66	0.051480	0.785840	0.864590
H671	H67	0.997840	0.399290	0.743480
H681	H68	0.078800	0.274810	0.711970
H691	H69	0.293480	0.273190	0.078710
H701	H70	0.791210	0.367440	0.489810
H711	H71	0.804210	0.726040	0.877680
H721	H72	0.121140	0.328590	0.044930
H731	H73	0.202350	0.976690	0.123820
H741	H74	0.837060	0.941440	0.937930
H751	H75	0.815250	0.567650	0.556360
H761	H76	0.289900	0.620360	0.788230
H771	H77	0.790170	0.709440	0.436200
H781	H78	0.040120	0.783860	0.365590
H791	H79	0.713260	0.120700	0.722830
H801	H80	0.855810	0.269800	0.947400
H811	H81	0.783900	0.363050	0.295140
H821	H82	0.971550	0.254600	0.303770
H831	H83	0.791950	0.279670	0.374110
H841	H84	0.202070	0.250910	0.473340
H851	H85	0.301080	0.367230	0.999290
H861	H86	0.202500	0.757370	0.974270
H871	H87	0.210110	0.798680	0.487580
H881	H88	0.479810	0.405420	0.737450
H891	H89	0.724080	0.783240	0.582510
H901	H90	0.208370	0.746350	0.477150
H911	H91	0.805370	0.459710	0.743410
H921	H92	0.133870	0.026660	0.180930
H931	H93	0.730170	0.400280	0.432510
H941	H94	0.217990	0.714140	0.436760
H951	H95	0.675300	0.476510	0.533060
H961	H96	0.927260	0.785270	0.220260
H971	H97	0.218810	0.417210	0.715280
H981	H98	0.035260	0.246800	0.702640
H991	H99	0.221500	0.207480	0.932170
H1001	H100	0.705300	0.740990	0.979480
H1011	H101	0.719320	0.864900	0.294050
H1021	H102	0.516610	0.291160	0.712300
H1031	H103	0.512540	0.418720	0.627620
H1041	H104	0.707740	0.565330	0.233570
H1051	H105	0.430850	0.205150	0.284340
H1061	H106	0.781200	0.477350	0.062390
H1071	H107	0.219120	0.207330	0.875660
H1081	H108	0.632320	0.845800	0.059900
H1091	H109	0.678720	0.494340	0.146520
H1101	H110	0.788310	0.213840	0.931860
H1111	H111	0.028180	0.294320	0.689210
H1121	H112	0.306590	0.743690	0.536780
H1131	H113	0.018560	0.948810	0.838240
H1141	H114	0.497520	0.363190	0.798840
H1151	H115	0.668240	0.499490	0.038710
H1161	H116	0.214700	0.714370	0.578010
H1171	H117	0.471020	0.747600	0.310310
H1181	H118	0.732290	0.919620	0.714460
H1191	H119	0.999610	0.418000	0.132840
H1201	H120	0.720230	0.212850	0.434720
H1211	H121	0.781680	0.018120	0.134100
H1221	H122	0.791160	0.359960	0.719910
H1231	H123	0.805270	0.244810	0.536440
H1241	H124	0.933340	0.710180	0.715260
H1251	H125	0.983340	0.423130	0.826500
H1261	H126	0.034650	0.746760	0.205070
H1271	H127	0.785060	0.565790	0.716000
H1281	H128	0.293890	0.860500	0.720220
H1291	H129	0.713290	0.064380	0.723370
H1301	H130	0.717330	0.212570	0.378420
H1311	H131	0.945190	0.314690	0.121320
H1321	H132	0.533740	0.741610	0.705320
H1331	H133	0.664030	0.915480	0.720240
H1341	H134	0.227140	0.930130	0.700520
H1351	H135	0.623070	0.346030	0.055540
H1361	H136	0.525560	0.790260	0.692710
H1371	H137	0.730200	0.904360	0.915530
H1381	H138	0.494070	0.896770	0.743640
H1391	H139	0.729360	0.439770	0.703660
H1401	H140	0.690210	0.000290	0.143790
H1411	H141	0.848770	0.929970	0.464820
H1421	H142	0.975010	0.747520	0.805040
H1431	H143	0.493790	0.925950	0.632230
H1441	H144	0.213870	0.275730	0.429510
H1451	H145	0.738240	0.410040	0.942310
H1461	H146	0.791350	0.121460	0.786140
H1471	H147	0.283900	0.363920	0.793550
H1481	H148	0.074080	0.203700	0.224870
H1491	H149	0.533270	0.234270	0.707190
H1501	H150	0.214720	0.067200	0.213320
H1511	H151	0.577510	0.282510	0.785710
H1521	H152	0.016380	0.367570	0.292030
H1531	H153	0.279930	0.203490	0.576210
H1541	H154	0.291240	0.210020	0.374930
H1551	H155	0.708160	0.719790	0.079970
H1561	H156	0.363920	0.784850	0.454820
H1571	H157	0.178890	0.980910	0.533240
H1581	H158	0.293350	0.359260	0.223100
H1591	H159	0.959850	0.817920	0.617210
H1601	H160	0.574220	0.715290	0.798540
H1611	H161	0.292000	0.272190	0.134790
H1621	H162	0.631230	0.203140	0.722100
H1631	H163	0.079230	0.773030	0.213820
H1641	H164	0.708760	0.621530	0.233240
H1651	H165	0.928160	0.285420	0.717830
H1661	H166	0.875180	0.710550	0.714280
H1671	H167	0.630450	0.217960	0.299110
H1681	H168	0.788980	0.211630	0.875410
H1691	H169	0.784380	0.515010	0.632520
H1701	H170	0.874650	0.771830	0.795320
H1711	H171	0.541400	0.782140	0.865230
H1721	H172	0.631910	0.930630	0.979910
H1731	H173	0.133360	0.279510	0.288220
H1741	H174	0.871240	0.781150	0.221150
H1751	H175	0.032370	0.232540	0.208680
H1761	H176	0.149250	0.423130	0.721150
H1771	H177	0.289900	0.063980	0.282170
H1781	H178	0.296530	0.770410	0.636840
H1791	H179	0.576670	0.783230	0.292760
H1801	H180	0.116820	0.948310	0.677740
H1811	H181	0.792920	0.416090	0.720210
H1821	H182	0.125090	0.924090	0.484070
H1831	H183	0.784180	0.863620	0.962230
H1841	H184	0.277520	0.695780	0.133720
H1851	H185	0.219030	0.361600	0.716960
H1861	H186	0.577230	0.271990	0.212270
H1871	H187	0.242900	0.416760	0.014020
H1881	H188	0.051870	0.904060	0.737430
H1891	H189	0.533820	0.243090	0.203140
H1901	H190	0.515900	0.790570	0.216090
H1911	H191	0.206320	0.808000	0.989400
H1921	H192	0.286450	0.018910	0.619050
H1931	H193	0.298040	0.770620	0.580610
H1941	H194	0.141580	0.944670	0.008610
H1951	H195	0.219780	0.456550	0.135620
H1961	H196	0.698000	0.433580	0.127950
H1971	H197	0.633760	0.767480	0.713640
H1981	H198	0.206580	0.238750	0.973770
H1991	H199	0.346990	0.934710	0.960040
H2001	H200	0.230310	0.788140	0.080730
H2011	H201	0.208770	0.519670	0.267150
H2021	H202	0.123170	0.831230	0.555390
H2031	H203	0.134980	0.272810	0.712740
H2041	H204	0.750970	0.909890	0.515200
H2051	H205	0.872840	0.279760	0.291110
H2061	H206	0.241680	0.861140	0.208220
H2071	H207	0.183030	0.922520	0.184890
H2081	H208	0.735640	0.066040	0.305990
H2091	H209	0.135390	0.770150	0.214840
H2101	H210	0.022720	0.286260	0.201530
H2111	H211	0.863950	0.284960	0.455820
H2121	H212	0.038110	0.283070	0.863490
H2131	H213	0.216750	0.920830	0.781020
H2141	H214	0.711610	0.212350	0.633080
H2151	H215	0.131410	0.716130	0.299500
H2161	H216	0.374790	0.701640	0.785200
H2171	H217	0.639940	0.020470	0.679990
H2181	H218	0.486570	0.414210	0.326870
H2191	H219	0.831260	0.449380	0.458430
H2201	H220	0.135850	0.782070	0.787750
H2211	H221	0.777720	0.202150	0.133320
H2221	H222	0.428510	0.784800	0.726070
H2231	H223	0.638290	0.433280	0.235050
H2241	H224	0.459380	0.315010	0.615370
H2251	H225	0.501580	0.429140	0.132510
H2261	H226	0.711550	0.297850	0.486480
H2271	H227	0.577510	0.938210	0.759920
H2281	H228	0.127310	0.842060	0.065730
H2291	H229	0.211990	0.212070	0.076890
H2301	H230	0.775390	0.696660	0.579330
H2311	H231	0.993870	0.932630	0.135770
H2321	H232	0.799910	0.764420	0.084010
H2331	H233	0.715830	0.777400	0.435040
H2341	H234	0.286920	0.283840	0.928200
H2351	H235	0.431730	0.702330	0.783090
H2361	H236	0.287120	0.281120	0.872560
H2371	H237	0.225490	0.063000	0.790720
H2381	H238	0.803760	0.740010	0.038950
H2391	H239	0.780150	0.124820	0.217470
H2401	H240	0.854270	0.050180	0.726910
H2411	H241	0.214040	0.274210	0.373310
H2421	H242	0.848650	0.435020	0.964390
H2431	H243	0.974940	0.408100	0.326490
H2441	H244	0.185780	0.483060	0.030190
H2451	H245	0.616400	0.452250	0.686530
H2461	H246	0.282130	0.124930	0.711880
H2471	H247	0.374290	0.204110	0.286760
H2481	H248	0.222440	0.119550	0.792310
H2491	H249	0.031820	0.867710	0.287320
H2501	H250	0.211530	0.211960	0.133570
H2511	H251	0.796420	0.461730	0.267460
H2521	H252	0.781760	0.069200	0.216750
H2531	H253	0.256850	0.408530	0.522730
H2541	H254	0.983420	0.922930	0.330060
H2551	H255	0.282290	0.069880	0.708020
H2561	H256	0.723990	0.290130	0.079270
H2571	H257	0.724650	0.617900	0.798450
H2581	H258	0.077830	0.282330	0.287520
H2591	H259	0.126050	0.341270	0.558070
H2601	H260	0.303930	0.249290	0.034160
H2611	H261	0.370290	0.279100	0.220080
H2621	H262	0.777980	0.696730	0.635790
H2631	H263	0.774070	0.859500	0.805540
H2641	H264	0.731050	0.122690	0.304800
H2651	H265	0.551220	0.401560	0.737470
H2661	H266	0.798450	0.962310	0.770330
H2671	H267	0.246990	0.410810	0.450390
H2681	H268	0.472930	0.744480	0.802900
H2691	H269	0.995010	0.900750	0.246420
H2701	H270	0.252620	0.914820	0.017140
H2711	H271	0.934200	0.208230	0.784150
H2721	H272	0.792760	0.358370	0.984780
H2731	H273	0.295980	0.777500	0.428460
H2741	H274	0.784210	0.589420	0.084860
H2751	H275	0.212860	0.362980	0.282620
H2761	H276	0.729470	0.561510	0.799700
H2771	H277	0.350680	0.554890	0.733180
H2781	H278	0.198290	0.460730	0.630060
H2791	H279	0.817230	0.058510	0.052520
H2801	H280	0.549940	0.283830	0.863500
H2811	H281	0.425950	0.282080	0.219750
H2821	H282	0.716320	0.418070	0.785560
H2831	H283	0.132170	0.216820	0.796150
H2841	H284	0.359230	0.267180	0.450350
H2851	H285	0.694710	0.495500	0.644990
H2861	H286	0.780910	0.419330	0.298020
H2871	H287	0.700800	0.258980	0.973480
H2881	H288	0.618860	0.328770	0.546790
H2891	H289	0.702830	0.022540	0.751250
H2901	H290	0.429520	0.271470	0.792910
H2911	H291	0.014200	0.921240	0.628580
H2921	H292	0.513210	0.913820	0.126310
H2931	H293	0.780880	0.510560	0.146310
H2941	H294	0.075590	0.218950	0.795600
H2951	H295	0.279360	0.622230	0.216040
H2961	H296	0.633250	0.280650	0.785930
H2971	H297	0.702390	0.751680	0.477540
H2981	H298	0.287640	0.999570	0.057100
H2991	H299	0.208790	0.021190	0.763030
H3001	H300	0.228390	0.559660	0.298240
H3011	H301	0.791490	0.064970	0.786700
H3021	H302	0.076200	0.941860	0.263950
H3031	H303	0.133670	0.706530	0.721660
H3041	H304	0.940590	0.829560	0.125040
H3051	H305	0.429740	0.208730	0.714140
H3061	H306	0.179830	0.042850	0.033090
H3071	H307	0.790490	0.564190	0.290850
H3081	H308	0.371930	0.773270	0.296100
H3091	H309	0.722910	0.287510	0.135170
H3101	H310	0.520040	0.950620	0.334710
H3111	H311	0.078250	0.440190	0.762940
H3121	H312	0.157990	0.517210	0.655640
H3131	H313	0.268670	0.861140	0.306240
H3141	H314	0.133730	0.422930	0.977560
H3151	H315	0.984330	0.391310	0.243620
H3161	H316	0.302500	0.963210	0.730940
H3171	H317	0.716240	0.363150	0.220870
H3181	H318	0.354820	0.053740	0.229330
H3191	H319	0.707080	0.718650	0.138270
H3201	H320	0.297620	0.232610	0.534330
H3211	H321	0.130560	0.203340	0.222890
H3221	H322	0.573790	0.219270	0.297850
H3231	H323	0.342360	0.448650	0.970480
H3241	H324	0.495820	0.395810	0.242560
H3251	H325	0.715460	0.776050	0.378950
H3261	H326	0.290340	0.515930	0.124490
H3271	H327	0.216540	0.296080	0.989730
H3281	H328	0.633440	0.271220	0.213990
H3291	H329	0.228920	0.902760	0.435410
H3301	H330	0.298940	0.355940	0.491310
H3311	H331	0.934670	0.709750	0.288410
H3321	H332	0.282330	0.204110	0.632660
H3331	H333	0.372140	0.782800	0.725870
H3341	H334	0.280180	0.420550	0.794890
H3351	H335	0.294380	0.414950	0.220070
H3361	H336	0.213870	0.713230	0.634670
H3371	H337	0.707850	0.244610	0.475410
H3381	H338	0.864440	0.540490	0.709930
H3391	H339	0.215740	0.955370	0.637640
H3401	H340	0.996530	0.431460	0.632900
H3411	H341	0.220790	0.283370	0.634570
H3421	H342	0.844520	0.559230	0.228880
H3431	H343	0.215130	0.711730	0.380460
H3441	H344	0.373380	0.705740	0.221670
H3451	H345	0.856670	0.763860	0.450820
H3461	H346	0.798810	0.762270	0.140350
H3471	H347	0.292320	0.857180	0.985240
H3481	H348	0.237940	0.918080	0.506670
H3491	H349	0.472460	0.245800	0.804030
H3501	H350	0.666710	0.016550	0.539820
H3511	H351	0.066210	0.451200	0.270940
H3521	H352	0.235570	0.908490	0.945770
H3531	H353	0.363340	0.036110	0.702930
H3541	H354	0.027150	0.795160	0.192460
H3551	H355	0.712320	0.276470	0.871920
H3561	H356	0.456670	0.811050	0.119620
H3571	H357	0.439160	0.823350	0.624410
H3581	H358	0.287690	0.612410	0.597760
H3591	H359	0.573800	0.704400	0.230270
H3601	H360	0.980430	0.908440	0.738030
H3611	H361	0.298490	0.963350	0.269020
H3621	H362	0.698730	0.522150	0.261000
H3631	H363	0.332090	0.948940	0.458230
H3641	H364	0.745260	0.911180	0.986660
H3651	H365	0.676080	0.967620	0.034270
H3661	H366	0.119640	0.456110	0.171960
H3671	H367	0.750560	0.001100	0.579110
H3681	H368	0.307250	0.108840	0.084830
H3691	H369	0.864870	0.040780	0.209510
H3701	H370	0.707900	0.757720	0.875390
H3711	H371	0.929080	0.280280	0.290230
H3721	H372	0.215520	0.622500	0.720770
H3731	H373	0.738640	0.903530	0.443630
H3741	H374	0.790230	0.708880	0.379760
H3751	H375	0.796120	0.725790	0.538550
H3761	H376	0.794330	0.269390	0.636350
H3771	H377	0.213410	0.419570	0.280170
H3781	H378	0.307580	0.070280	0.566850
H3791	H379	0.791260	0.918120	0.218850
H3801	H380	0.363350	0.282080	0.953250
H3811	H381	0.279750	0.567000	0.212090
H3821	H382	0.762890	0.466280	0.573180
H3831	H383	0.928630	0.209600	0.218530
H3841	H384	0.240450	0.402590	0.942520
H3851	H385	0.428130	0.773680	0.297020
H3861	H386	0.734820	0.417810	0.503840
H3871	H387	0.771780	0.918340	0.808070
H3881	H388	0.715720	0.419150	0.221480
H3891	H389	0.861610	0.779700	0.953400
H3901	H390	0.732080	0.862820	0.713010
H3911	H391	0.694950	0.791030	0.980780
H3921	H392	0.294270	0.773140	0.373870
H3931	H393	0.580660	0.440150	0.265260
H3941	H394	0.538690	0.278800	0.363530
H3951	H395	0.706120	0.309580	0.984830
H3961	H396	0.713520	0.025990	0.276310
H3971	H397	0.035780	0.737300	0.707950
H3981	H398	0.532230	0.734280	0.213860
H3991	H399	0.228760	0.784790	0.136690
H4001	H400	0.357230	0.431770	0.476900
H4011	H401	0.291450	0.711810	0.876070
H4021	H402	0.485240	0.920540	0.827060
H4031	H403	0.577650	0.769600	0.713880
H4041	H404	0.974520	0.242370	0.800150
H4051	H405	0.872010	0.282590	0.719000
H4061	H406	0.794800	0.853040	0.488940
H4071	H407	0.000110	0.865020	0.798970
H4081	H408	0.791030	0.620660	0.290910
H4091	H409	0.872130	0.210210	0.218600
H4101	H410	0.630180	0.704180	0.228820
H4111	H411	0.794950	0.229270	0.033520
H4121	H412	0.789380	0.861370	0.220410
H4131	H413	0.750400	0.417850	0.014910
H4141	H414	0.429920	0.705720	0.222810
H4151	H415	0.550110	0.900130	0.235550
H4161	H416	0.708740	0.802770	0.490450
H4171	H417	0.221370	0.285370	0.578770
H4181	H418	0.443820	0.327820	0.119260
H4191	H419	0.275510	0.697020	0.075230
H4201	H420	0.711870	0.520200	0.771560
H4211	H421	0.795880	0.270770	0.580280
H4221	H422	0.226480	0.428840	0.201710
H4231	H423	0.290600	0.866850	0.488530
H4241	H424	0.730690	0.947830	0.206090
H4251	H425	0.204930	0.302420	0.483980
H4261	H426	0.310540	0.564750	0.084480
H4271	H427	0.931050	0.772950	0.795690
H4281	H428	0.630890	0.711620	0.798640
H4291	H429	0.214830	0.779850	0.928990
H4301	H430	0.215660	0.777670	0.872790
C11	C1	0.038910	0.802470	0.348610
C21	C2	0.753010	0.855930	0.759980
C31	C3	0.750460	0.659430	0.261690
C41	C4	0.122250	0.723210	0.736700
C51	C5	0.143230	0.469520	0.657240
C61	C6	0.752460	0.823040	0.258810
C71	C7	0.670960	0.480070	0.165760
C81	C8	0.726320	0.423370	0.009900
C91	C9	0.532920	0.290040	0.315380
C101	C10	0.809010	0.902920	0.923290
C111	C11	0.754660	0.245780	0.371100
C121	C12	0.536380	0.407400	0.815050
C131	C13	0.122620	0.758710	0.233320
C141	C14	0.717390	0.065500	0.649980
C151	C15	0.230690	0.260720	0.418360
C161	C16	0.184010	0.947100	0.720380
C171	C17	0.272820	0.576050	0.772450
C181	C18	0.731820	0.761640	0.423690
C191	C19	0.028950	0.446010	0.765350
C201	C20	0.417740	0.721020	0.238690
C211	C21	0.970890	0.746730	0.252450
C221	C22	0.014420	0.942350	0.675040
C231	C23	0.473990	0.247940	0.697900
C241	C24	0.202840	0.940670	0.479250
C251	C25	0.679660	0.479840	0.557640
C261	C26	0.884690	0.765200	0.235260
C271	C27	0.171820	0.243470	0.754570
C281	C28	0.752080	0.740210	0.144340
C291	C29	0.149770	0.923520	0.489140
C301	C30	0.530490	0.261030	0.810810
C311	C31	0.777510	0.265400	0.419600
C321	C32	0.745420	0.078400	0.286340
C331	C33	0.652710	0.847940	0.014680
C341	C34	0.729490	0.244490	0.488410
C351	C35	0.505110	0.416440	0.651620
C361	C36	0.921470	0.224710	0.769970
C371	C37	0.938300	0.741170	0.754810
C381	C38	0.847900	0.533050	0.692400
C391	C39	0.019450	0.236520	0.229980
C401	C40	0.295770	0.535410	0.664490
C411	C41	0.807130	0.251650	0.978420
C421	C42	0.302030	0.084770	0.079410
C431	C43	0.279580	0.757630	0.591760
C441	C44	0.142120	0.448060	0.180090
C451	C45	0.763120	0.906690	0.787480
C461	C46	0.774020	0.724650	0.424260
C471	C47	0.636410	0.741920	0.261800
C481	C48	0.642740	0.975620	0.635890
C491	C49	0.543680	0.911300	0.257220
C501	C50	0.229290	0.225400	0.121800
C511	C51	0.989320	0.251380	0.721910
C521	C52	0.192420	0.899560	0.517490
C531	C53	0.171730	0.741110	0.257390
C541	C54	0.779220	0.007550	0.760600
C551	C55	0.813220	0.023650	0.236160
C561	C56	0.800910	0.453040	0.964980
C571	C57	0.020550	0.749750	0.784690
C581	C58	0.687140	0.316190	0.999620
C591	C59	0.754700	0.859550	0.408890
C601	C60	0.300570	0.817490	0.489460
C611	C61	0.525680	0.949180	0.731890
C621	C62	0.032320	0.302810	0.352070
C631	C63	0.516880	0.245750	0.280280
C641	C64	0.472600	0.754940	0.697700
C651	C65	0.252740	0.058940	0.248330
C661	C66	0.137210	0.241080	0.255760
C671	C67	0.018760	0.443240	0.235130
C681	C68	0.810500	0.028790	0.716780
C691	C69	0.262050	0.368920	0.413200
C701	C70	0.765450	0.715390	0.624380
C711	C71	0.921410	0.724440	0.732230
C721	C72	0.746900	0.244330	0.036830
C731	C73	0.268280	0.221590	0.621190
C741	C74	0.258590	0.746930	0.473010
C751	C75	0.035870	0.889820	0.841430
C761	C76	0.668610	0.964490	0.728330
C771	C77	0.024240	0.469100	0.144960
C781	C78	0.482140	0.326530	0.758470
C791	C79	0.278970	0.761650	0.419720
C801	C80	0.013520	0.332500	0.248190
C811	C81	0.800740	0.947230	0.465910
C821	C82	0.886890	0.723980	0.732080
C831	C83	0.459510	0.289210	0.148590
C841	C84	0.205300	0.903260	0.030190
C851	C85	0.710520	0.418120	0.497160
C861	C86	0.535340	0.891240	0.340300
C871	C87	0.755040	0.422790	0.753300
C881	C88	0.319090	0.991950	0.564660
C891	C89	0.726960	0.745960	0.991260
C901	C90	0.539720	0.832300	0.857190
C911	C91	0.296190	0.517580	0.174110
C921	C92	0.760940	0.061880	0.262390
C931	C93	0.175120	0.844250	0.002830
C941	C94	0.786030	0.394840	0.937540
C951	C95	0.158760	0.955960	0.155660
C961	C96	0.017910	0.439900	0.267730
C971	C97	0.729200	0.754360	0.922180
C981	C98	0.640590	0.337100	0.039770
C991	C99	0.151480	0.948600	0.715100
C1001	C100	0.046330	0.442380	0.283580
C1011	C101	0.691410	0.490140	0.620620
C1021	C102	0.667520	0.900960	0.998060
C1031	C103	0.195990	0.852420	0.954890
C1041	C104	0.471790	0.259140	0.194500
C1051	C105	0.527080	0.940350	0.312830
C1061	C106	0.308120	0.249310	0.477130
C1071	C107	0.487420	0.238940	0.726480
C1081	C108	0.701160	0.845050	0.452870
C1091	C109	0.318230	0.407500	0.955870
C1101	C110	0.277370	0.759960	0.387180
C1111	C111	0.327010	0.487460	0.591420
C1121	C112	0.038290	0.247580	0.752860
C1131	C113	0.165920	0.909560	0.131140
C1141	C114	0.348840	0.521200	0.104580
C1151	C115	0.752180	0.485970	0.668140
C1161	C116	0.619890	0.280910	0.579570
C1171	C117	0.333140	0.427990	0.470550
C1181	C118	0.088130	0.263330	0.274940
C1191	C119	0.751820	0.742730	0.474660
C1201	C120	0.513950	0.936970	0.171780
C1211	C121	0.970860	0.244990	0.748730
C1221	C122	0.489600	0.886260	0.160400
C1231	C123	0.385300	0.257570	0.775410
C1241	C124	0.619780	0.220290	0.736590
C1251	C125	0.747000	0.424900	0.260930
C1261	C126	0.742840	0.111110	0.285800
C1271	C127	0.052070	0.898560	0.787480
C1281	C128	0.123090	0.044990	0.044070
C1291	C129	0.745430	0.999320	0.172760
C1301	C130	0.309680	0.450150	0.478710
C1311	C131	0.019980	0.248300	0.780400
C1321	C132	0.242560	0.015060	0.655590
C1331	C133	0.229610	0.506730	0.261110
C1341	C134	0.253990	0.423260	0.250030
C1351	C135	0.183700	0.449260	0.218720
C1361	C136	0.920760	0.262020	0.121680
C1371	C137	0.202470	0.931150	0.698490
C1381	C138	0.309420	0.939480	0.452540
C1391	C139	0.776980	0.029400	0.040870
C1401	C140	0.762720	0.909150	0.448410
C1411	C141	0.755670	0.128590	0.261280
C1421	C142	0.689090	0.458680	0.985970
C1431	C143	0.517980	0.452270	0.730040
C1441	C144	0.031320	0.888980	0.345010
C1451	C145	0.224670	0.008750	0.241650
C1461	C146	0.692000	0.448140	0.108250
C1471	C147	0.251800	0.243810	0.469970
C1481	C148	0.752170	0.126330	0.754600
C1491	C149	0.815700	0.557610	0.125490
C1501	C150	0.844200	0.797940	0.953690
C1511	C151	0.231090	0.407030	0.267370
C1521	C152	0.850760	0.320430	0.946990
C1531	C153	0.005550	0.947330	0.183120
C1541	C154	0.010300	0.435680	0.711430
C1551	C155	0.714830	0.524390	0.178060
C1561	C156	0.650270	0.999200	0.584870
C1571	C157	0.682290	0.828600	0.939790
C1581	C158	0.172190	0.436120	0.508650
C1591	C159	0.536040	0.409500	0.323550
C1601	C160	0.136890	0.032150	0.239000
C1611	C161	0.266770	0.408140	0.777520
C1621	C162	0.274220	0.728170	0.920060
C1631	C163	0.664580	0.439750	0.998220
C1641	C164	0.726130	0.576710	0.246430
C1651	C165	0.256220	0.742820	0.573920
C1661	C166	0.037500	0.301680	0.846470
C1671	C167	0.304600	0.535390	0.592630
C1681	C168	0.229830	0.008580	0.757090
C1691	C169	0.381170	0.592910	0.701930
C1701	C170	0.819810	0.519430	0.702580
C1711	C171	0.198610	0.254920	0.032910
C1721	C172	0.154350	0.290410	0.038490
C1731	C173	0.253370	0.243310	0.071360
C1741	C174	0.981490	0.270880	0.177310
C1751	C175	0.472540	0.747170	0.204480
C1761	C176	0.777470	0.257430	0.591090
C1771	C177	0.243400	0.496240	0.040380
C1781	C178	0.982940	0.281880	0.671190
C1791	C179	0.252680	0.456360	0.611890
C1801	C180	0.486970	0.908020	0.212260
C1811	C181	0.899220	0.813260	0.924720
C1821	C182	0.305290	0.837930	0.975470
C1831	C183	0.902750	0.556930	0.669740
C1841	C184	0.536570	0.241210	0.756890
C1851	C185	0.274490	0.258950	0.122390
C1861	C186	0.749410	0.559170	0.261780
C1871	C187	0.510220	0.848270	0.313770
C1881	C188	0.312570	0.030130	0.088680
C1891	C189	0.476340	0.868460	0.642460
C1901	C190	0.647120	0.446390	0.215400
C1911	C191	0.815650	0.524780	0.581880
C1921	C192	0.245300	0.512950	0.159140
C1931	C193	0.275950	0.372170	0.235960
C1941	C194	0.833970	0.032850	0.105940
C1951	C195	0.705980	0.948410	0.203210
C1961	C196	0.752790	0.240860	0.639890
C1971	C197	0.605970	0.962500	0.245350
C1981	C198	0.278970	0.239680	0.488520
C1991	C199	0.280780	0.473640	0.239830
C2001	C200	0.274350	0.037420	0.546930
C2011	C201	0.041880	0.835490	0.858960
C2021	C202	0.530990	0.440540	0.266280
C2031	C203	0.670640	0.241230	0.754000
C2041	C204	0.677770	0.296740	0.024240
C2051	C205	0.669820	0.017130	0.564830
C2061	C206	0.123490	0.765030	0.773910
C2071	C207	0.251900	0.160930	0.753580
C2081	C208	0.233210	0.725840	0.390910
C2091	C209	0.157470	0.422520	0.985990
C2101	C210	0.339650	0.356140	0.969920
C2111	C211	0.512690	0.442270	0.180480
C2121	C212	0.165370	0.497830	0.701720
C2131	C213	0.787700	0.954110	0.937710
C2141	C214	0.026440	0.939860	0.816080
C2151	C215	0.197500	0.455340	0.498720
C2161	C216	0.249080	0.243300	0.571430
C2171	C217	0.985290	0.828350	0.758480
C2181	C218	0.006540	0.919160	0.652480
C2191	C219	0.367000	0.241010	0.253090
C2201	C220	0.801080	0.544840	0.099140
C2211	C221	0.542130	0.315170	0.408240
C2221	C222	0.255750	0.244530	0.936290
C2231	C223	0.773770	0.723900	0.391530
C2241	C224	0.612830	0.910400	0.796350
C2251	C225	0.752240	0.059140	0.755360
C2261	C226	0.190580	0.422580	0.168610
C2271	C227	0.175330	0.511050	0.559370
C2281	C228	0.530680	0.759410	0.810840
C2291	C229	0.029690	0.263010	0.312100
C2301	C230	0.729230	0.407670	0.239200
C2311	C231	0.506260	0.941380	0.679150
C2321	C232	0.345840	0.286900	0.458550
C2331	C233	0.281980	0.958090	0.455370
C2341	C234	0.638740	0.889860	0.674750
C2351	C235	0.359900	0.529610	0.159800
C2361	C236	0.336420	0.942000	0.567080
C2371	C237	0.349140	0.528640	0.191160
C2381	C238	0.746430	0.458420	0.262310
C2391	C239	0.257770	0.745580	0.439230
C2401	C240	0.782170	0.742640	0.026260
C2411	C241	0.303440	0.021810	0.637300
C2421	C242	0.833990	0.244760	0.255570
C2431	C243	0.834820	0.739700	0.754430
C2441	C244	0.624260	0.450510	0.544530
C2451	C245	0.255230	0.857180	0.752520
C2461	C246	0.833720	0.742010	0.258110
C2471	C247	0.251210	0.243360	0.638910
C2481	C248	0.121110	0.290120	0.584910
C2491	C249	0.171120	0.461420	0.073750
C2501	C250	0.030160	0.388190	0.842680
C2511	C251	0.765100	0.220720	0.121880
C2521	C252	0.544330	0.820430	0.908580
C2531	C253	0.531810	0.828540	0.742250
C2541	C254	0.536780	0.966510	0.134370
C2551	C255	0.173750	0.909800	0.023940
C2561	C256	0.451680	0.442590	0.289990
C2571	C257	0.753310	0.432920	0.113870
C2581	C258	0.722370	0.255180	0.985880
C2591	C259	0.022830	0.738780	0.729550
C2601	C260	0.524760	0.291860	0.821160
C2611	C261	0.251910	0.490180	0.674580
C2621	C262	0.752110	0.741250	0.341200
C2631	C263	0.620920	0.263200	0.772570
C2641	C264	0.968240	0.244210	0.254720
C2651	C265	0.853630	0.037170	0.159850
C2661	C266	0.142880	0.331950	0.541780
C2671	C267	0.774150	0.109400	0.772210
C2681	C268	0.148850	0.987250	0.154270
C2691	C269	0.386110	0.719670	0.771740
C2701	C270	0.067600	0.825240	0.904030
C2711	C271	0.693790	0.943470	0.173010
C2721	C272	0.461960	0.319160	0.134480
C2731	C273	0.804510	0.519610	0.250550
C2741	C274	0.637450	0.241440	0.754420
C2751	C275	0.779200	0.753070	0.127480
C2761	C276	0.772180	0.608530	0.735980
C2771	C277	0.671280	0.412150	0.014470
C2781	C278	0.668010	0.831330	0.990920
C2791	C279	0.193210	0.474570	0.052720
C2801	C280	0.019670	0.749450	0.282750
C2811	C281	0.266550	0.360360	0.911820
C2821	C282	0.560750	0.917350	0.803020
C2831	C283	0.008410	0.801690	0.177440
C2841	C284	0.759850	0.510740	0.550930
C2851	C285	0.486380	0.738910	0.233100
C2861	C286	0.458160	0.354010	0.230980
C2871	C287	0.701030	0.438900	0.473790
C2881	C288	0.265590	0.716450	0.087830
C2891	C289	0.026940	0.947170	0.267930
C2901	C290	0.508350	0.822130	0.178340
C2911	C291	0.290280	0.395690	0.943360
C2921	C292	0.230290	0.388680	0.160100
C2931	C293	0.337930	0.342920	0.463360
C2941	C294	0.681040	0.284000	0.523800
C2951	C295	0.732720	0.406020	0.770770
C2961	C296	0.036240	0.320110	0.907780
C2971	C297	0.770090	0.124290	0.538220
C2981	C298	0.689130	0.951890	0.488830
C2991	C299	0.284860	0.744790	0.524030
C3001	C300	0.833950	0.242110	0.753760
C3011	C301	0.519050	0.746540	0.783130
C3021	C302	0.818370	0.052710	0.655600
C3031	C303	0.831770	0.357410	0.462680
C3041	C304	0.071580	0.746390	0.256160
C3051	C305	0.688270	0.992080	0.120080
C3061	C306	0.900290	0.323200	0.431680
C3071	C307	0.818680	0.023320	0.203630
C3081	C308	0.728910	0.751720	0.887950
C3091	C309	0.340000	0.564630	0.684340
C3101	C310	0.948630	0.952510	0.294150
C3111	C311	0.814480	0.283060	0.971730
C3121	C312	0.488050	0.363300	0.640010
C3131	C313	0.831470	0.548220	0.210310
C3141	C314	0.145690	0.003560	0.126000
C3151	C315	0.786490	0.888190	0.440010
C3161	C316	0.255080	0.546690	0.566840
C3171	C317	0.229860	0.966130	0.591950
C3181	C318	0.753260	0.821130	0.758260
C3191	C319	0.330050	0.844480	0.955070
C3201	C320	0.653940	0.292240	0.540630
C3211	C321	0.766120	0.076280	0.559940
C3221	C322	0.757610	0.246900	0.438350
C3231	C323	0.320040	0.439270	0.963470
C3241	C324	0.994150	0.908300	0.222530
C3251	C325	0.726170	0.750940	0.025340
C3261	C326	0.536760	0.384640	0.344660
C3271	C327	0.517940	0.247900	0.783650
C3281	C328	0.754330	0.242690	0.572920
C3291	C329	0.648170	0.457390	0.159930
C3301	C330	0.727290	0.728400	0.126810
C3311	C331	0.524540	0.437800	0.815670
C3321	C332	0.732750	0.507110	0.766070
C3331	C333	0.704770	0.441970	0.700740
C3341	C334	0.102210	0.439380	0.314640
C3351	C335	0.214910	0.018390	0.058540
C3361	C336	0.660130	0.804120	0.050620
C3371	C337	0.894820	0.798310	0.423890
C3381	C338	0.750990	0.324810	0.257070
C3391	C339	0.283370	0.250940	0.988600
C3401	C340	0.177670	0.406520	0.521380
C3411	C341	0.753640	0.857890	0.257890
C3421	C342	0.894270	0.304590	0.921340
C3431	C343	0.807530	0.017550	0.747550
C3441	C344	0.237880	0.766590	0.091220
C3451	C345	0.154700	0.994580	0.981460
C3461	C346	0.111110	0.912690	0.299780
C3471	C347	0.319540	0.557370	0.659670
C3481	C348	0.156020	0.855150	0.027210
C3491	C349	0.252440	0.746760	0.936370
C3501	C350	0.551010	0.897030	0.285810
C3511	C351	0.989530	0.866070	0.640850
C3521	C352	0.270610	0.952960	0.623530
C3531	C353	0.484040	0.744990	0.288870
C3541	C354	0.213600	0.339020	0.952690
C3551	C355	0.276730	0.404790	0.234770
C3561	C356	0.664940	0.932820	0.501440
C3571	C357	0.816580	0.400550	0.948000
C3581	C358	0.782580	0.564570	0.080940
C3591	C359	0.986690	0.240420	0.227440
C3601	C360	0.198070	0.767650	0.036990
C3611	C361	0.959700	0.821090	0.139130
C3621	C362	0.274390	0.225680	0.419350
C3631	C363	0.298400	0.483840	0.046640
C3641	C364	0.292490	0.457900	0.964910
C3651	C365	0.160460	0.479550	0.603760
C3661	C366	0.803290	0.942090	0.111080
C3671	C367	0.277470	0.905980	0.732420
C3681	C368	0.239180	0.371880	0.564200
C3691	C369	0.986670	0.395070	0.665260
C3701	C370	0.057800	0.436760	0.777300
C3711	C371	0.256060	0.557360	0.255900
C3721	C372	0.144630	0.003900	0.182060
C3731	C373	0.776120	0.404960	0.735280
C3741	C374	0.368290	0.240870	0.753010
C3751	C375	0.252910	0.624210	0.258840
C3761	C376	0.253690	0.458550	0.487750
C3771	C377	0.267180	0.221520	0.588340
C3781	C378	0.239570	0.572860	0.279930
C3791	C379	0.003980	0.427490	0.812670
C3801	C380	0.520230	0.236060	0.728710
C3811	C381	0.476340	0.886010	0.190430
C3821	C382	0.188000	0.814130	0.005190
C3831	C383	0.986010	0.398780	0.219820
C3841	C384	0.412290	0.772020	0.628000
C3851	C385	0.809050	0.439260	0.452080
C3861	C386	0.586930	0.726970	0.780210
C3871	C387	0.751620	0.025590	0.757020
C3881	C388	0.984260	0.341480	0.644560
C3891	C389	0.725920	0.542850	0.631930
C3901	C390	0.764700	0.467130	0.179940
C3911	C391	0.734970	0.875940	0.277690
C3921	C392	0.179690	0.793820	0.029380
C3931	C393	0.721810	0.046210	0.126850
C3941	C394	0.152380	0.843200	0.517100
C3951	C395	0.674780	0.484370	0.057820
C3961	C396	0.709470	0.505680	0.597880
C3971	C397	0.278280	0.441610	0.474230
C3981	C398	0.981730	0.887910	0.199990
C3991	C399	0.776000	0.907050	0.235530
C4001	C400	0.165720	0.958870	0.577110
C4011	C401	0.140300	0.942050	0.684490
C4021	C402	0.300170	0.306090	0.486070
C4031	C403	0.343240	0.031210	0.597370
C4041	C404	0.170620	0.945300	0.475080
C4051	C405	0.285250	0.588400	0.590470
C4061	C406	0.029740	0.857650	0.838150
C4071	C407	0.131480	0.972620	0.452400
C4081	C408	0.695610	0.270560	0.033480
C4091	C409	0.654150	0.956740	0.224120
C4101	C410	0.658680	0.962870	0.081990
C4111	C411	0.991260	0.891660	0.661390
C4121	C412	0.231370	0.764290	0.918160
C4131	C413	0.161040	0.932490	0.661250
C4141	C414	0.059590	0.418990	0.805050
C4151	C415	0.027550	0.452900	0.733460
C4161	C416	0.224700	0.478370	0.060790
C4171	C417	0.654690	0.850630	0.521050
C4181	C418	0.235320	0.457190	0.969080
C4191	C419	0.868590	0.743210	0.256420
C4201	C420	0.533400	0.887000	0.842550
C4211	C421	0.154840	0.941580	0.630250
C4221	C422	0.586980	0.220580	0.737390
C4231	C423	0.251240	0.357450	0.755550
C4241	C424	0.818240	0.994580	0.952740
C4251	C425	0.316600	0.023020	0.692450
C4261	C426	0.794900	0.974640	0.605530
C4271	C427	0.703050	0.899360	0.526280
C4281	C428	0.566140	0.323380	0.903050
C4291	C429	0.744740	0.955370	0.475040
C4301	C430	0.267710	0.942340	0.963630
C4311	C431	0.698160	0.466550	0.752300
C4321	C432	0.787000	0.010110	0.250220
C4331	C433	0.727980	0.506880	0.543890
C4341	C434	0.304650	0.566130	0.604230
C4351	C435	0.196350	0.398180	0.019090
C4361	C436	0.917370	0.264150	0.274860
C4371	C437	0.750130	0.738400	0.642050
C4381	C438	0.415480	0.277160	0.121750
C4391	C439	0.282220	0.506490	0.241220
C4401	C440	0.299110	0.951980	0.964480
C4411	C441	0.807550	0.445170	0.603300
C4421	C442	0.843060	0.783590	0.458600
C4431	C443	0.506960	0.932370	0.203540
C4441	C444	0.733040	0.269250	0.089870
C4451	C445	0.141620	0.823010	0.540300
C4461	C446	0.490020	0.332210	0.650540
C4471	C447	0.470380	0.743180	0.753020
C4481	C448	0.727600	0.247640	0.521170
C4491	C449	0.813510	0.262360	0.479700
C4501	C450	0.176560	0.950540	0.606940
C4511	C451	0.540260	0.837700	0.360320
C4521	C452	0.781530	0.070460	0.007920
C4531	C453	0.230610	0.110550	0.231640
C4541	C454	0.384610	0.764850	0.738430
C4551	C455	0.120850	0.229600	0.777610
C4561	C456	0.726850	0.609430	0.245950
C4571	C457	0.253950	0.743410	0.836020
C4581	C458	0.230420	0.077930	0.229770
C4591	C459	0.222210	0.251890	0.519070
C4601	C460	0.834950	0.536840	0.605780
C4611	C461	0.763990	0.221040	0.087230
C4621	C462	0.669590	0.741230	0.261610
C4631	C463	0.847430	0.034310	0.192460
C4641	C464	0.367510	0.739440	0.258880
C4651	C465	0.777790	0.241090	0.988350
C4661	C466	0.987890	0.242440	0.778730
C4671	C467	0.835240	0.984740	0.479930
C4681	C468	0.506900	0.796450	0.677450
C4691	C469	0.177220	0.341190	0.497900
C4701	C470	0.263610	0.442830	0.961000
C4711	C471	0.753560	0.245250	0.337970
C4721	C472	0.507300	0.932140	0.710670
C4731	C473	0.089490	0.723530	0.737500
C4741	C474	0.661990	0.949780	0.167930
C4751	C475	0.649940	0.954110	0.137730
C4761	C476	0.256660	0.026030	0.748780
C4771	C477	0.534950	0.846510	0.802790
C4781	C478	0.228240	0.920730	0.014520
C4791	C479	0.698400	0.037260	0.609260
C4801	C480	0.530000	0.447290	0.234280
C4811	C481	0.505510	0.912980	0.150280
C4821	C482	0.771920	0.226440	0.886560
C4831	C483	0.228860	0.748630	0.522600
C4841	C484	0.988080	0.911040	0.714150
C4851	C485	0.486400	0.743330	0.781560
C4861	C486	0.690360	0.302810	0.498680
C4871	C487	0.487240	0.859810	0.141020
C4881	C488	0.679070	0.974400	0.058350
C4891	C489	0.738430	0.880190	0.035180
C4901	C490	0.035180	0.293370	0.814880
C4911	C491	0.752320	0.410930	0.438130
C4921	C492	0.384970	0.720710	0.238290
C4931	C493	0.747600	0.739060	0.541590
C4941	C494	0.042370	0.821120	0.409720
C4951	C495	0.508110	0.825860	0.662780
C4961	C496	0.253190	0.242800	0.835560
C4971	C497	0.539710	0.333440	0.858360
C4981	C498	0.130950	0.467240	0.039680
C4991	C499	0.749890	0.246590	0.935610
C5001	C500	0.236200	0.108830	0.774130
C5011	C501	0.753750	0.366590	0.906500
C5021	C502	0.183970	0.027060	0.052300
C5031	C503	0.706330	0.496580	0.566480
C5041	C504	0.259600	0.578900	0.571740
C5051	C505	0.138180	0.468170	0.624910
C5061	C506	0.181760	0.331280	0.994310
C5071	C507	0.341510	0.788930	0.953700
C5081	C508	0.560340	0.434780	0.279190
C5091	C509	0.138570	0.742690	0.257110
C5101	C510	0.692380	0.438340	0.670500
C5111	C511	0.253590	0.744510	0.869240
C5121	C512	0.252940	0.943160	0.452240
C5131	C513	0.759790	0.325790	0.017340
C5141	C514	0.516680	0.749210	0.290110
C5151	C515	0.228240	0.240090	0.986660
C5161	C516	0.996970	0.406890	0.719600
C5171	C517	0.684190	0.484420	0.195420
C5181	C518	0.698530	0.973110	0.254530
C5191	C519	0.418010	0.257050	0.775820
C5201	C520	0.744830	0.830920	0.985440
C5211	C521	0.237770	0.075890	0.772930
C5221	C522	0.435350	0.239940	0.753600
C5231	C523	0.165400	0.493430	0.481000
C5241	C524	0.644730	0.972130	0.668430
C5251	C525	0.509540	0.345640	0.812330
C5261	C526	0.832660	0.839420	0.459660
C5271	C527	0.036190	0.333290	0.856460
C5281	C528	0.089930	0.760030	0.232510
C5291	C529	0.726870	0.916150	0.511300
C5301	C530	0.727750	0.729660	0.092360
C5311	C531	0.234720	0.223620	0.886900
C5321	C532	0.800720	0.317930	0.490350
C5331	C533	0.334380	0.739370	0.258440
C5341	C534	0.584460	0.862400	0.263780
C5351	C535	0.656890	0.993900	0.719850
C5361	C536	0.253370	0.858110	0.407100
C5371	C537	0.485240	0.243880	0.782390
C5381	C538	0.241980	0.628490	0.565830
C5391	C539	0.330870	0.857020	0.460950
C5401	C540	0.588200	0.263560	0.773260
C5411	C541	0.868780	0.243320	0.752730
C5421	C542	0.232320	0.726030	0.623230
C5431	C543	0.468040	0.242730	0.249360
C5441	C544	0.722070	0.750380	0.523360
C5451	C545	0.887110	0.758350	0.778070
C5461	C546	0.620080	0.295320	0.083600
C5471	C547	0.166510	0.002810	0.100480
C5481	C548	0.252150	0.025380	0.248760
C5491	C549	0.314210	0.899600	0.946890
C5501	C550	0.468010	0.739810	0.260620
C5511	C551	0.917770	0.266600	0.730860
C5521	C552	0.499910	0.422760	0.156830
C5531	C553	0.157940	0.992990	0.210380
C5541	C554	0.249200	0.864260	0.910180
C5551	C555	0.249150	0.741380	0.038110
C5561	C556	0.251810	0.924050	0.258340
C5571	C557	0.182450	0.785440	0.527250
C5581	C558	0.959960	0.290090	0.649040
C5591	C559	0.338340	0.524400	0.135610
C5601	C560	0.738690	0.606670	0.780760
C5611	C561	0.009400	0.445590	0.680110
C5621	C562	0.973940	0.760010	0.197060
C5631	C563	0.841780	0.289400	0.954780
C5641	C564	0.605270	0.455600	0.743610
C5651	C565	0.116550	0.278340	0.073540
C5661	C566	0.289180	0.022670	0.066700
C5671	C567	0.103340	0.961310	0.732890
C5681	C568	0.984210	0.386700	0.697060
C5691	C569	0.965850	0.352880	0.733850
C5701	C570	0.269890	0.111920	0.729670
C5711	C571	0.120870	0.262510	0.274410
C5721	C572	0.021120	0.482790	0.644260
C5731	C573	0.938000	0.429620	0.286880
C5741	C574	0.709740	0.939350	0.965580
C5751	C575	0.761660	0.028340	0.262230
C5761	C576	0.030730	0.762130	0.310770
C5771	C577	0.950000	0.452740	0.789290
C5781	C578	0.000420	0.943990	0.287080
C5791	C579	0.020160	0.318320	0.298910
C5801	C580	0.886990	0.223790	0.771410
C5811	C581	0.215700	0.488650	0.591840
C5821	C582	0.838750	0.376370	0.948770
C5831	C583	0.335810	0.549420	0.713570
C5841	C584	0.804880	0.037060	0.057370
C5851	C585	0.060550	0.839070	0.175710
C5861	C586	0.756180	0.926230	0.256480
C5871	C587	0.534630	0.345500	0.303380
C5881	C588	0.740360	0.874430	0.733780
C5891	C589	0.646040	0.879810	0.011090
C5901	C590	0.534100	0.814960	0.793420
C5911	C591	0.630750	0.468780	0.442100
C5921	C592	0.230880	0.888410	0.660250
C5931	C593	0.227040	0.976210	0.750810
C5941	C594	0.026400	0.294580	0.320970
C5951	C595	0.302800	0.046140	0.561370
C5961	C596	0.731460	0.956080	0.947560
C5971	C597	0.207980	0.955900	0.614010
C5981	C598	0.750340	0.924140	0.763000
C5991	C599	0.270950	0.079260	0.728140
C6001	C600	0.259170	0.323630	0.514940
C6011	C601	0.280080	0.526540	0.572380
C6021	C602	0.739890	0.925320	0.154040
C6031	C603	0.723260	0.009130	0.754280
C6041	C604	0.489940	0.388850	0.660610
C6051	C605	0.754870	0.740620	0.837450
C6061	C606	0.243820	0.960140	0.977440
C6071	C607	0.233650	0.265530	0.622270
C6081	C608	0.334290	0.029140	0.628990
C6091	C609	0.314240	0.348380	0.988930
C6101	C610	0.618730	0.721150	0.243490
C6111	C611	0.030280	0.261360	0.808540
C6121	C612	0.286250	0.749750	0.491550
C6131	C613	0.666230	0.968890	0.113330
C6141	C614	0.990820	0.431850	0.284510
C6151	C615	0.695230	0.033780	0.576700
C6161	C616	0.277690	0.077080	0.058280
C6171	C617	0.688750	0.809100	0.503970
C6181	C618	0.021580	0.957010	0.788000
C6191	C619	0.646560	0.997750	0.688700
C6201	C620	0.465420	0.776900	0.156500
C6211	C621	0.695450	0.958670	0.746310
C6221	C622	0.585000	0.362990	0.765010
C6231	C623	0.834950	0.558440	0.178910
C6241	C624	0.888760	0.078900	0.690240
C6251	C625	0.982320	0.384700	0.165320
C6261	C626	0.780160	0.394050	0.434270
C6271	C627	0.753730	0.163420	0.260260
C6281	C628	0.034930	0.348650	0.802100
C6291	C629	0.226340	0.243580	0.019490
C6301	C630	0.006170	0.291500	0.183560
C6311	C631	0.550630	0.835020	0.207500
C6321	C632	0.528180	0.942810	0.763810
C6331	C633	0.728380	0.263580	0.917320
C6341	C634	0.247160	0.424750	0.756860
C6351	C635	0.009550	0.300770	0.674060
C6361	C636	0.124320	0.789570	0.090740
C6371	C637	0.974540	0.259640	0.693880
C6381	C638	0.143630	0.472610	0.948600
C6391	C639	0.550270	0.396130	0.787510
C6401	C640	0.230780	0.374280	0.269000
C6411	C641	0.336600	0.875640	0.946720
C6421	C642	0.253410	0.740880	0.338930
C6431	C643	0.752890	0.657790	0.757670
C6441	C644	0.528600	0.478850	0.145600
C6451	C645	0.566450	0.829090	0.405450
C6461	C646	0.311120	0.528690	0.718600
C6471	C647	0.793430	0.080270	0.578450
C6481	C648	0.829950	0.029110	0.138540
C6491	C649	0.233120	0.415990	0.518480
C6501	C650	0.762830	0.023130	0.579030
C6511	C651	0.766940	0.407640	0.280620
C6521	C652	0.506970	0.420380	0.313380
C6531	C653	0.985340	0.776210	0.680450
C6541	C654	0.171950	0.945190	0.183930
C6551	C655	0.235970	0.996460	0.542510
C6561	C656	0.734380	0.227560	0.389370
C6571	C657	0.821160	0.065340	0.625250
C6581	C658	0.220080	0.995190	0.081260
C6591	C659	0.493320	0.903900	0.719620
C6601	C660	0.306980	0.542450	0.073250
C6611	C661	0.187360	0.309990	0.499960
C6621	C662	0.570220	0.241730	0.756330
C6631	C663	0.155650	0.802620	0.050090
C6641	C664	0.309210	0.001960	0.466650
C6651	C665	0.056230	0.938060	0.278880
C6661	C666	0.322520	0.929720	0.956460
C6671	C667	0.587200	0.764250	0.280300
C6681	C668	0.223630	0.248930	0.486220
C6691	C669	0.748990	0.525630	0.261920
C6701	C670	0.155980	0.496700	0.670190
C6711	C671	0.483430	0.273380	0.679260
C6721	C672	0.768380	0.374950	0.279240
C6731	C673	0.003600	0.927770	0.315720
C6741	C674	0.417290	0.765780	0.738160
C6751	C675	0.151880	0.453760	0.211280
C6761	C676	0.350020	0.300910	0.963480
C6771	C677	0.848280	0.303270	0.463210
C6781	C678	0.044750	0.913970	0.759470
C6791	C679	0.486230	0.249690	0.222340
C6801	C680	0.538530	0.301400	0.849430
C6811	C681	0.674430	0.346190	0.995520
C6821	C682	0.660520	0.455500	0.103960
C6831	C683	0.438280	0.868060	0.222580
C6841	C684	0.468180	0.279220	0.650660
C6851	C685	0.803810	0.494160	0.583400
C6861	C686	0.871400	0.594660	0.191820
C6871	C687	0.776140	0.538010	0.542450
C6881	C688	0.340130	0.048630	0.209460
C6891	C689	0.719120	0.476810	0.257420
C6901	C690	0.252440	0.243580	0.436250
C6911	C691	0.786200	0.505540	0.748070
C6921	C692	0.550830	0.336440	0.706680
C6931	C693	0.256870	0.523810	0.253970
C6941	C694	0.245880	0.905960	0.229510
C6951	C695	0.677930	0.947340	0.965810
C6961	C696	0.981980	0.782560	0.174510
C6971	C697	0.157260	0.352770	0.521240
C6981	C698	0.788370	0.021780	0.693350
C6991	C699	0.504830	0.295350	0.690640
C7001	C700	0.019790	0.349530	0.309060
C7011	C701	0.181030	0.453330	0.103980
C7021	C702	0.232180	0.763420	0.885420
C7031	C703	0.224860	0.536440	0.558910
C7041	C704	0.500090	0.496830	0.812530
C7051	C705	0.717190	0.047060	0.556180
C7061	C706	0.752550	0.742060	0.374270
C7071	C707	0.111740	0.411160	0.800190
C7081	C708	0.418900	0.720090	0.770640
C7091	C709	0.167780	0.469400	0.717740
C7101	C710	0.982780	0.842280	0.147980
C7111	C711	0.776160	0.264750	0.386940
C7121	C712	0.537980	0.805300	0.353180
C7131	C713	0.174690	0.832520	0.495500
C7141	C714	0.813140	0.518880	0.734970
C7151	C715	0.124290	0.965330	0.544730
C7161	C716	0.750940	0.738210	0.675070
C7171	C717	0.238080	0.605670	0.281400
C7181	C718	0.831370	0.345160	0.956290
C7191	C719	0.681450	0.802180	0.998320
C7201	C720	0.251660	0.241550	0.172410
C7211	C721	0.235760	0.224140	0.919750
C7221	C722	0.202330	0.432340	0.197700
C7231	C723	0.695290	0.763130	0.537480
C7241	C724	0.233870	0.875430	0.769550
C7251	C725	0.586310	0.231160	0.279510
C7261	C726	0.036320	0.974190	0.639010
C7271	C727	0.656920	0.998580	0.617100
C7281	C728	0.758570	0.552020	0.061900
C7291	C729	0.222740	0.975990	0.244520
C7301	C730	0.328780	0.518750	0.078920
C7311	C731	0.304680	0.317300	0.993450
C7321	C732	0.269730	0.576510	0.232890
C7331	C733	0.256380	0.743950	0.540440
C7341	C734	0.335110	0.741330	0.755500
C7351	C735	0.481110	0.372090	0.139930
C7361	C736	0.783660	0.245490	0.523450
C7371	C737	0.748960	0.048630	0.563970
C7381	C738	0.720470	0.509400	0.261030
C7391	C739	0.326380	0.490090	0.063160
C7401	C740	0.250490	0.740730	0.071670
C7411	C741	0.276310	0.235810	0.521200
C7421	C742	0.034470	0.331700	0.740990
C7431	C743	0.383020	0.262380	0.233970
C7441	C744	0.399320	0.823160	0.429420
C7451	C745	0.569150	0.742690	0.263060
C7461	C746	0.274210	0.224540	0.386500
C7471	C747	0.808190	0.746180	0.482740
C7481	C748	0.506630	0.433220	0.705830
C7491	C749	0.231150	0.577320	0.735240
C7501	C750	0.228370	0.886060	0.553930
C7511	C751	0.749550	0.247850	0.969130
C7521	C752	0.346530	0.374260	0.457770
C7531	C753	0.611990	0.487040	0.045170
C7541	C754	0.011030	0.330310	0.659760
C7551	C755	0.518980	0.951930	0.226950
C7561	C756	0.086400	0.220860	0.238590
C7571	C757	0.279690	0.740140	0.989230
C7581	C758	0.177570	0.290310	0.524250
C7591	C759	0.403170	0.318860	0.932580
C7601	C760	0.621550	0.755740	0.732280
C7611	C761	0.774760	0.372240	0.734590
C7621	C762	0.539920	0.800410	0.847890
C7631	C763	0.141520	0.320530	0.032500
C7641	C764	0.009580	0.831370	0.163330
C7651	C765	0.837180	0.045990	0.708840
C7661	C766	0.071740	0.247040	0.753710
C7671	C767	0.161070	0.899140	0.507760
C7681	C768	0.306210	0.517080	0.749060
C7691	C769	0.638950	0.371520	0.507870
C7701	C770	0.481710	0.771800	0.184670
C7711	C771	0.619190	0.229950	0.280020
C7721	C772	0.005890	0.434530	0.180650
C7731	C773	0.736270	0.415310	0.651750
C7741	C774	0.699790	0.897460	0.003210
C7751	C775	0.012150	0.847580	0.812590
C7761	C776	0.802900	0.056890	0.599260
C7771	C777	0.537280	0.353180	0.335040
C7781	C778	0.820890	0.294480	0.478810
C7791	C779	0.040540	0.803430	0.850210
C7801	C780	0.024420	0.414110	0.327220
C7811	C781	0.775240	0.730930	0.525340
C7821	C782	0.035960	0.242310	0.258080
C7831	C783	0.031860	0.413120	0.821660
C7841	C784	0.670540	0.243830	0.257090
C7851	C785	0.796920	0.308310	0.983700
C7861	C786	0.801110	0.989570	0.087720
C7871	C787	0.053100	0.839590	0.706550
C7881	C788	0.271120	0.415320	0.456190
C7891	C789	0.759240	0.557500	0.758860
C7901	C790	0.645890	0.833100	0.042870
C7911	C791	0.984490	0.896100	0.168180
C7921	C792	0.227770	0.383640	0.059160
C7931	C793	0.685970	0.451280	0.725800
C7941	C794	0.596900	0.408700	0.202670
C7951	C795	0.007200	0.798060	0.691220
C7961	C796	0.059080	0.920120	0.306450
C7971	C797	0.202940	0.349630	0.452260
C7981	C798	0.757630	0.941400	0.934550
C7991	C799	0.274090	0.505700	0.046090
C8001	C800	0.887170	0.724050	0.275140
C8011	C801	0.509390	0.324290	0.675900
C8021	C802	0.945040	0.350910	0.231210
C8031	C803	0.262770	0.412670	0.948460
C8041	C804	0.987180	0.745400	0.280970
C8051	C805	0.528140	0.940060	0.256120
C8061	C806	0.730140	0.225240	0.621900
C8071	C807	0.991530	0.835000	0.651460
C8081	C808	0.791340	0.036540	0.664330
C8091	C809	0.937330	0.745840	0.253210
C8101	C810	0.028300	0.942230	0.759470
C8111	C811	0.151810	0.494510	0.576000
C8121	C812	0.405890	0.048310	0.665700
C8131	C813	0.343790	0.387500	0.960850
C8141	C814	0.639550	0.451100	0.128810
C8151	C815	0.087650	0.730920	0.280390
C8161	C816	0.561230	0.335560	0.176390
C8171	C817	0.056220	0.331220	0.188610
C8181	C818	0.011710	0.816260	0.803000
C8191	C819	0.086320	0.865580	0.764160
C8201	C820	0.488660	0.829200	0.153040
C8211	C821	0.251540	0.912760	0.440280
C8221	C822	0.784080	0.749400	0.994250
C8231	C823	0.225120	0.957430	0.462020
C8241	C824	0.031960	0.913860	0.323890
C8251	C825	0.783620	0.734130	0.889740
C8261	C826	0.809560	0.525410	0.218540
C8271	C827	0.764250	0.715590	0.591660
C8281	C828	0.762420	0.415630	0.946750
C8291	C829	0.759210	0.004040	0.051770
C8301	C830	0.749940	0.357920	0.258100
C8311	C831	0.741240	0.573900	0.781210
C8321	C832	0.493560	0.920370	0.656810
C8331	C833	0.274930	0.451930	0.121650
C8341	C834	0.778590	0.736660	0.493130
C8351	C835	0.072790	0.744100	0.757130
C8361	C836	0.672030	0.905140	0.517240
C8371	C837	0.588820	0.756570	0.732300
C8381	C838	0.730260	0.076210	0.737720
C8391	C839	0.258890	0.087610	0.540290
C8401	C840	0.867260	0.244960	0.254940
C8411	C841	0.785380	0.250440	0.490980
C8421	C842	0.254510	0.741680	0.674090
C8431	C843	0.588140	0.259750	0.231360
C8441	C844	0.314290	0.761880	0.480230
C8451	C845	0.993790	0.926370	0.160190
C8461	C846	0.173070	0.743190	0.754920
C8471	C847	0.816990	0.894450	0.450290
C8481	C848	0.659390	0.466630	0.580530
C8491	C849	0.669020	0.442720	0.467590
C8501	C850	0.333250	0.241580	0.752960
C8511	C851	0.521010	0.744170	0.726890
C8521	C852	0.723990	0.455630	0.457430
C8531	C853	0.255070	0.741810	0.640920
C8541	C854	0.253050	0.738270	0.175290
C8551	C855	0.805530	0.338870	0.975280
C8561	C856	0.266460	0.715440	0.122480
C8571	C857	0.962730	0.854480	0.236770
C8581	C858	0.001760	0.998640	0.813730
C8591	C859	0.522320	0.956350	0.284050
C8601	C860	0.755500	0.745840	0.939760
C8611	C861	0.460040	0.851590	0.735170
C8621	C862	0.268540	0.608980	0.234550
C8631	C863	0.976260	0.750740	0.699220
C8641	C864	0.153330	0.300470	0.544150
C8651	C865	0.356670	0.317930	0.453350
C8661	C866	0.824510	0.430460	0.958640
C8671	C867	0.483300	0.890680	0.665620
C8681	C868	0.233780	0.908240	0.767420
C8691	C869	0.035570	0.857660	0.335950
C8701	C870	0.736180	0.910440	0.276880
C8711	C871	0.537350	0.743830	0.755580
C8721	C872	0.277040	0.873240	0.733970
C8731	C873	0.346410	0.062270	0.179840
C8741	C874	0.298030	0.807330	0.984870
C8751	C875	0.721680	0.257050	0.018790
C8761	C876	0.482630	0.385310	0.195610
C8771	C877	0.227980	0.443400	0.501380
C8781	C878	0.305930	0.848630	0.480370
C8791	C879	0.773920	0.575940	0.735880
C8801	C880	0.656800	0.927040	0.981480
C8811	C881	0.231660	0.610170	0.735680
C8821	C882	0.325000	0.399130	0.457530
C8831	C883	0.139930	0.743720	0.755210
C8841	C884	0.652170	0.799150	0.545940
C8851	C885	0.667680	0.469200	0.612150
C8861	C886	0.438520	0.367740	0.721760
C8871	C887	0.674430	0.330330	0.490690
C8881	C888	0.346970	0.031790	0.684250
C8891	C889	0.647840	0.420660	0.480700
C8901	C890	0.034190	0.818040	0.294350
C8911	C891	0.253940	0.243650	0.037770
C8921	C892	0.017340	0.250950	0.284400
C8931	C893	0.800810	0.020100	0.150130
C8941	C894	0.488190	0.746920	0.725370
C8951	C895	0.503940	0.436080	0.284440
C8961	C896	0.839540	0.870570	0.451310
C8971	C897	0.730360	0.374980	0.238060
C8981	C898	0.793330	0.509400	0.194720
C8991	C899	0.349420	0.819980	0.945020
C9001	C900	0.807930	0.407170	0.445850
C9011	C901	0.156450	0.341590	0.012540
C9021	C902	0.990050	0.741460	0.727510
C9031	C903	0.034740	0.356870	0.833760
C9041	C904	0.158420	0.445500	0.126710
C9051	C905	0.268790	0.127790	0.045770
C9061	C906	0.752530	0.441630	0.449400
C9071	C907	0.526350	0.258390	0.308870
C9081	C908	0.001840	0.443420	0.783770
C9091	C909	0.723350	0.385530	0.550450
C9101	C910	0.187080	0.972440	0.555520
C9111	C911	0.240740	0.878120	0.060450
C9121	C912	0.747610	0.244170	0.070550
C9131	C913	0.149680	0.444150	0.707180
C9141	C914	0.655020	0.987270	0.469400
C9151	C915	0.640660	0.830120	0.542110
C9161	C916	0.418030	0.223150	0.731130
C9171	C917	0.834150	0.388290	0.451590
C9181	C918	0.720100	0.941250	0.491460
C9191	C919	0.616940	0.787940	0.583800
C9201	C920	0.776650	0.507340	0.262510
C9211	C921	0.639500	0.980060	0.950090
C9221	C922	0.136210	0.444250	0.676810
C9231	C923	0.195730	0.467520	0.243310
C9241	C924	0.254580	0.856070	0.258200
C9251	C925	0.803290	0.517420	0.648640
C9261	C926	0.648610	0.882850	0.522910
C9271	C927	0.434500	0.739610	0.260050
C9281	C928	0.272850	0.264550	0.885130
C9291	C929	0.750110	0.626260	0.261890
C9301	C930	0.368280	0.741820	0.755240
C9311	C931	0.175630	0.965430	0.209250
C9321	C932	0.295340	0.020880	0.188530
C9331	C933	0.508770	0.816520	0.305790
C9341	C934	0.784970	0.977220	0.249130
C9351	C935	0.219700	0.476790	0.747440
C9361	C936	0.328230	0.979810	0.093700
C9371	C937	0.724690	0.507940	0.054540
C9381	C938	0.416840	0.758060	0.280830
C9391	C939	0.754950	0.243950	0.539470
C9401	C940	0.254820	0.823890	0.753630
C9411	C941	0.680220	0.789920	0.028690
C9421	C942	0.974160	0.378820	0.196600
C9431	C943	0.797630	0.510230	0.680060
C9441	C944	0.385210	0.223550	0.730900
C9451	C945	0.824610	0.924810	0.459860
C9461	C946	0.021850	0.748990	0.226620
C9471	C947	0.409750	0.540130	0.174310
C9481	C948	0.734260	0.761980	0.625770
C9491	C949	0.772850	0.608930	0.277990
C9501	C950	0.259930	0.914110	0.949010
C9511	C951	0.435090	0.742930	0.753560
C9521	C952	0.850560	0.827540	0.939900
C9531	C953	0.749860	0.243510	0.139600
C9541	C954	0.557610	0.934500	0.774980
C9551	C955	0.978480	0.361570	0.142380
C9561	C956	0.977970	0.889790	0.691340
C9571	C957	0.468980	0.239650	0.754040
C9581	C958	0.806560	0.349130	0.481790
C9591	C959	0.719970	0.448170	0.989600
C9601	C960	0.753670	0.912390	0.920060
C9611	C961	0.496030	0.404130	0.218930
C9621	C962	0.435630	0.262040	0.612580
C9631	C963	0.022170	0.248780	0.724040
C9641	C964	0.731890	0.761220	0.391030
C9651	C965	0.585950	0.721600	0.244080
C9661	C966	0.007070	0.937260	0.214360
C9671	C967	0.160930	0.550340	0.703520
C9681	C968	0.254590	0.742020	0.372020
C9691	C969	0.736450	0.876780	0.560590
C9701	C970	0.914770	0.277830	0.624260
C9711	C971	0.748910	0.959280	0.764210
C9721	C972	0.799070	0.802950	0.488580
C9731	C973	0.752870	0.355660	0.752630
C9741	C974	0.163280	0.436950	0.158020
C9751	C975	0.032880	0.762940	0.811840
C9761	C976	0.275650	0.259160	0.089590
C9771	C977	0.776330	0.257040	0.623750
C9781	C978	0.320740	0.574360	0.631530
C9791	C979	0.353550	0.834630	0.453390
C9801	C980	0.034440	0.849420	0.304360
C9811	C981	0.753320	0.742070	0.076020
C9821	C982	0.252610	0.626810	0.754800
C9831	C983	0.334500	0.989420	0.976270
C9841	C984	0.027120	0.793840	0.821850
C9851	C985	0.762430	0.820770	0.522690
C9861	C986	0.519210	0.736460	0.235350
C9871	C987	0.256440	0.244410	0.970080
C9881	C988	0.854360	0.334910	0.455200
C9891	C989	0.792820	0.815100	0.970080
C9901	C990	0.309520	0.520530	0.230180
C9911	C991	0.200040	0.957760	0.229480
C9921	C992	0.224340	0.754270	0.986440
C9931	C993	0.306790	0.519500	0.143050
C9941	C994	0.434310	0.242350	0.250250
C9951	C995	0.723670	0.748320	0.490590
C9961	C996	0.764570	0.872120	0.785920
C9971	C997	0.385270	0.220850	0.271450
C9981	C998	0.539080	0.329180	0.357260
C9991	C999	0.253010	0.660210	0.755190
C10001	C1000	0.559070	0.833810	0.675130
C10011	C1001	0.619540	0.724420	0.780140
C10021	C1002	0.771770	0.228120	0.919330
C10031	C1003	0.505270	0.924880	0.812370
C10041	C1004	0.481660	0.827050	0.261270
C10051	C1005	0.729340	0.980920	0.262450
C10061	C1006	0.757180	0.961330	0.255630
C10071	C1007	0.760250	0.523760	0.758570
C10081	C1008	0.729050	0.262500	0.884590
C10091	C1009	0.273620	0.265310	0.917890
C10101	C1010	0.841670	0.057990	0.678140
C10111	C1011	0.740010	0.906950	0.734820
C10121	C1012	0.320930	0.794120	0.478130
C10131	C1013	0.689210	0.398120	0.511980
C10141	C1014	0.282120	0.008270	0.736550
C10151	C1015	0.262520	0.824200	0.020520
C10161	C1016	0.511660	0.431980	0.211720
C10171	C1017	0.277360	0.976000	0.263450
C10181	C1018	0.481380	0.280910	0.171810
C10191	C1019	0.754420	0.624660	0.758360
C10201	C1020	0.291140	0.983470	0.549210
C10211	C1021	0.267360	0.005440	0.544910
C10221	C1022	0.816490	0.544460	0.155620
C10231	C1023	0.120390	0.728640	0.280600
C10241	C1024	0.255460	0.924530	0.748650
C10251	C1025	0.276110	0.732620	0.021020
C10261	C1026	0.246400	0.873500	0.229660
C10271	C1027	0.638930	0.803660	0.099200
C10281	C1028	0.534990	0.471590	0.638380
C10291	C1029	0.190260	0.804260	0.501640
C10301	C1030	0.816150	0.777540	0.476280
C10311	C1031	0.977640	0.874440	0.144400
C10321	C1032	0.569900	0.245750	0.254930
C10331	C1033	0.658520	0.396780	0.500320
C10341	C1034	0.869660	0.740390	0.754370
C10351	C1035	0.680510	0.017970	0.628870
C10361	C1036	0.563360	0.417860	0.307400
C10371	C1037	0.194980	0.301980	0.000900
C10381	C1038	0.774480	0.076610	0.772200
C10391	C1039	0.235010	0.467230	0.090060
C10401	C1040	0.476890	0.386910	0.690710
C10411	C1041	0.720450	0.915230	0.984940
C10421	C1042	0.237490	0.039650	0.047270
C10431	C1043	0.749600	0.857520	0.887530
C10441	C1044	0.273950	0.474550	0.763250
C10451	C1045	0.308650	0.017810	0.244610
C10461	C1046	0.884590	0.264330	0.275010
C10471	C1047	0.250040	0.958990	0.258050
C10481	C1048	0.088100	0.231290	0.777550
C10491	C1049	0.934560	0.244850	0.254360
C10501	C1050	0.198750	0.838730	0.448680
C10511	C1051	0.758960	0.331520	0.520170
C10521	C1052	0.035420	0.794150	0.317150
C10531	C1053	0.002240	0.426230	0.212310
C10541	C1054	0.344830	0.484940	0.497420
C10551	C1055	0.165960	0.938500	0.010250
C10561	C1056	0.034540	0.317270	0.792050
C10571	C1057	0.260910	0.907660	0.285050
C10581	C1058	0.620900	0.259620	0.232530
C10591	C1059	0.772480	0.983070	0.073000
C10601	C1060	0.252610	0.241890	0.368840
C10611	C1061	0.769550	0.443840	0.961720
C10621	C1062	0.249010	0.954370	0.099020
C10631	C1063	0.513220	0.439510	0.674280
C10641	C1064	0.245900	0.458460	0.757370
C10651	C1065	0.814320	0.019300	0.083200
C10661	C1066	0.113570	0.508760	0.542400
C10671	C1067	0.969080	0.782270	0.652480
C10681	C1068	0.251720	0.747590	0.969870
C10691	C1069	0.702200	0.406070	0.023820
C10701	C1070	0.033950	0.832500	0.243410
C10711	C1071	0.268610	0.045520	0.055990
C10721	C1072	0.934140	0.765870	0.616210
C10731	C1073	0.089770	0.261600	0.730360
C10741	C1074	0.799770	0.844540	0.957440
C10751	C1075	0.741310	0.599860	0.047150
C10761	C1076	0.673300	0.465550	0.220250
C10771	C1077	0.780050	0.753560	0.094970
C10781	C1078	0.989000	0.752020	0.225020
C10791	C1079	0.802570	0.512910	0.091590
C10801	C1080	0.755490	0.742520	0.871810
C10811	C1081	0.796140	0.520160	0.163770
C10821	C1082	0.252430	0.324170	0.755040
C10831	C1083	0.346230	0.442000	0.053500
C10841	C1084	0.268800	0.375290	0.776910
C10851	C1085	0.252540	0.241110	0.335510
C10861	C1086	0.501810	0.940200	0.783260
C10871	C1087	0.902940	0.054490	0.168000
C10881	C1088	0.166430	0.397910	0.005560
C10891	C1089	0.700520	0.259990	0.535220
C10901	C1090	0.018940	0.955050	0.730780
C10911	C1091	0.652810	0.306380	0.043470
C10921	C1092	0.469800	0.805720	0.140460
C10931	C1093	0.143820	0.833700	0.048610
C10941	C1094	0.750790	0.243200	0.174570
C10951	C1095	0.750640	0.243780	0.868490
C10961	C1096	0.150530	0.887450	0.030830
C10971	C1097	0.182110	0.281690	0.023090
C10981	C1098	0.038100	0.747730	0.255320
C10991	C1099	0.619920	0.763600	0.279960
C11001	C1100	0.520810	0.246310	0.224460
C11011	C1101	0.251760	0.241990	0.139110
C11021	C1102	0.538170	0.909690	0.313220
C11031	C1103	0.533270	0.387770	0.841220
C11041	C1104	0.884210	0.225680	0.234420
C11051	C1105	0.721500	0.976260	0.756120
C11061	C1106	0.637220	0.244370	0.256590
C11071	C1107	0.195120	0.263860	0.533150
C11081	C1108	0.050280	0.428870	0.313510
C11091	C1109	0.220290	0.946130	0.995570
C11101	C1110	0.699260	0.353550	0.949310
C11111	C1111	0.251460	0.559310	0.753670
C11121	C1112	0.851900	0.814570	0.450260
C11131	C1113	0.752090	0.240500	0.673040
C11141	C1114	0.774810	0.474750	0.266630
C11151	C1115	0.262370	0.873090	0.284980
C11161	C1116	0.753510	0.743770	0.042720
C11171	C1117	0.527450	0.329830	0.242470
C11181	C1118	0.293950	0.019020	0.668760
C11191	C1119	0.231080	0.406600	0.734450
C11201	C1120	0.219000	0.418000	0.006080
C11211	C1121	0.273730	0.075970	0.267060
C11221	C1122	0.527150	0.355620	0.837860
C11231	C1123	0.391440	0.804400	0.916950
C11241	C1124	0.314150	0.029400	0.214290
C11251	C1125	0.653650	0.357710	0.018150
C11261	C1126	0.038540	0.909580	0.815260
C11271	C1127	0.315400	0.782350	0.972190
C11281	C1128	0.784250	0.472560	0.748190
C11291	C1129	0.024500	0.954530	0.236190
C11301	C1130	0.645680	0.941920	0.681110
C11311	C1131	0.973070	0.811830	0.637770
C11321	C1132	0.429870	0.759570	0.121270
C11331	C1133	0.226300	0.475000	0.252820
C11341	C1134	0.543550	0.411480	0.759350
C11351	C1135	0.253660	0.243520	0.868850
C11361	C1136	0.640100	0.041920	0.734250
C11371	C1137	0.503730	0.793910	0.194500
C11381	C1138	0.333290	0.888020	0.450160
C11391	C1139	0.007520	0.936180	0.706540
C11401	C1140	0.807370	0.833410	0.479470
C11411	C1141	0.774760	0.488160	0.569230
C11421	C1142	0.731860	0.373260	0.770660
C11431	C1143	0.113830	0.396830	0.683220
C11441	C1144	0.733950	0.012360	0.270360
C11451	C1145	0.294610	0.394860	0.445900
C11461	C1146	0.531700	0.314360	0.293000
C11471	C1147	0.251910	0.159790	0.252290
C11481	C1148	0.042790	0.321620	0.412380
C11491	C1149	0.642030	0.952560	0.193520
C11501	C1150	0.641050	0.449100	0.691010
C11511	C1151	0.282250	0.247470	0.021410
C11521	C1152	0.527120	0.439770	0.758980
C11531	C1153	0.781100	0.457280	0.453350
C11541	C1154	0.832760	0.880940	0.929040
C11551	C1155	0.744990	0.462010	0.973590
C11561	C1156	0.388820	0.088440	0.197830
C11571	C1157	0.706810	0.005440	0.096470
C11581	C1158	0.356340	0.034870	0.652590
C11591	C1159	0.633970	0.442150	0.185180
C11601	C1160	0.777090	0.583370	0.515280
C11611	C1161	0.230170	0.745720	0.489780
C11621	C1162	0.259160	0.831090	0.519750
C11631	C1163	0.223850	0.754990	0.021180
C11641	C1164	0.995360	0.413440	0.157260
C11651	C1165	0.984490	0.250260	0.282580
C11661	C1166	0.029670	0.389630	0.348210
C11671	C1167	0.653270	0.451150	0.721860
C11681	C1168	0.756960	0.355960	0.405660
C11691	C1169	0.279460	0.536420	0.056090
C11701	C1170	0.189420	0.957460	0.996010
C11711	C1171	0.014360	0.985710	0.147690
C11721	C1172	0.274560	0.726780	0.887270
C11731	C1173	0.138690	0.244550	0.754450
C11741	C1174	0.701900	0.767730	0.039990
C11751	C1175	0.323350	0.023450	0.572700
C11761	C1176	0.418120	0.221640	0.270190
C11771	C1177	0.322110	0.293250	0.978900
C11781	C1178	0.457320	0.785020	0.652690
C11791	C1179	0.315800	0.061550	0.097660
C11801	C1180	0.914040	0.777940	0.127300
C11811	C1181	0.733530	0.268530	0.122470
C11821	C1182	0.940200	0.869700	0.722570
C11831	C1183	0.616080	0.414730	0.303330
C11841	C1184	0.318170	0.521270	0.198470
C11851	C1185	0.676040	0.838920	0.499070
C11861	C1186	0.255660	0.059960	0.750110
C11871	C1187	0.301050	0.035200	0.159530
C11881	C1188	0.779630	0.500820	0.071150
C11891	C1189	0.202330	0.761210	0.537460
C11901	C1190	0.234640	0.727770	0.423670
C11911	C1191	0.704930	0.992850	0.066140
C11921	C1192	0.971770	0.741470	0.755140
C11931	C1193	0.026020	0.357960	0.340040
C11941	C1194	0.222420	0.509640	0.746550
C11951	C1195	0.854390	0.537880	0.660020
C11961	C1196	0.104320	0.472190	0.225370
C11971	C1197	0.511050	0.328470	0.160670
C11981	C1198	0.770700	0.112370	0.237230
C11991	C1199	0.827390	0.850710	0.941130
C12001	C1200	0.536850	0.855390	0.834130
C12011	C1201	0.291760	0.520130	0.693240
C12021	C1202	0.619690	0.982840	0.544890
C12031	C1203	0.535710	0.791500	0.816640
C12041	C1204	0.263570	0.332190	0.023650
C12051	C1205	0.961020	0.320470	0.635680
C12061	C1206	0.509120	0.314350	0.802590
C12071	C1207	0.213280	0.919140	0.501530
C12081	C1208	0.279440	0.007620	0.255260
C12091	C1209	0.794910	0.015850	0.182050
C12101	C1210	0.994630	0.418110	0.314300
C12111	C1211	0.283140	0.893470	0.938440
C12121	C1212	0.777140	0.975620	0.767660
C12131	C1213	0.727640	0.000360	0.043600
C12141	C1214	0.638250	0.739740	0.755490
C12151	C1215	0.307300	0.907560	0.445680
C12161	C1216	0.254320	0.958150	0.745140
C12171	C1217	0.206760	0.510630	0.568850
C12181	C1218	0.650080	0.453860	0.635390
C12191	C1219	0.238090	0.765300	0.123720
C12201	C1220	0.730670	0.226560	0.589120
C12211	C1221	0.624430	0.942780	0.047300
C12221	C1222	0.961140	0.277450	0.152250
C12231	C1223	0.937400	0.244780	0.749510
C12241	C1224	0.450120	0.949060	0.790600
C12251	C1225	0.472120	0.308940	0.636260
C12261	C1226	0.528890	0.763190	0.316910
C12271	C1227	0.326480	0.055200	0.154670
C12281	C1228	0.480460	0.777260	0.674850
C12291	C1229	0.520100	0.454810	0.787400
C12301	C1230	0.751820	0.159590	0.754610
C12311	C1231	0.804310	0.545030	0.558780
C12321	C1232	0.755940	0.456410	0.753430
C12331	C1233	0.159270	0.019610	0.073220
C12341	C1234	0.752760	0.743250	0.441190
C12351	C1235	0.535460	0.742180	0.263490
C12361	C1236	0.533750	0.911350	0.820770
C12371	C1237	0.748070	0.739020	0.575140
C12381	C1238	0.677990	0.789490	0.527870
C12391	C1239	0.254220	0.821360	0.257820
C12401	C1240	0.783340	0.734820	0.922320
C12411	C1241	0.919690	0.758450	0.778550
C12421	C1242	0.885200	0.265720	0.732280
C12431	C1243	0.256830	0.990190	0.168350
C12441	C1244	0.153010	0.385130	0.525120
C12451	C1245	0.480200	0.883400	0.697600
C12461	C1246	0.252390	0.659120	0.259710
C12471	C1247	0.276970	0.506960	0.759490
C12481	C1248	0.485280	0.339830	0.143900
C12491	C1249	0.252420	0.321390	0.253660
C12501	C1250	0.987890	0.745640	0.783460
C12511	C1251	0.229160	0.225880	0.089070
C12521	C1252	0.655600	0.494370	0.965940
C12531	C1253	0.826460	0.466070	0.097330
C12541	C1254	0.458240	0.815110	0.638680
C12551	C1255	0.011320	0.827110	0.676440
C12561	C1256	0.196340	0.989650	0.103330
C12571	C1257	0.972820	0.247350	0.198550
C12581	C1258	0.774170	0.235080	0.020420
C12591	C1259	0.232610	0.726980	0.590460
C12601	C1260	0.309010	0.750990	0.979720
C12611	C1261	0.273370	0.108720	0.268190
C12621	C1262	0.233070	0.265890	0.589470
C12631	C1263	0.733950	0.762740	0.593150
C12641	C1264	0.317470	0.280780	0.473790
C12651	C1265	0.647660	0.390000	0.020210
C12661	C1266	0.251960	0.126590	0.250850
C12671	C1267	0.415710	0.263320	0.232910
C12681	C1268	0.979240	0.373680	0.641380
C12691	C1269	0.983510	0.329890	0.149040
C12701	C1270	0.330290	0.070360	0.125700
C12711	C1271	0.487250	0.408070	0.713500
C12721	C1272	0.769510	0.937570	0.463030
C12731	C1273	0.251770	0.243160	0.672220
C12741	C1274	0.735280	0.380780	0.056630
C12751	C1275	0.638540	0.320790	0.533240
C12761	C1276	0.189550	0.919700	0.670560
C12771	C1277	0.758070	0.247060	0.472100
C12781	C1278	0.671340	0.739060	0.755550
C12791	C1279	0.751150	0.740180	0.179000
C12801	C1280	0.125550	0.782950	0.587430
C12811	C1281	0.273220	0.608950	0.773170
C12821	C1282	0.686800	0.957440	0.228140
C12831	C1283	0.481380	0.836420	0.647020
C12841	C1284	0.835820	0.489900	0.979740
C12851	C1285	0.192080	0.461580	0.738360
C12861	C1286	0.311010	0.262380	0.975620
C12871	C1287	0.400950	0.301570	0.429460
C12881	C1288	0.958900	0.790670	0.152420
C12891	C1289	0.311090	0.336590	0.480850
C12901	C1290	0.504110	0.999680	0.308140
C12911	C1291	0.755130	0.747470	0.974850
C12921	C1292	0.517500	0.977940	0.642510
C12931	C1293	0.812040	0.762530	0.983450
C12941	C1294	0.537660	0.297700	0.346850
C12951	C1295	0.996670	0.425100	0.657290
C12961	C1296	0.262460	0.586420	0.059970
C12971	C1297	0.208150	0.398520	0.530590
C12981	C1298	0.774740	0.874470	0.236180
C12991	C1299	0.706540	0.482870	0.066070
C13001	C1300	0.917250	0.766710	0.233930
C13011	C1301	0.250250	0.525640	0.753650
C13021	C1302	0.031920	0.334460	0.362170
C13031	C1303	0.813660	0.934090	0.932100
C13041	C1304	0.747140	0.992460	0.676610
C13051	C1305	0.348010	0.803040	0.462010
C13061	C1306	0.658090	0.938450	0.711600
C13071	C1307	0.192100	0.475200	0.610350
C13081	C1308	0.253400	0.456780	0.247060
C13091	C1309	0.232420	0.373920	0.734410
C13101	C1310	0.772800	0.079840	0.237500
C13111	C1311	0.038320	0.834120	0.358550
C13121	C1312	0.917040	0.225710	0.234050
C13131	C1313	0.921670	0.725710	0.273870
C13141	C1314	0.536310	0.245720	0.253410
C13151	C1315	0.218750	0.976870	0.562760
C13161	C1316	0.715580	0.461350	0.089530
C13171	C1317	0.146030	0.372740	0.010800
C13181	C1318	0.701630	0.336170	0.445600
C13191	C1319	0.253010	0.356330	0.253010
C13201	C1320	0.806850	0.501990	0.464800
C13211	C1321	0.090790	0.765420	0.774650
C13221	C1322	0.179770	0.444710	0.975190
C13231	C1323	0.772770	0.576170	0.277560
C13241	C1324	0.170470	0.240840	0.254970
C13251	C1325	0.252570	0.127580	0.752670
C13261	C1326	0.962520	0.307500	0.138160
C13271	C1327	0.211230	0.440080	0.983230
C13281	C1328	0.281200	0.975270	0.736710
C13291	C1329	0.523930	0.794670	0.325480
C13301	C1330	0.359470	0.332460	0.959100
C13311	C1331	0.528370	0.859120	0.338610
C13321	C1332	0.791100	0.026490	0.595380
C13331	C1333	0.119260	0.220340	0.237670
C13341	C1334	0.248420	0.242680	0.537610
C13351	C1335	0.815480	0.791370	0.968050
C13361	C1336	0.570820	0.742660	0.756160
C13371	C1337	0.384150	0.758250	0.279970
C13381	C1338	0.730510	0.108990	0.737000
C13391	C1339	0.729150	0.475110	0.759230
C13401	C1340	0.661190	0.446960	0.665440
C13411	C1341	0.252550	0.738920	0.140420
C13421	C1342	0.008140	0.320750	0.168720
C13431	C1343	0.650380	0.340820	0.510400
C13441	C1344	0.751010	0.242550	0.835300
C13451	C1345	0.278560	0.757800	0.624460
C13461	C1346	0.735810	0.228160	0.422120
C13471	C1347	0.196290	0.967060	0.743530
C13481	C1348	0.508380	0.299130	0.175250
C13491	C1349	0.156820	0.794020	0.546110
C13501	C1350	0.487690	0.393400	0.164080
C13511	C1351	0.141480	0.874170	0.516010
C13521	C1352	0.231060	0.260210	0.385560
C13531	C1353	0.039160	0.743500	0.757790
C13541	C1354	0.212460	0.457780	0.111830
C13551	C1355	0.333720	0.240450	0.253720
C13561	C1356	0.061990	0.337560	0.672360
C13571	C1357	0.278780	0.895310	0.434990
C13581	C1358	0.122450	0.260850	0.731060
C13591	C1359	0.688600	0.462920	0.249260
C13601	C1360	0.651210	0.470260	0.076410
C13611	C1361	0.754700	0.519390	0.061460
C13621	C1362	0.484550	0.239820	0.277750
C13631	C1363	0.319340	0.502260	0.974780
C13641	C1364	0.309140	0.021910	0.724490
C13651	C1365	0.752320	0.322460	0.752820
C13661	C1366	0.779420	0.893480	0.912590
C13671	C1367	0.069760	0.242040	0.257680
C13681	C1368	0.831460	0.529790	0.637950
O11	O1	0.383270	0.324920	0.438740
O21	O2	0.327410	0.516330	0.601940
O31	O3	0.745530	0.454380	0.093270
O41	O4	0.453810	0.865270	0.196220
O51	O5	0.684540	0.484680	0.969440
O61	O6	0.245540	0.480900	0.594790
O71	O7	0.633250	0.945840	0.076500
O81	O8	0.234470	0.261860	0.687500
O91	O9	0.318480	0.258520	0.235830
O101	O10	0.315420	0.477320	0.492780
O111	O11	0.271150	0.497150	0.697450
O121	O12	0.271310	0.674830	0.773600
O131	O13	0.685690	0.261030	0.238120
O141	O14	0.476910	0.446410	0.272880
O151	O15	0.771550	0.805460	0.775570
O161	O16	0.279270	0.309790	0.009750
O171	O17	0.866810	0.074100	0.669280
O181	O18	0.273190	0.759210	0.689120
O191	O19	0.733590	0.261850	0.190010
O201	O20	0.528650	0.465760	0.667850
O211	O21	0.569140	0.371430	0.789890
O221	O22	0.683310	0.857010	0.474750
O231	O23	0.777010	0.309560	0.508680
O241	O24	0.669290	0.972590	0.949780
O251	O25	0.507240	0.483130	0.785970
O261	O26	0.769660	0.674290	0.278820
O271	O27	0.770610	0.258220	0.688100
O281	O28	0.032840	0.810100	0.264370
O291	O29	0.279310	0.867790	0.420330
O301	O30	0.633140	0.451300	0.573870
O311	O31	0.273010	0.717940	0.190720
O321	O32	0.527350	0.307110	0.263110
O331	O33	0.879390	0.344400	0.439280
O341	O34	0.318900	0.259980	0.771390
O351	O35	0.708970	0.878830	0.026480
O361	O36	0.969220	0.360270	0.704200
O371	O37	0.754070	0.098280	0.541510
O381	O38	0.254030	0.742010	0.755070
O391	O39	0.685810	0.720980	0.774260
O401	O40	0.143030	0.280420	0.565670
O411	O41	0.149150	0.774870	0.569480
O421	O42	0.536200	0.346820	0.162610
O431	O43	0.187540	0.724410	0.737040
O441	O44	0.034310	0.850330	0.164380
O451	O45	0.767130	0.007030	0.192870
O461	O46	0.880960	0.550040	0.649230
O471	O47	0.935920	0.770200	0.147420
O481	O48	0.769320	0.758150	0.194000
O491	O49	0.265430	0.466850	0.096460
O501	O50	0.554750	0.849180	0.385370
O511	O51	0.233930	0.307080	0.271950
O521	O52	0.191570	0.349690	0.971160
O531	O53	0.252460	0.057660	0.537910
O541	O54	0.819610	0.473280	0.600320
O551	O55	0.179770	0.849840	0.470080
O561	O56	0.768260	0.719010	0.689490
O571	O57	0.660720	0.465430	0.447990
O581	O58	0.234280	0.259130	0.320470
O591	O59	0.652740	0.015060	0.742220
O601	O60	0.187230	0.757550	0.238080
O611	O61	0.194030	0.482970	0.484790
O621	O62	0.781310	0.369790	0.919600
O631	O63	0.765060	0.046460	0.017730
O641	O64	0.320210	0.759840	0.737730
O651	O65	0.771960	0.262560	0.322390
O661	O66	0.020500	0.461350	0.174460
O671	O67	0.587640	0.905370	0.813220
O681	O68	0.569470	0.872110	0.288720
O691	O69	0.762540	0.557150	0.522000
O701	O70	0.955870	0.868360	0.696170
O711	O71	0.681240	0.364750	0.971430
O721	O72	0.770230	0.723000	0.326450
O731	O73	0.169500	0.524280	0.717450
O741	O74	0.234900	0.806320	0.236570
O751	O75	0.349190	0.469290	0.067320
O761	O76	0.636450	0.962530	0.249120
O771	O77	0.770550	0.307200	0.735120
O781	O78	0.464460	0.857590	0.705350
O791	O79	0.173110	0.468380	0.956100
O801	O80	0.637770	0.918090	0.662660
O811	O81	0.657140	0.790260	0.078400
O821	O82	0.819300	0.721580	0.278800
O831	O83	0.609960	0.423300	0.179000
O841	O84	0.734220	0.757450	0.690200
O851	O85	0.590510	0.407770	0.318880
O861	O86	0.021550	0.473530	0.673560
O871	O87	0.305100	0.980610	0.975140
O881	O88	0.710690	0.933350	0.148830
O891	O89	0.033470	0.309360	0.762040
O901	O90	0.531280	0.344750	0.684510
O911	O91	0.270610	0.306280	0.235750
O921	O92	0.643130	0.286430	0.065360
O931	O93	0.201360	0.379970	0.043880
O941	O94	0.876910	0.821530	0.433030
O951	O95	0.161660	0.968550	0.456430
O961	O96	0.320360	0.722660	0.773320
O971	O97	0.142260	0.270150	0.058850
O981	O98	0.211630	0.881110	0.051170
O991	O99	0.541650	0.841880	0.886760
O1001	O100	0.153860	0.006560	0.238100
O1011	O101	0.140850	0.457920	0.067210
O1021	O102	0.777030	0.797100	0.509740
O1031	O103	0.266160	0.513820	0.181660
O1041	O104	0.205130	0.402770	0.149450
O1051	O105	0.464920	0.360340	0.201660
O1061	O106	0.246140	0.978450	0.080100
O1071	O107	0.235310	0.756520	0.190450
O1081	O108	0.780080	0.487540	0.460590
O1091	O109	0.449820	0.256740	0.639320
O1101	O110	0.271840	0.758060	0.323300
O1111	O111	0.273060	0.808290	0.736170
O1121	O112	0.955420	0.354570	0.202500
O1131	O113	0.626380	0.981890	0.574840
O1141	O114	0.270200	0.174030	0.271110
O1151	O115	0.806360	0.002950	0.608970
O1161	O116	0.819150	0.221900	0.774420
O1171	O117	0.233660	0.175190	0.234700
O1181	O118	0.686460	0.756680	0.737260
O1191	O119	0.708600	0.427470	0.646190
O1201	O120	0.331610	0.009250	0.101770
O1211	O121	0.777340	0.866330	0.897400
O1221	O122	0.732520	0.721900	0.823370
O1231	O123	0.731510	0.674260	0.244370
O1241	O124	0.378260	0.844190	0.437020
O1251	O125	0.940000	0.255800	0.144810
O1261	O126	0.274760	0.300100	0.502930
O1271	O127	0.518470	0.969130	0.671930
O1281	O128	0.434230	0.764570	0.648190
O1291	O129	0.531780	0.806490	0.763620
O1301	O130	0.751970	0.241010	0.754120
O1311	O131	0.204270	0.900600	0.650840
O1321	O132	0.454730	0.365560	0.695740
O1331	O133	0.936770	0.269830	0.644160
O1341	O134	0.733130	0.260570	0.819750
O1351	O135	0.769770	0.807210	0.240670
O1361	O136	0.273890	0.998630	0.192480
O1371	O137	0.029870	0.968580	0.668510
O1381	O138	0.877380	0.834840	0.925850
O1391	O139	0.825450	0.495990	0.104230
O1401	O140	0.706830	0.384280	0.045630
O1411	O141	0.252480	0.242540	0.753990
O1421	O142	0.774340	0.302210	0.004160
O1431	O143	0.277320	0.809140	0.508380
O1441	O144	0.966850	0.861420	0.207110
O1451	O145	0.819270	0.719220	0.734660
O1461	O146	0.200440	0.881830	0.541830
O1471	O147	0.818940	0.226000	0.238140
O1481	O148	0.708090	0.878500	0.548900
O1491	O149	0.234870	0.224430	0.821090
O1501	O150	0.752770	0.739130	0.756210
O1511	O151	0.389490	0.535180	0.151740
O1521	O152	0.291640	0.369070	0.927190
O1531	O153	0.680820	0.347180	0.465260
O1541	O154	0.270630	0.222590	0.320760
O1551	O155	0.036000	0.348950	0.660600
O1561	O156	0.271290	0.260760	0.820220
O1571	O157	0.362130	0.585850	0.678860
O1581	O158	0.685200	0.226490	0.276300
O1591	O159	0.781970	0.366340	0.420090
O1601	O160	0.819240	0.263110	0.273660
O1611	O161	0.963240	0.437100	0.271040
O1621	O162	0.684020	0.722390	0.243970
O1631	O163	0.008660	0.985300	0.786930
O1641	O164	0.133560	0.959540	0.738100
O1651	O165	0.277630	0.868250	0.920990
O1661	O166	0.185900	0.723600	0.276760
O1671	O167	0.766490	0.000340	0.699170
O1681	O168	0.495160	0.806530	0.279660
O1691	O169	0.184960	0.222700	0.236460
O1701	O170	0.771470	0.178070	0.241570
O1711	O171	0.271530	0.806100	0.276410
O1721	O172	0.271900	0.724500	0.821730
O1731	O173	0.530060	0.962470	0.164080
O1741	O174	0.769830	0.672690	0.738610
O1751	O175	0.805980	0.976030	0.476510
O1761	O176	0.975430	0.455290	0.772240
O1771	O177	0.973530	0.955600	0.276430
O1781	O178	0.818260	0.259540	0.735670
O1791	O179	0.185680	0.360700	0.475090
O1801	O180	0.340800	0.971630	0.573930
O1811	O181	0.751370	0.740930	0.260320
O1821	O182	0.635750	0.455260	0.747280
O1831	O183	0.733690	0.307990	0.770940
O1841	O184	0.264290	0.014650	0.677290
O1851	O185	0.234180	0.175410	0.772680
O1861	O186	0.949680	0.760200	0.642100
O1871	O187	0.684110	0.977870	0.472440
O1881	O188	0.235090	0.675470	0.737020
O1891	O189	0.237930	0.598440	0.560790
O1901	O190	0.819840	0.757630	0.772660
O1911	O191	0.806470	0.481540	0.976210
O1921	O192	0.532820	0.844870	0.663620
O1931	O193	0.766680	0.809470	0.985880
O1941	O194	0.188220	0.761550	0.772680
O1951	O195	0.817630	0.759680	0.240600
O1961	O196	0.685670	0.259940	0.771450
O1971	O197	0.733260	0.222770	0.687630
O1981	O198	0.085840	0.406210	0.815950
O1991	O199	0.016210	0.975920	0.176750
O2001	O200	0.769060	0.223720	0.821160
O2011	O201	0.717810	0.059250	0.619880
O2021	O202	0.055670	0.846030	0.884810
O2031	O203	0.235460	0.724150	0.688700
O2041	O204	0.553830	0.344060	0.883980
O2051	O205	0.620660	0.472790	0.070970
O2061	O206	0.269440	0.224230	0.686780
O2071	O207	0.734620	0.672520	0.776100
O2081	O208	0.269320	0.176290	0.735040
O2091	O209	0.385150	0.042820	0.643710
O2101	O210	0.135270	0.955220	0.571560
O2111	O211	0.685300	0.222430	0.736250
O2121	O212	0.319150	0.222010	0.272030
O2131	O213	0.876240	0.327680	0.930600
O2141	O214	0.292180	0.488200	0.971950
O2151	O215	0.183630	0.984220	0.981180
O2161	O216	0.017110	0.310300	0.268980
O2171	O217	0.211530	0.375460	0.551270
O2181	O218	0.696200	0.380720	0.536880
O2191	O219	0.129900	0.029390	0.069660
O2201	O220	0.039770	0.843050	0.388380
O2211	O221	0.815660	0.969920	0.107040
O2221	O222	0.474850	0.951560	0.772540
O2231	O223	0.998990	0.807290	0.776070
O2241	O224	0.370170	0.081680	0.174350
O2251	O225	0.641030	0.779040	0.566940
O2261	O226	0.436150	0.269320	0.143090
O2271	O227	0.236060	0.761580	0.820660
O2281	O228	0.733670	0.174340	0.736270
O2291	O229	0.730350	0.720530	0.194240
O2301	O230	0.185750	0.259070	0.272820
O2311	O231	0.146600	0.781540	0.071180
O2321	O232	0.281960	0.988180	0.463330
O2331	O233	0.776870	0.484130	0.202440
O2341	O234	0.733450	0.759020	0.326410
O2351	O235	0.236220	0.809620	0.771940
O2361	O236	0.530660	0.842660	0.185520
O2371	O237	0.033230	0.847710	0.684640
O2381	O238	0.373670	0.827380	0.926970
O2391	O239	0.734340	0.227510	0.323930
O2401	O240	0.289790	0.371280	0.426120
O2411	O241	0.120040	0.420540	0.664710
O2421	O242	0.781980	0.862750	0.422600
O2431	O243	0.257190	0.557570	0.050780
O2441	O244	0.769690	0.174590	0.773080
O2451	O245	0.737670	0.569350	0.046590
O2461	O246	0.133570	0.466650	0.232960
O2471	O247	0.706250	0.505640	0.200900
O2481	O248	0.724830	0.030530	0.100610
O2491	O249	0.186240	0.225290	0.773180
O2501	O250	0.270930	0.309360	0.772870
O2511	O251	0.644990	0.273190	0.563610
O2521	O252	0.510320	0.984990	0.281880
O2531	O253	0.031800	0.340720	0.172550
O2541	O254	0.732480	0.808410	0.279740
O2551	O255	0.121620	0.494550	0.568420
O2561	O256	0.270700	0.258670	0.187490
O2571	O257	0.234560	0.309180	0.736530
O2581	O258	0.085800	0.907560	0.316430
O2591	O259	0.277060	0.800880	0.006920
O2601	O260	0.234240	0.723050	0.324930
O2611	O261	0.271070	0.673810	0.242010
O2621	O262	0.445610	0.754700	0.147200
O2631	O263	0.526930	0.469400	0.174790
O2641	O264	0.180180	0.863370	0.978770
O2651	O265	0.770510	0.222380	0.189750
O2661	O266	0.790010	0.983150	0.948720
O2671	O267	0.854280	0.581260	0.170110
O2681	O268	0.037390	0.343480	0.391480
O2691	O269	0.252060	0.240630	0.254030
O2701	O270	0.260820	0.098240	0.042830
O2711	O271	0.727720	0.530200	0.604010
O2721	O272	0.260170	0.967670	0.598560
O2731	O273	0.541510	0.337520	0.387180
O2741	O274	0.186960	0.260940	0.735900
O2751	O275	0.880700	0.047120	0.148120
O2761	O276	0.233590	0.673790	0.277460
O2771	O277	0.752220	0.243960	0.256780
O2781	O278	0.077700	0.426690	0.328180
O2791	O279	0.318140	0.223730	0.734650
O2801	O280	0.319720	0.720750	0.240650
O2811	O281	0.771340	0.496670	0.689480
O2821	O282	0.156290	0.938720	0.129830
O2831	O283	0.319370	0.757990	0.276050
O2841	O284	0.232680	0.224050	0.187140
O2851	O285	0.253030	0.739780	0.257620
O2861	O286	0.733090	0.309850	0.238710
O2871	O287	0.035670	0.342120	0.886350
O2881	O288	0.669100	0.844400	0.962600
O2891	O289	0.071070	0.873960	0.789430
O2901	O290	0.769840	0.310180	0.274800
O2911	O291	0.734680	0.178060	0.277750
O2921	O292	0.733360	0.806410	0.737310
O2931	O293	0.684880	0.759630	0.279270
O2941	O294	0.773900	0.756870	0.821700
O2951	O295	0.384910	0.341090	0.943340
O2961	O296	0.496230	0.305470	0.775730
