data_ja300034j_si_002_freeONLY_PM
_symmetry_space_group_name_H-M	'P1'
_cell_length_a	6.869000
_cell_length_b	21.698000
_cell_length_c	21.698000
_cell_angle_alpha	120.000000
_cell_angle_beta	90.000000
_cell_angle_gamma	90.000000
_symmetry_Int_Tables_number 1

loop_
_symmetry_equiv_pos_as_xyz
'x,y,z'

loop_
_atom_site_label
_atom_site_type_symbol
_atom_site_fract_x
_atom_site_fract_y
_atom_site_fract_z
Zn11	Zn1	0.491260	0.606390	0.279470
Zn21	Zn2	0.842070	0.393610	0.673080
Zn31	Zn3	0.175400	0.279470	0.606390
Zn41	Zn4	0.508740	0.326920	0.720530
Zn51	Zn5	0.157930	0.720530	0.326920
Zn61	Zn6	0.824600	0.673080	0.393610
H11	H1	0.967500	0.629900	0.791500
H21	H2	0.224770	0.291500	0.852200
H31	H3	0.792870	0.511200	0.393000
H41	H4	0.011900	0.446200	0.452900
H51	H5	0.699170	0.791500	0.629900
H61	H6	0.251230	0.331400	0.265000
H71	H7	0.297130	0.292800	0.404100
H81	H8	0.850400	0.843400	0.165200
H91	H9	0.115570	0.247400	0.883000
H101	H10	0.082100	0.668600	0.933600
H111	H11	0.873800	0.393000	0.511200
H121	H12	0.540470	0.488800	0.881800
H131	H13	0.782230	0.117000	0.364400
H141	H14	0.032500	0.838400	0.208500
H151	H15	0.115170	0.149600	0.752900
H161	H16	0.652000	0.622600	0.780500
H171	H17	0.133200	0.763800	0.093800
H181	H18	0.207130	0.118200	0.607000
H191	H19	0.917900	0.735000	0.066400
H201	H20	0.891430	0.147800	0.439300
H211	H21	0.654770	0.452900	0.446200
H221	H22	0.108570	0.708500	0.560700
H231	H23	0.415430	0.265000	0.331400
H241	H24	0.884430	0.364400	0.117000
H251	H25	0.448900	0.635600	0.752600
H261	H26	0.881270	0.274300	0.741600
H271	H27	0.816270	0.165200	0.843400
H281	H28	0.799870	0.906200	0.670000
H291	H29	0.136030	0.542800	0.453000
H301	H30	0.533470	0.093800	0.763800
H311	H31	0.469370	0.910200	0.457200
H321	H32	0.014670	0.780500	0.622600
H331	H33	0.217770	0.752600	0.635600
H341	H34	0.630470	0.111300	0.707200
H351	H35	0.533400	0.739100	0.215300
H361	H36	0.681330	0.377400	0.157900
H371	H37	0.345230	0.006700	0.553800
H381	H38	0.748770	0.066400	0.735000
H391	H39	0.466600	0.523800	0.784700
H401	H40	0.214600	0.467300	0.725700
H411	H41	0.558100	0.560700	0.708500
H421	H42	0.452070	0.725700	0.467300
H431	H43	0.482930	0.156600	0.321800
H441	H44	0.218170	0.850400	0.603300
H451	H45	0.866730	0.476200	0.260900
H461	H46	0.551100	0.883000	0.247400
H471	H47	0.441900	0.852200	0.291500
H481	H48	0.321430	0.553800	0.006700
H491	H49	0.884830	0.396700	0.247100
H501	H50	0.988100	0.993300	0.547100
H511	H51	0.785400	0.741600	0.274300
H521	H52	0.365830	0.370100	0.161600
H531	H53	0.866800	0.670000	0.906200
H541	H54	0.149600	0.678200	0.834800
H551	H55	0.678570	0.547100	0.993300
H561	H56	0.702870	0.888700	0.595900
H571	H57	0.584570	0.933600	0.668600
H581	H58	0.781830	0.247100	0.396700
H591	H59	0.126200	0.881800	0.488800
H601	H60	0.133270	0.215300	0.739100
H611	H61	0.517070	0.834800	0.678200
H621	H62	0.963800	0.595900	0.888700
H631	H63	0.802700	0.547000	0.089800
H641	H64	0.530630	0.453000	0.542800
H651	H65	0.197300	0.457200	0.910200
H661	H66	0.634170	0.208500	0.838400
H671	H67	0.369530	0.404100	0.292800
H681	H68	0.200070	0.784700	0.523800
H691	H69	0.348000	0.842100	0.219500
H701	H70	0.547930	0.258400	0.532700
H711	H71	0.118730	0.532700	0.258400
H721	H72	0.183730	0.321800	0.156600
H731	H73	0.551500	0.752900	0.149600
H741	H74	0.448500	0.603300	0.850400
H751	H75	0.036200	0.707200	0.111300
H761	H76	0.459530	0.607000	0.118200
H771	H77	0.799930	0.260900	0.476200
H781	H78	0.200130	0.236200	0.330000
H791	H79	0.863970	0.089800	0.547000
H801	H80	0.318670	0.219500	0.842100
H811	H81	0.300830	0.161600	0.370100
H821	H82	0.466530	0.330000	0.236200
H831	H83	0.775230	0.439300	0.147800
H841	H84	0.985330	0.157900	0.377400
C11	C1	0.655670	0.105200	0.748300
C21	C2	0.803330	0.399600	0.156000
C31	C3	0.470000	0.844000	0.243600
C41	C4	0.408830	0.189100	0.365200
C51	C5	0.742170	0.176100	0.810900
C61	C6	0.212030	0.613800	0.174400
C71	C7	0.377130	0.490600	0.455100
C81	C8	0.536070	0.743300	0.507400
C91	C9	0.730470	0.095800	0.560200
C101	C10	0.043800	0.544900	0.035500
C111	C11	0.342230	0.113200	0.596200
C121	C12	0.454630	0.174400	0.613800
C131	C13	0.451930	0.395000	0.617900
C141	C14	0.863330	0.156000	0.399600
C151	C15	0.257830	0.365200	0.189100
C161	C16	0.754030	0.226700	0.427600
C171	C17	0.202730	0.492600	0.235900
C181	C18	0.622870	0.035500	0.544900
C191	C19	0.463930	0.235900	0.492600
C201	C20	0.347630	0.570900	0.406000
C211	C21	0.087370	0.200900	0.773300
C221	C22	0.319030	0.406000	0.570900
C231	C23	0.602870	0.904200	0.464400
C241	C24	0.121300	0.386200	0.560600
C251	C25	0.989000	0.643100	0.894800
C261	C26	0.548070	0.777100	0.382100
C271	C27	0.242230	0.563800	0.046500
C281	C28	0.289530	0.455100	0.490600
C291	C29	0.245970	0.799100	0.572400
C301	C30	0.675570	0.483000	0.886800
C311	C31	0.908900	0.953500	0.517300
C321	C32	0.924500	0.810900	0.176100
C331	C33	0.091100	0.436200	0.482700
C341	C34	0.881400	0.605000	0.222900
C351	C35	0.196670	0.243600	0.844000
C361	C36	0.269530	0.535600	0.439800
C371	C37	0.579300	0.773300	0.200900
C381	C38	0.575570	0.482700	0.436200
C391	C39	0.787970	0.439400	0.825600
C401	C40	0.652370	0.164900	0.594000
C411	C41	0.680970	0.835100	0.429100
C421	C42	0.912630	0.427600	0.226700
C431	C43	0.878700	0.825600	0.439400
C441	C44	0.757770	0.517300	0.953500
C451	C45	0.063800	0.464400	0.904200
C461	C46	0.591170	0.823900	0.634800
C471	C47	0.420700	0.572400	0.799100
C481	C48	0.397130	0.439800	0.535600
C491	C49	0.657770	0.517000	0.403800
C501	C50	0.530000	0.600400	0.756400
C511	C51	0.545370	0.560600	0.386200
C521	C52	0.869400	0.764100	0.256700
C531	C53	0.214730	0.617900	0.395000
C541	C54	0.797270	0.256700	0.764100
C551	C55	0.991100	0.886800	0.483000
C561	C56	0.008900	0.403800	0.517000
C571	C57	0.322330	0.251700	0.356900
C581	C58	0.011000	0.748300	0.105200
C591	C59	0.424430	0.046500	0.563800
C601	C60	0.985700	0.429100	0.835100
C611	C61	0.324430	0.596200	0.113200
C621	C62	0.344330	0.356900	0.251700
C631	C63	0.785270	0.222900	0.605000
C641	C64	0.075500	0.634800	0.823900
C651	C65	0.956200	0.509400	0.964500
C661	C66	0.118600	0.382100	0.777100
C671	C67	0.677670	0.894800	0.643100
C681	C68	0.014300	0.594000	0.164900
C691	C69	0.136670	0.756400	0.600400
C701	C70	0.710470	0.964500	0.509400
C711	C71	0.130600	0.507400	0.743300
C721	C72	0.936200	0.560200	0.095800
N11	N1	0.874370	0.213200	0.784100
N21	N2	0.458970	0.786800	0.570900
N31	N3	0.792300	0.784100	0.213200
N41	N4	0.541030	0.215900	0.429100
N51	N5	0.207700	0.570900	0.786800
N61	N6	0.125630	0.429100	0.215900
O11	O1	0.722070	0.286210	0.636280
O21	O2	0.364330	0.238250	0.649000
O31	O3	0.295430	0.227700	0.503640
O41	O4	0.626200	0.417930	0.625310
O51	O5	0.962100	0.496360	0.724060
O61	O6	0.611270	0.713790	0.350070
O71	O7	0.944600	0.636280	0.286210
O81	O8	0.031000	0.351000	0.589250
O91	O9	0.628770	0.275940	0.772300
O101	O10	0.704570	0.724060	0.496360
O111	O11	0.037900	0.772300	0.275940
O121	O12	0.959530	0.207380	0.582070
O131	O13	0.635670	0.589250	0.351000
O141	O14	0.055400	0.350070	0.713790
O151	O15	0.388730	0.363720	0.649930
O161	O16	0.277930	0.649930	0.363720
O171	O17	0.707130	0.582070	0.207380
O181	O18	0.040470	0.625310	0.417930
O191	O19	0.371230	0.503640	0.227700
O201	O20	0.302330	0.649000	0.238250
O211	O21	0.373800	0.792620	0.374690
O221	O22	0.969000	0.761750	0.410750
O231	O23	0.292870	0.374690	0.792620
O241	O24	0.697670	0.410750	0.761750
