data_ja305196u_si_002_freeONLY_PM
_symmetry_space_group_name_H-M	'P1'
_cell_length_a	7.304100
_cell_length_b	7.304100
_cell_length_c	8.164000
_cell_angle_alpha	90.000000
_cell_angle_beta	90.000000
_cell_angle_gamma	120.000000
_symmetry_Int_Tables_number 1

loop_
_symmetry_equiv_pos_as_xyz
'x,y,z'

loop_
_atom_site_label
_atom_site_type_symbol
_atom_site_fract_x
_atom_site_fract_y
_atom_site_fract_z
Zn11	Zn1	0.666670	0.333340	0.750000
Zn21	Zn2	0.333330	0.666660	0.250000
H11	H1	0.000000	0.565400	0.000000
H21	H2	0.000000	0.434600	0.500000
H31	H3	0.565400	0.000000	0.000000
H41	H4	0.434600	0.434600	0.000000
H51	H5	0.565400	0.565400	0.500000
H61	H6	0.434600	0.000000	0.500000
C11	C1	0.000000	0.437900	0.000000
C21	C2	0.000000	0.562100	0.500000
C31	C3	0.562100	0.000000	0.500000
C41	C4	0.562100	0.562100	0.000000
C51	C5	0.437900	0.000000	0.000000
C61	C6	0.437900	0.437900	0.500000
O11	O1	0.695000	0.110900	0.604800
O21	O2	0.415900	0.110900	0.895200
O31	O3	0.584100	0.695000	0.104800
O41	O4	0.584100	0.889100	0.395200
O51	O5	0.415900	0.305000	0.604800
O61	O6	0.110900	0.695000	0.395200
O71	O7	0.305000	0.889100	0.104800
O81	O8	0.889100	0.305000	0.895200
O91	O9	0.305000	0.415900	0.395200
O101	O10	0.110900	0.415900	0.104800
O111	O11	0.695000	0.584100	0.895200
O121	O12	0.889100	0.584100	0.604800
