data_ja406030p_si_008_manual_PM
_symmetry_space_group_name_H-M	'P1'
_cell_length_a	19.204000
_cell_length_b	19.204000
_cell_length_c	35.998000
_cell_angle_alpha	90.000000
_cell_angle_beta	90.000000
_cell_angle_gamma	120.000000
_symmetry_Int_Tables_number 1

loop_
_symmetry_equiv_pos_as_xyz
'x,y,z'

loop_
_atom_site_label
_atom_site_type_symbol
_atom_site_fract_x
_atom_site_fract_y
_atom_site_fract_z
H11	H1	0.602400	0.906300	0.909900
H21	H2	0.091200	0.445700	0.092600
H31	H3	0.203600	0.338200	0.864500
H41	H4	0.532900	0.674400	0.347700
C51	C5	0.897800	0.391200	0.604820
C61	C6	0.357480	0.455200	0.523620
C71	C7	0.734100	0.593800	0.422300
C81	C8	0.626600	0.132000	0.859370
C91	C9	0.846500	0.568300	0.040950
O101	O10	0.516490	0.630050	0.008550
O111	O11	0.457390	0.659090	0.289890
O121	O12	0.038400	0.594220	0.542580
H131	H13	0.093700	0.696100	0.909900
H141	H14	0.554300	0.645500	0.092600
H151	H15	0.661800	0.865400	0.864500
H161	H16	0.325600	0.858500	0.347700
C171	C17	0.608800	0.506600	0.604820
C181	C18	0.544800	0.902280	0.523620
C191	C19	0.406200	0.140300	0.422300
C201	C20	0.868000	0.494600	0.859370
C211	C21	0.431700	0.278200	0.040950
O221	O22	0.369950	0.886440	0.008550
O231	O23	0.340910	0.798300	0.289890
O241	O24	0.405780	0.444180	0.542580
H251	H25	0.303900	0.397600	0.909900
H261	H26	0.354500	0.908800	0.092600
H271	H27	0.134600	0.796400	0.864500
H281	H28	0.141500	0.467100	0.347700
C291	C29	0.493400	0.102200	0.604820
C301	C30	0.097720	0.642520	0.523620
C311	C31	0.859700	0.265900	0.422300
C321	C32	0.505400	0.373400	0.859370
C331	C33	0.721800	0.153500	0.040950
O341	O34	0.113560	0.483510	0.008550
O351	O35	0.201700	0.542610	0.289890
O361	O36	0.555820	0.961600	0.542580
H371	H37	0.397600	0.093700	0.409900
H381	H38	0.908800	0.554300	0.592600
H391	H39	0.796400	0.661800	0.364500
H401	H40	0.467100	0.325600	0.847700
C411	C41	0.102200	0.608800	0.104820
C421	C42	0.642520	0.544800	0.023620
C431	C43	0.265900	0.406200	0.922300
C441	C44	0.373400	0.868000	0.359370
C451	C45	0.153500	0.431700	0.540950
O461	O46	0.483510	0.369950	0.508550
O471	O47	0.542610	0.340910	0.789890
O481	O48	0.961600	0.405780	0.042580
H491	H49	0.906300	0.303900	0.409900
H501	H50	0.445700	0.354500	0.592600
H511	H51	0.338200	0.134600	0.364500
H521	H52	0.674400	0.141500	0.847700
C531	C53	0.391200	0.493400	0.104820
C541	C54	0.455200	0.097720	0.023620
C551	C55	0.593800	0.859700	0.922300
C561	C56	0.132000	0.505400	0.359370
C571	C57	0.568300	0.721800	0.540950
O581	O58	0.630050	0.113560	0.508550
O591	O59	0.659090	0.201700	0.789890
O601	O60	0.594220	0.555820	0.042580
H611	H61	0.696100	0.602400	0.409900
H621	H62	0.645500	0.091200	0.592600
H631	H63	0.865400	0.203600	0.364500
H641	H64	0.858500	0.532900	0.847700
C651	C65	0.506600	0.897800	0.104820
C661	C66	0.902280	0.357480	0.023620
C671	C67	0.140300	0.734100	0.922300
C681	C68	0.494600	0.626600	0.359370
C691	C69	0.278200	0.846500	0.540950
O701	O70	0.886440	0.516490	0.508550
O711	O71	0.798300	0.457390	0.789890
O721	O72	0.444180	0.038400	0.042580
H731	H73	0.906300	0.602400	0.090100
H741	H74	0.445700	0.091200	0.907400
H751	H75	0.338200	0.203600	0.135500
H761	H76	0.674400	0.532900	0.652300
C771	C77	0.391200	0.897800	0.395180
C781	C78	0.455200	0.357480	0.476380
C791	C79	0.593800	0.734100	0.577700
C801	C80	0.132000	0.626600	0.140630
C811	C81	0.568300	0.846500	0.959050
O821	O82	0.630050	0.516490	0.991450
O831	O83	0.659090	0.457390	0.710110
O841	O84	0.594220	0.038400	0.457420
H851	H85	0.696100	0.093700	0.090100
H861	H86	0.645500	0.554300	0.907400
H871	H87	0.865400	0.661800	0.135500
H881	H88	0.858500	0.325600	0.652300
C891	C89	0.506600	0.608800	0.395180
C901	C90	0.902280	0.544800	0.476380
C911	C91	0.140300	0.406200	0.577700
C921	C92	0.494600	0.868000	0.140630
C931	C93	0.278200	0.431700	0.959050
O941	O94	0.886440	0.369950	0.991450
O951	O95	0.798300	0.340910	0.710110
O961	O96	0.444180	0.405780	0.457420
H971	H97	0.397600	0.303900	0.090100
H981	H98	0.908800	0.354500	0.907400
H991	H99	0.796400	0.134600	0.135500
H1001	H100	0.467100	0.141500	0.652300
C1011	C101	0.102200	0.493400	0.395180
C1021	C102	0.642520	0.097720	0.476380
C1031	C103	0.265900	0.859700	0.577700
C1041	C104	0.373400	0.505400	0.140630
C1051	C105	0.153500	0.721800	0.959050
O1061	O106	0.483510	0.113560	0.991450
O1071	O107	0.542610	0.201700	0.710110
O1081	O108	0.961600	0.555820	0.457420
H1091	H109	0.093700	0.397600	0.590100
H1101	H110	0.554300	0.908800	0.407400
H1111	H111	0.661800	0.796400	0.635500
H1121	H112	0.325600	0.467100	0.152300
C1131	C113	0.608800	0.102200	0.895180
C1141	C114	0.544800	0.642520	0.976380
C1151	C115	0.406200	0.265900	0.077700
C1161	C116	0.868000	0.373400	0.640630
C1171	C117	0.431700	0.153500	0.459050
O1181	O118	0.369950	0.483510	0.491450
O1191	O119	0.340910	0.542610	0.210110
O1201	O120	0.405780	0.961600	0.957420
H1211	H121	0.303900	0.906300	0.590100
H1221	H122	0.354500	0.445700	0.407400
H1231	H123	0.134600	0.338200	0.635500
H1241	H124	0.141500	0.674400	0.152300
C1251	C125	0.493400	0.391200	0.895180
C1261	C126	0.097720	0.455200	0.976380
C1271	C127	0.859700	0.593800	0.077700
C1281	C128	0.505400	0.132000	0.640630
C1291	C129	0.721800	0.568300	0.459050
O1301	O130	0.113560	0.630050	0.491450
O1311	O131	0.201700	0.659090	0.210110
O1321	O132	0.555820	0.594220	0.957420
H1331	H133	0.602400	0.696100	0.590100
H1341	H134	0.091200	0.645500	0.407400
H1351	H135	0.203600	0.865400	0.635500
H1361	H136	0.532900	0.858500	0.152300
C1371	C137	0.897800	0.506600	0.895180
C1381	C138	0.357480	0.902280	0.976380
C1391	C139	0.734100	0.140300	0.077700
C1401	C140	0.626600	0.494600	0.640630
C1411	C141	0.846500	0.278200	0.459050
O1421	O142	0.516490	0.886440	0.491450
O1431	O143	0.457390	0.798300	0.210110
O1441	O144	0.038400	0.444180	0.957420
H1451	H145	0.397600	0.093700	0.090100
H1461	H146	0.908800	0.554300	0.907400
H1471	H147	0.796400	0.661800	0.135500
H1481	H148	0.467100	0.325600	0.652300
C1491	C149	0.102200	0.608800	0.395180
C1501	C150	0.642520	0.544800	0.476380
C1511	C151	0.265900	0.406200	0.577700
C1521	C152	0.373400	0.868000	0.140630
C1531	C153	0.153500	0.431700	0.959050
O1541	O154	0.483510	0.369950	0.991450
O1551	O155	0.542610	0.340910	0.710110
O1561	O156	0.961600	0.405780	0.457420
H1571	H157	0.906300	0.303900	0.090100
H1581	H158	0.445700	0.354500	0.907400
H1591	H159	0.338200	0.134600	0.135500
H1601	H160	0.674400	0.141500	0.652300
C1611	C161	0.391200	0.493400	0.395180
C1621	C162	0.455200	0.097720	0.476380
C1631	C163	0.593800	0.859700	0.577700
C1641	C164	0.132000	0.505400	0.140630
C1651	C165	0.568300	0.721800	0.959050
O1661	O166	0.630050	0.113560	0.991450
O1671	O167	0.659090	0.201700	0.710110
O1681	O168	0.594220	0.555820	0.457420
H1691	H169	0.696100	0.602400	0.090100
H1701	H170	0.645500	0.091200	0.907400
H1711	H171	0.865400	0.203600	0.135500
H1721	H172	0.858500	0.532900	0.652300
C1731	C173	0.506600	0.897800	0.395180
C1741	C174	0.902280	0.357480	0.476380
C1751	C175	0.140300	0.734100	0.577700
C1761	C176	0.494600	0.626600	0.140630
C1771	C177	0.278200	0.846500	0.959050
O1781	O178	0.886440	0.516490	0.991450
O1791	O179	0.798300	0.457390	0.710110
O1801	O180	0.444180	0.038400	0.457420
H1811	H181	0.602400	0.906300	0.590100
H1821	H182	0.091200	0.445700	0.407400
H1831	H183	0.203600	0.338200	0.635500
H1841	H184	0.532900	0.674400	0.152300
C1851	C185	0.897800	0.391200	0.895180
C1861	C186	0.357480	0.455200	0.976380
C1871	C187	0.734100	0.593800	0.077700
C1881	C188	0.626600	0.132000	0.640630
C1891	C189	0.846500	0.568300	0.459050
O1901	O190	0.516490	0.630050	0.491450
O1911	O191	0.457390	0.659090	0.210110
O1921	O192	0.038400	0.594220	0.957420
H1931	H193	0.093700	0.696100	0.590100
H1941	H194	0.554300	0.645500	0.407400
H1951	H195	0.661800	0.865400	0.635500
H1961	H196	0.325600	0.858500	0.152300
C1971	C197	0.608800	0.506600	0.895180
C1981	C198	0.544800	0.902280	0.976380
C1991	C199	0.406200	0.140300	0.077700
C2001	C200	0.868000	0.494600	0.640630
C2011	C201	0.431700	0.278200	0.459050
O2021	O202	0.369950	0.886440	0.491450
O2031	O203	0.340910	0.798300	0.210110
O2041	O204	0.405780	0.444180	0.957420
H2051	H205	0.303900	0.397600	0.590100
H2061	H206	0.354500	0.908800	0.407400
H2071	H207	0.134600	0.796400	0.635500
H2081	H208	0.141500	0.467100	0.152300
C2091	C209	0.493400	0.102200	0.895180
C2101	C210	0.097720	0.642520	0.976380
C2111	C211	0.859700	0.265900	0.077700
C2121	C212	0.505400	0.373400	0.640630
C2131	C213	0.721800	0.153500	0.459050
O2141	O214	0.113560	0.483510	0.491450
O2151	O215	0.201700	0.542610	0.210110
O2161	O216	0.555820	0.961600	0.957420
H2171	H217	0.093700	0.397600	0.909900
H2181	H218	0.554300	0.908800	0.092600
H2191	H219	0.661800	0.796400	0.864500
H2201	H220	0.325600	0.467100	0.347700
C2211	C221	0.608800	0.102200	0.604820
C2221	C222	0.544800	0.642520	0.523620
C2231	C223	0.406200	0.265900	0.422300
C2241	C224	0.868000	0.373400	0.859370
C2251	C225	0.431700	0.153500	0.040950
O2261	O226	0.369950	0.483510	0.008550
O2271	O227	0.340910	0.542610	0.289890
O2281	O228	0.405780	0.961600	0.542580
H2291	H229	0.303900	0.906300	0.909900
H2301	H230	0.354500	0.445700	0.092600
H2311	H231	0.134600	0.338200	0.864500
H2321	H232	0.141500	0.674400	0.347700
C2331	C233	0.493400	0.391200	0.604820
C2341	C234	0.097720	0.455200	0.523620
C2351	C235	0.859700	0.593800	0.422300
C2361	C236	0.505400	0.132000	0.859370
C2371	C237	0.721800	0.568300	0.040950
O2381	O238	0.113560	0.630050	0.008550
O2391	O239	0.201700	0.659090	0.289890
O2401	O240	0.555820	0.594220	0.542580
H2411	H241	0.602400	0.696100	0.909900
H2421	H242	0.091200	0.645500	0.092600
H2431	H243	0.203600	0.865400	0.864500
H2441	H244	0.532900	0.858500	0.347700
C2451	C245	0.897800	0.506600	0.604820
C2461	C246	0.357480	0.902280	0.523620
C2471	C247	0.734100	0.140300	0.422300
C2481	C248	0.626600	0.494600	0.859370
C2491	C249	0.846500	0.278200	0.040950
O2501	O250	0.516490	0.886440	0.008550
O2511	O251	0.457390	0.798300	0.289890
O2521	O252	0.038400	0.444180	0.542580
H2531	H253	0.906300	0.602400	0.409900
H2541	H254	0.445700	0.091200	0.592600
H2551	H255	0.338200	0.203600	0.364500
H2561	H256	0.674400	0.532900	0.847700
C2571	C257	0.391200	0.897800	0.104820
C2581	C258	0.455200	0.357480	0.023620
C2591	C259	0.593800	0.734100	0.922300
C2601	C260	0.132000	0.626600	0.359370
C2611	C261	0.568300	0.846500	0.540950
O2621	O262	0.630050	0.516490	0.508550
O2631	O263	0.659090	0.457390	0.789890
O2641	O264	0.594220	0.038400	0.042580
H2651	H265	0.696100	0.093700	0.409900
H2661	H266	0.645500	0.554300	0.592600
H2671	H267	0.865400	0.661800	0.364500
H2681	H268	0.858500	0.325600	0.847700
C2691	C269	0.506600	0.608800	0.104820
C2701	C270	0.902280	0.544800	0.023620
C2711	C271	0.140300	0.406200	0.922300
C2721	C272	0.494600	0.868000	0.359370
C2731	C273	0.278200	0.431700	0.540950
O2741	O274	0.886440	0.369950	0.508550
O2751	O275	0.798300	0.340910	0.789890
O2761	O276	0.444180	0.405780	0.042580
H2771	H277	0.397600	0.303900	0.409900
H2781	H278	0.908800	0.354500	0.592600
H2791	H279	0.796400	0.134600	0.364500
H2801	H280	0.467100	0.141500	0.847700
C2811	C281	0.102200	0.493400	0.104820
C2821	C282	0.642520	0.097720	0.023620
C2831	C283	0.265900	0.859700	0.922300
C2841	C284	0.373400	0.505400	0.359370
C2851	C285	0.153500	0.721800	0.540950
O2861	O286	0.483510	0.113560	0.508550
O2871	O287	0.542610	0.201700	0.789890
O2881	O288	0.961600	0.555820	0.042580
Zn2891	Zn289	0.953770	0.476890	0.965650
H2901	H290	0.476100	0.238050	0.000400
C2911	C291	0.813280	0.406640	0.696340
Zn2921	Zn292	0.523110	0.476890	0.965650
H2931	H293	0.761950	0.238050	0.000400
C2941	C294	0.593360	0.406640	0.696340
Zn2951	Zn295	0.523110	0.046230	0.965650
H2961	H296	0.761950	0.523900	0.000400
C2971	C297	0.593360	0.186720	0.696340
Zn2981	Zn298	0.046230	0.523110	0.465650
H2991	H299	0.523900	0.761950	0.500400
C3001	C300	0.186720	0.593360	0.196340
Zn3011	Zn301	0.476890	0.523110	0.465650
H3021	H302	0.238050	0.761950	0.500400
C3031	C303	0.406640	0.593360	0.196340
Zn3041	Zn304	0.476890	0.953770	0.465650
H3051	H305	0.238050	0.476100	0.500400
C3061	C306	0.406640	0.813280	0.196340
Zn3071	Zn307	0.476890	0.953770	0.034350
H3081	H308	0.238050	0.476100	0.999600
C3091	C309	0.406640	0.813280	0.303660
Zn3101	Zn310	0.476890	0.523110	0.034350
H3111	H311	0.238050	0.761950	0.999600
C3121	C312	0.406640	0.593360	0.303660
Zn3131	Zn313	0.046230	0.523110	0.034350
H3141	H314	0.523900	0.761950	0.999600
C3151	C315	0.186720	0.593360	0.303660
Zn3161	Zn316	0.523110	0.046230	0.534350
H3171	H317	0.761950	0.523900	0.499600
C3181	C318	0.593360	0.186720	0.803660
Zn3191	Zn319	0.523110	0.476890	0.534350
H3201	H320	0.761950	0.238050	0.499600
C3211	C321	0.593360	0.406640	0.803660
Zn3221	Zn322	0.953770	0.476890	0.534350
H3231	H323	0.476100	0.238050	0.499600
C3241	C324	0.813280	0.406640	0.803660
Cr3251	Cr325	0.275830	0.724170	0.250000
Cr3261	Cr326	0.275830	0.551660	0.250000
Cr3271	Cr327	0.448340	0.724170	0.250000
Cr3281	Cr328	0.724170	0.275830	0.750000
Cr3291	Cr329	0.724170	0.448340	0.750000
Cr3301	Cr330	0.551660	0.275830	0.750000
C3311	C331	0.573570	0.147140	0.658540
O3321	O332	0.816350	0.632700	0.131900
C3331	C333	0.852860	0.426430	0.658540
O3341	O334	0.367300	0.183650	0.131900
C3351	C335	0.573570	0.426430	0.658540
O3361	O336	0.816350	0.183650	0.131900
C3371	C337	0.426430	0.852860	0.158540
O3381	O338	0.183650	0.367300	0.631900
C3391	C339	0.147140	0.573570	0.158540
O3401	O340	0.632700	0.816350	0.631900
C3411	C341	0.426430	0.573570	0.158540
O3421	O342	0.183650	0.816350	0.631900
C3431	C343	0.147140	0.573570	0.341460
O3441	O344	0.632700	0.816350	0.868100
C3451	C345	0.426430	0.852860	0.341460
O3461	O346	0.183650	0.367300	0.868100
C3471	C347	0.426430	0.573570	0.341460
O3481	O348	0.183650	0.816350	0.868100
C3491	C349	0.852860	0.426430	0.841460
O3501	O350	0.367300	0.183650	0.368100
C3511	C351	0.573570	0.147140	0.841460
O3521	O352	0.816350	0.632700	0.368100
C3531	C353	0.573570	0.426430	0.841460
O3541	O354	0.816350	0.183650	0.368100
C3551	C355	0.225300	0.450600	0.523730
N3561	N356	0.455800	0.911600	0.087140
C3571	C357	0.549400	0.774700	0.523730
N3581	N358	0.088400	0.544200	0.087140
C3591	C359	0.225300	0.774700	0.523730
N3601	N360	0.455800	0.544200	0.087140
C3611	C361	0.774700	0.549400	0.023730
N3621	N362	0.544200	0.088400	0.587140
C3631	C363	0.450600	0.225300	0.023730
N3641	N364	0.911600	0.455800	0.587140
C3651	C365	0.774700	0.225300	0.023730
N3661	N366	0.544200	0.455800	0.587140
C3671	C367	0.450600	0.225300	0.476270
N3681	N368	0.911600	0.455800	0.912860
C3691	C369	0.774700	0.549400	0.476270
N3701	N370	0.544200	0.088400	0.912860
C3711	C371	0.774700	0.225300	0.476270
N3721	N372	0.544200	0.455800	0.912860
C3731	C373	0.549400	0.774700	0.976270
N3741	N374	0.088400	0.544200	0.412860
C3751	C375	0.225300	0.450600	0.976270
N3761	N376	0.455800	0.911600	0.412860
C3771	C377	0.225300	0.774700	0.976270
N3781	N378	0.455800	0.544200	0.412860
C3791	C379	0.803200	0.196800	0.095800
C3801	C380	0.803200	0.606400	0.095800
C3811	C381	0.393600	0.196800	0.095800
C3821	C382	0.196800	0.803200	0.595800
C3831	C383	0.196800	0.393600	0.595800
C3841	C384	0.606400	0.803200	0.595800
C3851	C385	0.196800	0.803200	0.904200
C3861	C386	0.606400	0.803200	0.904200
C3871	C387	0.196800	0.393600	0.904200
C3881	C388	0.803200	0.196800	0.404200
C3891	C389	0.393600	0.196800	0.404200
C3901	C390	0.803200	0.606400	0.404200
O3911	O391	0.333330	0.666670	0.250000
O3921	O392	0.666670	0.333330	0.750000
