data_ja403810k_si_002_freeONLY_PM
_symmetry_space_group_name_H-M	'P1'
_cell_length_a	53.727500
_cell_length_b	53.727400
_cell_length_c	53.727400
_cell_angle_alpha	109.471000
_cell_angle_beta	109.471000
_cell_angle_gamma	109.471000
_symmetry_Int_Tables_number 1

loop_
_symmetry_equiv_pos_as_xyz
'x,y,z'

loop_
_atom_site_label
_atom_site_type_symbol
_atom_site_fract_x
_atom_site_fract_y
_atom_site_fract_z
Zn11	Zn1	0.345070	0.650740	0.053980
Zn21	Zn2	0.053980	0.903240	0.208910
Zn31	Zn3	0.305670	0.708910	0.154930
Zn41	Zn4	0.708910	0.053980	0.403240
Zn51	Zn5	0.208910	0.403240	0.053980
Zn61	Zn6	0.238960	0.424510	0.208600
Zn71	Zn7	0.903240	0.708910	0.553980
Zn81	Zn8	0.845070	0.791090	0.694330
Zn91	Zn9	0.075490	0.814450	0.284090
Zn101	Zn10	0.596760	0.446020	0.291090
Zn111	Zn11	0.715910	0.685550	0.924510
Zn121	Zn12	0.349260	0.903240	0.694330
Zn131	Zn13	0.215910	0.291400	0.030360
Zn141	Zn14	0.784090	0.075490	0.314450
Zn151	Zn15	0.946020	0.096760	0.791090
Zn161	Zn16	0.738960	0.208600	0.424510
Zn171	Zn17	0.708600	0.238960	0.924510
Zn181	Zn18	0.805670	0.154930	0.708910
Zn191	Zn19	0.030360	0.791400	0.215910
Zn201	Zn20	0.849260	0.154930	0.446020
Zn211	Zn21	0.291400	0.530360	0.715910
Zn221	Zn22	0.738960	0.530360	0.814450
Zn231	Zn23	0.150740	0.305670	0.096760
Zn241	Zn24	0.208910	0.805670	0.654930
Zn251	Zn25	0.924510	0.738960	0.708600
Zn261	Zn26	0.053980	0.150740	0.345070
Zn271	Zn27	0.969640	0.761040	0.685550
Zn281	Zn28	0.694330	0.291090	0.845070
Zn291	Zn29	0.469640	0.784090	0.208600
Zn301	Zn30	0.424510	0.708600	0.738960
Zn311	Zn31	0.650740	0.096760	0.305670
Zn321	Zn32	0.575490	0.284090	0.814450
Zn331	Zn33	0.424510	0.715910	0.185550
Zn341	Zn34	0.291090	0.345070	0.194330
Zn351	Zn35	0.284090	0.969640	0.708600
Zn361	Zn36	0.185550	0.969640	0.261040
Zn371	Zn37	0.208600	0.924510	0.238960
Zn381	Zn38	0.349260	0.446020	0.154930
Zn391	Zn39	0.215910	0.924510	0.685550
Zn401	Zn40	0.694330	0.403240	0.349260
Zn411	Zn41	0.791400	0.715910	0.530360
Zn421	Zn42	0.154930	0.946020	0.349260
Zn431	Zn43	0.403240	0.849260	0.194330
Zn441	Zn44	0.708600	0.469640	0.284090
Zn451	Zn45	0.150740	0.845070	0.553980
Zn461	Zn46	0.903240	0.194330	0.849260
Zn471	Zn47	0.791090	0.194330	0.345070
Zn481	Zn48	0.291400	0.761040	0.075490
Zn491	Zn49	0.650740	0.553980	0.845070
Zn501	Zn50	0.708910	0.654930	0.805670
Zn511	Zn51	0.575490	0.291400	0.261040
Zn521	Zn52	0.814450	0.030360	0.738960
Zn531	Zn53	0.805670	0.650740	0.596760
Zn541	Zn54	0.469640	0.685550	0.761040
Zn551	Zn55	0.814450	0.784090	0.575490
Zn561	Zn56	0.446020	0.791090	0.096760
Zn571	Zn57	0.685550	0.424510	0.215910
Zn581	Zn58	0.030360	0.238960	0.314450
Zn591	Zn59	0.715910	0.030360	0.291400
Zn601	Zn60	0.096760	0.805670	0.150740
Zn611	Zn61	0.261040	0.469640	0.185550
Zn621	Zn62	0.849260	0.694330	0.903240
Zn631	Zn63	0.553980	0.208910	0.903240
Zn641	Zn64	0.194330	0.349260	0.403240
Zn651	Zn65	0.791400	0.075490	0.761040
Zn661	Zn66	0.305670	0.596760	0.650740
Zn671	Zn67	0.761040	0.185550	0.469640
Zn681	Zn68	0.314450	0.575490	0.784090
Zn691	Zn69	0.096760	0.291090	0.446020
Zn701	Zn70	0.446020	0.654930	0.849260
Zn711	Zn71	0.685550	0.261040	0.969640
Zn721	Zn72	0.654930	0.349260	0.946020
Zn731	Zn73	0.185550	0.215910	0.424510
Zn741	Zn74	0.969640	0.208600	0.784090
Zn751	Zn75	0.154930	0.208910	0.305670
Zn761	Zn76	0.553980	0.345070	0.150740
Zn771	Zn77	0.784090	0.708600	0.969640
Zn781	Zn78	0.654930	0.305670	0.208910
Zn791	Zn79	0.791090	0.596760	0.946020
Zn801	Zn80	0.208600	0.284090	0.469640
Zn811	Zn81	0.530360	0.314450	0.238960
Zn821	Zn82	0.261040	0.791400	0.575490
Zn831	Zn83	0.403240	0.553980	0.708910
Zn841	Zn84	0.946020	0.849260	0.654930
Zn851	Zn85	0.530360	0.215910	0.791400
Zn861	Zn86	0.345070	0.694330	0.791090
Zn871	Zn87	0.291090	0.946020	0.596760
Zn881	Zn88	0.845070	0.053980	0.650740
Zn891	Zn89	0.596760	0.150740	0.805670
Zn901	Zn90	0.761040	0.575490	0.791400
Zn911	Zn91	0.238960	0.814450	0.530360
Zn921	Zn92	0.194330	0.845070	0.291090
Zn931	Zn93	0.284090	0.314450	0.075490
Zn941	Zn94	0.075490	0.261040	0.291400
Zn951	Zn95	0.924510	0.185550	0.715910
Zn961	Zn96	0.314450	0.738960	0.030360
H11	H1	0.218400	0.284500	0.201300
H21	H2	0.287500	0.635300	0.577200
H31	H3	0.679100	0.485800	0.940300
H41	H4	0.475500	0.674500	0.814800
H51	H5	0.710300	0.287500	0.152200
H61	H6	0.732600	0.116200	0.444800
H71	H7	0.720100	0.433000	0.792900
H81	H8	0.759100	0.609200	0.472300
H91	H9	0.131700	0.061800	0.331300
H101	H10	0.306700	0.820900	0.261200
H111	H11	0.715500	0.298700	0.281600
H121	H12	0.152200	0.364700	0.941900
H131	H13	0.310200	0.649600	0.693000
H141	H14	0.636900	0.350100	0.109200
H151	H15	0.956600	0.807000	0.617200
H161	H16	0.605100	0.713100	0.938600
H171	H17	0.806700	0.545500	0.485800
H181	H18	0.438600	0.833500	0.725500
H191	H19	0.427200	0.640100	0.207100
H201	H20	0.339300	0.814800	0.140300
H211	H21	0.441600	0.593600	0.774400
H221	H22	0.715500	0.416800	0.933900
H231	H23	0.725600	0.558400	0.906400
H241	H24	0.072800	0.792900	0.359900
H251	H25	0.061400	0.786900	0.394900
H261	H26	0.444800	0.828600	0.212200
H271	H27	0.135300	0.787500	0.077200
H281	H28	0.267400	0.383600	0.212200
H291	H29	0.783800	0.496800	0.937200
H301	H30	0.800400	0.131700	0.569900
H311	H31	0.559600	0.562800	0.846600
H321	H32	0.713000	0.153400	0.716200
H331	H33	0.058400	0.832800	0.152000
H341	H34	0.438600	0.605100	0.213100
H351	H35	0.713100	0.274500	0.108000
H361	H36	0.561400	0.394900	0.786900
H371	H37	0.806700	0.261200	0.820900
H381	H38	0.422800	0.864700	0.712500
H391	H39	0.892000	0.666500	0.105100
H401	H40	0.045500	0.738800	0.559700
H411	H41	0.818300	0.617100	0.477200
H421	H42	0.616200	0.232600	0.944800
H431	H43	0.543400	0.160600	0.850400
H441	H44	0.941900	0.077200	0.289700
H451	H45	0.859700	0.685200	0.660700
H461	H46	0.674500	0.314800	0.975500
H471	H47	0.583200	0.017100	0.298700
H481	H48	0.359900	0.292900	0.072800
H491	H49	0.890800	0.740900	0.027700
H501	H50	0.652000	0.593600	0.819200
H511	H51	0.022800	0.181700	0.882900
H521	H52	0.798700	0.583200	0.517100
H531	H53	0.792900	0.933000	0.720100
H541	H54	0.240900	0.850100	0.213200
H551	H55	0.438200	0.368300	0.168700
H561	H56	0.527700	0.636900	0.786800
H571	H57	0.864700	0.652200	0.441900
H581	H58	0.941900	0.864700	0.152200
H591	H59	0.712900	0.072800	0.779900
H601	H60	0.514200	0.954500	0.193300
H611	H61	0.890800	0.149900	0.363100
H621	H62	0.181700	0.382900	0.522800
H631	H63	0.066100	0.083200	0.284500
H641	H64	0.298800	0.617100	0.139900
H651	H65	0.131700	0.069900	0.300400
H661	H66	0.850100	0.713200	0.740900
H671	H67	0.561800	0.930100	0.230500
H681	H68	0.045500	0.306700	0.985800
H691	H69	0.712500	0.364700	0.422800
H701	H70	0.027700	0.240900	0.890800
H711	H71	0.433900	0.718400	0.017100
H721	H72	0.982900	0.201300	0.916800
H731	H73	0.382900	0.360100	0.201200
H741	H74	0.215500	0.933900	0.416800
H751	H75	0.667200	0.225600	0.819200
H761	H76	0.944800	0.212200	0.828600
H771	H77	0.738800	0.679100	0.693300
H781	H78	0.577200	0.441900	0.789700
H791	H79	0.117100	0.798800	0.639900
H801	H80	0.210300	0.058100	0.422800
H811	H81	0.383600	0.712200	0.767400
H821	H82	0.660600	0.617200	0.810200
H831	H83	0.831300	0.131700	0.561800
H841	H84	0.117200	0.160600	0.310200
H851	H85	0.174500	0.975500	0.314800
H861	H86	0.699600	0.269500	0.331300
H871	H87	0.485800	0.440300	0.179100
H881	H88	0.346600	0.787000	0.783800
H891	H89	0.774400	0.680800	0.832800
H901	H90	0.225600	0.319200	0.167200
H911	H91	0.640300	0.339300	0.314800
H921	H92	0.193000	0.310200	0.149600
H931	H93	0.220100	0.427200	0.287100
H941	H94	0.555200	0.171400	0.787800
H951	H95	0.543400	0.382800	0.193000
H961	H96	0.261200	0.940300	0.454500
H971	H97	0.566100	0.284500	0.083200
H981	H98	0.318300	0.841100	0.201200
H991	H99	0.922800	0.210300	0.558100
H1001	H100	0.066100	0.982900	0.281600
H1011	H101	0.274400	0.441600	0.093600
H1021	H102	0.740900	0.213200	0.850100
H1031	H103	0.440300	0.679100	0.985800
H1041	H104	0.864700	0.212500	0.922800
H1051	H105	0.617200	0.307000	0.956600
H1061	H106	0.820900	0.761200	0.806700
H1071	H107	0.517100	0.433900	0.218400
H1081	H108	0.524500	0.325500	0.185200
H1091	H109	0.933900	0.916800	0.715500
H1101	H110	0.814800	0.640300	0.839300
H1111	H111	0.693000	0.543400	0.882800
H1121	H112	0.567000	0.859900	0.287100
H1131	H113	0.140100	0.212900	0.933000
H1141	H114	0.093600	0.152000	0.319200
H1151	H115	0.938600	0.213100	0.605100
H1161	H116	0.105100	0.166500	0.892000
H1171	H117	0.406400	0.725600	0.058400
H1181	H118	0.789700	0.941900	0.577200
H1191	H119	0.332800	0.774400	0.180800
H1201	H120	0.631700	0.331300	0.061800
H1211	H121	0.059600	0.213000	0.996800
H1221	H122	0.382800	0.689800	0.839400
H1231	H123	0.189800	0.307000	0.350400
H1241	H124	0.640100	0.707100	0.927200
H1251	H125	0.545500	0.559700	0.738800
H1261	H126	0.301000	0.325500	0.140300
H1271	H127	0.784500	0.718400	0.701300
H1281	H128	0.649900	0.390800	0.863100
H1291	H129	0.712900	0.640100	0.433000
H1301	H130	0.839300	0.699000	0.524500
H1311	H131	0.269500	0.831300	0.199600
H1321	H132	0.289700	0.712500	0.847800
H1331	H133	0.212900	0.433000	0.640100
H1341	H134	0.954500	0.693300	0.014200
H1351	H135	0.160700	0.301000	0.475500
H1361	H136	0.562800	0.346600	0.059600
H1371	H137	0.116200	0.171400	0.383600
H1381	H138	0.680800	0.332800	0.274400
H1391	H139	0.819200	0.093600	0.652000
H1401	H140	0.839400	0.189800	0.382800
H1411	H141	0.319200	0.667200	0.725600
H1421	H142	0.701300	0.482900	0.416800
H1431	H143	0.720100	0.287100	0.427200
H1441	H144	0.787100	0.567000	0.359900
H1451	H145	0.938600	0.725500	0.833500
H1461	H146	0.940300	0.954500	0.761200
H1471	H147	0.319200	0.652000	0.093600
H1481	H148	0.985800	0.179100	0.440300
H1491	H149	0.069900	0.269500	0.938200
H1501	H150	0.220100	0.792900	0.433000
H1511	H151	0.689800	0.339400	0.882800
H1521	H152	0.566100	0.281600	0.982900
H1531	H153	0.616400	0.287800	0.232600
H1541	H154	0.894900	0.061400	0.286900
H1551	H155	0.938200	0.769500	0.069900
H1561	H156	0.569900	0.631700	0.800400
H1571	H157	0.818300	0.201200	0.841100
H1581	H158	0.807000	0.689800	0.850400
H1591	H159	0.152200	0.787500	0.710300
H1601	H160	0.332800	0.558400	0.652000
H1611	H161	0.135300	0.347800	0.558100
H1621	H162	0.798700	0.215500	0.781600
H1631	H163	0.286800	0.527700	0.136900
H1641	H164	0.392000	0.286900	0.225500
H1651	H165	0.572800	0.212900	0.279900
H1661	H166	0.503200	0.562800	0.716200
H1671	H167	0.438200	0.069900	0.769500
H1681	H168	0.061400	0.274500	0.166500
H1691	H169	0.314800	0.475500	0.174500
H1701	H170	0.139900	0.117100	0.298800
H1711	H171	0.287000	0.846600	0.283800
H1721	H172	0.906400	0.848000	0.680800
H1731	H173	0.180800	0.274400	0.332800
H1741	H174	0.933000	0.712900	0.140100
H1751	H175	0.572800	0.359900	0.792900
H1761	H176	0.207100	0.140100	0.427200
H1771	H177	0.514200	0.559700	0.820900
H1781	H178	0.847800	0.635300	0.058100
H1791	H179	0.658900	0.477200	0.860100
H1801	H180	0.167200	0.819200	0.225600
H1811	H181	0.680800	0.348000	0.906400
H1821	H182	0.859900	0.787100	0.067000
H1831	H183	0.828600	0.712200	0.944800
H1841	H184	0.093600	0.941600	0.274400
H1851	H185	0.730500	0.561800	0.430100
H1861	H186	0.281600	0.482900	0.066100
H1871	H187	0.440300	0.761200	0.954500
H1881	H188	0.210300	0.152200	0.287500
H1891	H189	0.577200	0.135300	0.287500
H1901	H190	0.685200	0.160700	0.359700
H1911	H191	0.333500	0.938600	0.225500
H1921	H192	0.171400	0.883600	0.616200
H1931	H193	0.382800	0.693000	0.043400
H1941	H194	0.160600	0.350400	0.043400
H1951	H195	0.567000	0.707100	0.779900
H1961	H196	0.055200	0.787800	0.171400
H1971	H197	0.136900	0.027700	0.286800
H1981	H198	0.067000	0.287100	0.859900
H1991	H199	0.774400	0.093600	0.441600
H2001	H200	0.485800	0.045500	0.806700
H2011	H201	0.269500	0.438200	0.569900
H2021	H202	0.320900	0.806700	0.761200
H2031	H203	0.212200	0.883600	0.267400
H2041	H204	0.274400	0.832800	0.680800
H2051	H205	0.067000	0.779900	0.707100
H2061	H206	0.868300	0.938200	0.668700
H2071	H207	0.789700	0.847800	0.712500
H2081	H208	0.784500	0.066100	0.583200
H2091	H209	0.649600	0.456600	0.339400
H2101	H210	0.916800	0.701300	0.982900
H2111	H211	0.160600	0.810200	0.617200
H2121	H212	0.201200	0.860100	0.382900
H2131	H213	0.863100	0.890800	0.649900
H2141	H214	0.954500	0.261200	0.440300
H2151	H215	0.348000	0.941600	0.667200
H2161	H216	0.199000	0.859700	0.674500
H2171	H217	0.286900	0.725500	0.892000
H2181	H218	0.083200	0.784500	0.566100
H2191	H219	0.825500	0.801000	0.640300
H2201	H220	0.941600	0.774400	0.593600
H2211	H221	0.341100	0.522800	0.139900
H2221	H222	0.347800	0.058100	0.635300
H2231	H223	0.716200	0.653400	0.713000
H2241	H224	0.406400	0.680800	0.848000
H2251	H225	0.975500	0.814800	0.674500
H2261	H226	0.061800	0.831300	0.631700
H2271	H227	0.259100	0.472300	0.609200
H2281	H228	0.152000	0.819200	0.593600
H2291	H229	0.859900	0.072800	0.292900
H2301	H230	0.212500	0.789700	0.347800
H2311	H231	0.787100	0.220100	0.927200
H2321	H232	0.792900	0.859900	0.572800
H2331	H233	0.359700	0.660700	0.685200
H2341	H234	0.149900	0.286800	0.259100
H2351	H235	0.213000	0.716200	0.153400
H2361	H236	0.328600	0.383800	0.116400
H2371	H237	0.199600	0.868300	0.430100
H2381	H238	0.300400	0.730500	0.668700
H2391	H239	0.062800	0.003200	0.216200
H2401	H240	0.787000	0.283800	0.846600
H2411	H241	0.158900	0.298800	0.181700
H2421	H242	0.077200	0.789700	0.441900
H2431	H243	0.985800	0.806700	0.045500
H2441	H244	0.558100	0.847800	0.135300
H2451	H245	0.043400	0.850400	0.160600
H2461	H246	0.781600	0.066100	0.482900
H2471	H247	0.848000	0.180800	0.406400
H2481	H248	0.800400	0.668700	0.730500
H2491	H249	0.583200	0.566100	0.784500
H2501	H250	0.769500	0.199600	0.831300
H2511	H251	0.593600	0.319200	0.152000
H2521	H252	0.631700	0.300400	0.069900
H2531	H253	0.274500	0.666500	0.561400
H2541	H254	0.482900	0.566100	0.781600
H2551	H255	0.846600	0.062800	0.559600
H2561	H256	0.558100	0.710300	0.922800
H2571	H257	0.441900	0.289700	0.077200
H2581	H258	0.693000	0.149600	0.310200
H2591	H259	0.348000	0.406400	0.180800
H2601	H260	0.649600	0.193000	0.810200
H2611	H261	0.058100	0.922800	0.710300
H2621	H262	0.149600	0.810200	0.193000
H2631	H263	0.199600	0.331300	0.269500
H2641	H264	0.653400	0.213000	0.216200
H2651	H265	0.937200	0.996800	0.783800
H2661	H266	0.149600	0.339400	0.456600
H2671	H267	0.058400	0.225600	0.406400
H2681	H268	0.593600	0.274400	0.941600
H2691	H269	0.933000	0.220100	0.292900
H2701	H270	0.850400	0.660600	0.543400
H2711	H271	0.180800	0.906400	0.348000
H2721	H272	0.292900	0.720100	0.933000
H2731	H273	0.882800	0.839400	0.689800
H2741	H274	0.140100	0.927200	0.707100
H2751	H275	0.635300	0.077200	0.787500
H2761	H276	0.284500	0.583200	0.066100
H2771	H277	0.364700	0.441900	0.652200
H2781	H278	0.199000	0.339300	0.024500
H2791	H279	0.996800	0.713000	0.059600
H2801	H280	0.368300	0.668700	0.938200
H2811	H281	0.350400	0.807000	0.189800
H2821	H282	0.517100	0.083200	0.798700
H2831	H283	0.284500	0.701300	0.718400
H2841	H284	0.289700	0.577200	0.941900
H2851	H285	0.940400	0.153400	0.437200
H2861	H286	0.658900	0.181700	0.298800
H2871	H287	0.072800	0.279900	0.212900
H2881	H288	0.213100	0.105100	0.438600
H2891	H289	0.179100	0.238800	0.193300
H2901	H290	0.382900	0.022800	0.681700
H2911	H291	0.444800	0.616200	0.732600
H2921	H292	0.136900	0.109200	0.350100
H2931	H293	0.027700	0.786800	0.636900
H2941	H294	0.712200	0.444800	0.328600
H2951	H295	0.774500	0.213100	0.608000
H2961	H296	0.671400	0.055200	0.287800
H2971	H297	0.996800	0.283800	0.437200
H2981	H298	0.454500	0.440300	0.261200
H2991	H299	0.713000	0.559600	0.496800
H3001	H300	0.701200	0.318300	0.341100
H3011	H301	0.201200	0.341100	0.318300
H3021	H302	0.310200	0.660600	0.117200
H3031	H303	0.761200	0.306700	0.320900
H3041	H304	0.189800	0.882800	0.339400
H3051	H305	0.701200	0.382900	0.860100
H3061	H306	0.640100	0.933000	0.212900
H3071	H307	0.230500	0.800400	0.168700
H3081	H308	0.716200	0.062800	0.503200
H3091	H309	0.779900	0.207100	0.567000
H3101	H310	0.783800	0.287000	0.346600
H3111	H311	0.274500	0.608000	0.213100
H3121	H312	0.940400	0.787000	0.003200
H3131	H313	0.306700	0.485800	0.545500
H3141	H314	0.882900	0.681700	0.022800
H3151	H315	0.761200	0.454500	0.940300
H3161	H316	0.259100	0.786800	0.149900
H3171	H317	0.292900	0.572800	0.859900
H3181	H318	0.083200	0.298700	0.017100
H3191	H319	0.140300	0.825500	0.301000
H3201	H320	0.787500	0.577200	0.635300
H3211	H321	0.699000	0.024500	0.339300
H3221	H322	0.108000	0.333500	0.894900
H3231	H323	0.225500	0.786900	0.392000
H3241	H324	0.116400	0.232600	0.287800
H3251	H325	0.652200	0.941900	0.364700
H3261	H326	0.286800	0.759100	0.649900
H3271	H327	0.193300	0.738800	0.179100
H3281	H328	0.216200	0.713000	0.653400
H3291	H329	0.307000	0.850400	0.689800
H3301	H330	0.608000	0.894900	0.333500
H3311	H331	0.456600	0.839400	0.149600
H3321	H332	0.238800	0.693300	0.679100
H3331	H333	0.839300	0.140300	0.814800
H3341	H334	0.168700	0.868300	0.438200
H3351	H335	0.059600	0.846600	0.562800
H3361	H336	0.287800	0.555200	0.671400
H3371	H337	0.787000	0.503200	0.440400
H3381	H338	0.608000	0.713100	0.774500
H3391	H339	0.786800	0.136900	0.527700
H3401	H340	0.561400	0.166500	0.274500
H3411	H341	0.359700	0.699000	0.174500
H3421	H342	0.674500	0.359700	0.199000
H3431	H343	0.261200	0.320900	0.306700
H3441	H344	0.527700	0.890800	0.240900
H3451	H345	0.668700	0.230500	0.300400
H3461	H346	0.216200	0.503200	0.062800
H3471	H347	0.108000	0.774500	0.713100
H3481	H348	0.906400	0.058400	0.725600
H3491	H349	0.707100	0.279900	0.067000
H3501	H350	0.213200	0.350100	0.240900
H3511	H351	0.383800	0.767400	0.055200
H3521	H352	0.779900	0.572800	0.712900
H3531	H353	0.109200	0.850100	0.636900
H3541	H354	0.347800	0.289700	0.212500
H3551	H355	0.437200	0.783800	0.996800
H3561	H356	0.300400	0.569900	0.131700
H3571	H357	0.477200	0.360100	0.158900
H3581	H358	0.212900	0.779900	0.072800
H3591	H359	0.298700	0.781600	0.215500
H3601	H360	0.433900	0.715500	0.916800
H3611	H361	0.956600	0.149600	0.839400
H3621	H362	0.325500	0.640300	0.801000
H3631	H363	0.153400	0.937200	0.440400
H3641	H364	0.503200	0.940400	0.287000
H3651	H365	0.109200	0.259100	0.972300
H3661	H366	0.810200	0.117200	0.660600
H3671	H367	0.927200	0.720100	0.787100
H3681	H368	0.616400	0.328600	0.883800
H3691	H369	0.158900	0.860100	0.477200
H3701	H370	0.681700	0.522800	0.382900
H3711	H371	0.024500	0.185200	0.325500
H3721	H372	0.314800	0.839300	0.640300
H3731	H373	0.341100	0.818300	0.701200
H3741	H374	0.287000	0.440400	0.503200
H3751	H375	0.767400	0.555200	0.883800
H3761	H376	0.545500	0.985800	0.306700
H3771	H377	0.167200	0.348000	0.441600
H3781	H378	0.555200	0.383800	0.267400
H3791	H379	0.940300	0.985800	0.679100
H3801	H380	0.059700	0.045500	0.238800
H3811	H381	0.828600	0.116400	0.383800
H3821	H382	0.215500	0.281600	0.298700
H3831	H383	0.166500	0.774500	0.061400
H3841	H384	0.168700	0.300400	0.230500
H3851	H385	0.938200	0.168700	0.368300
H3861	H386	0.201300	0.416800	0.482900
H3871	H387	0.116400	0.883800	0.328600
H3881	H388	0.685200	0.524500	0.825500
H3891	H389	0.149900	0.863100	0.390800
H3901	H390	0.359900	0.067000	0.787100
H3911	H391	0.559700	0.320900	0.014200
H3921	H392	0.240900	0.390800	0.527700
H3931	H393	0.185200	0.825500	0.524500
H3941	H394	0.440400	0.437200	0.153400
H3951	H395	0.441900	0.152200	0.864700
H3961	H396	0.152000	0.332800	0.058400
H3971	H397	0.653400	0.440400	0.937200
H3981	H398	0.699000	0.674500	0.859700
H3991	H399	0.660700	0.475500	0.301000
H4001	H400	0.839400	0.649600	0.956600
H4011	H401	0.883800	0.055200	0.767400
H4021	H402	0.287100	0.359900	0.567000
H4031	H403	0.833500	0.608000	0.394900
H4041	H404	0.427200	0.787100	0.720100
H4051	H405	0.725500	0.392000	0.786900
H4061	H406	0.635300	0.558100	0.347800
H4071	H407	0.833500	0.225500	0.938600
H4081	H408	0.433000	0.140100	0.712900
H4091	H409	0.701300	0.218400	0.784500
H4101	H410	0.937200	0.940400	0.653400
H4111	H411	0.649900	0.259100	0.286800
H4121	H412	0.801000	0.140300	0.325500
H4131	H413	0.807000	0.117200	0.456600
H4141	H414	0.201300	0.784500	0.218400
H4151	H415	0.639900	0.298800	0.117100
H4161	H416	0.652000	0.058400	0.332800
H4171	H417	0.617200	0.310200	0.160600
H4181	H418	0.798800	0.658900	0.681700
H4191	H419	0.933900	0.017100	0.718400
H4201	H420	0.325500	0.685200	0.024500
H4211	H421	0.014200	0.820900	0.559700
H4221	H422	0.786900	0.892000	0.725500
H4231	H423	0.225600	0.906400	0.558400
H4241	H424	0.718400	0.517100	0.933900
H4251	H425	0.298800	0.681700	0.658900
H4261	H426	0.639900	0.341100	0.022800
H4271	H427	0.689800	0.350400	0.307000
H4281	H428	0.055200	0.267400	0.383800
H4291	H429	0.213100	0.108000	0.274500
H4301	H430	0.786900	0.894900	0.561400
H4311	H431	0.058100	0.135300	0.847800
H4321	H432	0.972300	0.213200	0.363100
H4331	H433	0.416800	0.433900	0.215500
H4341	H434	0.077200	0.287500	0.135300
H4351	H435	0.117100	0.318300	0.977200
H4361	H436	0.759100	0.149900	0.786800
H4371	H437	0.944800	0.732600	0.616200
H4381	H438	0.230500	0.430100	0.561800
H4391	H439	0.713100	0.438600	0.105100
H4401	H440	0.832800	0.180800	0.774400
H4411	H441	0.472300	0.109200	0.759100
H4421	H442	0.482900	0.916800	0.201300
H4431	H443	0.841100	0.139900	0.522800
H4441	H444	0.710300	0.422800	0.058100
H4451	H445	0.666500	0.061400	0.774500
H4461	H446	0.863100	0.972300	0.713200
H4471	H447	0.846600	0.783800	0.787000
H4481	H448	0.977200	0.818300	0.117100
H4491	H449	0.225500	0.438600	0.333500
H4501	H450	0.681700	0.158900	0.798800
H4511	H451	0.287500	0.652200	0.210300
H4521	H452	0.475500	0.801000	0.160700
H4531	H453	0.339300	0.524500	0.699000
H4541	H454	0.941600	0.167200	0.848000
H4551	H455	0.390800	0.027700	0.740900
H4561	H456	0.160700	0.859700	0.185200
H4571	H457	0.982900	0.781600	0.566100
H4581	H458	0.212200	0.328600	0.444800
H4591	H459	0.430100	0.061800	0.730500
H4601	H460	0.394900	0.286900	0.061400
H4611	H461	0.787800	0.116400	0.732600
H4621	H462	0.892000	0.225500	0.286900
H4631	H463	0.318300	0.477200	0.617100
H4641	H464	0.003200	0.716200	0.562800
H4651	H465	0.712500	0.347800	0.789700
H4661	H466	0.339400	0.382800	0.189800
H4671	H467	0.422800	0.558100	0.210300
H4681	H468	0.693300	0.514200	0.454500
H4691	H469	0.859700	0.174500	0.699000
H4701	H470	0.017100	0.218400	0.433900
H4711	H471	0.383600	0.671400	0.116200
H4721	H472	0.730500	0.168700	0.800400
H4731	H473	0.232600	0.444800	0.116200
H4741	H474	0.181700	0.798800	0.158900
H4751	H475	0.616200	0.383600	0.171400
H4761	H476	0.279900	0.712900	0.572800
H4771	H477	0.569900	0.938200	0.269500
H4781	H478	0.767400	0.212200	0.383600
H4791	H479	0.666500	0.605100	0.392000
H4801	H480	0.116200	0.944800	0.232600
H4811	H481	0.636900	0.286800	0.027700
H4821	H482	0.363100	0.649900	0.890800
H4831	H483	0.605100	0.892000	0.166500
H4841	H484	0.212500	0.422800	0.364700
H4851	H485	0.179100	0.940300	0.485800
H4861	H486	0.331300	0.561800	0.131700
H4871	H487	0.328600	0.944800	0.712200
H4881	H488	0.017100	0.798700	0.083200
H4891	H489	0.333500	0.394900	0.608000
H4901	H490	0.383800	0.616400	0.828600
H4911	H491	0.832800	0.652000	0.558400
H4921	H492	0.841100	0.701200	0.818300
H4931	H493	0.930100	0.730500	0.061800
H4941	H494	0.825500	0.024500	0.685200
H4951	H495	0.394900	0.108000	0.833500
H4961	H496	0.883600	0.116200	0.671400
H4971	H497	0.522800	0.882900	0.181700
H4981	H498	0.166500	0.392000	0.605100
H4991	H499	0.238800	0.545500	0.059700
H5001	H500	0.640300	0.301000	0.825500
H5011	H501	0.069900	0.800400	0.631700
H5021	H502	0.477200	0.117100	0.818300
H5031	H503	0.350400	0.543400	0.660600
H5041	H504	0.786800	0.649900	0.759100
H5051	H505	0.740900	0.527700	0.390800
H5061	H506	0.559700	0.238800	0.045500
H5071	H507	0.213000	0.496800	0.559600
H5081	H508	0.454500	0.014200	0.693300
H5091	H509	0.368300	0.699600	0.930100
H5101	H510	0.267400	0.883800	0.555200
H5111	H511	0.561800	0.631700	0.831300
H5121	H512	0.558400	0.406400	0.225600
H5131	H513	0.024500	0.839300	0.199000
H5141	H514	0.522800	0.639900	0.841100
H5151	H515	0.848000	0.667200	0.941600
H5161	H516	0.105100	0.938600	0.713100
H5171	H517	0.801000	0.660700	0.975500
H5181	H518	0.232600	0.787800	0.616400
H5191	H519	0.472300	0.363100	0.213200
H5201	H520	0.559600	0.996800	0.213000
H5211	H521	0.496800	0.437200	0.283800
H5221	H522	0.185200	0.359700	0.160700
H5231	H523	0.883600	0.767400	0.712200
H5241	H524	0.360100	0.658900	0.977200
H5251	H525	0.207100	0.067000	0.279900
H5261	H526	0.916800	0.215500	0.433900
H5271	H527	0.062800	0.059600	0.346600
H5281	H528	0.022800	0.841100	0.639900
H5291	H529	0.390800	0.363100	0.149900
H5301	H530	0.850400	0.189800	0.807000
H5311	H531	0.652200	0.710300	0.787500
H5321	H532	0.456600	0.617200	0.807000
H5331	H533	0.283800	0.937200	0.496800
H5341	H534	0.283800	0.346600	0.287000
H5351	H535	0.218400	0.933900	0.517100
H5361	H536	0.930100	0.199600	0.368300
H5371	H537	0.660600	0.043400	0.350400
H5381	H538	0.307000	0.456600	0.117200
H5391	H539	0.346600	0.559600	0.062800
H5401	H540	0.774500	0.561400	0.666500
H5411	H541	0.850100	0.136900	0.609200
H5421	H542	0.671400	0.616200	0.883600
H5431	H543	0.279900	0.567000	0.207100
H5441	H544	0.668700	0.438200	0.868300
H5451	H545	0.153400	0.216200	0.213000
H5461	H546	0.882900	0.201200	0.360100
H5471	H547	0.524500	0.199000	0.839300
H5481	H548	0.860100	0.882900	0.701200
H5491	H549	0.679100	0.193300	0.238800
H5501	H550	0.117200	0.956600	0.307000
H5511	H551	0.003200	0.287000	0.940400
H5521	H552	0.617100	0.977200	0.318300
H5531	H553	0.281600	0.798700	0.715500
H5541	H554	0.363100	0.713200	0.972300
H5551	H555	0.174500	0.199000	0.359700
H5561	H556	0.617100	0.639900	0.798800
H5571	H557	0.975500	0.160700	0.801000
H5581	H558	0.883800	0.828600	0.616400
H5591	H559	0.699600	0.430100	0.868300
H5601	H560	0.213200	0.863100	0.472300
H5611	H561	0.139900	0.022800	0.341100
H5621	H562	0.061800	0.230500	0.930100
H5631	H563	0.437200	0.653400	0.940400
H5641	H564	0.496800	0.059600	0.713000
H5651	H565	0.718400	0.201300	0.284500
H5661	H566	0.416800	0.982900	0.701300
H5671	H567	0.059700	0.014200	0.320900
H5681	H568	0.819200	0.725600	0.667200
H5691	H569	0.441600	0.848000	0.167200
H5701	H570	0.440400	0.003200	0.787000
H5711	H571	0.820900	0.059700	0.514200
H5721	H572	0.810200	0.693000	0.649600
H5731	H573	0.769500	0.569900	0.438200
H5741	H574	0.725600	0.167200	0.319200
H5751	H575	0.360100	0.701200	0.882900
H5761	H576	0.609200	0.636900	0.850100
H5771	H577	0.713200	0.240900	0.350100
H5781	H578	0.738800	0.059700	0.545500
H5791	H579	0.707100	0.427200	0.140100
H5801	H580	0.667200	0.441600	0.348000
H5811	H581	0.171400	0.287800	0.055200
H5821	H582	0.712200	0.267400	0.883600
H5831	H583	0.286900	0.561400	0.894900
H5841	H584	0.193300	0.454500	0.514200
H5851	H585	0.882800	0.043400	0.693000
H5861	H586	0.193000	0.882800	0.543400
H5871	H587	0.922800	0.712500	0.864700
H5881	H588	0.350100	0.609200	0.136900
H5891	H589	0.430100	0.368300	0.199600
H5901	H590	0.331300	0.769500	0.699600
H5911	H591	0.868300	0.930100	0.699600
H5921	H592	0.831300	0.699600	0.769500
H5931	H593	0.732600	0.616400	0.787800
H5941	H594	0.320900	0.514200	0.059700
H5951	H595	0.847800	0.212500	0.289700
H5961	H596	0.781600	0.715500	0.798700
H5971	H597	0.392000	0.105100	0.666500
H5981	H598	0.972300	0.759100	0.109200
H5991	H599	0.787800	0.671400	0.555200
H6001	H600	0.927200	0.207100	0.640100
H6011	H601	0.562800	0.216200	0.003200
H6021	H602	0.287800	0.732600	0.116400
H6031	H603	0.713200	0.472300	0.863100
H6041	H604	0.350100	0.740900	0.713200
H6051	H605	0.693300	0.179100	0.738800
H6061	H606	0.609200	0.972300	0.259100
H6071	H607	0.798800	0.139900	0.617100
H6081	H608	0.894900	0.833500	0.108000
H6091	H609	0.043400	0.193000	0.382800
H6101	H610	0.660700	0.185200	0.859700
H6111	H611	0.339400	0.956600	0.649600
H6121	H612	0.140300	0.314800	0.339300
H6131	H613	0.364700	0.922800	0.212500
H6141	H614	0.301000	0.975500	0.660700
H6151	H615	0.014200	0.193300	0.954500
H6161	H616	0.787500	0.210300	0.652200
H6171	H617	0.860100	0.977200	0.658900
H6181	H618	0.558400	0.152000	0.832800
H6191	H619	0.725500	0.333500	0.438600
H6201	H620	0.287100	0.927200	0.220100
H6211	H621	0.433000	0.292900	0.220100
H6221	H622	0.814800	0.174500	0.475500
H6231	H623	0.977200	0.158900	0.360100
H6241	H624	0.298700	0.517100	0.583200
C11	C1	0.603000	0.340900	0.828100
C21	C2	0.688840	0.149490	0.368950
C31	C3	0.300100	0.718500	0.889600
C41	C4	0.512800	0.671900	0.774900
C51	C5	0.742430	0.254250	0.817660
C61	C6	0.224250	0.431650	0.576200
C71	C7	0.432540	0.737210	0.141290
C81	C8	0.874990	0.687440	0.612430
C91	C9	0.569480	0.564510	0.791650
C101	C10	0.752150	0.285910	0.313580
C111	C11	0.380120	0.844730	0.706970
C121	C12	0.313580	0.527670	0.061430
C131	C13	0.062540	0.007990	0.234390
C141	C14	0.368950	0.649490	0.688840
C151	C15	0.222170	0.791650	0.227140
C161	C16	0.173150	0.035390	0.380120
C171	C17	0.224620	0.936980	0.458860
C181	C18	0.541140	0.563020	0.775380
C191	C19	0.273600	0.828150	0.265610
C201	C20	0.108280	0.278580	0.236300
C211	C21	0.688610	0.072530	0.293420
C221	C22	0.220890	0.427470	0.116080
C231	C23	0.237440	0.312450	0.125010
C241	C24	0.918400	0.199900	0.589500
C251	C25	0.418400	0.828900	0.718500
C261	C26	0.630230	0.504350	0.332880
C271	C27	0.581600	0.410500	0.800100
C281	C28	0.722170	0.495030	0.430520
C291	C29	0.535390	0.673150	0.880120
C301	C30	0.492010	0.437460	0.265610
C311	C31	0.786100	0.149170	0.544070
C321	C32	0.247850	0.533760	0.061430
C331	C33	0.781200	0.591300	0.715300
C341	C34	0.062540	0.054550	0.328150
C351	C35	0.144550	0.076200	0.351950
C361	C36	0.664610	0.396000	0.936630
C371	C37	0.705840	0.384130	0.845190
C381	C38	0.860650	0.705840	0.821710
C391	C39	0.637760	0.673150	0.793030
C401	C40	0.281200	0.715300	0.591300
C411	C41	0.063020	0.021880	0.287640
C421	C42	0.539350	0.319890	0.188840
C431	C43	0.604810	0.311390	0.883920
C441	C44	0.387570	0.575010	0.762560
C451	C45	0.135850	0.348500	0.939150
C461	C46	0.328150	0.554550	0.062540
C471	C47	0.863070	0.713900	0.757970
C481	C48	0.035390	0.155270	0.862240
C491	C49	0.504970	0.435490	0.227140
C501	C50	0.804670	0.067460	0.708750
C511	C51	0.939150	0.848500	0.135850
C521	C52	0.801430	0.212300	0.870930
C531	C53	0.291650	0.569480	0.064510
C541	C54	0.287520	0.412670	0.095850
C551	C55	0.301430	0.430500	0.589130
C561	C56	0.754250	0.242430	0.317660
C571	C57	0.094200	0.196400	0.910200
C581	C58	0.405800	0.316000	0.102200
C591	C59	0.575230	0.011820	0.257570
C601	C60	0.234240	0.458860	0.521880
C611	C61	0.724250	0.576200	0.431650
C621	C62	0.540630	0.436630	0.272020
C631	C63	0.103000	0.828100	0.340900
C641	C64	0.811390	0.706580	0.927470
C651	C65	0.757570	0.575230	0.511820
C661	C66	0.507990	0.562540	0.734390
C671	C67	0.512800	0.840900	0.237900
C681	C68	0.604000	0.563370	0.835390
C691	C69	0.734240	0.521880	0.458860
C701	C70	0.087330	0.212480	0.404150
C711	C71	0.374850	0.587330	0.683180
C721	C72	0.081600	0.800100	0.410500
C731	C73	0.803300	0.864150	0.712650
C741	C74	0.067460	0.858710	0.262790
C751	C75	0.265610	0.937460	0.492010
C761	C76	0.908700	0.189900	0.624000
C771	C77	0.564510	0.291650	0.069480
C781	C78	0.791650	0.727140	0.722170
C791	C79	0.151500	0.364150	0.560850
C801	C80	0.897000	0.171900	0.659100
C811	C81	0.423800	0.355450	0.148050
C821	C82	0.115870	0.321710	0.961060
C831	C83	0.430520	0.995030	0.722170
C841	C84	0.671850	0.445450	0.937460
C851	C85	0.408700	0.784700	0.718800
C861	C86	0.605100	0.955930	0.242030
C871	C87	0.355450	0.707400	0.931650
C881	C88	0.780540	0.131050	0.319890
C891	C89	0.348500	0.439150	0.635850
C901	C90	0.696700	0.287350	0.135850
C911	C91	0.408700	0.624000	0.189900
C921	C92	0.358710	0.791250	0.095920
C931	C93	0.813580	0.752150	0.785910
C941	C94	0.927470	0.720890	0.616080
C951	C95	0.576200	0.931650	0.224250
C961	C96	0.891720	0.170300	0.628020
C971	C97	0.964610	0.119880	0.326850
C981	C98	0.068350	0.275750	0.923800
C991	C99	0.063370	0.959370	0.227980
C1001	C100	0.012800	0.774900	0.671900
C1011	C101	0.957720	0.736300	0.128020
C1021	C102	0.383920	0.604810	0.811390
C1031	C103	0.897000	0.725100	0.737900
C1041	C104	0.625150	0.212480	0.808330
C1051	C105	0.091300	0.281200	0.215300
C1061	C106	0.918400	0.718500	0.828900
C1071	C107	0.351950	0.775750	0.707400
C1081	C108	0.155270	0.362240	0.535390
C1091	C109	0.874990	0.187550	0.762560
C1101	C110	0.712360	0.234240	0.275380
C1111	C111	0.281500	0.671100	0.581600
C1121	C112	0.904150	0.087330	0.712480
C1131	C113	0.787520	0.691670	0.874850
C1141	C114	0.434100	0.124000	0.715300
C1151	C115	0.464610	0.326850	0.119880
C1161	C116	0.724620	0.458860	0.936980
C1171	C117	0.312560	0.887570	0.625010
C1181	C118	0.511820	0.436590	0.254250
C1191	C119	0.908700	0.718800	0.784700
C1201	C120	0.171100	0.389600	0.589500
C1211	C121	0.214090	0.466240	0.527670
C1221	C122	0.871980	0.108280	0.329700
C1231	C123	0.561430	0.313580	0.027670
C1241	C124	0.610400	0.699900	0.781500
C1251	C125	0.639350	0.461060	0.845190
C1261	C126	0.135850	0.787350	0.696700
C1271	C127	0.321710	0.860650	0.205840
C1281	C128	0.828100	0.840900	0.603000
C1291	C129	0.397000	0.737900	0.725100
C1301	C130	0.936980	0.958860	0.724620
C1311	C131	0.089500	0.171100	0.889600
C1321	C132	0.765760	0.224620	0.787640
C1331	C133	0.896000	0.164610	0.436630
C1341	C134	0.116080	0.188610	0.395190
C1351	C135	0.615870	0.961060	0.321710
C1361	C136	0.329700	0.721420	0.957720
C1371	C137	0.011820	0.254250	0.436590
C1381	C138	0.312450	0.625010	0.737440
C1391	C139	0.575010	0.262560	0.887570
C1401	C140	0.063410	0.075230	0.317660
C1411	C141	0.317660	0.742430	0.754250
C1421	C142	0.389600	0.089500	0.671100
C1431	C143	0.237440	0.924990	0.612430
C1441	C144	0.812450	0.075010	0.687440
C1451	C145	0.630230	0.125880	0.797350
C1461	C146	0.560850	0.864150	0.151500
C1471	C147	0.252150	0.938570	0.466240
C1481	C148	0.202650	0.828530	0.332880
C1491	C149	0.404080	0.762790	0.195330
C1501	C150	0.297350	0.630230	0.625880
C1511	C151	0.689900	0.408700	0.124000
C1521	C152	0.816820	0.191670	0.404150
C1531	C153	0.812450	0.737440	0.625010
C1541	C154	0.923800	0.148050	0.355450
C1551	C155	0.171900	0.159100	0.397000
C1561	C156	0.303600	0.405800	0.589800
C1571	C157	0.293030	0.637760	0.173150
C1581	C158	0.595850	0.308330	0.183180
C1591	C159	0.430520	0.435490	0.208350
C1601	C160	0.765610	0.273600	0.328150
C1611	C161	0.715300	0.624000	0.434100
C1621	C162	0.905800	0.102200	0.316000
C1631	C163	0.328100	0.725100	0.987200
C1641	C164	0.959370	0.231390	0.896000
C1651	C165	0.737210	0.641290	0.932540
C1661	C166	0.649490	0.460650	0.280540
C1671	C167	0.286200	0.696400	0.602200
C1681	C168	0.572530	0.383920	0.279110
C1691	C169	0.874120	0.171470	0.504350
C1701	C170	0.828100	0.987200	0.725100
C1711	C171	0.752150	0.466240	0.938570
C1721	C172	0.317660	0.575230	0.063410
C1731	C173	0.718800	0.284700	0.408700
C1741	C174	0.301430	0.870930	0.212300
C1751	C175	0.112430	0.237440	0.424990
C1761	C176	0.828530	0.832880	0.702650
C1771	C177	0.855450	0.931650	0.707400
C1781	C178	0.364150	0.060850	0.651500
C1791	C179	0.461060	0.115870	0.821710
C1801	C180	0.936630	0.040630	0.772020
C1811	C181	0.004350	0.874120	0.671470
C1821	C182	0.595920	0.358710	0.291250
C1831	C183	0.328900	0.918400	0.218500
C1841	C184	0.397800	0.803600	0.713800
C1851	C185	0.931650	0.724250	0.076200
C1861	C186	0.923800	0.775750	0.068350
C1871	C187	0.459370	0.896000	0.231390
C1881	C188	0.457720	0.329700	0.221420
C1891	C189	0.841370	0.930500	0.629070
C1901	C190	0.404150	0.691670	0.816820
C1911	C191	0.214090	0.747850	0.186420
C1921	C192	0.784700	0.218800	0.908700
C1931	C193	0.427470	0.811390	0.206580
C1941	C194	0.791250	0.195330	0.432540
C1951	C195	0.431650	0.355450	0.207400
C1961	C196	0.287700	0.698570	0.629070
C1971	C197	0.745750	0.063410	0.488180
C1981	C198	0.167120	0.797350	0.671470
C1991	C199	0.035390	0.880120	0.673150
C2001	C200	0.612430	0.424990	0.237440
C2011	C201	0.287640	0.521880	0.063020
C2021	C202	0.641290	0.432540	0.237210
C2031	C203	0.687440	0.575010	0.812450
C2041	C204	0.507990	0.945450	0.273600
C2051	C205	0.777830	0.569480	0.504970
C2061	C206	0.344730	0.464610	0.637760
C2071	C207	0.104000	0.835390	0.563370
C2081	C208	0.961060	0.139350	0.345190
C2091	C209	0.158630	0.069500	0.370930
C2101	C210	0.639350	0.178290	0.294160
C2111	C211	0.988180	0.745750	0.563410
C2121	C212	0.845190	0.961060	0.639350
C2131	C213	0.787640	0.063020	0.521880
C2141	C214	0.291650	0.722170	0.727140
C2151	C215	0.220890	0.793420	0.604810
C2161	C216	0.104000	0.268610	0.040630
C2171	C217	0.708750	0.141290	0.404080
C2181	C218	0.427470	0.616080	0.720890
C2191	C219	0.775380	0.063020	0.541140
C2201	C220	0.102200	0.816000	0.405800
C2211	C221	0.350510	0.539350	0.719460
C2221	C222	0.275380	0.734240	0.712360
C2231	C223	0.826850	0.964610	0.619880
C2241	C224	0.851950	0.707400	0.775750
C2251	C225	0.374120	0.504350	0.171470
C2261	C226	0.844730	0.206970	0.880120
C2271	C227	0.360650	0.538940	0.154810
C2281	C228	0.124000	0.908700	0.689900
C2291	C229	0.242430	0.424770	0.488180
C2301	C230	0.410500	0.110400	0.828900
C2311	C231	0.628020	0.957720	0.236300
C2321	C232	0.960650	0.811160	0.680110
C2331	C233	0.164610	0.936630	0.396000
C2341	C234	0.719460	0.039350	0.350510
C2351	C235	0.195330	0.262790	0.404080
C2361	C236	0.063410	0.988180	0.245750
C2371	C237	0.816000	0.910200	0.713800
C2381	C238	0.103000	0.274900	0.262100
C2391	C239	0.896000	0.731390	0.959370
C2401	C240	0.992010	0.265610	0.437460
C2411	C241	0.027670	0.214090	0.966240
C2421	C242	0.206580	0.311390	0.427470
C2431	C243	0.737900	0.225100	0.897000
C2441	C244	0.321710	0.461060	0.615870
C2451	C245	0.275380	0.541140	0.063020
C2461	C246	0.934100	0.218800	0.310100
C2471	C247	0.637760	0.964610	0.344730
C2481	C248	0.237210	0.932540	0.641290
C2491	C249	0.242030	0.455930	0.605100
C2501	C250	0.332880	0.004350	0.630230
C2511	C251	0.257970	0.863070	0.213900
C2521	C252	0.698570	0.569500	0.410870
C2531	C253	0.563370	0.227980	0.959370
C2541	C254	0.286100	0.742030	0.636930
C2551	C255	0.811390	0.104810	0.383920
C2561	C256	0.472330	0.438570	0.186420
C2571	C257	0.699900	0.418400	0.089500
C2581	C258	0.033760	0.747850	0.561430
C2591	C259	0.793420	0.688610	0.572530
C2601	C260	0.538940	0.654810	0.860650
C2611	C261	0.069480	0.277830	0.004970
C2621	C262	0.218800	0.408700	0.284700
C2631	C263	0.188840	0.819890	0.539350
C2641	C264	0.680110	0.368950	0.219460
C2651	C265	0.868950	0.180110	0.719460
C2661	C266	0.511820	0.075230	0.757570
C2671	C267	0.737440	0.125010	0.312450
C2681	C268	0.544070	0.894900	0.257970
C2691	C269	0.616080	0.395190	0.188610
C2701	C270	0.184000	0.089800	0.286200
C2711	C271	0.955930	0.213900	0.350830
C2721	C272	0.762100	0.659100	0.487200
C2731	C273	0.213800	0.397800	0.303600
C2741	C274	0.404080	0.641290	0.708750
C2751	C275	0.803300	0.939150	0.590650
C2761	C276	0.874850	0.191670	0.787520
C2771	C277	0.705840	0.321710	0.360650
C2781	C278	0.364150	0.303300	0.212650
C2791	C279	0.159100	0.897000	0.671900
C2801	C280	0.560850	0.696700	0.909350
C2811	C281	0.072530	0.279110	0.383920
C2821	C282	0.671850	0.226400	0.234390
C2831	C283	0.966240	0.714090	0.027670
C2841	C284	0.170300	0.128020	0.391720
C2851	C285	0.554550	0.562540	0.828150
C2861	C286	0.345190	0.705840	0.884130
C2871	C287	0.787350	0.590650	0.651500
C2881	C288	0.287350	0.635850	0.196700
C2891	C289	0.786100	0.636930	0.742030
C2901	C290	0.673150	0.380120	0.035390
C2911	C291	0.212480	0.904150	0.587330
C2921	C292	0.787700	0.158630	0.589130
C2931	C293	0.280540	0.319890	0.131050
C2941	C294	0.863070	0.149170	0.605100
C2951	C295	0.695330	0.291250	0.932540
C2961	C296	0.801430	0.589130	0.430500
C2971	C297	0.387570	0.812560	0.125010
C2981	C298	0.924770	0.742430	0.988180
C2991	C299	0.722170	0.227140	0.791650
C3001	C300	0.773600	0.507990	0.445450
C3011	C301	0.568350	0.644550	0.792600
C3021	C302	0.087330	0.874850	0.183180
C3031	C303	0.682340	0.424770	0.936590
C3041	C304	0.187550	0.924990	0.312560
C3051	C305	0.212480	0.308330	0.125150
C3061	C306	0.924990	0.812560	0.687550
C3071	C307	0.787350	0.196700	0.635850
C3081	C308	0.887570	0.762560	0.575010
C3091	C309	0.747850	0.686420	0.714090
C3101	C310	0.678290	0.538940	0.384130
C3111	C311	0.277830	0.504970	0.569480
C3121	C312	0.149170	0.105100	0.363070
C3131	C313	0.862240	0.206970	0.326850
C3141	C314	0.488180	0.563410	0.745750
C3151	C315	0.292600	0.724250	0.648050
C3161	C316	0.858710	0.762790	0.567460
C3171	C317	0.423800	0.068350	0.775750
C3181	C318	0.615870	0.654810	0.794160
C3191	C319	0.227980	0.768610	0.664610
C3201	C320	0.726400	0.171850	0.734390
C3211	C321	0.178290	0.384130	0.538940
C3221	C322	0.410500	0.300100	0.081600
C3231	C323	0.221420	0.829700	0.457720
C3241	C324	0.696400	0.102200	0.786200
C3251	C325	0.504970	0.069480	0.777830
C3261	C326	0.227980	0.459370	0.063370
C3271	C327	0.226400	0.492010	0.554550
C3281	C328	0.268610	0.540630	0.604000
C3291	C329	0.149170	0.044070	0.286100
C3301	C330	0.702650	0.369770	0.374120
C3311	C331	0.196400	0.786200	0.102200
C3321	C332	0.964610	0.844730	0.137760
C3331	C333	0.183180	0.808330	0.595850
C3341	C334	0.862240	0.655270	0.035390
C3351	C335	0.129070	0.287700	0.198570
C3361	C336	0.718500	0.328900	0.418400
C3371	C337	0.326850	0.706970	0.862240
C3381	C338	0.826850	0.862240	0.706970
C3391	C339	0.308330	0.625150	0.712480
C3401	C340	0.226400	0.734390	0.171850
C3411	C341	0.702650	0.332880	0.828530
C3421	C342	0.237900	0.340900	0.512800
C3431	C343	0.791650	0.064510	0.569480
C3441	C344	0.374850	0.787520	0.191670
C3451	C345	0.044070	0.257970	0.894900
C3461	C346	0.374120	0.869770	0.702650
C3471	C347	0.418400	0.589500	0.199900
C3481	C348	0.695330	0.404080	0.262790
C3491	C349	0.281200	0.565900	0.189900
C3501	C350	0.649170	0.286100	0.044070
C3511	C351	0.869770	0.667120	0.495650
C3521	C352	0.706970	0.344730	0.380120
C3531	C353	0.252150	0.313580	0.285910
C3541	C354	0.115870	0.794160	0.654810
C3551	C355	0.544070	0.649170	0.786100
C3561	C356	0.215300	0.781200	0.091300
C3571	C357	0.090650	0.803300	0.439150
C3581	C358	0.054550	0.226400	0.992010
C3591	C359	0.897800	0.713800	0.803600
C3601	C360	0.136930	0.286100	0.242030
C3611	C361	0.149490	0.868950	0.188840
C3621	C362	0.104810	0.220890	0.293420
C3631	C363	0.624000	0.934100	0.215300
C3641	C364	0.504350	0.671470	0.874120
C3651	C365	0.808330	0.712480	0.625150
C3661	C366	0.563410	0.317660	0.075230
C3671	C367	0.139350	0.845190	0.461060
C3681	C368	0.144550	0.068350	0.292600
C3691	C369	0.591300	0.215300	0.281200
C3701	C370	0.170300	0.042280	0.278580
C3711	C371	0.328900	0.410500	0.610400
C3721	C372	0.316000	0.602200	0.905800
C3731	C373	0.311390	0.383920	0.104810
C3741	C374	0.257570	0.511820	0.575230
C3751	C375	0.262100	0.774900	0.103000
C3761	C376	0.284700	0.376000	0.565900
C3771	C377	0.829700	0.871980	0.608280
C3781	C378	0.369770	0.874120	0.202650
C3791	C379	0.221420	0.391720	0.263700
C3801	C380	0.742030	0.136930	0.786100
C3811	C381	0.432540	0.695330	0.791250
C3821	C382	0.651500	0.560850	0.364150
C3831	C383	0.904150	0.816820	0.691670
C3841	C384	0.409350	0.560850	0.196700
C3851	C385	0.431650	0.076200	0.724250
C3861	C386	0.430500	0.341370	0.129070
C3871	C387	0.110400	0.781500	0.699900
C3881	C388	0.927470	0.206580	0.811390
C3891	C389	0.303600	0.897800	0.213800
C3901	C390	0.935490	0.930520	0.708350
C3911	C391	0.219460	0.868950	0.680110
C3921	C392	0.137760	0.344730	0.964610
C3931	C393	0.040630	0.272020	0.436630
C3941	C394	0.457720	0.128020	0.736300
C3951	C395	0.105100	0.242030	0.955930
C3961	C396	0.437460	0.671850	0.945450
C3971	C397	0.263700	0.371980	0.542280
C3981	C398	0.021880	0.787640	0.563020
C3991	C399	0.396000	0.959370	0.731390
C4001	C400	0.081600	0.281500	0.171100
C4011	C401	0.063020	0.041140	0.275380
C4021	C402	0.667120	0.671470	0.797350
C4031	C403	0.787700	0.629070	0.698570
C4041	C404	0.625150	0.412670	0.316820
C4051	C405	0.424990	0.687550	0.812560
C4061	C406	0.813580	0.061430	0.527670
C4071	C407	0.004970	0.777830	0.069480
C4081	C408	0.682340	0.257570	0.245750
C4091	C409	0.648050	0.423800	0.855450
C4101	C410	0.458860	0.436980	0.224620
C4111	C411	0.816820	0.625150	0.912670
C4121	C412	0.206970	0.380120	0.344730
C4131	C413	0.125010	0.312560	0.387570
C4141	C414	0.850510	0.719460	0.539350
C4151	C415	0.978120	0.212360	0.436980
C4161	C416	0.840900	0.737900	0.012800
C4171	C417	0.713900	0.257970	0.363070
C4181	C418	0.757570	0.182340	0.745750
C4191	C419	0.141290	0.237210	0.432540
C4201	C420	0.762560	0.075010	0.387570
C4211	C421	0.380120	0.535390	0.173150
C4221	C422	0.435490	0.727140	0.004970
C4231	C423	0.294160	0.678290	0.639350
C4241	C424	0.183180	0.374850	0.087330
C4251	C425	0.667120	0.995650	0.369770
C4261	C426	0.188610	0.895190	0.616080
C4271	C427	0.293420	0.720890	0.104810
C4281	C428	0.254250	0.317660	0.242430
C4291	C429	0.222170	0.430520	0.495030
C4301	C430	0.094200	0.897800	0.684000
C4311	C431	0.076200	0.851950	0.644550
C4321	C432	0.828150	0.765610	0.773600
C4331	C433	0.358710	0.567460	0.762790
C4341	C434	0.713800	0.303600	0.397800
C4351	C435	0.404150	0.712480	0.087330
C4361	C436	0.089800	0.303600	0.905800
C4371	C437	0.887570	0.125010	0.812560
C4381	C438	0.972330	0.785910	0.033760
C4391	C439	0.187550	0.262560	0.374990
C4401	C440	0.488180	0.924770	0.242430
C4411	C441	0.535390	0.862240	0.155270
C4421	C442	0.292600	0.568350	0.144550
C4431	C443	0.527670	0.966240	0.214090
C4441	C444	0.715300	0.091300	0.781200
C4451	C445	0.263700	0.891720	0.221420
C4461	C446	0.772020	0.540630	0.936630
C4471	C447	0.595920	0.237210	0.804670
C4481	C448	0.910200	0.213800	0.316000
C4491	C449	0.778580	0.608280	0.736300
C4501	C450	0.624000	0.689900	0.908700
C4511	C451	0.628020	0.670300	0.891720
C4521	C452	0.869770	0.202650	0.874120
C4531	C453	0.089130	0.787700	0.658630
C4541	C454	0.350510	0.811160	0.131050
C4551	C455	0.707400	0.275750	0.351950
C4561	C456	0.696700	0.409350	0.060850
C4571	C457	0.492010	0.054550	0.726400
C4581	C458	0.231390	0.396000	0.459370
C4591	C459	0.095920	0.804670	0.237210
C4601	C460	0.786200	0.602200	0.696400
C4611	C461	0.196700	0.135850	0.287350
C4621	C462	0.945450	0.773600	0.007990
C4631	C463	0.655270	0.535390	0.362240
C4641	C464	0.870930	0.712300	0.801430
C4651	C465	0.936630	0.896000	0.664610
C4661	C466	0.004350	0.130230	0.832880
C4671	C467	0.075010	0.187440	0.312450
C4681	C468	0.800100	0.910500	0.581600
C4691	C469	0.631050	0.280540	0.819890
C4701	C470	0.148050	0.855450	0.423800
C4711	C471	0.714090	0.527670	0.466240
C4721	C472	0.720890	0.604810	0.793420
C4731	C473	0.930520	0.722170	0.995030
C4741	C474	0.659100	0.987200	0.262100
C4751	C475	0.164610	0.227980	0.268610
C4761	C476	0.731390	0.272020	0.835390
C4771	C477	0.612430	0.187440	0.874990
C4781	C478	0.370930	0.569500	0.158630
C4791	C479	0.065900	0.781200	0.689900
C4801	C480	0.184000	0.094200	0.397800
C4811	C481	0.108280	0.829700	0.371980
C4821	C482	0.435490	0.708350	0.930520
C4831	C483	0.436590	0.682340	0.924770
C4841	C484	0.671470	0.297350	0.167120
C4851	C485	0.328150	0.773600	0.765610
C4861	C486	0.883920	0.072530	0.779110
C4871	C487	0.254250	0.936590	0.511820
C4881	C488	0.696400	0.594200	0.410200
C4891	C489	0.212360	0.275380	0.234240
C4901	C490	0.206970	0.826850	0.362240
C4911	C491	0.737210	0.095920	0.304670
C4921	C492	0.832880	0.202650	0.328530
C4931	C493	0.044070	0.786100	0.649170
C4941	C494	0.608280	0.236300	0.278580
C4951	C495	0.195330	0.932540	0.291250
C4961	C496	0.189900	0.065900	0.281200
C4971	C497	0.478120	0.041140	0.765760
C4981	C498	0.581600	0.171100	0.281500
C4991	C499	0.060850	0.909350	0.696700
C5001	C500	0.868950	0.688840	0.649490
C5011	C501	0.212300	0.841370	0.410870
C5021	C502	0.158630	0.089130	0.287700
C5031	C503	0.278580	0.542280	0.170300
C5041	C504	0.939150	0.090650	0.303300
C5051	C505	0.130230	0.332880	0.504350
C5061	C506	0.478120	0.436980	0.212360
C5071	C507	0.287640	0.765760	0.724620
C5081	C508	0.287520	0.874850	0.691670
C5091	C509	0.275750	0.851950	0.207400
C5101	C510	0.171100	0.781500	0.081600
C5111	C511	0.937460	0.945450	0.671850
C5121	C512	0.780540	0.649490	0.960650
C5131	C513	0.274900	0.762100	0.603000
C5141	C514	0.405800	0.089800	0.803600
C5151	C515	0.811160	0.180110	0.460650
C5161	C516	0.876000	0.091300	0.310100
C5171	C517	0.212360	0.936980	0.478120
C5181	C518	0.590650	0.151500	0.287350
C5191	C519	0.785910	0.252150	0.813580
C5201	C520	0.910200	0.696400	0.094200
C5211	C521	0.924990	0.112430	0.737440
C5221	C522	0.787640	0.724620	0.765760
C5231	C523	0.182340	0.936590	0.424770
C5241	C524	0.684000	0.286200	0.089800
C5251	C525	0.762790	0.067460	0.358710
C5261	C526	0.205840	0.360650	0.321710
C5271	C527	0.293420	0.572530	0.688610
C5281	C528	0.095850	0.912670	0.287520
C5291	C529	0.455930	0.105100	0.742030
C5301	C530	0.649490	0.188840	0.868950
C5311	C531	0.371980	0.042280	0.763700
C5321	C532	0.850510	0.131050	0.811160
C5331	C533	0.602200	0.196400	0.286200
C5341	C534	0.436980	0.724620	0.958860
C5351	C535	0.351950	0.576200	0.144550
C5361	C536	0.360650	0.821710	0.705840
C5371	C537	0.817660	0.754250	0.742430
C5381	C538	0.871980	0.763700	0.042280
C5391	C539	0.762790	0.695330	0.904080
C5401	C540	0.932540	0.791250	0.695330
C5411	C541	0.721420	0.263700	0.391720
C5421	C542	0.272860	0.495030	0.064510
C5431	C543	0.316000	0.713800	0.910200
C5441	C544	0.958860	0.734240	0.021880
C5451	C545	0.794160	0.639350	0.678290
C5461	C546	0.064510	0.069480	0.291650
C5471	C547	0.848500	0.635850	0.439150
C5481	C548	0.718800	0.434100	0.810100
C5491	C549	0.631050	0.350510	0.311160
C5501	C550	0.065900	0.284700	0.876000
C5511	C551	0.245750	0.488180	0.063410
C5521	C552	0.054550	0.828150	0.562540
C5531	C553	0.167120	0.369770	0.995650
C5541	C554	0.542280	0.670300	0.778580
C5551	C555	0.910870	0.212300	0.341370
C5561	C556	0.095850	0.183180	0.308330
C5571	C557	0.589130	0.930500	0.301430
C5581	C558	0.198570	0.410870	0.569500
C5591	C559	0.218500	0.800100	0.389600
C5601	C560	0.039350	0.188840	0.319890
C5611	C561	0.151500	0.787350	0.090650
C5621	C562	0.731390	0.459370	0.396000
C5631	C563	0.897800	0.184000	0.594200
C5641	C564	0.781200	0.189900	0.565900
C5651	C565	0.105100	0.863070	0.649170
C5661	C566	0.811160	0.631050	0.850510
C5671	C567	0.727980	0.664610	0.768610
C5681	C568	0.265610	0.328150	0.273600
C5691	C569	0.116080	0.927470	0.220890
C5701	C570	0.344730	0.880120	0.206970
C5711	C571	0.319890	0.688840	0.039350
C5721	C572	0.987200	0.762100	0.159100
C5731	C573	0.625010	0.237440	0.812450
C5741	C574	0.460650	0.680110	0.811160
C5751	C575	0.737440	0.612430	0.924990
C5761	C576	0.396000	0.436630	0.164610
C5771	C577	0.430500	0.089130	0.801430
C5781	C578	0.064510	0.995030	0.272860
C5791	C579	0.734240	0.212360	0.775380
C5801	C580	0.436590	0.754250	0.011820
C5811	C581	0.604000	0.040630	0.268610
C5821	C582	0.021880	0.234240	0.958860
C5831	C583	0.128020	0.236300	0.957720
C5841	C584	0.707400	0.431650	0.855450
C5851	C585	0.326850	0.619880	0.964610
C5861	C586	0.955930	0.742030	0.105100
C5871	C587	0.438570	0.752150	0.966240
C5881	C588	0.569480	0.004970	0.277830
C5891	C589	0.687550	0.374990	0.262560
C5901	C590	0.935490	0.004970	0.727140
C5911	C591	0.533760	0.972330	0.285910
C5921	C592	0.208750	0.404080	0.141290
C5931	C593	0.765610	0.492010	0.937460
C5941	C594	0.658630	0.287700	0.089130
C5951	C595	0.384130	0.038940	0.678290
C5961	C596	0.995650	0.125880	0.328530
C5971	C597	0.810100	0.876000	0.591300
C5981	C598	0.171850	0.937460	0.445450
C5991	C599	0.575230	0.563410	0.817660
C6001	C600	0.075010	0.887570	0.262560
C6011	C601	0.840900	0.103000	0.328100
C6021	C602	0.137760	0.793030	0.673150
C6031	C603	0.225100	0.828100	0.487200
C6041	C604	0.242430	0.817660	0.254250
C6051	C605	0.938570	0.966240	0.752150
C6061	C606	0.075230	0.817660	0.563410
C6071	C607	0.742430	0.488180	0.424770
C6081	C608	0.797350	0.625880	0.630230
C6091	C609	0.589800	0.905800	0.303600
C6101	C610	0.141290	0.904080	0.208750
C6111	C611	0.042280	0.778580	0.670300
C6121	C612	0.186420	0.938570	0.472330
C6131	C613	0.658630	0.370930	0.069500
C6141	C614	0.291250	0.432540	0.195330
C6151	C615	0.688610	0.616080	0.895190
C6161	C616	0.340900	0.328100	0.103000
C6171	C617	0.936980	0.978120	0.712360
C6181	C618	0.262560	0.387570	0.075010
C6191	C619	0.129070	0.841370	0.430500
C6201	C620	0.278580	0.736300	0.608280
C6211	C621	0.619880	0.464610	0.826850
C6221	C622	0.792600	0.144550	0.568350
C6231	C623	0.720890	0.116080	0.427470
C6241	C624	0.569500	0.658630	0.870930
C6251	C625	0.131050	0.311160	0.350510
C6261	C626	0.329700	0.608280	0.871980
C6271	C627	0.242030	0.786100	0.136930
C6281	C628	0.683180	0.087330	0.374850
C6291	C629	0.281500	0.610400	0.199900
C6301	C630	0.828150	0.062540	0.554550
C6311	C631	0.829700	0.957720	0.721420
C6321	C632	0.793030	0.619880	0.655270
C6331	C633	0.774900	0.171900	0.512800
C6341	C634	0.072530	0.793420	0.188610
C6351	C635	0.068350	0.792600	0.644550
C6361	C636	0.495030	0.930520	0.222170
C6371	C637	0.835390	0.063370	0.604000
C6381	C638	0.884130	0.678290	0.038940
C6391	C639	0.027670	0.813580	0.561430
C6401	C640	0.213900	0.363070	0.257970
C6411	C641	0.207400	0.351950	0.275750
C6421	C642	0.635850	0.939150	0.348500
C6431	C643	0.219460	0.350510	0.039350
C6441	C644	0.619880	0.155270	0.293030
C6451	C645	0.851950	0.144550	0.576200
C6461	C646	0.257570	0.745750	0.182340
C6471	C647	0.180110	0.960650	0.311160
C6481	C648	0.212300	0.370930	0.301430
C6491	C649	0.234390	0.726400	0.671850
C6501	C650	0.188840	0.368950	0.149490
C6511	C651	0.285910	0.813580	0.252150
C6521	C652	0.930500	0.801430	0.089130
C6531	C653	0.196700	0.060850	0.409350
C6541	C654	0.436630	0.664610	0.896000
C6551	C655	0.504350	0.832880	0.130230
C6561	C656	0.785910	0.533760	0.472330
C6571	C657	0.436630	0.772020	0.040630
C6581	C658	0.625880	0.130230	0.297350
C6591	C659	0.870930	0.158630	0.569500
C6601	C660	0.727980	0.063370	0.459370
C6611	C661	0.568350	0.923800	0.275750
C6621	C662	0.136930	0.850830	0.394900
C6631	C663	0.563020	0.275380	0.041140
C6641	C664	0.791250	0.595920	0.858710
C6651	C665	0.605100	0.649170	0.863070
C6661	C666	0.376000	0.310100	0.091300
C6671	C667	0.212650	0.409350	0.348500
C6681	C668	0.089130	0.301430	0.930500
C6691	C669	0.691670	0.374850	0.287520
C6701	C670	0.287350	0.651500	0.590650
C6711	C671	0.297350	0.667120	0.171470
C6721	C672	0.236300	0.457720	0.628020
C6731	C673	0.218500	0.418400	0.328900
C6741	C674	0.041140	0.265760	0.978120
C6751	C675	0.625010	0.387570	0.312560
C6761	C676	0.171470	0.167120	0.297350
C6771	C677	0.590650	0.439150	0.803300
C6781	C678	0.762100	0.103000	0.774900
C6791	C679	0.718500	0.389600	0.800100
C6801	C680	0.736300	0.628020	0.457720
C6811	C681	0.466240	0.027670	0.714090
C6821	C682	0.439150	0.303300	0.090650
C6831	C683	0.154810	0.038940	0.360650
C6841	C684	0.075230	0.257570	0.011820
C6851	C685	0.594200	0.910200	0.196400
C6861	C686	0.938570	0.972330	0.686420
C6871	C687	0.208350	0.935490	0.430520
C6881	C688	0.178290	0.794160	0.139350
C6891	C689	0.904080	0.195330	0.762790
C6901	C690	0.186420	0.247850	0.214090
C6911	C691	0.850830	0.955930	0.713900
C6921	C692	0.883920	0.811390	0.604810
C6931	C693	0.341370	0.629070	0.930500
C6941	C694	0.797350	0.171470	0.667120
C6951	C695	0.565900	0.876000	0.284700
C6961	C696	0.562540	0.328150	0.054550
C6971	C697	0.835390	0.772020	0.731390
C6981	C698	0.268610	0.727980	0.164610
C6991	C699	0.648050	0.224250	0.292600
C7001	C700	0.039350	0.850510	0.219460
C7011	C701	0.257970	0.394900	0.544070
C7021	C702	0.765760	0.541140	0.478120
C7031	C703	0.262560	0.874990	0.687550
C7041	C704	0.312560	0.424990	0.187550
C7051	C705	0.828900	0.610400	0.410500
C7061	C706	0.775750	0.568350	0.423800
C7071	C707	0.772860	0.064510	0.495030
C7081	C708	0.464610	0.137760	0.844730
C7091	C709	0.286100	0.544070	0.149170
C7101	C710	0.191670	0.904150	0.316820
C7111	C711	0.810100	0.934100	0.718800
C7121	C712	0.303300	0.590650	0.939150
C7131	C713	0.706580	0.427470	0.311390
C7141	C714	0.644550	0.292600	0.068350
C7151	C715	0.012800	0.237900	0.840900
C7161	C716	0.199900	0.089500	0.418400
C7171	C717	0.154810	0.115870	0.294160
C7181	C718	0.644550	0.351950	0.076200
C7191	C719	0.171470	0.004350	0.374120
C7201	C720	0.793030	0.173150	0.637760
C7211	C721	0.234240	0.775380	0.212360
C7221	C722	0.215300	0.434100	0.624000
C7231	C723	0.721420	0.457720	0.829700
C7241	C724	0.772020	0.231390	0.335390
C7251	C725	0.076200	0.224250	0.931650
C7261	C726	0.148050	0.292600	0.224250
C7271	C727	0.395190	0.706580	0.779110
C7281	C728	0.495650	0.328530	0.125880
C7291	C729	0.635850	0.696700	0.787350
C7301	C730	0.389600	0.300100	0.218500
C7311	C731	0.775750	0.207400	0.851950
C7321	C732	0.224620	0.287640	0.265760
C7331	C733	0.533760	0.561430	0.747850
C7341	C734	0.742030	0.605100	0.455930
C7351	C735	0.895190	0.116080	0.688610
C7361	C736	0.362240	0.326850	0.206970
C7371	C737	0.355450	0.648050	0.923800
C7381	C738	0.686420	0.214090	0.247850
C7391	C739	0.089800	0.786200	0.684000
C7401	C740	0.793420	0.104810	0.720890
C7411	C741	0.313580	0.785910	0.752150
C7421	C742	0.937460	0.992010	0.765610
C7431	C743	0.960650	0.149490	0.780540
C7441	C744	0.687440	0.112430	0.374990
C7451	C745	0.889600	0.671100	0.089500
C7461	C746	0.708350	0.277830	0.272860
C7471	C747	0.671900	0.397000	0.159100
C7481	C748	0.205840	0.845190	0.384130
C7491	C749	0.125880	0.297350	0.130230
C7501	C750	0.860650	0.154810	0.538940
C7511	C751	0.966240	0.252150	0.438570
C7521	C752	0.262790	0.358710	0.067460
C7531	C753	0.011820	0.757570	0.075230
C7541	C754	0.225100	0.397000	0.237900
C7551	C755	0.069480	0.791650	0.564510
C7561	C756	0.199900	0.110400	0.281500
C7571	C757	0.041140	0.775380	0.563020
C7581	C758	0.891720	0.721420	0.763700
C7591	C759	0.374990	0.612430	0.687440
C7601	C760	0.394900	0.044070	0.757970
C7611	C761	0.424770	0.436590	0.182340
C7621	C762	0.424990	0.737440	0.112430
C7631	C763	0.713800	0.410200	0.816000
C7641	C764	0.280540	0.960650	0.649490
C7651	C765	0.686420	0.472330	0.938570
C7661	C766	0.541140	0.978120	0.265760
C7671	C767	0.708750	0.567460	0.804670
C7681	C768	0.187440	0.374990	0.112430
C7691	C769	0.272860	0.777830	0.708350
C7701	C770	0.063370	0.104000	0.335390
C7711	C771	0.636930	0.394900	0.850830
C7721	C772	0.303300	0.712650	0.864150
C7731	C773	0.992010	0.726400	0.054550
C7741	C774	0.754250	0.511820	0.936590
C7751	C775	0.410200	0.094200	0.696400
C7761	C776	0.654810	0.294160	0.115870
C7771	C777	0.234390	0.507990	0.062540
C7781	C778	0.602200	0.405800	0.816000
C7791	C779	0.434100	0.310100	0.218800
C7801	C780	0.308330	0.683180	0.095850
C7811	C781	0.683180	0.595850	0.808330
C7821	C782	0.687550	0.312560	0.924990
C7831	C783	0.061430	0.027670	0.313580
C7841	C784	0.208350	0.272860	0.277830
C7851	C785	0.779110	0.572530	0.883920
C7861	C786	0.279110	0.395190	0.206580
C7871	C787	0.561430	0.247850	0.033760
C7881	C788	0.945450	0.171850	0.437460
C7891	C789	0.787520	0.095850	0.412670
C7901	C790	0.272020	0.936630	0.540630
C7911	C791	0.410200	0.316000	0.213800
C7921	C792	0.874120	0.702650	0.869770
C7931	C793	0.961060	0.821710	0.115870
C7941	C794	0.362240	0.035390	0.655270
C7951	C795	0.237210	0.304670	0.095920
C7961	C796	0.275750	0.423800	0.568350
C7971	C797	0.610400	0.910500	0.328900
C7981	C798	0.589130	0.658630	0.787700
C7991	C799	0.335390	0.731390	0.772020
C8001	C800	0.191670	0.287520	0.374850
C8011	C801	0.594200	0.684000	0.897800
C8021	C802	0.876000	0.784700	0.065900
C8031	C803	0.328530	0.702650	0.832880
C8041	C804	0.231390	0.835390	0.272020
C8051	C805	0.089500	0.918400	0.699900
C8061	C806	0.104810	0.883920	0.311390
C8071	C807	0.572530	0.188610	0.793420
C8081	C808	0.262100	0.487200	0.659100
C8091	C809	0.328530	0.625880	0.995650
C8101	C810	0.736300	0.108280	0.778580
C8111	C811	0.995030	0.772860	0.564510
C8121	C812	0.604810	0.293420	0.220890
C8131	C813	0.855450	0.923800	0.648050
C8141	C814	0.042280	0.263700	0.871980
C8151	C815	0.311160	0.460650	0.180110
C8161	C816	0.277830	0.772860	0.208350
C8171	C817	0.391720	0.628020	0.170300
C8181	C818	0.803600	0.213800	0.897800
C8191	C819	0.936590	0.011820	0.754250
C8201	C820	0.671900	0.274900	0.012800
C8211	C821	0.455930	0.350830	0.213900
C8221	C822	0.376000	0.065900	0.784700
C8231	C823	0.540630	0.104000	0.768610
C8241	C824	0.757970	0.213900	0.863070
C8251	C825	0.670300	0.391720	0.128020
C8261	C826	0.273600	0.445450	0.507990
C8271	C827	0.567460	0.262790	0.858710
C8281	C828	0.279110	0.883920	0.572530
C8291	C829	0.762560	0.687550	0.874990
C8301	C830	0.293030	0.655270	0.619880
C8311	C831	0.699900	0.281500	0.110400
C8321	C832	0.768610	0.164610	0.727980
C8331	C833	0.587330	0.183180	0.874850
C8341	C834	0.587330	0.404150	0.212480
C8351	C835	0.091300	0.810100	0.376000
C8361	C836	0.227140	0.935490	0.504970
C8371	C837	0.724620	0.265760	0.287640
C8381	C838	0.130230	0.797350	0.125880
C8391	C839	0.369770	0.495650	0.667120
C8401	C840	0.828530	0.995650	0.625880
C8411	C841	0.171850	0.234390	0.226400
C8421	C842	0.725100	0.487200	0.828100
C8431	C843	0.712360	0.478120	0.936980
C8441	C844	0.858710	0.095920	0.791250
C8451	C845	0.319890	0.631050	0.780540
C8461	C846	0.670300	0.278580	0.042280
C8471	C847	0.629070	0.430500	0.841370
C8481	C848	0.781500	0.199900	0.610400
C8491	C849	0.910500	0.828900	0.110400
C8501	C850	0.864150	0.212650	0.303300
C8511	C851	0.128020	0.891720	0.670300
C8521	C852	0.655270	0.119880	0.793030
C8531	C853	0.895190	0.779110	0.706580
C8541	C854	0.370930	0.801430	0.712300
C8551	C855	0.236300	0.778580	0.108280
C8561	C856	0.187440	0.812450	0.575010
C8571	C857	0.004970	0.227140	0.435490
C8581	C858	0.274900	0.512800	0.171900
C8591	C859	0.040630	0.768610	0.104000
C8601	C860	0.671100	0.081600	0.781500
C8611	C861	0.848500	0.212650	0.909350
C8621	C862	0.930520	0.208350	0.435490
C8631	C863	0.224250	0.792600	0.148050
C8641	C864	0.384130	0.345190	0.205840
C8651	C865	0.821710	0.205840	0.860650
C8661	C866	0.714090	0.186420	0.747850
C8671	C867	0.487200	0.328100	0.225100
C8681	C868	0.563020	0.287640	0.021880
C8691	C869	0.542280	0.871980	0.263700
C8701	C870	0.636930	0.242030	0.286100
C8711	C871	0.874850	0.683180	0.587330
C8721	C872	0.772860	0.708350	0.777830
C8731	C873	0.272020	0.335390	0.231390
C8741	C874	0.371980	0.329700	0.108280
C8751	C875	0.595850	0.287520	0.912670
C8761	C876	0.341370	0.712300	0.910870
C8771	C877	0.930500	0.129070	0.341370
C8781	C878	0.304670	0.595920	0.737210
C8791	C879	0.237900	0.897000	0.225100
C8801	C880	0.719460	0.680110	0.868950
C8811	C881	0.291250	0.858710	0.595920
C8821	C882	0.350830	0.636930	0.894900
C8831	C883	0.409350	0.848500	0.712650
C8841	C884	0.651500	0.090650	0.787350
C8851	C885	0.932540	0.141290	0.737210
C8861	C886	0.792600	0.648050	0.724250
C8871	C887	0.460650	0.780540	0.149490
C8881	C888	0.227140	0.291650	0.222170
C8891	C889	0.698570	0.129070	0.787700
C8901	C890	0.495030	0.564510	0.772860
C8911	C891	0.812560	0.625010	0.887570
C8921	C892	0.880120	0.706970	0.844730
C8931	C893	0.689900	0.281200	0.065900
C8941	C894	0.786200	0.184000	0.589800
C8951	C895	0.817660	0.063410	0.575230
C8961	C896	0.812560	0.187550	0.424990
C8971	C897	0.781500	0.581600	0.671100
C8981	C898	0.286200	0.589800	0.184000
C8991	C899	0.904080	0.708750	0.641290
C9001	C900	0.684000	0.397800	0.094200
C9011	C901	0.889600	0.218500	0.300100
C9021	C902	0.159100	0.262100	0.987200
C9031	C903	0.768610	0.604000	0.540630
C9041	C904	0.905800	0.803600	0.089800
C9051	C905	0.936590	0.924770	0.682340
C9061	C906	0.712300	0.301430	0.370930
C9071	C907	0.641290	0.208750	0.904080
C9081	C908	0.335390	0.604000	0.063370
C9091	C909	0.589500	0.889600	0.171100
C9101	C910	0.727140	0.222170	0.291650
C9111	C911	0.688840	0.539350	0.819890
C9121	C912	0.671470	0.374120	0.004350
C9131	C913	0.033760	0.285910	0.972330
C9141	C914	0.778580	0.170300	0.542280
C9151	C915	0.934100	0.715300	0.124000
C9161	C916	0.734390	0.671850	0.726400
C9171	C917	0.800100	0.889600	0.718500
C9181	C918	0.828900	0.218500	0.918400
C9191	C919	0.706970	0.362240	0.826850
C9201	C920	0.119880	0.293030	0.155270
C9211	C921	0.069500	0.198570	0.910870
C9221	C922	0.924770	0.182340	0.436590
C9231	C923	0.563370	0.335390	0.104000
C9241	C924	0.959370	0.727980	0.563370
C9251	C925	0.284700	0.908700	0.218800
C9261	C926	0.845190	0.884130	0.705840
C9271	C927	0.245750	0.757570	0.682340
C9281	C928	0.629070	0.198570	0.287700
C9291	C929	0.608280	0.371980	0.829700
C9301	C930	0.725100	0.237900	0.397000
C9311	C931	0.312450	0.687440	0.075010
C9321	C932	0.562540	0.234390	0.007990
C9331	C933	0.383920	0.779110	0.072530
C9341	C934	0.090650	0.287350	0.151500
C9351	C935	0.747850	0.061430	0.533760
C9361	C936	0.673150	0.293030	0.137760
C9371	C937	0.495650	0.167120	0.869770
C9381	C938	0.589500	0.699900	0.918400
C9391	C939	0.995030	0.222170	0.930520
C9401	C940	0.894900	0.757970	0.044070
C9411	C941	0.196400	0.410200	0.594200
C9421	C942	0.247850	0.714090	0.686420
C9431	C943	0.775380	0.712360	0.734240
C9441	C944	0.294160	0.615870	0.154810
C9451	C945	0.819890	0.039350	0.688840
C9461	C946	0.125150	0.808330	0.212480
C9471	C947	0.125880	0.828530	0.495650
C9481	C948	0.131050	0.819890	0.280540
C9491	C949	0.487200	0.159100	0.762100
C9501	C950	0.445450	0.007990	0.773600
C9511	C951	0.095920	0.291250	0.358710
C9521	C952	0.706580	0.279110	0.895190
C9531	C953	0.285910	0.472330	0.533760
C9541	C954	0.909350	0.712650	0.848500
C9551	C955	0.328100	0.603000	0.840900
C9561	C956	0.821710	0.615870	0.461060
C9571	C957	0.438570	0.686420	0.972330
C9581	C958	0.808330	0.095850	0.683180
C9591	C959	0.763700	0.542280	0.371980
C9601	C960	0.439150	0.135850	0.848500
C9611	C961	0.737900	0.512800	0.340900
C9621	C962	0.880120	0.173150	0.535390
C9631	C963	0.112430	0.874990	0.187440
C9641	C964	0.311160	0.850510	0.631050
C9651	C965	0.819890	0.780540	0.631050
C9661	C966	0.773600	0.265610	0.828150
C9671	C967	0.774900	0.603000	0.762100
C9681	C968	0.763700	0.221420	0.891720
C9691	C969	0.988180	0.242430	0.924770
C9701	C970	0.678290	0.139350	0.794160
C9711	C971	0.957720	0.221420	0.329700
C9721	C972	0.139350	0.294160	0.178290
C9731	C973	0.521880	0.958860	0.234240
C9741	C974	0.616080	0.220890	0.927470
C9751	C975	0.816000	0.905800	0.602200
C9761	C976	0.564510	0.272860	0.995030
C9771	C977	0.397800	0.594200	0.184000
C9781	C978	0.779110	0.206580	0.395190
C9791	C979	0.038940	0.178290	0.884130
C9801	C980	0.061430	0.033760	0.247850
C9811	C981	0.794160	0.154810	0.615870
C9821	C982	0.912670	0.787520	0.595850
C9831	C983	0.884130	0.205840	0.345190
C9841	C984	0.198570	0.787700	0.129070
C9851	C985	0.804670	0.737210	0.595920
C9861	C986	0.625880	0.495650	0.828530
C9871	C987	0.202650	0.374120	0.369770
C9881	C988	0.394900	0.350830	0.136930
C9891	C989	0.565900	0.689900	0.781200
C9901	C990	0.803600	0.589800	0.405800
C9911	C991	0.864150	0.651500	0.060850
C9921	C992	0.345190	0.639350	0.961060
C9931	C993	0.173150	0.137760	0.293030
C9941	C994	0.931650	0.207400	0.355450
C9951	C995	0.119880	0.826850	0.464610
C9961	C996	0.213900	0.850830	0.455930
C9971	C997	0.978120	0.765760	0.041140
C9981	C998	0.680110	0.311160	0.960650
C9991	C999	0.708350	0.430520	0.935490
C10001	C1000	0.213800	0.816000	0.410200
C10011	C1001	0.316820	0.912670	0.625150
C10021	C1002	0.395190	0.688610	0.116080
C10031	C1003	0.437460	0.765610	0.992010
C10041	C1004	0.734390	0.062540	0.507990
C10051	C1005	0.102200	0.286200	0.196400
C10061	C1006	0.188610	0.293420	0.072530
C10071	C1007	0.287700	0.589130	0.158630
C10081	C1008	0.995650	0.869770	0.167120
C10091	C1009	0.972330	0.186420	0.438570
C10101	C1010	0.206580	0.895190	0.279110
C10111	C1011	0.125150	0.316820	0.412670
C10121	C1012	0.262790	0.904080	0.695330
C10131	C1013	0.777830	0.208350	0.772860
C10141	C1014	0.363070	0.605100	0.149170
C10151	C1015	0.207400	0.855450	0.431650
C10161	C1016	0.589800	0.684000	0.786200
C10171	C1017	0.649170	0.363070	0.105100
C10181	C1018	0.712480	0.125150	0.308330
C10191	C1019	0.208750	0.804670	0.567460
C10201	C1020	0.007990	0.734390	0.562540
C10211	C1021	0.069500	0.870930	0.658630
C10221	C1022	0.910500	0.081600	0.300100
C10231	C1023	0.125010	0.812450	0.237440
C10241	C1024	0.894900	0.136930	0.350830
C10251	C1025	0.603000	0.262100	0.274900
C10261	C1026	0.374990	0.762560	0.187550
C10271	C1027	0.038940	0.860650	0.654810
C10281	C1028	0.436980	0.712360	0.978120
C10291	C1029	0.910870	0.698570	0.069500
C10301	C1030	0.575010	0.312450	0.187440
C10311	C1031	0.909350	0.196700	0.560850
C10321	C1032	0.363070	0.757970	0.713900
C10331	C1033	0.458860	0.021880	0.734240
C10341	C1034	0.757970	0.544070	0.394900
C10351	C1035	0.459370	0.563370	0.727980
C10361	C1036	0.461060	0.345190	0.139350
C10371	C1037	0.340900	0.012800	0.737900
C10381	C1038	0.218800	0.810100	0.434100
C10391	C1039	0.265760	0.478120	0.541140
C10401	C1040	0.189900	0.124000	0.408700
C10411	C1041	0.784700	0.565900	0.376000
C10421	C1042	0.391720	0.763700	0.721420
C10431	C1043	0.576200	0.644550	0.851950
C10441	C1044	0.591300	0.376000	0.810100
C10451	C1045	0.472330	0.033760	0.785910
C10461	C1046	0.445450	0.437460	0.171850
C10471	C1047	0.412670	0.595850	0.787520
C10481	C1048	0.527670	0.561430	0.813580
C10491	C1049	0.124000	0.215300	0.934100
C10501	C1050	0.410870	0.341370	0.212300
C10511	C1051	0.397000	0.659100	0.171900
C10521	C1052	0.368950	0.719460	0.180110
C10531	C1053	0.212650	0.803300	0.364150
C10541	C1054	0.332880	0.328530	0.202650
C10551	C1055	0.850830	0.894900	0.636930
C10561	C1056	0.067460	0.208750	0.304670
C10571	C1057	0.712480	0.587330	0.904150
C10581	C1058	0.149490	0.280540	0.460650
C10591	C1059	0.304670	0.708750	0.067460
C10601	C1060	0.554550	0.992010	0.226400
C10611	C1061	0.348500	0.909350	0.212650
C10621	C1062	0.712650	0.348500	0.409350
C10631	C1063	0.912670	0.125150	0.816820
C10641	C1064	0.521880	0.563020	0.787640
C10651	C1065	0.350830	0.713900	0.955930
C10661	C1066	0.987200	0.225100	0.328100
C10671	C1067	0.310100	0.591300	0.876000
C10681	C1068	0.007990	0.273600	0.945450
C10691	C1069	0.712300	0.410870	0.841370
C10701	C1070	0.412670	0.816820	0.125150
C10711	C1071	0.958860	0.224620	0.436980
C10721	C1072	0.110400	0.328900	0.910500
C10731	C1073	0.712650	0.364150	0.803300
C10741	C1074	0.726400	0.554550	0.492010
C10751	C1075	0.727140	0.504970	0.935490
C10761	C1076	0.654810	0.360650	0.038940
C10771	C1077	0.310100	0.718800	0.934100
C10781	C1078	0.466240	0.438570	0.252150
C10791	C1079	0.316820	0.404150	0.191670
C10801	C1080	0.538940	0.884130	0.178290
C10811	C1081	0.539350	0.219460	0.850510
C10821	C1082	0.724250	0.148050	0.792600
C10831	C1083	0.180110	0.219460	0.368950
C10841	C1084	0.155270	0.793030	0.119880
C10851	C1085	0.832880	0.630230	0.004350
C10861	C1086	0.563410	0.245750	0.988180
C10871	C1087	0.664610	0.268610	0.227980
C10881	C1088	0.659100	0.671900	0.897000
C10891	C1089	0.841370	0.910870	0.712300
C10901	C1090	0.844730	0.637760	0.464610
C10911	C1091	0.410870	0.069500	0.698570
C10921	C1092	0.265760	0.787640	0.224620
C10931	C1093	0.713900	0.455930	0.850830
C10941	C1094	0.311390	0.927470	0.706580
C10951	C1095	0.300100	0.581600	0.910500
C10961	C1096	0.671100	0.589500	0.389600
C10971	C1097	0.567460	0.304670	0.208750
C10981	C1098	0.171900	0.012800	0.274900
C10991	C1099	0.182340	0.245750	0.257570
C11001	C1100	0.691670	0.316820	0.904150
C11011	C1101	0.569500	0.910870	0.198570
C11021	C1102	0.424770	0.988180	0.742430
C11031	C1103	0.745750	0.682340	0.757570
C11041	C1104	0.060850	0.151500	0.864150
N11	N1	0.444660	0.766510	0.118750
N21	N2	0.886910	0.089110	0.686180
N31	N3	0.896930	0.059750	0.710100
N41	N4	0.386910	0.700730	0.797800
N51	N5	0.821850	0.766510	0.647760
N61	N6	0.233490	0.852240	0.678150
N71	N7	0.321850	0.674090	0.055340
N81	N8	0.309870	0.601150	0.765120
N91	N9	0.644140	0.225660	0.931320
N101	N10	0.809870	0.044750	0.708720
N111	N11	0.291280	0.836030	0.601150
N121	N12	0.902930	0.702200	0.589110
N131	N13	0.774340	0.568680	0.855860
N141	N14	0.186830	0.289900	0.349650
N151	N15	0.825910	0.647760	0.881250
N161	N16	0.440250	0.603070	0.789900
N171	N17	0.352240	0.733490	0.178150
N181	N18	0.410890	0.797800	0.097070
N191	N19	0.765120	0.663970	0.955250
N201	N20	0.210100	0.896930	0.559750
N211	N21	0.294340	0.568680	0.712820
N221	N22	0.313170	0.650350	0.710100
N231	N23	0.162820	0.813170	0.603070
N241	N24	0.686180	0.097070	0.299270
N251	N25	0.725660	0.144140	0.431320
N261	N26	0.233490	0.381250	0.055340
N271	N27	0.044750	0.836030	0.234880
N281	N28	0.765120	0.101150	0.309870
N291	N29	0.234880	0.898850	0.690130
N301	N30	0.299270	0.702200	0.113090
N311	N31	0.410890	0.613090	0.813820
N321	N32	0.265120	0.955250	0.663970
N331	N33	0.931320	0.205660	0.787180
N341	N34	0.309870	0.708720	0.044750
N351	N35	0.398850	0.663970	0.708720
N361	N36	0.813820	0.700730	0.902930
N371	N37	0.733490	0.055340	0.381250
N381	N38	0.849650	0.186830	0.789900
N391	N39	0.712820	0.068680	0.294340
N401	N40	0.881250	0.733490	0.555340
N411	N41	0.931320	0.725660	0.644140
N421	N42	0.055340	0.881250	0.233490
N431	N43	0.355860	0.774340	0.068680
N441	N44	0.336030	0.544750	0.734880
N451	N45	0.299270	0.597070	0.686180
N461	N46	0.898850	0.190130	0.734880
N471	N47	0.440250	0.837180	0.150350
N481	N48	0.266510	0.321850	0.147760
N491	N49	0.797800	0.200730	0.386910
N501	N50	0.944660	0.825910	0.678150
N511	N51	0.568680	0.355860	0.274340
N521	N52	0.418480	0.712820	0.144140
N531	N53	0.663970	0.455250	0.265120
N541	N54	0.147760	0.821850	0.266510
N551	N55	0.234880	0.336030	0.044750
N561	N56	0.791280	0.190130	0.455250
N571	N57	0.581520	0.294340	0.225660
N581	N58	0.186830	0.896930	0.337180
N591	N59	0.325910	0.444660	0.178150
N601	N60	0.163970	0.265120	0.455250
N611	N61	0.702200	0.089110	0.402930
N621	N62	0.902930	0.200730	0.813820
N631	N63	0.055340	0.174090	0.321850
N641	N64	0.337180	0.940250	0.650350
N651	N65	0.355860	0.581520	0.787180
N661	N66	0.705660	0.274340	0.918480
N671	N67	0.662820	0.059750	0.349650
N681	N68	0.559750	0.396930	0.210100
N691	N69	0.799270	0.686180	0.597070
N701	N70	0.955250	0.791280	0.690130
N711	N71	0.613090	0.299270	0.202200
N721	N72	0.618750	0.444660	0.266510
N731	N73	0.455250	0.765120	0.163970
N741	N74	0.418480	0.705660	0.774340
N751	N75	0.733490	0.678150	0.852240
N761	N76	0.081520	0.225660	0.294340
N771	N77	0.597070	0.410890	0.297800
N781	N78	0.821850	0.055340	0.674090
N791	N79	0.325910	0.881250	0.647760
N801	N80	0.855860	0.068680	0.774340
N811	N81	0.674090	0.118750	0.352240
N821	N82	0.101150	0.809870	0.265120
N831	N83	0.663970	0.208720	0.898850
N841	N84	0.700730	0.402930	0.313820
N851	N85	0.896930	0.837180	0.686830
N861	N86	0.886910	0.797800	0.700730
N871	N87	0.852240	0.674090	0.618750
N881	N88	0.265120	0.309870	0.101150
N891	N89	0.287180	0.355860	0.081520
N901	N90	0.200730	0.886910	0.297800
N911	N91	0.690130	0.291280	0.955250
N921	N92	0.455250	0.690130	0.791280
N931	N93	0.068680	0.274340	0.355860
N941	N94	0.186180	0.299270	0.097070
N951	N95	0.444660	0.678150	0.825910
N961	N96	0.174090	0.352240	0.118750
N971	N97	0.910890	0.813820	0.613090
N981	N98	0.386910	0.686180	0.089110
N991	N99	0.581520	0.287180	0.855860
N1001	N100	0.162820	0.349650	0.059750
N1011	N101	0.647760	0.266510	0.821850
N1021	N102	0.597070	0.186180	0.799270
N1031	N103	0.855860	0.787180	0.581520
N1041	N104	0.103070	0.162820	0.313170
N1051	N105	0.205660	0.918480	0.274340
N1061	N106	0.396930	0.710100	0.059750
N1071	N107	0.113090	0.202200	0.299270
N1081	N108	0.710100	0.150350	0.313170
N1091	N109	0.797800	0.597070	0.910890
N1101	N110	0.799270	0.113090	0.702200
N1111	N111	0.734880	0.044750	0.336030
N1121	N112	0.381250	0.825910	0.147760
N1131	N113	0.918480	0.774340	0.705660
N1141	N114	0.601150	0.265120	0.809870
N1151	N115	0.118750	0.266510	0.444660
N1161	N116	0.431320	0.787180	0.205660
N1171	N117	0.336030	0.791280	0.101150
N1181	N118	0.555340	0.321850	0.174090
N1191	N119	0.589110	0.202200	0.902930
N1201	N120	0.313820	0.902930	0.700730
N1211	N121	0.955250	0.163970	0.765120
N1221	N122	0.650350	0.210100	0.813170
N1231	N123	0.601150	0.336030	0.291280
N1241	N124	0.402930	0.589110	0.702200
N1251	N125	0.089110	0.902930	0.202200
N1261	N126	0.837180	0.650350	0.940250
N1271	N127	0.650350	0.440250	0.337180
N1281	N128	0.396930	0.686830	0.837180
N1291	N129	0.559750	0.162820	0.849650
N1301	N130	0.849650	0.662820	0.559750
N1311	N131	0.101150	0.291280	0.336030
N1321	N132	0.789900	0.686830	0.849650
N1331	N133	0.644140	0.418480	0.212820
N1341	N134	0.150350	0.813170	0.210100
N1351	N135	0.068680	0.794340	0.212820
N1361	N136	0.618750	0.174090	0.852240
N1371	N137	0.103070	0.940250	0.289900
N1381	N138	0.944660	0.118750	0.766510
N1391	N139	0.274340	0.855860	0.568680
N1401	N140	0.712820	0.644140	0.918480
N1411	N141	0.940250	0.150350	0.837180
N1421	N142	0.708720	0.544750	0.809870
N1431	N143	0.789900	0.103070	0.440250
N1441	N144	0.813820	0.113090	0.410890
N1451	N145	0.352240	0.618750	0.674090
N1461	N146	0.349650	0.789900	0.186830
N1471	N147	0.852240	0.178150	0.733490
N1481	N148	0.794340	0.081520	0.725660
N1491	N149	0.809870	0.765120	0.601150
N1501	N150	0.044750	0.208720	0.309870
N1511	N151	0.118750	0.852240	0.174090
N1521	N152	0.200730	0.313820	0.402930
N1531	N153	0.662820	0.603070	0.813170
N1541	N154	0.178150	0.944660	0.325910
N1551	N155	0.147760	0.325910	0.381250
N1561	N156	0.766510	0.618750	0.944660
N1571	N157	0.431320	0.644140	0.725660
N1581	N158	0.836030	0.734880	0.544750
N1591	N159	0.705660	0.431320	0.287180
N1601	N160	0.291280	0.455250	0.190130
N1611	N161	0.700730	0.297800	0.886910
N1621	N162	0.702200	0.613090	0.799270
N1631	N163	0.647760	0.381250	0.325910
N1641	N164	0.208720	0.398850	0.163970
N1651	N165	0.089110	0.186180	0.386910
N1661	N166	0.321850	0.647760	0.766510
N1671	N167	0.589110	0.386910	0.186180
N1681	N168	0.678150	0.352240	0.233490
N1691	N169	0.174090	0.821850	0.555340
N1701	N170	0.686830	0.337180	0.896930
N1711	N171	0.150350	0.337180	0.440250
N1721	N172	0.398850	0.734880	0.190130
N1731	N173	0.144140	0.931320	0.225660
N1741	N174	0.190130	0.955250	0.291280
N1751	N175	0.208720	0.809870	0.544750
N1761	N176	0.059750	0.849650	0.162820
N1771	N177	0.710100	0.559750	0.896930
N1781	N178	0.825910	0.178150	0.444660
N1791	N179	0.212820	0.918480	0.644140
N1801	N180	0.787180	0.705660	0.931320
N1811	N181	0.708720	0.163970	0.398850
N1821	N182	0.690130	0.398850	0.234880
N1831	N183	0.836030	0.101150	0.791280
N1841	N184	0.725660	0.581520	0.794340
N1851	N185	0.881250	0.147760	0.825910
N1861	N186	0.791280	0.601150	0.836030
N1871	N187	0.190130	0.234880	0.398850
N1881	N188	0.313820	0.410890	0.113090
N1891	N189	0.674090	0.555340	0.821850
N1901	N190	0.266510	0.944660	0.618750
N1911	N191	0.918480	0.144140	0.712820
N1921	N192	0.289900	0.440250	0.103070
N1931	N193	0.686830	0.349650	0.289900
N1941	N194	0.210100	0.313170	0.150350
N1951	N195	0.081520	0.855860	0.287180
N1961	N196	0.381250	0.555340	0.733490
N1971	N197	0.225660	0.794340	0.581520
N1981	N198	0.202200	0.799270	0.613090
N1991	N199	0.898850	0.708720	0.663970
N2001	N200	0.313170	0.662820	0.103070
N2011	N201	0.402930	0.813820	0.200730
N2021	N202	0.686180	0.589110	0.886910
N2031	N203	0.766510	0.147760	0.321850
N2041	N204	0.910890	0.097070	0.797800
N2051	N205	0.613090	0.313820	0.910890
N2061	N206	0.555340	0.233490	0.881250
N2071	N207	0.544750	0.234880	0.836030
N2081	N208	0.144140	0.212820	0.418480
N2091	N209	0.794340	0.712820	0.568680
N2101	N210	0.837180	0.186830	0.396930
N2111	N211	0.178150	0.233490	0.352240
N2121	N212	0.297800	0.910890	0.597070
N2131	N213	0.287180	0.931320	0.705660
N2141	N214	0.603070	0.313170	0.162820
N2151	N215	0.097070	0.297800	0.410890
N2161	N216	0.678150	0.325910	0.944660
N2171	N217	0.297800	0.386910	0.200730
N2181	N218	0.202200	0.402930	0.089110
N2191	N219	0.225660	0.431320	0.144140
N2201	N220	0.294340	0.725660	0.081520
N2211	N221	0.163970	0.898850	0.208720
N2221	N222	0.212820	0.294340	0.068680
N2231	N223	0.349650	0.559750	0.662820
N2241	N224	0.274340	0.418480	0.205660
N2251	N225	0.787180	0.081520	0.355860
N2261	N226	0.940250	0.789900	0.603070
N2271	N227	0.205660	0.287180	0.431320
N2281	N228	0.734880	0.690130	0.898850
N2291	N229	0.544750	0.309870	0.208720
N2301	N230	0.186180	0.886910	0.589110
N2311	N231	0.568680	0.212820	0.794340
N2321	N232	0.289900	0.849650	0.686830
N2331	N233	0.059750	0.210100	0.396930
N2341	N234	0.603070	0.289900	0.940250
N2351	N235	0.113090	0.910890	0.313820
N2361	N236	0.774340	0.205660	0.418480
N2371	N237	0.097070	0.799270	0.186180
N2381	N238	0.813170	0.103070	0.662820
N2391	N239	0.337180	0.396930	0.186830
N2401	N240	0.813170	0.710100	0.650350
O11	O1	0.008880	0.767960	0.689580
O21	O2	0.810420	0.819300	0.578380
O31	O3	0.434260	0.673670	0.877230
O41	O4	0.300850	0.688950	0.193000
O51	O5	0.047670	0.750260	0.108130
O61	O6	0.239410	0.796440	0.673670
O71	O7	0.297410	0.357870	0.249740
O81	O8	0.921620	0.189580	0.680700
O91	O9	0.203560	0.826330	0.260590
O101	O10	0.505320	0.160060	0.784540
O111	O11	0.877230	0.703560	0.942970
O121	O12	0.345260	0.720780	0.005320
O131	O13	0.357870	0.608130	0.060460
O141	O14	0.939540	0.891870	0.642130
O151	O15	0.465020	0.750000	0.215020
O161	O16	0.173670	0.239410	0.296440
O171	O17	0.699150	0.388100	0.392150
O181	O18	0.202230	0.351670	0.371300
O191	O19	0.128700	0.330930	0.480370
O201	O20	0.491120	0.310420	0.232040
O211	O21	0.339940	0.345260	0.124480
O221	O22	0.732040	0.240920	0.421620
O231	O23	0.703560	0.260590	0.826330
O241	O24	0.810420	0.991120	0.732040
O251	O25	0.310420	0.732040	0.991120
O261	O26	0.965020	0.215020	0.750000
O271	O27	0.047670	0.297410	0.439540
O281	O28	0.892150	0.699150	0.888100
O291	O29	0.284980	0.534980	0.750000
O301	O30	0.005320	0.784540	0.160060
O311	O31	0.034980	0.250000	0.284980
O321	O32	0.078380	0.810420	0.319300
O331	O33	0.565740	0.239410	0.942970
O341	O34	0.797410	0.249740	0.357870
O351	O35	0.845260	0.839940	0.624480
O361	O36	0.888100	0.199150	0.892150
O371	O37	0.154740	0.160060	0.375520
O381	O38	0.688950	0.693000	0.800850
O391	O39	0.250000	0.284980	0.034980
O401	O40	0.934260	0.057030	0.760590
O411	O41	0.495950	0.188950	0.888100
O421	O42	0.060460	0.108130	0.357870
O431	O43	0.547670	0.439540	0.297410
O441	O44	0.749740	0.452330	0.391870
O451	O45	0.611900	0.107850	0.800850
O461	O46	0.991120	0.759080	0.180700
O471	O47	0.148330	0.297770	0.128700
O481	O48	0.005320	0.220780	0.345260
O491	O49	0.108130	0.250260	0.047670
O501	O50	0.310420	0.578380	0.819300
O511	O51	0.388100	0.495950	0.688950
O521	O52	0.296440	0.557030	0.622770
O531	O53	0.173670	0.934260	0.377230
O541	O54	0.991120	0.232040	0.310420
O551	O55	0.215020	0.250000	0.465020
O561	O56	0.111900	0.311050	0.504050
O571	O57	0.624480	0.284540	0.279220
O581	O58	0.124480	0.279220	0.284540
O591	O59	0.057030	0.796440	0.122770
O601	O60	0.565740	0.326330	0.122770
O611	O61	0.759080	0.680700	0.491120
O621	O62	0.934260	0.877230	0.673670
O631	O63	0.850560	0.019630	0.648330
O641	O64	0.534980	0.250000	0.784980
O651	O65	0.857870	0.060460	0.608130
O661	O66	0.796440	0.622770	0.557030
O671	O67	0.739410	0.673670	0.796440
O681	O68	0.750000	0.715020	0.965020
O691	O69	0.199150	0.392150	0.388100
O701	O70	0.377230	0.942970	0.703560
O711	O71	0.311050	0.004050	0.611900
O721	O72	0.654740	0.375520	0.160060
O731	O73	0.375520	0.660060	0.154740
O741	O74	0.439540	0.797410	0.047670
O751	O75	0.250000	0.965020	0.715020
O761	O76	0.888100	0.688950	0.495950
O771	O77	0.750260	0.142130	0.702590
O781	O78	0.779220	0.624480	0.784540
O791	O79	0.673670	0.377230	0.934260
O801	O80	0.300850	0.611900	0.607850
O811	O81	0.557030	0.434260	0.260590
O821	O82	0.877230	0.173670	0.434260
O831	O83	0.871300	0.202230	0.851670
O841	O84	0.193000	0.188950	0.300850
O851	O85	0.642130	0.391870	0.939540
O861	O86	0.649440	0.351670	0.980370
O871	O87	0.330930	0.350560	0.202230
O881	O88	0.648330	0.519630	0.850560
O891	O89	0.297770	0.628700	0.648330
O901	O90	0.702230	0.371300	0.351670
O911	O91	0.232040	0.421620	0.240920
O921	O92	0.284540	0.779220	0.124480
O931	O93	0.188950	0.388100	0.995950
O941	O94	0.608130	0.560460	0.857870
O951	O95	0.371300	0.519630	0.669070
O961	O96	0.199150	0.807000	0.311050
O971	O97	0.215020	0.965020	0.250000
O981	O98	0.689580	0.421620	0.180700
O991	O99	0.557030	0.122770	0.796440
O1001	O100	0.939540	0.047670	0.797410
O1011	O101	0.220780	0.375520	0.215460
O1021	O102	0.057030	0.260590	0.434260
O1031	O103	0.421620	0.740920	0.732040
O1041	O104	0.669070	0.649440	0.797770
O1051	O105	0.250000	0.784980	0.534980
O1061	O106	0.994680	0.779220	0.654740
O1071	O107	0.122770	0.296440	0.057030
O1081	O108	0.260590	0.326330	0.203560
O1091	O109	0.607850	0.111900	0.300850
O1101	O110	0.193000	0.004050	0.392150
O1111	O111	0.784980	0.750000	0.534980
O1121	O112	0.767960	0.189580	0.508880
O1131	O113	0.215460	0.875520	0.220780
O1141	O114	0.784540	0.660060	0.505320
O1151	O115	0.642130	0.250260	0.202590
O1161	O116	0.750000	0.215020	0.465020
O1171	O117	0.994680	0.215460	0.839940
O1181	O118	0.560460	0.357870	0.108130
O1191	O119	0.759080	0.078380	0.767960
O1201	O120	0.421620	0.680700	0.189580
O1211	O121	0.345260	0.624480	0.839940
O1221	O122	0.297410	0.939540	0.547670
O1231	O123	0.240920	0.921620	0.232040
O1241	O124	0.311050	0.307000	0.199150
O1251	O125	0.065740	0.122770	0.326330
O1261	O126	0.760590	0.203560	0.326330
O1271	O127	0.739410	0.065740	0.442970
O1281	O128	0.388100	0.892150	0.199150
O1291	O129	0.307000	0.699150	0.811050
O1301	O130	0.715460	0.220780	0.875520
O1311	O131	0.807000	0.811050	0.699150
O1321	O132	0.203560	0.377230	0.442970
O1331	O133	0.284540	0.505320	0.660060
O1341	O134	0.839940	0.124480	0.345260
O1351	O135	0.628700	0.480370	0.330930
O1361	O136	0.107850	0.807000	0.495950
O1371	O137	0.942970	0.739410	0.565740
O1381	O138	0.004050	0.892150	0.693000
O1391	O139	0.578380	0.319300	0.810420
O1401	O140	0.442970	0.877230	0.203560
O1411	O141	0.875520	0.720780	0.715460
O1421	O142	0.750000	0.534980	0.784980
O1431	O143	0.715020	0.465020	0.250000
O1441	O144	0.519630	0.169070	0.871300
O1451	O145	0.720780	0.505320	0.845260
O1461	O146	0.508880	0.819300	0.240920
O1471	O147	0.811050	0.611900	0.004050
O1481	O148	0.267960	0.508880	0.189580
O1491	O149	0.240920	0.319300	0.508880
O1501	O150	0.160060	0.284540	0.005320
O1511	O151	0.826330	0.065740	0.622770
O1521	O152	0.980370	0.128700	0.830930
O1531	O153	0.693000	0.392150	0.004050
O1541	O154	0.392150	0.888100	0.699150
O1551	O155	0.826330	0.760590	0.703560
O1561	O156	0.260590	0.934260	0.557030
O1571	O157	0.019630	0.871300	0.169070
O1581	O158	0.019630	0.148330	0.350560
O1591	O159	0.350560	0.648330	0.019630
O1601	O160	0.494680	0.839940	0.215460
O1611	O161	0.628700	0.148330	0.797770
O1621	O162	0.439540	0.642130	0.891870
O1631	O163	0.202230	0.850560	0.330930
O1641	O164	0.702590	0.060460	0.452330
O1651	O165	0.784980	0.034980	0.750000
O1661	O166	0.800850	0.193000	0.688950
O1671	O167	0.839940	0.715460	0.994680
O1681	O168	0.160060	0.875520	0.654740
O1691	O169	0.892150	0.193000	0.504050
O1701	O170	0.703560	0.442970	0.377230
O1711	O171	0.560460	0.202590	0.952330
O1721	O172	0.622770	0.565740	0.826330
O1731	O173	0.965020	0.750000	0.715020
O1741	O174	0.760590	0.557030	0.934260
O1751	O175	0.202590	0.452330	0.060460
O1761	O176	0.215460	0.339940	0.494680
O1771	O177	0.330930	0.980370	0.628700
O1781	O178	0.220780	0.845260	0.505320
O1791	O179	0.202590	0.750260	0.642130
O1801	O180	0.495950	0.307000	0.107850
O1811	O181	0.767960	0.578380	0.759080
O1821	O182	0.154740	0.994680	0.279220
O1831	O183	0.505320	0.345260	0.220780
O1841	O184	0.715020	0.250000	0.965020
O1851	O185	0.452330	0.891870	0.249740
O1861	O186	0.297770	0.669070	0.149440
O1871	O187	0.851670	0.702230	0.871300
O1881	O188	0.800850	0.607850	0.611900
O1891	O189	0.784540	0.124480	0.779220
O1901	O190	0.371300	0.851670	0.202230
O1911	O191	0.720780	0.215460	0.375520
O1921	O192	0.845260	0.005320	0.720780
O1931	O193	0.267960	0.759080	0.578380
O1941	O194	0.797770	0.648330	0.628700
O1951	O195	0.680700	0.991120	0.259080
O1961	O196	0.249740	0.391870	0.452330
O1971	O197	0.942970	0.203560	0.877230
O1981	O198	0.434260	0.760590	0.057030
O1991	O199	0.504050	0.693000	0.892150
O2001	O200	0.995950	0.107850	0.307000
O2011	O201	0.891870	0.142130	0.439540
O2021	O202	0.149440	0.169070	0.297770
O2031	O203	0.060460	0.952330	0.202590
O2041	O204	0.189580	0.180700	0.421620
O2051	O205	0.307000	0.607850	0.995950
O2061	O206	0.392150	0.504050	0.193000
O2071	O207	0.351670	0.871300	0.702230
O2081	O208	0.149440	0.980370	0.351670
O2091	O209	0.740920	0.508880	0.319300
O2101	O210	0.654740	0.279220	0.994680
O2111	O211	0.750260	0.608130	0.547670
O2121	O212	0.715460	0.494680	0.339940
O2131	O213	0.350560	0.702230	0.830930
O2141	O214	0.377230	0.434260	0.173670
O2151	O215	0.124480	0.845260	0.339940
O2161	O216	0.830930	0.628700	0.980370
O2171	O217	0.669070	0.019630	0.371300
O2181	O218	0.259080	0.491120	0.680700
O2191	O219	0.465020	0.715020	0.750000
O2201	O220	0.391870	0.952330	0.749740
O2211	O221	0.491120	0.180700	0.759080
O2221	O222	0.871300	0.669070	0.519630
O2231	O223	0.649440	0.297770	0.169070
O2241	O224	0.699150	0.311050	0.807000
O2251	O225	0.004050	0.111900	0.811050
O2261	O226	0.796440	0.173670	0.739410
O2271	O227	0.180700	0.259080	0.991120
O2281	O228	0.250260	0.547670	0.608130
O2291	O229	0.142130	0.202590	0.250260
O2301	O230	0.680700	0.689580	0.921620
O2311	O231	0.480370	0.649440	0.851670
O2321	O232	0.339940	0.994680	0.715460
O2331	O233	0.326330	0.703560	0.760590
O2341	O234	0.107850	0.300850	0.111900
O2351	O235	0.740920	0.232040	0.921620
O2361	O236	0.122770	0.826330	0.565740
O2371	O237	0.250260	0.702590	0.142130
O2381	O238	0.648330	0.128700	0.297770
O2391	O239	0.504050	0.811050	0.111900
O2401	O240	0.279220	0.494680	0.154740
O2411	O241	0.259080	0.767960	0.078380
O2421	O242	0.830930	0.202230	0.350560
O2431	O243	0.169070	0.371300	0.019630
O2441	O244	0.279220	0.784540	0.624480
O2451	O245	0.078380	0.267960	0.259080
O2461	O246	0.807000	0.995950	0.607850
O2471	O247	0.296440	0.739410	0.173670
O2481	O248	0.442970	0.565740	0.739410
O2491	O249	0.660060	0.005320	0.284540
O2501	O250	0.688950	0.995950	0.388100
O2511	O251	0.693000	0.300850	0.188950
O2521	O252	0.952330	0.249740	0.891870
O2531	O253	0.232040	0.810420	0.491120
O2541	O254	0.624480	0.339940	0.845260
O2551	O255	0.508880	0.689580	0.767960
O2561	O256	0.749740	0.297410	0.857870
O2571	O257	0.850560	0.830930	0.702230
O2581	O258	0.284980	0.750000	0.034980
O2591	O259	0.797770	0.149440	0.669070
O2601	O260	0.750000	0.034980	0.284980
O2611	O261	0.452330	0.560460	0.702590
O2621	O262	0.779220	0.154740	0.494680
O2631	O263	0.148330	0.850560	0.519630
O2641	O264	0.797410	0.547670	0.939540
O2651	O265	0.875520	0.154740	0.660060
O2661	O266	0.142130	0.939540	0.391870
O2671	O267	0.660060	0.654740	0.875520
O2681	O268	0.180700	0.921620	0.689580
O2691	O269	0.249740	0.857870	0.297410
O2701	O270	0.702590	0.642130	0.750260
O2711	O271	0.351670	0.480370	0.149440
O2721	O272	0.108130	0.857870	0.560460
O2731	O273	0.607850	0.495950	0.807000
O2741	O274	0.995950	0.888100	0.188950
O2751	O275	0.622770	0.057030	0.296440
O2761	O276	0.673670	0.296440	0.239410
O2771	O277	0.480370	0.830930	0.128700
O2781	O278	0.319300	0.310420	0.078380
O2791	O279	0.857870	0.797410	0.749740
O2801	O280	0.239410	0.442970	0.065740
O2811	O281	0.111900	0.800850	0.107850
O2821	O282	0.326330	0.622770	0.065740
O2831	O283	0.819300	0.740920	0.008880
O2841	O284	0.819300	0.078380	0.310420
O2851	O285	0.519630	0.350560	0.148330
O2861	O286	0.357870	0.749740	0.797410
O2871	O287	0.891870	0.749740	0.952330
O2881	O288	0.319300	0.008880	0.740920
O2891	O289	0.547670	0.108130	0.750260
O2901	O290	0.188950	0.800850	0.693000
O2911	O291	0.494680	0.654740	0.779220
O2921	O292	0.391870	0.439540	0.142130
O2931	O293	0.811050	0.199150	0.307000
O2941	O294	0.578380	0.259080	0.267960
O2951	O295	0.611900	0.504050	0.311050
O2961	O296	0.065740	0.942970	0.239410
O2971	O297	0.250000	0.465020	0.215020
O2981	O298	0.689580	0.267960	0.008880
O2991	O299	0.128700	0.797770	0.148330
O3001	O300	0.608130	0.047670	0.250260
O3011	O301	0.534980	0.284980	0.250000
O3021	O302	0.375520	0.715460	0.720780
O3031	O303	0.169070	0.797770	0.649440
O3041	O304	0.189580	0.008880	0.267960
O3051	O305	0.851670	0.149440	0.480370
O3061	O306	0.008880	0.240920	0.819300
O3071	O307	0.980370	0.851670	0.649440
O3081	O308	0.702230	0.330930	0.850560
O3091	O309	0.952330	0.702590	0.560460
O3101	O310	0.921620	0.732040	0.740920
O3111	O311	0.034980	0.784980	0.250000
O3121	O312	0.732040	0.491120	0.810420
