data_ja4012707_si_004_freeONLY_PM
_symmetry_space_group_name_H-M	'P1'
_cell_length_a	8.216900
_cell_length_b	8.216900
_cell_length_c	13.170500
_cell_angle_alpha	90.000000
_cell_angle_beta	90.000000
_cell_angle_gamma	120.000000
_symmetry_Int_Tables_number 1

loop_
_symmetry_equiv_pos_as_xyz
'x,y,z'

loop_
_atom_site_label
_atom_site_type_symbol
_atom_site_fract_x
_atom_site_fract_y
_atom_site_fract_z
Zn11	Zn1	0.666670	0.333340	0.416970
Zn21	Zn2	0.333330	0.666660	0.916970
Zn31	Zn3	0.666670	0.333340	0.083030
Zn41	Zn4	0.333330	0.666660	0.583030
C11	C1	0.540000	0.460000	0.015000
C21	C2	0.920000	0.460000	0.485000
C31	C3	0.460000	0.540000	0.515000
C41	C4	0.460000	0.920000	0.985000
C51	C5	0.666670	0.333340	0.205000
C61	C6	0.540000	0.080000	0.015000
C71	C7	0.080000	0.540000	0.985000
C81	C8	0.460000	0.540000	0.985000
C91	C9	0.540000	0.080000	0.485000
C101	C10	0.666670	0.333340	0.295000
C111	C11	0.920000	0.460000	0.015000
C121	C12	0.333330	0.666660	0.705000
C131	C13	0.333330	0.666660	0.795000
C141	C14	0.080000	0.540000	0.515000
C151	C15	0.460000	0.920000	0.515000
C161	C16	0.540000	0.460000	0.485000
