data_ja406030p_si_003_freeONLY_PM
_symmetry_space_group_name_H-M	'P1'
_cell_length_a	19.030600
_cell_length_b	19.030600
_cell_length_c	36.244500
_cell_angle_alpha	90.000000
_cell_angle_beta	90.000000
_cell_angle_gamma	120.000000
_symmetry_Int_Tables_number 1

loop_
_symmetry_equiv_pos_as_xyz
'x,y,z'

loop_
_atom_site_label
_atom_site_type_symbol
_atom_site_fract_x
_atom_site_fract_y
_atom_site_fract_z
Zn11	Zn1	0.519990	0.480000	0.963400
Zn21	Zn2	0.480010	0.520000	0.463400
Zn31	Zn3	0.519990	0.039980	0.963400
Zn41	Zn4	0.480010	0.960020	0.036600
Zn51	Zn5	0.960010	0.480000	0.963400
Zn61	Zn6	0.480010	0.960020	0.463400
Zn71	Zn7	0.480010	0.520000	0.036600
Zn81	Zn8	0.519990	0.039980	0.536600
Zn91	Zn9	0.519990	0.480000	0.536600
Zn101	Zn10	0.039990	0.520000	0.463400
Zn111	Zn11	0.960010	0.480000	0.536600
Zn121	Zn12	0.039990	0.520000	0.036600
Cr11	Cr1	0.724830	0.275170	0.750000
Cr21	Cr2	0.449660	0.724830	0.250000
Cr31	Cr3	0.275170	0.550340	0.250000
Cr41	Cr4	0.275170	0.724830	0.250000
Cr51	Cr5	0.724830	0.449660	0.750000
Cr61	Cr6	0.550340	0.275170	0.750000
H11	H1	0.261200	0.872100	0.912100
H21	H2	0.872100	0.261200	0.412100
H31	H3	0.127900	0.738800	0.587900
H41	H4	0.738800	0.127900	0.412100
H51	H5	0.535100	0.673200	0.346700
H61	H6	0.084100	0.440800	0.405300
H71	H7	0.673200	0.535100	0.846700
H81	H8	0.738800	0.610900	0.087900
H91	H9	0.673200	0.138100	0.846700
H101	H10	0.261200	0.389100	0.912100
H111	H11	0.440800	0.084100	0.905300
H121	H12	0.138100	0.464900	0.346700
H131	H13	0.356700	0.915900	0.094700
H141	H14	0.084100	0.643300	0.094700
H151	H15	0.559200	0.643300	0.094700
H161	H16	0.610900	0.872100	0.912100
H171	H17	0.915900	0.559200	0.905300
H181	H18	0.127900	0.738800	0.912100
H191	H19	0.326800	0.861900	0.153300
H201	H20	0.326800	0.464900	0.153300
H211	H21	0.326800	0.464900	0.346700
H221	H22	0.326800	0.861900	0.346700
H231	H23	0.138100	0.673200	0.153300
H241	H24	0.138100	0.673200	0.346700
H251	H25	0.643300	0.559200	0.594700
H261	H26	0.084100	0.643300	0.405300
H271	H27	0.440800	0.356700	0.905300
H281	H28	0.356700	0.915900	0.405300
H291	H29	0.861900	0.326800	0.653300
H301	H30	0.738800	0.610900	0.412100
H311	H31	0.673200	0.138100	0.653300
H321	H32	0.464900	0.138100	0.846700
H331	H33	0.084100	0.440800	0.094700
H341	H34	0.535100	0.673200	0.153300
H351	H35	0.861900	0.326800	0.846700
H361	H36	0.738800	0.127900	0.087900
H371	H37	0.872100	0.261200	0.087900
H381	H38	0.610900	0.738800	0.587900
H391	H39	0.610900	0.738800	0.912100
H401	H40	0.915900	0.356700	0.905300
H411	H41	0.915900	0.356700	0.594700
H421	H42	0.356700	0.440800	0.405300
H431	H43	0.559200	0.915900	0.094700
H441	H44	0.389100	0.261200	0.412100
H451	H45	0.559200	0.643300	0.405300
H461	H46	0.872100	0.610900	0.087900
H471	H47	0.464900	0.326800	0.653300
H481	H48	0.535100	0.861900	0.346700
H491	H49	0.440800	0.084100	0.594700
H501	H50	0.610900	0.872100	0.587900
H511	H51	0.389100	0.127900	0.087900
H521	H52	0.643300	0.084100	0.594700
H531	H53	0.673200	0.535100	0.653300
H541	H54	0.389100	0.127900	0.412100
H551	H55	0.643300	0.084100	0.905300
H561	H56	0.261200	0.872100	0.587900
H571	H57	0.535100	0.861900	0.153300
H581	H58	0.440800	0.356700	0.594700
H591	H59	0.915900	0.559200	0.594700
H601	H60	0.861900	0.535100	0.846700
H611	H61	0.872100	0.610900	0.412100
H621	H62	0.261200	0.389100	0.587900
H631	H63	0.138100	0.464900	0.153300
H641	H64	0.861900	0.535100	0.653300
H651	H65	0.127900	0.389100	0.912100
H661	H66	0.127900	0.389100	0.587900
H671	H67	0.464900	0.326800	0.846700
H681	H68	0.389100	0.261200	0.087900
H691	H69	0.559200	0.915900	0.405300
H701	H70	0.643300	0.559200	0.905300
H711	H71	0.356700	0.440800	0.094700
H721	H72	0.464900	0.138100	0.653300
C11	C1	0.903990	0.510550	0.606570
C21	C2	0.592600	0.759080	0.568860
C31	C3	0.189700	0.810300	0.271600
C41	C4	0.510550	0.903990	0.393430
C51	C5	0.393440	0.489450	0.106570
C61	C6	0.838200	0.561370	0.036360
C71	C7	0.608000	0.856000	0.250000
C81	C8	0.427950	0.855900	0.340400
C91	C9	0.503160	0.375320	0.858160
C101	C10	0.624680	0.127840	0.641840
C111	C11	0.496840	0.624680	0.141840
C121	C12	0.096010	0.606560	0.393430
C131	C13	0.355570	0.457360	0.520910
C141	C14	0.592600	0.833520	0.568860
C151	C15	0.810300	0.620600	0.771600
C161	C16	0.489450	0.096010	0.606570
C171	C17	0.620600	0.810300	0.228400
C181	C18	0.542640	0.898210	0.520910
C191	C19	0.355570	0.457360	0.979090
C201	C20	0.375320	0.503160	0.358160
C211	C21	0.379400	0.189700	0.728400
C221	C22	0.542640	0.898210	0.979090
C231	C23	0.101790	0.644430	0.979090
C241	C24	0.379400	0.189700	0.771600
C251	C25	0.503160	0.375320	0.641840
C261	C26	0.561370	0.838200	0.536360
C271	C27	0.457360	0.355570	0.479090
C281	C28	0.606560	0.096010	0.893430
C291	C29	0.572050	0.427950	0.840400
C301	C30	0.101790	0.644430	0.520910
C311	C31	0.457360	0.101790	0.020910
C321	C32	0.752000	0.144000	0.750000
C331	C33	0.127840	0.624680	0.358160
C341	C34	0.898210	0.355570	0.479090
C351	C35	0.240920	0.407400	0.568860
C361	C36	0.438630	0.276830	0.463640
C371	C37	0.510550	0.606560	0.393430
C381	C38	0.375320	0.872160	0.358160
C391	C39	0.572050	0.144100	0.659600
C401	C40	0.375320	0.872160	0.141840
C411	C41	0.510550	0.606560	0.106570
C421	C42	0.898210	0.355570	0.020910
C431	C43	0.276830	0.438630	0.963640
C441	C44	0.189700	0.810300	0.228400
C451	C45	0.392000	0.248000	0.750000
C461	C46	0.166480	0.759080	0.931140
C471	C47	0.438630	0.276830	0.036360
C481	C48	0.489450	0.393440	0.893430
C491	C49	0.503160	0.127840	0.858160
C501	C50	0.375320	0.503160	0.141840
C511	C51	0.166480	0.407400	0.931140
C521	C52	0.489450	0.096010	0.893430
C531	C53	0.752000	0.608000	0.750000
C541	C54	0.407240	0.814480	0.196610
C551	C55	0.096010	0.606560	0.106570
C561	C56	0.644430	0.542640	0.479090
C571	C57	0.496840	0.624680	0.358160
C581	C58	0.161800	0.438630	0.536360
C591	C59	0.427950	0.855900	0.159600
C601	C60	0.166480	0.407400	0.568860
C611	C61	0.838200	0.561370	0.463640
C621	C62	0.127840	0.624680	0.141840
C631	C63	0.393440	0.489450	0.393430
C641	C64	0.510550	0.903990	0.106570
C651	C65	0.814480	0.407240	0.803390
C661	C66	0.592600	0.833520	0.931140
C671	C67	0.496840	0.872160	0.358160
C681	C68	0.096010	0.489450	0.393430
C691	C69	0.457360	0.101790	0.479090
C701	C70	0.606560	0.510550	0.606570
C711	C71	0.572050	0.427950	0.659600
C721	C72	0.833520	0.240920	0.431140
C731	C73	0.185520	0.592760	0.196610
C741	C74	0.759080	0.592600	0.068860
C751	C75	0.592760	0.185520	0.696610
C761	C76	0.248000	0.856000	0.250000
C771	C77	0.723170	0.161800	0.463640
C781	C78	0.240920	0.407400	0.931140
C791	C79	0.856000	0.248000	0.750000
C801	C80	0.407400	0.166480	0.068860
C811	C81	0.457360	0.355570	0.020910
C821	C82	0.872160	0.375320	0.858160
C831	C83	0.620600	0.810300	0.271600
C841	C84	0.833520	0.592600	0.431140
C851	C85	0.144000	0.752000	0.250000
C861	C86	0.872160	0.496840	0.641840
C871	C87	0.427950	0.572050	0.340400
C881	C88	0.407240	0.814480	0.303390
C891	C89	0.144100	0.572050	0.159600
C901	C90	0.855900	0.427950	0.659600
C911	C91	0.606560	0.096010	0.606570
C921	C92	0.592600	0.759080	0.931140
C931	C93	0.438630	0.161800	0.463640
C941	C94	0.127840	0.503160	0.358160
C951	C95	0.561370	0.723170	0.536360
C961	C96	0.759080	0.166480	0.431140
C971	C97	0.872160	0.375320	0.641840
C981	C98	0.561370	0.723170	0.963640
C991	C99	0.723170	0.561370	0.463640
C1001	C100	0.101790	0.457360	0.520910
C1011	C101	0.503160	0.127840	0.641840
C1021	C102	0.898210	0.542640	0.479090
C1031	C103	0.189700	0.379400	0.271600
C1041	C104	0.903990	0.510550	0.893430
C1051	C105	0.392000	0.144000	0.750000
C1061	C106	0.407240	0.592760	0.196610
C1071	C107	0.624680	0.496840	0.641840
C1081	C108	0.644430	0.542640	0.020910
C1091	C109	0.624680	0.127840	0.858160
C1101	C110	0.838200	0.276830	0.463640
C1111	C111	0.393440	0.903990	0.106570
C1121	C112	0.407400	0.240920	0.431140
C1131	C113	0.355570	0.898210	0.520910
C1141	C114	0.407400	0.240920	0.068860
C1151	C115	0.393440	0.903990	0.393430
C1161	C116	0.838200	0.276830	0.036360
C1171	C117	0.407240	0.592760	0.303390
C1181	C118	0.606560	0.510550	0.893430
C1191	C119	0.276830	0.838200	0.536360
C1201	C120	0.240920	0.833520	0.568860
C1211	C121	0.814480	0.407240	0.696610
C1221	C122	0.189700	0.379400	0.228400
C1231	C123	0.898210	0.542640	0.020910
C1241	C124	0.592760	0.407240	0.803390
C1251	C125	0.723170	0.561370	0.036360
C1261	C126	0.161800	0.438630	0.963640
C1271	C127	0.903990	0.393440	0.893430
C1281	C128	0.592760	0.185520	0.803390
C1291	C129	0.856000	0.608000	0.750000
C1301	C130	0.624680	0.496840	0.858160
C1311	C131	0.759080	0.166480	0.068860
C1321	C132	0.810300	0.189700	0.771600
C1331	C133	0.810300	0.620600	0.728400
C1341	C134	0.161800	0.723170	0.536360
C1351	C135	0.127840	0.503160	0.141840
C1361	C136	0.438630	0.161800	0.036360
C1371	C137	0.161800	0.723170	0.963640
C1381	C138	0.144000	0.392000	0.250000
C1391	C139	0.855900	0.427950	0.840400
C1401	C140	0.592760	0.407240	0.696610
C1411	C141	0.248000	0.392000	0.250000
C1421	C142	0.144100	0.572050	0.340400
C1431	C143	0.101790	0.457360	0.979090
C1441	C144	0.276830	0.838200	0.963640
C1451	C145	0.489450	0.393440	0.606570
C1461	C146	0.903990	0.393440	0.606570
C1471	C147	0.644430	0.101790	0.020910
C1481	C148	0.276830	0.438630	0.536360
C1491	C149	0.427950	0.572050	0.159600
C1501	C150	0.355570	0.898210	0.979090
C1511	C151	0.833520	0.592600	0.068860
C1521	C152	0.872160	0.496840	0.858160
C1531	C153	0.166480	0.759080	0.568860
C1541	C154	0.572050	0.144100	0.840400
C1551	C155	0.407400	0.166480	0.431140
C1561	C156	0.723170	0.161800	0.036360
C1571	C157	0.644430	0.101790	0.479090
C1581	C158	0.240920	0.833520	0.931140
C1591	C159	0.542640	0.644430	0.520910
C1601	C160	0.759080	0.592600	0.431140
C1611	C161	0.810300	0.189700	0.728400
C1621	C162	0.608000	0.752000	0.250000
C1631	C163	0.185520	0.592760	0.303390
C1641	C164	0.833520	0.240920	0.068860
C1651	C165	0.542640	0.644430	0.979090
C1661	C166	0.561370	0.838200	0.963640
C1671	C167	0.096010	0.489450	0.106570
C1681	C168	0.496840	0.872160	0.141840
N11	N1	0.540880	0.459120	0.911030
N21	N2	0.459120	0.918240	0.411030
N31	N3	0.459120	0.918240	0.088970
N41	N4	0.540880	0.081760	0.911030
N51	N5	0.081760	0.540880	0.088970
N61	N6	0.459120	0.540880	0.088970
N71	N7	0.918240	0.459120	0.588970
N81	N8	0.918240	0.459120	0.911030
N91	N9	0.540880	0.459120	0.588970
N101	N10	0.459120	0.540880	0.411030
N111	N11	0.081760	0.540880	0.411030
N121	N12	0.540880	0.081760	0.588970
O11	O1	0.889530	0.518140	0.988570
O21	O2	0.371390	0.481860	0.488570
O31	O3	0.889530	0.518140	0.511430
O41	O4	0.799550	0.458610	0.710380
O51	O5	0.598990	0.552470	0.042800
O61	O6	0.110470	0.628610	0.488570
O71	O7	0.799550	0.458610	0.789620
O81	O8	0.659060	0.200450	0.710380
O91	O9	0.458610	0.799550	0.210380
O101	O10	0.340940	0.799550	0.210380
O111	O11	0.518140	0.889530	0.488570
O121	O12	0.457640	0.228820	0.484490
O131	O13	0.785460	0.570920	0.750000
O141	O14	0.200450	0.659060	0.210380
O151	O15	0.771180	0.228820	0.015510
O161	O16	0.541390	0.340940	0.789620
O171	O17	0.628610	0.518140	0.511430
O181	O18	0.518140	0.628610	0.488570
O191	O19	0.214540	0.429080	0.250000
O201	O20	0.481860	0.110470	0.511430
O211	O21	0.628610	0.110470	0.511430
O221	O22	0.628610	0.110470	0.988570
O231	O23	0.228820	0.771180	0.984490
O241	O24	0.333330	0.666660	0.250000
O251	O25	0.200450	0.659060	0.289620
O261	O26	0.457640	0.228820	0.015510
O271	O27	0.518140	0.889530	0.011430
O281	O28	0.340940	0.799550	0.289620
O291	O29	0.458610	0.799550	0.289620
O301	O30	0.110470	0.628610	0.011430
O311	O31	0.046520	0.447530	0.957200
O321	O32	0.598990	0.552470	0.457200
O331	O33	0.371390	0.481860	0.011430
O341	O34	0.659060	0.200450	0.789620
O351	O35	0.889530	0.371390	0.988570
O361	O36	0.785460	0.214530	0.750000
O371	O37	0.666670	0.333340	0.750000
O381	O38	0.447530	0.401010	0.457200
O391	O39	0.481860	0.110470	0.988570
O401	O40	0.340940	0.541390	0.289620
O411	O41	0.110470	0.481860	0.011430
O421	O42	0.598990	0.046520	0.042800
O431	O43	0.046520	0.447530	0.542800
O441	O44	0.542360	0.771180	0.515510
O451	O45	0.771180	0.228820	0.484490
O461	O46	0.953480	0.401010	0.042800
O471	O47	0.429070	0.214530	0.750000
O481	O48	0.799550	0.340940	0.789620
O491	O49	0.953480	0.552470	0.042800
O501	O50	0.799550	0.340940	0.710380
O511	O51	0.214540	0.785470	0.250000
O521	O52	0.552470	0.953480	0.542800
O531	O53	0.771180	0.542360	0.484490
O541	O54	0.481860	0.371390	0.988570
O551	O55	0.200450	0.541390	0.210380
O561	O56	0.541390	0.340940	0.710380
O571	O57	0.447530	0.046520	0.042800
O581	O58	0.458610	0.659060	0.289620
O591	O59	0.371390	0.889530	0.488570
O601	O60	0.371390	0.889530	0.011430
O611	O61	0.481860	0.371390	0.511430
O621	O62	0.541390	0.200450	0.710380
O631	O63	0.458610	0.659060	0.210380
O641	O64	0.447530	0.046520	0.457200
O651	O65	0.541390	0.200450	0.789620
O661	O66	0.200450	0.541390	0.289620
O671	O67	0.401010	0.953480	0.957200
O681	O68	0.228820	0.457640	0.515510
O691	O69	0.953480	0.552470	0.457200
O701	O70	0.889530	0.371390	0.511430
O711	O71	0.518140	0.628610	0.011430
O721	O72	0.659060	0.458610	0.789620
O731	O73	0.046520	0.598990	0.957200
O741	O74	0.628610	0.518140	0.988570
O751	O75	0.659060	0.458610	0.710380
O761	O76	0.552470	0.953480	0.957200
O771	O77	0.570930	0.785470	0.250000
O781	O78	0.228820	0.457640	0.984490
O791	O79	0.552470	0.598990	0.957200
O801	O80	0.598990	0.046520	0.457200
O811	O81	0.953480	0.401010	0.457200
O821	O82	0.110470	0.481860	0.488570
O831	O83	0.046520	0.598990	0.542800
O841	O84	0.340940	0.541390	0.210380
O851	O85	0.771180	0.542360	0.015510
O861	O86	0.542360	0.771180	0.984490
O871	O87	0.401010	0.447530	0.542800
O881	O88	0.228820	0.771180	0.515510
O891	O89	0.401010	0.447530	0.957200
O901	O90	0.447530	0.401010	0.042800
O911	O91	0.552470	0.598990	0.542800
O921	O92	0.401010	0.953480	0.542800
