data_ja407778a_si_003_freeONLY_PM
_symmetry_space_group_name_H-M	'P1'
_cell_length_a	16.703000
_cell_length_b	11.725000
_cell_length_c	9.533000
_cell_angle_alpha	90.000000
_cell_angle_beta	114.850000
_cell_angle_gamma	90.000000
_symmetry_Int_Tables_number 1

loop_
_symmetry_equiv_pos_as_xyz
'x,y,z'

loop_
_atom_site_label
_atom_site_type_symbol
_atom_site_fract_x
_atom_site_fract_y
_atom_site_fract_z
C11	C1	0.920200	0.209600	0.800200
H11	H1	0.899700	0.163100	0.713100
C21	C2	0.833700	0.361200	0.633200
H21	H2	0.830800	0.309600	0.553000
H31	H3	0.854500	0.434100	0.616900
H41	H4	0.776100	0.369500	0.631300
C31	C3	0.918000	0.389600	0.914200
H51	H5	0.875900	0.381400	0.957700
H61	H6	0.918600	0.467300	0.882900
H71	H7	0.975600	0.369200	0.990100
C41	C4	0.119960	0.075900	0.344500
C51	C5	0.238190	0.160100	0.582700
H81	H8	0.229600	0.099800	0.638200
C61	C6	0.187060	0.166700	0.423200
C71	C7	0.199140	0.258900	0.341300
N11	N1	0.894100	0.316100	0.782400
O11	O1	0.089390	0.073800	0.198200
O21	O2	0.900240	0.007560	0.076200
O31	O3	0.969510	0.167240	0.922900
O41	O4	0.151000	0.276600	0.187700
H91	H9	0.123700	0.218400	0.147900
C81	C8	0.420200	0.709600	0.800200
H101	H10	0.399700	0.663100	0.713100
C91	C9	0.333700	0.861200	0.633200
H111	H11	0.330800	0.809600	0.553000
H121	H12	0.354500	0.934100	0.616900
H131	H13	0.276100	0.869500	0.631300
C101	C10	0.418000	0.889600	0.914200
H141	H14	0.375900	0.881400	0.957700
H151	H15	0.418600	0.967300	0.882900
H161	H16	0.475600	0.869200	0.990100
C111	C11	0.619960	0.575900	0.344500
C121	C12	0.738190	0.660100	0.582700
H171	H17	0.729600	0.599800	0.638200
C131	C13	0.687060	0.666700	0.423200
C141	C14	0.699140	0.758900	0.341300
N21	N2	0.394100	0.816100	0.782400
O51	O5	0.589390	0.573800	0.198200
O61	O6	0.400240	0.507560	0.076200
O71	O7	0.469510	0.667240	0.922900
O81	O8	0.651000	0.776600	0.187700
H181	H18	0.623700	0.718400	0.147900
C151	C15	0.079800	0.209600	0.699800
H191	H19	0.100300	0.163100	0.786900
C161	C16	0.166300	0.361200	0.866800
H201	H20	0.169200	0.309600	0.947000
H211	H21	0.145500	0.434100	0.883100
H221	H22	0.223900	0.369500	0.868700
C171	C17	0.082000	0.389600	0.585800
H231	H23	0.124100	0.381400	0.542300
H241	H24	0.081400	0.467300	0.617100
H251	H25	0.024400	0.369200	0.509900
C181	C18	0.880040	0.075900	0.155500
C191	C19	0.761810	0.160100	0.917300
H261	H26	0.770400	0.099800	0.861800
C201	C20	0.812940	0.166700	0.076800
C211	C21	0.800860	0.258900	0.158700
N31	N3	0.105900	0.316100	0.717600
O91	O9	0.910610	0.073800	0.301800
O101	O10	0.099760	0.007560	0.423800
O111	O11	0.030490	0.167240	0.577100
O121	O12	0.849000	0.276600	0.312300
H271	H27	0.876300	0.218400	0.352100
C221	C22	0.579800	0.709600	0.699800
H281	H28	0.600300	0.663100	0.786900
C231	C23	0.666300	0.861200	0.866800
H291	H29	0.669200	0.809600	0.947000
H301	H30	0.645500	0.934100	0.883100
H311	H31	0.723900	0.869500	0.868700
C241	C24	0.582000	0.889600	0.585800
H321	H32	0.624100	0.881400	0.542300
H331	H33	0.581400	0.967300	0.617100
H341	H34	0.524400	0.869200	0.509900
C251	C25	0.380040	0.575900	0.155500
C261	C26	0.261810	0.660100	0.917300
H351	H35	0.270400	0.599800	0.861800
C271	C27	0.312940	0.666700	0.076800
C281	C28	0.300860	0.758900	0.158700
N41	N4	0.605900	0.816100	0.717600
O131	O13	0.410610	0.573800	0.301800
O141	O14	0.599760	0.507560	0.423800
O151	O15	0.530490	0.667240	0.577100
O161	O16	0.349000	0.776600	0.312300
H361	H36	0.376300	0.718400	0.352100
C291	C29	0.079800	0.790400	0.199800
H371	H37	0.100300	0.836900	0.286900
C301	C30	0.166300	0.638800	0.366800
H381	H38	0.169200	0.690400	0.447000
H391	H39	0.145500	0.565900	0.383100
H401	H40	0.223900	0.630500	0.368700
C311	C31	0.082000	0.610400	0.085800
H411	H41	0.124100	0.618600	0.042300
H421	H42	0.081400	0.532700	0.117100
H431	H43	0.024400	0.630800	0.009900
C321	C32	0.880040	0.924100	0.655500
C331	C33	0.761810	0.839900	0.417300
H441	H44	0.770400	0.900200	0.361800
C341	C34	0.812940	0.833300	0.576800
C351	C35	0.800860	0.741100	0.658700
N51	N5	0.105900	0.683900	0.217600
O171	O17	0.910610	0.926200	0.801800
O181	O18	0.099760	0.992440	0.923800
O191	O19	0.030490	0.832760	0.077100
O201	O20	0.849000	0.723400	0.812300
H451	H45	0.876300	0.781600	0.852100
C361	C36	0.579800	0.290400	0.199800
H461	H46	0.600300	0.336900	0.286900
C371	C37	0.666300	0.138800	0.366800
H471	H47	0.669200	0.190400	0.447000
H481	H48	0.645500	0.065900	0.383100
H491	H49	0.723900	0.130500	0.368700
C381	C38	0.582000	0.110400	0.085800
H501	H50	0.624100	0.118600	0.042300
H511	H51	0.581400	0.032700	0.117100
H521	H52	0.524400	0.130800	0.009900
C391	C39	0.380040	0.424100	0.655500
C401	C40	0.261810	0.339900	0.417300
H531	H53	0.270400	0.400200	0.361800
C411	C41	0.312940	0.333300	0.576800
C421	C42	0.300860	0.241100	0.658700
N61	N6	0.605900	0.183900	0.217600
O211	O21	0.410610	0.426200	0.801800
O221	O22	0.599760	0.492440	0.923800
O231	O23	0.530490	0.332760	0.077100
O241	O24	0.349000	0.223400	0.812300
H541	H54	0.376300	0.281600	0.852100
C431	C43	0.920200	0.790400	0.300200
H551	H55	0.899700	0.836900	0.213100
C441	C44	0.833700	0.638800	0.133200
H561	H56	0.830800	0.690400	0.053000
H571	H57	0.854500	0.565900	0.116900
H581	H58	0.776100	0.630500	0.131300
C451	C45	0.918000	0.610400	0.414200
H591	H59	0.875900	0.618600	0.457700
H601	H60	0.918600	0.532700	0.382900
H611	H61	0.975600	0.630800	0.490100
C461	C46	0.119960	0.924100	0.844500
C471	C47	0.238190	0.839900	0.082700
H621	H62	0.229600	0.900200	0.138200
C481	C48	0.187060	0.833300	0.923200
C491	C49	0.199140	0.741100	0.841300
N71	N7	0.894100	0.683900	0.282400
O251	O25	0.089390	0.926200	0.698200
O261	O26	0.900240	0.992440	0.576200
O271	O27	0.969510	0.832760	0.422900
O281	O28	0.151000	0.723400	0.687700
H631	H63	0.123700	0.781600	0.647900
C501	C50	0.420200	0.290400	0.300200
H641	H64	0.399700	0.336900	0.213100
C511	C51	0.333700	0.138800	0.133200
H651	H65	0.330800	0.190400	0.053000
H661	H66	0.354500	0.065900	0.116900
H671	H67	0.276100	0.130500	0.131300
C521	C52	0.418000	0.110400	0.414200
H681	H68	0.375900	0.118600	0.457700
H691	H69	0.418600	0.032700	0.382900
H701	H70	0.475600	0.130800	0.490100
C531	C53	0.619960	0.424100	0.844500
C541	C54	0.738190	0.339900	0.082700
H711	H71	0.729600	0.400200	0.138200
C551	C55	0.687060	0.333300	0.923200
C561	C56	0.699140	0.241100	0.841300
N81	N8	0.394100	0.183900	0.282400
O291	O29	0.589390	0.426200	0.698200
O301	O30	0.400240	0.492440	0.576200
O311	O31	0.469510	0.332760	0.422900
O321	O32	0.651000	0.223400	0.687700
H721	H72	0.623700	0.281600	0.647900
Mg11	Mg1	0.000000	0.000000	0.000000
Mg21	Mg2	0.500000	0.500000	0.000000
Mg31	Mg3	0.000000	0.000000	0.500000
Mg41	Mg4	0.500000	0.500000	0.500000
