data_ja907023c_si_002_freeONLY_PM
_symmetry_space_group_name_H-M	'P1'
_cell_length_a	20.117300
_cell_length_b	20.117100
_cell_length_c	20.117100
_cell_angle_alpha	109.471000
_cell_angle_beta	109.471000
_cell_angle_gamma	109.471000
_symmetry_Int_Tables_number 1

loop_
_symmetry_equiv_pos_as_xyz
'x,y,z'

loop_
_atom_site_label
_atom_site_type_symbol
_atom_site_fract_x
_atom_site_fract_y
_atom_site_fract_z
Co11	Co1	0.500000	0.500000	0.500000
Co21	Co2	0.000000	0.000000	0.500000
Co31	Co3	0.000000	0.500000	0.000000
Co41	Co4	0.500000	0.000000	0.000000
H11	H1	0.620200	0.104800	0.196800
H21	H2	0.745100	0.663500	0.636000
H31	H3	0.663600	0.815800	0.936800
H41	H4	0.196800	0.620200	0.104800
H51	H5	0.918400	0.254900	0.890900
H61	H6	0.803200	0.379800	0.895200
H71	H7	0.027500	0.663500	0.918400
H81	H8	0.063200	0.879000	0.726800
H91	H9	0.893100	0.700600	0.279300
H101	H10	0.423400	0.515400	0.620200
H111	H11	0.893100	0.613800	0.192500
H121	H12	0.918400	0.027500	0.663500
H131	H13	0.613800	0.192500	0.893100
H141	H14	0.890900	0.636000	0.972500
H151	H15	0.336400	0.273200	0.152200
H161	H16	0.121000	0.273200	0.936800
H171	H17	0.700600	0.279300	0.893100
H181	H18	0.081600	0.745100	0.109100
H191	H19	0.184200	0.063200	0.336400
H201	H20	0.815800	0.936800	0.663600
H211	H21	0.663500	0.918400	0.027500
H221	H22	0.109100	0.081600	0.745100
H231	H23	0.196800	0.092000	0.576600
H241	H24	0.152200	0.336400	0.273200
H251	H25	0.745100	0.109100	0.081600
H261	H26	0.152200	0.879000	0.815800
H271	H27	0.720700	0.106900	0.299400
H281	H28	0.636000	0.745100	0.663500
H291	H29	0.336500	0.364000	0.254900
H301	H30	0.620200	0.423400	0.515400
H311	H31	0.613800	0.720700	0.421300
H321	H32	0.700600	0.807500	0.421300
H331	H33	0.815800	0.152200	0.879000
H341	H34	0.484600	0.379800	0.576600
H351	H35	0.972500	0.890900	0.636000
H361	H36	0.421300	0.613800	0.720700
H371	H37	0.106900	0.386200	0.807500
H381	H38	0.081600	0.972500	0.336500
H391	H39	0.720700	0.421300	0.613800
H401	H40	0.336400	0.184200	0.063200
H411	H41	0.299400	0.192500	0.578700
H421	H42	0.576600	0.484600	0.379800
H431	H43	0.104800	0.484600	0.908000
H441	H44	0.092000	0.895200	0.515400
H451	H45	0.279300	0.578700	0.386200
H461	H46	0.807500	0.106900	0.386200
H471	H47	0.192500	0.578700	0.299400
H481	H48	0.847800	0.121000	0.184200
H491	H49	0.121000	0.184200	0.847800
H501	H50	0.386200	0.279300	0.578700
H511	H51	0.895200	0.515400	0.092000
H521	H52	0.936800	0.663600	0.815800
H531	H53	0.578700	0.299400	0.192500
H541	H54	0.663600	0.726800	0.847800
H551	H55	0.027500	0.109100	0.364000
H561	H56	0.890900	0.918400	0.254900
H571	H57	0.515400	0.620200	0.423400
H581	H58	0.663500	0.636000	0.745100
H591	H59	0.063200	0.336400	0.184200
H601	H60	0.254900	0.890900	0.918400
H611	H61	0.423400	0.803200	0.908000
H621	H62	0.254900	0.336500	0.364000
H631	H63	0.726800	0.847800	0.663600
H641	H64	0.299400	0.720700	0.106900
H651	H65	0.895200	0.803200	0.379800
H661	H66	0.279300	0.893100	0.700600
H671	H67	0.726800	0.063200	0.879000
H681	H68	0.092000	0.576600	0.196800
H691	H69	0.936800	0.121000	0.273200
H701	H70	0.807500	0.421300	0.700600
H711	H71	0.421300	0.700600	0.807500
H721	H72	0.576600	0.196800	0.092000
H731	H73	0.578700	0.386200	0.279300
H741	H74	0.515400	0.092000	0.895200
H751	H75	0.379800	0.576600	0.484600
H761	H76	0.908000	0.423400	0.803200
H771	H77	0.109100	0.364000	0.027500
H781	H78	0.484600	0.908000	0.104800
H791	H79	0.972500	0.336500	0.081600
H801	H80	0.879000	0.815800	0.152200
H811	H81	0.379800	0.895200	0.803200
H821	H82	0.364000	0.254900	0.336500
H831	H83	0.106900	0.299400	0.720700
H841	H84	0.879000	0.726800	0.063200
H851	H85	0.847800	0.663600	0.726800
H861	H86	0.803200	0.908000	0.423400
H871	H87	0.336500	0.081600	0.972500
H881	H88	0.104800	0.196800	0.620200
H891	H89	0.184200	0.847800	0.121000
H901	H90	0.636000	0.972500	0.890900
H911	H91	0.273200	0.936800	0.121000
H921	H92	0.908000	0.104800	0.484600
H931	H93	0.364000	0.027500	0.109100
H941	H94	0.273200	0.152200	0.336400
H951	H95	0.192500	0.893100	0.613800
H961	H96	0.386200	0.807500	0.106900
C11	C1	0.541030	0.746110	0.858660
C21	C2	0.105240	0.193400	0.665300
C31	C3	0.614330	0.631280	0.740450
C41	C4	0.253890	0.794920	0.112550
C51	C5	0.458970	0.253890	0.141340
C61	C6	0.744070	0.273150	0.891880
C71	C7	0.873880	0.259550	0.890830
C81	C8	0.199150	0.385640	0.314230
C91	C9	0.744070	0.852190	0.470920
C101	C10	0.740450	0.109170	0.126120
C111	C11	0.470920	0.744070	0.852190
C121	C12	0.108120	0.255930	0.726850
C131	C13	0.186490	0.071410	0.385640
C141	C14	0.273150	0.891880	0.744070
C151	C15	0.665300	0.105240	0.193400
C161	C16	0.193400	0.088160	0.528100
C171	C17	0.141340	0.458970	0.253890
C181	C18	0.253890	0.141340	0.458970
C191	C19	0.614360	0.685770	0.800850
C201	C20	0.334700	0.528100	0.439940
C211	C21	0.928590	0.115080	0.314230
C221	C22	0.088160	0.528100	0.193400
C231	C23	0.884920	0.813510	0.199150
C241	C24	0.112550	0.317630	0.858660
C251	C25	0.529080	0.255930	0.147810
C261	C26	0.631280	0.016950	0.890830
C271	C27	0.385670	0.368720	0.259550
C281	C28	0.259550	0.890830	0.873880
C291	C29	0.471900	0.560060	0.665300
C301	C30	0.983050	0.614330	0.873880
C311	C31	0.126120	0.016950	0.385670
C321	C32	0.726850	0.470920	0.618730
C331	C33	0.314230	0.928590	0.115080
C341	C34	0.614330	0.873880	0.983050
C351	C35	0.884920	0.685770	0.071410
C361	C36	0.071410	0.385640	0.186490
C371	C37	0.806600	0.911840	0.471900
C381	C38	0.746110	0.858660	0.541030
C391	C39	0.193400	0.665300	0.105240
C401	C40	0.852190	0.108120	0.381270
C411	C41	0.806600	0.334700	0.894760
C421	C42	0.813510	0.928590	0.614360
C431	C43	0.255930	0.726850	0.108120
C441	C44	0.726850	0.108120	0.255930
C451	C45	0.470920	0.618730	0.726850
C461	C46	0.115080	0.186490	0.800850
C471	C47	0.314230	0.199150	0.385640
C481	C48	0.259550	0.385670	0.368720
C491	C49	0.800850	0.614360	0.685770
C501	C50	0.205080	0.887450	0.746110
C511	C51	0.740450	0.614330	0.631280
C521	C52	0.528100	0.193400	0.088160
C531	C53	0.334700	0.894760	0.806600
C541	C54	0.813510	0.199150	0.884920
C551	C55	0.631280	0.740450	0.614330
C561	C56	0.439940	0.911840	0.105240
C571	C57	0.618730	0.147810	0.891880
C581	C58	0.887450	0.746110	0.205080
C591	C59	0.614360	0.813510	0.928590
C601	C60	0.682370	0.794920	0.541030
C611	C61	0.858660	0.112550	0.317630
C621	C62	0.255930	0.147810	0.529080
C631	C63	0.890830	0.631280	0.016950
C641	C64	0.317630	0.205080	0.458970
C651	C65	0.141340	0.887450	0.682370
C661	C66	0.794920	0.112550	0.253890
C671	C67	0.911840	0.105240	0.439940
C681	C68	0.894760	0.560060	0.088160
C691	C69	0.385670	0.126120	0.016950
C701	C70	0.016950	0.890830	0.631280
C711	C71	0.858660	0.541030	0.746110
C721	C72	0.746110	0.205080	0.887450
C731	C73	0.205080	0.458970	0.317630
C741	C74	0.368720	0.259550	0.385670
C751	C75	0.385640	0.314230	0.199150
C761	C76	0.186490	0.800850	0.115080
C771	C77	0.147810	0.891880	0.618730
C781	C78	0.126120	0.740450	0.109170
C791	C79	0.385640	0.186490	0.071410
C801	C80	0.471900	0.806600	0.911840
C811	C81	0.115080	0.314230	0.928590
C821	C82	0.891880	0.744070	0.273150
C831	C83	0.891880	0.618730	0.147810
C841	C84	0.109170	0.126120	0.740450
C851	C85	0.800850	0.115080	0.186490
C861	C86	0.199150	0.884920	0.813510
C871	C87	0.108120	0.381270	0.852190
C881	C88	0.381270	0.273150	0.529080
C891	C89	0.685770	0.800850	0.614360
C901	C90	0.873880	0.983050	0.614330
C911	C91	0.887450	0.682370	0.141340
C921	C92	0.368720	0.983050	0.109170
C931	C93	0.560060	0.088160	0.894760
C941	C94	0.618730	0.726850	0.470920
C951	C95	0.685770	0.071410	0.884920
C961	C96	0.665300	0.471900	0.560060
C971	C97	0.682370	0.141340	0.887450
C981	C98	0.852190	0.470920	0.744070
C991	C99	0.560060	0.665300	0.471900
C1001	C100	0.983050	0.109170	0.368720
C1011	C101	0.528100	0.439940	0.334700
C1021	C102	0.794920	0.541030	0.682370
C1031	C103	0.529080	0.381270	0.273150
C1041	C104	0.911840	0.471900	0.806600
C1051	C105	0.890830	0.873880	0.259550
C1061	C106	0.381270	0.852190	0.108120
C1071	C107	0.273150	0.529080	0.381270
C1081	C108	0.928590	0.614360	0.813510
C1091	C109	0.088160	0.894760	0.560060
C1101	C110	0.109170	0.368720	0.983050
C1111	C111	0.112550	0.253890	0.794920
C1121	C112	0.894760	0.806600	0.334700
C1131	C113	0.071410	0.884920	0.685770
C1141	C114	0.439940	0.334700	0.528100
C1151	C115	0.458970	0.317630	0.205080
C1161	C116	0.016950	0.385670	0.126120
C1171	C117	0.147810	0.529080	0.255930
C1181	C118	0.317630	0.858660	0.112550
C1191	C119	0.105240	0.439940	0.911840
C1201	C120	0.541030	0.682370	0.794920
N11	N1	0.974120	0.543350	0.870910
N21	N2	0.025880	0.896790	0.569230
N31	N3	0.430770	0.974120	0.103210
N41	N4	0.896790	0.569230	0.025880
N51	N5	0.327560	0.456650	0.430770
N61	N6	0.430770	0.327560	0.456650
N71	N7	0.456650	0.430770	0.327560
N81	N8	0.569230	0.025880	0.896790
N91	N9	0.896790	0.870910	0.327560
N101	N10	0.672440	0.103210	0.129090
N111	N11	0.129090	0.672440	0.103210
N121	N12	0.129090	0.025880	0.456650
N131	N13	0.543350	0.870910	0.974120
N141	N14	0.870910	0.327560	0.896790
N151	N15	0.569230	0.672440	0.543350
N161	N16	0.103210	0.129090	0.672440
N171	N17	0.543350	0.569230	0.672440
N181	N18	0.974120	0.103210	0.430770
N191	N19	0.870910	0.974120	0.543350
N201	N20	0.103210	0.430770	0.974120
N211	N21	0.456650	0.129090	0.025880
N221	N22	0.672440	0.543350	0.569230
N231	N23	0.025880	0.456650	0.129090
N241	N24	0.327560	0.896790	0.870910
O11	O1	0.067380	0.967330	0.452270
O21	O2	0.899950	0.932620	0.384890
O31	O3	0.515060	0.615110	0.547730
O41	O4	0.484940	0.384890	0.452270
O51	O5	0.452270	0.067380	0.967330
O61	O6	0.615110	0.547730	0.515060
O71	O7	0.384890	0.899950	0.932620
O81	O8	0.452270	0.484940	0.384890
O91	O9	0.032670	0.100050	0.484940
O101	O10	0.615110	0.100050	0.067380
O111	O11	0.032670	0.547730	0.932620
O121	O12	0.067380	0.615110	0.100050
O131	O13	0.967330	0.899950	0.515060
O141	O14	0.547730	0.515060	0.615110
O151	O15	0.547730	0.932620	0.032670
O161	O16	0.100050	0.484940	0.032670
O171	O17	0.932620	0.032670	0.547730
O181	O18	0.484940	0.032670	0.100050
O191	O19	0.899950	0.515060	0.967330
O201	O20	0.932620	0.384890	0.899950
O211	O21	0.100050	0.067380	0.615110
O221	O22	0.384890	0.452270	0.484940
O231	O23	0.515060	0.967330	0.899950
O241	O24	0.967330	0.452270	0.067380
