data_jacs_PM
_symmetry_space_group_name_H-M	'P1'
_cell_length_a	31.963000
_cell_length_b	31.963000
_cell_length_c	16.713500
_cell_angle_alpha	90.000000
_cell_angle_beta	90.000000
_cell_angle_gamma	120.000000
_symmetry_Int_Tables_number 1

loop_
_symmetry_equiv_pos_as_xyz
'x,y,z'

loop_
_atom_site_label
_atom_site_type_symbol
_atom_site_fract_x
_atom_site_fract_y
_atom_site_fract_z
O11	O1	0.250000	0.660300	0.412700
C11	C1	0.144000	0.534300	0.238100
H11	H1	0.132300	0.503200	0.218400
C21	C2	0.178400	0.551200	0.295600
H21	H2	0.190100	0.531800	0.315400
O21	O2	0.339700	0.589700	0.412700
C31	C3	0.465700	0.609700	0.238100
H31	H3	0.496800	0.629100	0.218400
C41	C4	0.448800	0.627200	0.295600
H41	H4	0.468200	0.658300	0.315400
O31	O3	0.410300	0.750000	0.412700
C51	C5	0.390300	0.856000	0.238100
H51	H5	0.370900	0.867700	0.218400
C61	C6	0.372800	0.821600	0.295600
H61	H6	0.341700	0.809900	0.315400
O41	O4	0.750000	0.339700	0.412700
C71	C7	0.856000	0.465700	0.238100
H71	H7	0.867700	0.496800	0.218400
C81	C8	0.821600	0.448800	0.295600
H81	H8	0.809900	0.468200	0.315400
O51	O5	0.660300	0.410300	0.412700
C91	C9	0.534300	0.390300	0.238100
H91	H9	0.503200	0.370900	0.218400
C101	C10	0.551200	0.372800	0.295600
H101	H10	0.531800	0.341700	0.315400
O61	O6	0.589700	0.250000	0.412700
C111	C11	0.609700	0.144000	0.238100
H111	H11	0.629100	0.132300	0.218400
C121	C12	0.627200	0.178400	0.295600
H121	H12	0.658300	0.190100	0.315400
O71	O7	0.660300	0.250000	0.587300
C131	C13	0.534300	0.144000	0.761900
H131	H13	0.503200	0.132300	0.781600
C141	C14	0.551200	0.178400	0.704400
H141	H14	0.531800	0.190100	0.684600
O81	O8	0.589700	0.339700	0.587300
C151	C15	0.609700	0.465700	0.761900
H151	H15	0.629100	0.496800	0.781600
C161	C16	0.627200	0.448800	0.704400
H161	H16	0.658300	0.468200	0.684600
O91	O9	0.750000	0.410300	0.587300
C171	C17	0.856000	0.390300	0.761900
H171	H17	0.867700	0.370900	0.781600
C181	C18	0.821600	0.372800	0.704400
H181	H18	0.809900	0.341700	0.684600
O101	O10	0.339700	0.750000	0.587300
C191	C19	0.465700	0.856000	0.761900
H191	H19	0.496800	0.867700	0.781600
C201	C20	0.448800	0.821600	0.704400
H201	H20	0.468200	0.809900	0.684600
O111	O11	0.410300	0.660300	0.587300
C211	C21	0.390300	0.534300	0.761900
H211	H21	0.370900	0.503200	0.781600
C221	C22	0.372800	0.551200	0.704400
H221	H22	0.341700	0.531800	0.684600
O121	O12	0.250000	0.589700	0.587300
C231	C23	0.144000	0.609700	0.761900
H231	H23	0.132300	0.629100	0.781600
C241	C24	0.178400	0.627200	0.704400
H241	H24	0.190100	0.658300	0.684600
O131	O13	0.750000	0.339700	0.587300
C251	C25	0.856000	0.465700	0.761900
H251	H25	0.867700	0.496800	0.781600
C261	C26	0.821600	0.448800	0.704400
H261	H26	0.809900	0.468200	0.684600
O141	O14	0.660300	0.410300	0.587300
C271	C27	0.534300	0.390300	0.761900
H271	H27	0.503200	0.370900	0.781600
C281	C28	0.551200	0.372800	0.704400
H281	H28	0.531800	0.341700	0.684600
O151	O15	0.589700	0.250000	0.587300
C291	C29	0.609700	0.144000	0.761900
H291	H29	0.629100	0.132300	0.781600
C301	C30	0.627200	0.178400	0.704400
H301	H30	0.658300	0.190100	0.684600
O161	O16	0.250000	0.660300	0.587300
C311	C31	0.144000	0.534300	0.761900
H311	H31	0.132300	0.503200	0.781600
C321	C32	0.178400	0.551200	0.704400
H321	H32	0.190100	0.531800	0.684600
O171	O17	0.339700	0.589700	0.587300
C331	C33	0.465700	0.609700	0.761900
H331	H33	0.496800	0.629100	0.781600
C341	C34	0.448800	0.627200	0.704400
H341	H34	0.468200	0.658300	0.684600
O181	O18	0.410300	0.750000	0.587300
C351	C35	0.390300	0.856000	0.761900
H351	H35	0.370900	0.867700	0.781600
C361	C36	0.372800	0.821600	0.704400
H361	H36	0.341700	0.809900	0.684600
O191	O19	0.339700	0.750000	0.412700
C371	C37	0.465700	0.856000	0.238100
H371	H37	0.496800	0.867700	0.218400
C381	C38	0.448800	0.821600	0.295600
H381	H38	0.468200	0.809900	0.315400
O201	O20	0.410300	0.660300	0.412700
C391	C39	0.390300	0.534300	0.238100
H391	H39	0.370900	0.503200	0.218400
C401	C40	0.372800	0.551200	0.295600
H401	H40	0.341700	0.531800	0.315400
O211	O21	0.250000	0.589700	0.412700
C411	C41	0.144000	0.609700	0.238100
H411	H41	0.132300	0.629100	0.218400
C421	C42	0.178400	0.627200	0.295600
H421	H42	0.190100	0.658300	0.315400
O221	O22	0.660300	0.250000	0.412700
C431	C43	0.534300	0.144000	0.238100
H431	H43	0.503200	0.132300	0.218400
C441	C44	0.551200	0.178400	0.295600
H441	H44	0.531800	0.190100	0.315400
O231	O23	0.589700	0.339700	0.412700
C451	C45	0.609700	0.465700	0.238100
H451	H45	0.629100	0.496800	0.218400
C461	C46	0.627200	0.448800	0.295600
H461	H46	0.658300	0.468200	0.315400
O241	O24	0.750000	0.410300	0.412700
C471	C47	0.856000	0.390300	0.238100
H471	H47	0.867700	0.370900	0.218400
C481	C48	0.821600	0.372800	0.295600
H481	H48	0.809900	0.341700	0.315400
Ni11	Ni1	0.297200	0.702800	0.500000
O251	O25	0.258800	0.741200	0.500000
Ni21	Ni2	0.297200	0.594400	0.500000
O261	O26	0.258800	0.517600	0.500000
Ni31	Ni3	0.405600	0.702800	0.500000
O271	O27	0.482400	0.741200	0.500000
Ni41	Ni4	0.702800	0.297200	0.500000
O281	O28	0.741200	0.258800	0.500000
Ni51	Ni5	0.702800	0.405600	0.500000
O291	O29	0.741200	0.482400	0.500000
Ni61	Ni6	0.594400	0.297200	0.500000
O301	O30	0.517600	0.258800	0.500000
C491	C49	0.102600	0.551300	0.066700
C501	C50	0.039000	0.519500	0.167300
C511	C51	0.087500	0.543750	0.144200
C521	C52	0.024700	0.512350	0.246400
H491	H49	0.044700	0.522350	0.291000
C531	C53	0.149700	0.574850	0.042300
H501	H50	0.176800	0.588400	0.075300
C541	C54	0.125400	0.562700	0.207500
C551	C55	0.196400	0.598200	0.325000
C561	C56	0.237100	0.618550	0.389900
C571	C57	0.448700	0.551300	0.066700
C581	C58	0.480500	0.519500	0.167300
C591	C59	0.456250	0.543750	0.144200
C601	C60	0.487650	0.512350	0.246400
H511	H51	0.477650	0.522350	0.291000
C611	C61	0.425150	0.574850	0.042300
H521	H52	0.411600	0.588400	0.075300
C621	C62	0.437300	0.562700	0.207500
C631	C63	0.401800	0.598200	0.325000
C641	C64	0.381450	0.618550	0.389900
C651	C65	0.448700	0.897400	0.066700
C661	C66	0.480500	0.961000	0.167300
C671	C67	0.456250	0.912500	0.144200
C681	C68	0.487650	0.975300	0.246400
H531	H53	0.477650	0.955300	0.291000
C691	C69	0.425150	0.850300	0.042300
H541	H54	0.411600	0.823200	0.075300
C701	C70	0.437300	0.874600	0.207500
C711	C71	0.401800	0.803600	0.325000
C721	C72	0.381450	0.762900	0.389900
C731	C73	0.897400	0.448700	0.066700
C741	C74	0.961000	0.480500	0.167300
C751	C75	0.912500	0.456250	0.144200
C761	C76	0.975300	0.487650	0.246400
H551	H55	0.955300	0.477650	0.291000
C771	C77	0.850300	0.425150	0.042300
H561	H56	0.823200	0.411600	0.075300
C781	C78	0.874600	0.437300	0.207500
C791	C79	0.803600	0.401800	0.325000
C801	C80	0.762900	0.381450	0.389900
C811	C81	0.551300	0.448700	0.066700
C821	C82	0.519500	0.480500	0.167300
C831	C83	0.543750	0.456250	0.144200
C841	C84	0.512350	0.487650	0.246400
H571	H57	0.522350	0.477650	0.291000
C851	C85	0.574850	0.425150	0.042300
H581	H58	0.588400	0.411600	0.075300
C861	C86	0.562700	0.437300	0.207500
C871	C87	0.598200	0.401800	0.325000
C881	C88	0.618550	0.381450	0.389900
C891	C89	0.551300	0.102600	0.066700
C901	C90	0.519500	0.039000	0.167300
C911	C91	0.543750	0.087500	0.144200
C921	C92	0.512350	0.024700	0.246400
H591	H59	0.522350	0.044700	0.291000
C931	C93	0.574850	0.149700	0.042300
H601	H60	0.588400	0.176800	0.075300
C941	C94	0.562700	0.125400	0.207500
C951	C95	0.598200	0.196400	0.325000
C961	C96	0.618550	0.237100	0.389900
C971	C97	0.551300	0.102600	0.933300
C981	C98	0.519500	0.039000	0.832700
C991	C99	0.543750	0.087500	0.855800
C1001	C100	0.512350	0.024700	0.753600
H611	H61	0.522350	0.044700	0.709000
C1011	C101	0.574850	0.149700	0.957700
H621	H62	0.588400	0.176800	0.924700
C1021	C102	0.562700	0.125400	0.792500
C1031	C103	0.598200	0.196400	0.675000
C1041	C104	0.618550	0.237100	0.610100
C1051	C105	0.551300	0.448700	0.933300
C1061	C106	0.519500	0.480500	0.832700
C1071	C107	0.543750	0.456250	0.855800
C1081	C108	0.512350	0.487650	0.753600
H631	H63	0.522350	0.477650	0.709000
C1091	C109	0.574850	0.425150	0.957700
H641	H64	0.588400	0.411600	0.924700
C1101	C110	0.562700	0.437300	0.792500
C1111	C111	0.598200	0.401800	0.675000
C1121	C112	0.618550	0.381450	0.610100
C1131	C113	0.897400	0.448700	0.933300
C1141	C114	0.961000	0.480500	0.832700
C1151	C115	0.912500	0.456250	0.855800
C1161	C116	0.975300	0.487650	0.753600
H651	H65	0.955300	0.477650	0.709000
C1171	C117	0.850300	0.425150	0.957700
H661	H66	0.823200	0.411600	0.924700
C1181	C118	0.874600	0.437300	0.792500
C1191	C119	0.803600	0.401800	0.675000
C1201	C120	0.762900	0.381450	0.610100
C1211	C121	0.448700	0.897400	0.933300
C1221	C122	0.480500	0.961000	0.832700
C1231	C123	0.456250	0.912500	0.855800
C1241	C124	0.487650	0.975300	0.753600
H671	H67	0.477650	0.955300	0.709000
C1251	C125	0.425150	0.850300	0.957700
H681	H68	0.411600	0.823200	0.924700
C1261	C126	0.437300	0.874600	0.792500
C1271	C127	0.401800	0.803600	0.675000
C1281	C128	0.381450	0.762900	0.610100
C1291	C129	0.448700	0.551300	0.933300
C1301	C130	0.480500	0.519500	0.832700
C1311	C131	0.456250	0.543750	0.855800
C1321	C132	0.487650	0.512350	0.753600
H691	H69	0.477650	0.522350	0.709000
C1331	C133	0.425150	0.574850	0.957700
H701	H70	0.411600	0.588400	0.924700
C1341	C134	0.437300	0.562700	0.792500
C1351	C135	0.401800	0.598200	0.675000
C1361	C136	0.381450	0.618550	0.610100
C1371	C137	0.102600	0.551300	0.933300
C1381	C138	0.039000	0.519500	0.832700
C1391	C139	0.087500	0.543750	0.855800
C1401	C140	0.024700	0.512350	0.753600
H711	H71	0.044700	0.522350	0.709000
C1411	C141	0.149700	0.574850	0.957700
H721	H72	0.176800	0.588400	0.924700
C1421	C142	0.125400	0.562700	0.792500
C1431	C143	0.196400	0.598200	0.675000
C1441	C144	0.237100	0.618550	0.610100
N11	N1	0.071600	0.535800	0.000000
N21	N2	0.464200	0.535800	0.000000
N31	N3	0.464200	0.928400	0.000000
N41	N4	0.928400	0.464200	0.000000
N51	N5	0.535800	0.464200	0.000000
N61	N6	0.535800	0.071600	0.000000
Co11	Co1	0.000000	0.500000	0.000000
Co21	Co2	0.500000	0.500000	0.000000
Co31	Co3	0.500000	0.000000	0.000000
O311	O31	0.333330	0.666670	0.500000
O321	O32	0.666670	0.333330	0.500000
N71	N7	0.000000	0.500000	0.115500
N81	N8	0.500000	0.500000	0.115500
N91	N9	0.500000	0.000000	0.115500
N101	N10	0.500000	0.000000	0.884500
N111	N11	0.500000	0.500000	0.884500
N121	N12	0.000000	0.500000	0.884500
O331	O33	0.000000	0.564700	0.000000
O341	O34	0.435300	0.435300	0.000000
O351	O35	0.564700	0.000000	0.000000
O361	O36	0.000000	0.435300	0.000000
O371	O37	0.564700	0.564700	0.000000
O381	O38	0.435300	0.000000	0.000000
