data_jacs_PM
_symmetry_space_group_name_H-M	'P1'
_cell_length_a	20.911900
_cell_length_b	16.529900
_cell_length_c	6.949600
_cell_angle_alpha	90.000000
_cell_angle_beta	98.143000
_cell_angle_gamma	90.000000
_symmetry_Int_Tables_number 1

loop_
_symmetry_equiv_pos_as_xyz
'x,y,z'

loop_
_atom_site_label
_atom_site_type_symbol
_atom_site_fract_x
_atom_site_fract_y
_atom_site_fract_z
C11	C1	0.222000	0.244000	0.160000
C21	C2	0.278000	0.282000	0.160000
C31	C3	0.311000	0.288000	0.000000
C41	C4	0.362000	0.345000	0.000000
C51	C5	0.378000	0.403000	0.130000
C61	C6	0.407000	0.344000	0.880000
F11	F1	0.306000	0.324000	0.320000
N11	N1	0.432000	0.440000	0.110000
N21	N2	0.448000	0.404000	0.920000
H11	H1	0.202560	0.239410	0.295270
H21	H2	0.348830	0.418490	0.242410
H31	H3	0.409250	0.298560	0.771870
C71	C7	0.722000	0.744000	0.160000
C81	C8	0.778000	0.782000	0.160000
C91	C9	0.811000	0.788000	0.000000
C101	C10	0.862000	0.845000	0.000000
C111	C11	0.878000	0.903000	0.130000
C121	C12	0.907000	0.844000	0.880000
F21	F2	0.806000	0.824000	0.320000
N31	N3	0.932000	0.940000	0.110000
N41	N4	0.948000	0.904000	0.920000
H41	H4	0.702560	0.739410	0.295270
H51	H5	0.848830	0.918490	0.242410
H61	H6	0.909250	0.798560	0.771870
C131	C13	0.778000	0.244000	0.340000
C141	C14	0.722000	0.282000	0.340000
C151	C15	0.689000	0.288000	0.500000
C161	C16	0.638000	0.345000	0.500000
C171	C17	0.622000	0.403000	0.370000
C181	C18	0.593000	0.344000	0.620000
F31	F3	0.694000	0.324000	0.180000
N51	N5	0.568000	0.440000	0.390000
N61	N6	0.552000	0.404000	0.580000
H71	H7	0.797440	0.239410	0.204730
H81	H8	0.651170	0.418490	0.257590
H91	H9	0.590750	0.298560	0.728130
C191	C19	0.278000	0.744000	0.340000
C201	C20	0.222000	0.782000	0.340000
C211	C21	0.189000	0.788000	0.500000
C221	C22	0.138000	0.845000	0.500000
C231	C23	0.122000	0.903000	0.370000
C241	C24	0.093000	0.844000	0.620000
F41	F4	0.194000	0.824000	0.180000
N71	N7	0.068000	0.940000	0.390000
N81	N8	0.052000	0.904000	0.580000
H101	H10	0.297440	0.739410	0.204730
H111	H11	0.151170	0.918490	0.257590
H121	H12	0.090750	0.798560	0.728130
C251	C25	0.778000	0.756000	0.840000
C261	C26	0.722000	0.718000	0.840000
C271	C27	0.689000	0.712000	0.000000
C281	C28	0.638000	0.655000	0.000000
C291	C29	0.622000	0.597000	0.870000
C301	C30	0.593000	0.656000	0.120000
F51	F5	0.694000	0.676000	0.680000
N91	N9	0.568000	0.560000	0.890000
N101	N10	0.552000	0.596000	0.080000
H131	H13	0.797440	0.760590	0.704730
H141	H14	0.651170	0.581510	0.757590
H151	H15	0.590750	0.701440	0.228130
C311	C31	0.278000	0.256000	0.840000
C321	C32	0.222000	0.218000	0.840000
C331	C33	0.189000	0.212000	0.000000
C341	C34	0.138000	0.155000	0.000000
C351	C35	0.122000	0.097000	0.870000
C361	C36	0.093000	0.156000	0.120000
F61	F6	0.194000	0.176000	0.680000
N111	N11	0.068000	0.060000	0.890000
N121	N12	0.052000	0.096000	0.080000
H161	H16	0.297440	0.260590	0.704730
H171	H17	0.151170	0.081510	0.757590
H181	H18	0.090750	0.201440	0.228130
C371	C37	0.222000	0.756000	0.660000
C381	C38	0.278000	0.718000	0.660000
C391	C39	0.311000	0.712000	0.500000
C401	C40	0.362000	0.655000	0.500000
C411	C41	0.378000	0.597000	0.630000
C421	C42	0.407000	0.656000	0.380000
F71	F7	0.306000	0.676000	0.820000
N131	N13	0.432000	0.560000	0.610000
N141	N14	0.448000	0.596000	0.420000
H191	H19	0.202560	0.760590	0.795270
H201	H20	0.348830	0.581510	0.742410
H211	H21	0.409250	0.701440	0.271870
C431	C43	0.722000	0.256000	0.660000
C441	C44	0.778000	0.218000	0.660000
C451	C45	0.811000	0.212000	0.500000
C461	C46	0.862000	0.155000	0.500000
C471	C47	0.878000	0.097000	0.630000
C481	C48	0.907000	0.156000	0.380000
F81	F8	0.806000	0.176000	0.820000
N151	N15	0.932000	0.060000	0.610000
N161	N16	0.948000	0.096000	0.420000
H221	H22	0.702560	0.260590	0.795270
H231	H23	0.848830	0.081510	0.742410
H241	H24	0.909250	0.201440	0.271870
Co11	Co1	0.500000	0.516100	0.250000
Co21	Co2	0.000000	0.016100	0.250000
Co31	Co3	0.500000	0.483900	0.750000
Co41	Co4	0.000000	0.983900	0.750000
