data_JAKBOP01_freeONLY_PM
_symmetry_space_group_name_H-M	'P1'
_cell_length_a	10.391000
_cell_length_b	15.810000
_cell_length_c	15.482000
_cell_angle_alpha	90.000000
_cell_angle_beta	127.560000
_cell_angle_gamma	90.000000
_symmetry_Int_Tables_number 1

loop_
_symmetry_equiv_pos_as_xyz
'x,y,z'

loop_
_atom_site_label
_atom_site_type_symbol
_atom_site_fract_x
_atom_site_fract_y
_atom_site_fract_z
Mn11	Mn1	0.416400	0.183860	0.184950
C11	C1	0.471300	0.361800	0.322100
N11	N1	0.444600	0.303000	0.272100
N21	N2	0.402700	0.384600	0.810000
N31	N3	0.609800	0.561800	0.396600
N41	N4	0.502600	0.422900	0.392500
N51	N5	0.688000	0.163300	0.308400
N61	N6	0.464500	0.259000	0.084900
C21	C2	0.560000	0.496100	0.390700
C31	C3	0.495100	0.303800	0.044400
N71	N7	0.149200	0.297000	0.575300
C41	C4	0.799100	0.189200	0.397100
N81	N8	0.902000	0.208800	0.497500
C51	C5	0.033700	0.255300	0.535700
N91	N9	0.545900	0.363100	0.008200
C61	C6	0.464500	0.371200	0.900900
Mn21	Mn2	0.583600	0.683860	0.315050
C71	C7	0.528700	0.861800	0.177900
N101	N10	0.555400	0.803000	0.227900
N111	N11	0.597300	0.884600	0.690000
N121	N12	0.390200	0.061800	0.103400
N131	N13	0.497400	0.922900	0.107500
N141	N14	0.312000	0.663300	0.191600
N151	N15	0.535500	0.759000	0.415100
C81	C8	0.440000	0.996100	0.109300
C91	C9	0.504900	0.803800	0.455600
N161	N16	0.850800	0.797000	0.924700
C101	C10	0.200900	0.689200	0.102900
N171	N17	0.098000	0.708800	0.002500
C111	C11	0.966300	0.755300	0.964300
N181	N18	0.454100	0.863100	0.491800
C121	C12	0.535500	0.871200	0.599100
Mn31	Mn3	0.583600	0.816140	0.815050
C131	C13	0.528700	0.638200	0.677900
N191	N19	0.555400	0.697000	0.727900
N201	N20	0.597300	0.615400	0.190000
N211	N21	0.390200	0.438200	0.603400
N221	N22	0.497400	0.577100	0.607500
N231	N23	0.312000	0.836700	0.691600
N241	N24	0.535500	0.741000	0.915100
C141	C14	0.440000	0.503900	0.609300
C151	C15	0.504900	0.696200	0.955600
N251	N25	0.850800	0.703000	0.424700
C161	C16	0.200900	0.810800	0.602900
N261	N26	0.098000	0.791200	0.502500
C171	C17	0.966300	0.744700	0.464300
N271	N27	0.454100	0.636900	0.991800
C181	C18	0.535500	0.628800	0.099100
Mn41	Mn4	0.416400	0.316140	0.684950
C191	C19	0.471300	0.138200	0.822100
N281	N28	0.444600	0.197000	0.772100
N291	N29	0.402700	0.115400	0.310000
N301	N30	0.609800	0.938200	0.896600
N311	N31	0.502600	0.077100	0.892500
N321	N32	0.688000	0.336700	0.808400
N331	N33	0.464500	0.241000	0.584900
C201	C20	0.560000	0.003900	0.890700
C211	C21	0.495100	0.196200	0.544400
N341	N34	0.149200	0.203000	0.075300
C221	C22	0.799100	0.310800	0.897100
N351	N35	0.902000	0.291200	0.997500
C231	C23	0.033700	0.244700	0.035700
N361	N36	0.545900	0.136900	0.508200
C241	C24	0.464500	0.128800	0.400900
