data_JALLEQ_freeONLY_PM
_symmetry_space_group_name_H-M	'P1'
_cell_length_a	39.919400
_cell_length_b	39.919400
_cell_length_c	39.919400
_cell_angle_alpha	90.000000
_cell_angle_beta	90.000000
_cell_angle_gamma	90.000000
_symmetry_Int_Tables_number 1

loop_
_symmetry_equiv_pos_as_xyz
'x,y,z'

loop_
_atom_site_label
_atom_site_type_symbol
_atom_site_fract_x
_atom_site_fract_y
_atom_site_fract_z
C11	C1	0.229800	0.154530	0.060100
C21	C2	0.219400	0.125900	0.084140
N11	N1	0.189510	0.108800	0.083820
O11	O1	0.209200	0.157730	0.036710
O21	O2	0.257190	0.168820	0.068690
C31	C3	0.229800	0.654530	0.560100
C41	C4	0.219400	0.625900	0.584140
N21	N2	0.189510	0.608800	0.583820
O31	O3	0.209200	0.657730	0.536710
O41	O4	0.257190	0.668820	0.568690
C51	C5	0.729800	0.154530	0.560100
C61	C6	0.719400	0.125900	0.584140
N31	N3	0.689510	0.108800	0.583820
O51	O5	0.709200	0.157730	0.536710
O61	O6	0.757190	0.168820	0.568690
C71	C7	0.729800	0.654530	0.060100
C81	C8	0.719400	0.625900	0.084140
N41	N4	0.689510	0.608800	0.083820
O71	O7	0.709200	0.657730	0.036710
O81	O8	0.757190	0.668820	0.068690
C91	C9	0.770200	0.845470	0.060100
C101	C10	0.780600	0.874100	0.084140
N51	N5	0.810490	0.891200	0.083820
O91	O9	0.790800	0.842270	0.036710
O101	O10	0.742810	0.831180	0.068690
C111	C11	0.770200	0.345470	0.560100
C121	C12	0.780600	0.374100	0.584140
N61	N6	0.810490	0.391200	0.583820
O111	O11	0.790800	0.342270	0.536710
O121	O12	0.742810	0.331180	0.568690
C131	C13	0.270200	0.845470	0.560100
C141	C14	0.280600	0.874100	0.584140
N71	N7	0.310490	0.891200	0.583820
O131	O13	0.290800	0.842270	0.536710
O141	O14	0.242810	0.831180	0.568690
C151	C15	0.270200	0.345470	0.060100
C161	C16	0.280600	0.374100	0.084140
N81	N8	0.310490	0.391200	0.083820
O151	O15	0.290800	0.342270	0.036710
O161	O16	0.242810	0.331180	0.068690
C171	C17	0.770200	0.154530	0.939900
C181	C18	0.780600	0.125900	0.915860
N91	N9	0.810490	0.108800	0.916180
O171	O17	0.790800	0.157730	0.963290
O181	O18	0.742810	0.168820	0.931310
C191	C19	0.770200	0.654530	0.439900
C201	C20	0.780600	0.625900	0.415860
N101	N10	0.810490	0.608800	0.416180
O191	O19	0.790800	0.657730	0.463290
O201	O20	0.742810	0.668820	0.431310
C211	C21	0.270200	0.154530	0.439900
C221	C22	0.280600	0.125900	0.415860
N111	N11	0.310490	0.108800	0.416180
O211	O21	0.290800	0.157730	0.463290
O221	O22	0.242810	0.168820	0.431310
C231	C23	0.270200	0.654530	0.939900
C241	C24	0.280600	0.625900	0.915860
N121	N12	0.310490	0.608800	0.916180
O231	O23	0.290800	0.657730	0.963290
O241	O24	0.242810	0.668820	0.931310
C251	C25	0.229800	0.845470	0.939900
C261	C26	0.219400	0.874100	0.915860
N131	N13	0.189510	0.891200	0.916180
O251	O25	0.209200	0.842270	0.963290
O261	O26	0.257190	0.831180	0.931310
C271	C27	0.229800	0.345470	0.439900
C281	C28	0.219400	0.374100	0.415860
N141	N14	0.189510	0.391200	0.416180
O271	O27	0.209200	0.342270	0.463290
O281	O28	0.257190	0.331180	0.431310
C291	C29	0.729800	0.845470	0.439900
C301	C30	0.719400	0.874100	0.415860
N151	N15	0.689510	0.891200	0.416180
O291	O29	0.709200	0.842270	0.463290
O301	O30	0.757190	0.831180	0.431310
C311	C31	0.729800	0.345470	0.939900
C321	C32	0.719400	0.374100	0.915860
N161	N16	0.689510	0.391200	0.916180
O311	O31	0.709200	0.342270	0.963290
O321	O32	0.757190	0.331180	0.931310
C331	C33	0.060100	0.229800	0.154530
C341	C34	0.084140	0.219400	0.125900
N171	N17	0.083820	0.189510	0.108800
O331	O33	0.036710	0.209200	0.157730
O341	O34	0.068690	0.257190	0.168820
C351	C35	0.060100	0.729800	0.654530
C361	C36	0.084140	0.719400	0.625900
N181	N18	0.083820	0.689510	0.608800
O351	O35	0.036710	0.709200	0.657730
O361	O36	0.068690	0.757190	0.668820
C371	C37	0.560100	0.229800	0.654530
C381	C38	0.584140	0.219400	0.625900
N191	N19	0.583820	0.189510	0.608800
O371	O37	0.536710	0.209200	0.657730
O381	O38	0.568690	0.257190	0.668820
C391	C39	0.560100	0.729800	0.154530
C401	C40	0.584140	0.719400	0.125900
N201	N20	0.583820	0.689510	0.108800
O391	O39	0.536710	0.709200	0.157730
O401	O40	0.568690	0.757190	0.168820
C411	C41	0.060100	0.770200	0.845470
C421	C42	0.084140	0.780600	0.874100
N211	N21	0.083820	0.810490	0.891200
O411	O41	0.036710	0.790800	0.842270
O421	O42	0.068690	0.742810	0.831180
C431	C43	0.060100	0.270200	0.345470
C441	C44	0.084140	0.280600	0.374100
N221	N22	0.083820	0.310490	0.391200
O431	O43	0.036710	0.290800	0.342270
O441	O44	0.068690	0.242810	0.331180
C451	C45	0.560100	0.770200	0.345470
C461	C46	0.584140	0.780600	0.374100
N231	N23	0.583820	0.810490	0.391200
O451	O45	0.536710	0.790800	0.342270
O461	O46	0.568690	0.742810	0.331180
C471	C47	0.560100	0.270200	0.845470
C481	C48	0.584140	0.280600	0.874100
N241	N24	0.583820	0.310490	0.891200
O471	O47	0.536710	0.290800	0.842270
O481	O48	0.568690	0.242810	0.831180
C491	C49	0.939900	0.770200	0.154530
C501	C50	0.915860	0.780600	0.125900
N251	N25	0.916180	0.810490	0.108800
O491	O49	0.963290	0.790800	0.157730
O501	O50	0.931310	0.742810	0.168820
C511	C51	0.939900	0.270200	0.654530
C521	C52	0.915860	0.280600	0.625900
N261	N26	0.916180	0.310490	0.608800
O511	O51	0.963290	0.290800	0.657730
O521	O52	0.931310	0.242810	0.668820
C531	C53	0.439900	0.770200	0.654530
C541	C54	0.415860	0.780600	0.625900
N271	N27	0.416180	0.810490	0.608800
O531	O53	0.463290	0.790800	0.657730
O541	O54	0.431310	0.742810	0.668820
C551	C55	0.439900	0.270200	0.154530
C561	C56	0.415860	0.280600	0.125900
N281	N28	0.416180	0.310490	0.108800
O551	O55	0.463290	0.290800	0.157730
O561	O56	0.431310	0.242810	0.168820
C571	C57	0.939900	0.229800	0.845470
C581	C58	0.915860	0.219400	0.874100
N291	N29	0.916180	0.189510	0.891200
O571	O57	0.963290	0.209200	0.842270
O581	O58	0.931310	0.257190	0.831180
C591	C59	0.939900	0.729800	0.345470
C601	C60	0.915860	0.719400	0.374100
N301	N30	0.916180	0.689510	0.391200
O591	O59	0.963290	0.709200	0.342270
O601	O60	0.931310	0.757190	0.331180
C611	C61	0.439900	0.229800	0.345470
C621	C62	0.415860	0.219400	0.374100
N311	N31	0.416180	0.189510	0.391200
O611	O61	0.463290	0.209200	0.342270
O621	O62	0.431310	0.257190	0.331180
C631	C63	0.439900	0.729800	0.845470
C641	C64	0.415860	0.719400	0.874100
N321	N32	0.416180	0.689510	0.891200
O631	O63	0.463290	0.709200	0.842270
O641	O64	0.431310	0.757190	0.831180
C651	C65	0.154530	0.060100	0.229800
C661	C66	0.125900	0.084140	0.219400
N331	N33	0.108800	0.083820	0.189510
O651	O65	0.157730	0.036710	0.209200
O661	O66	0.168820	0.068690	0.257190
C671	C67	0.154530	0.560100	0.729800
C681	C68	0.125900	0.584140	0.719400
N341	N34	0.108800	0.583820	0.689510
O671	O67	0.157730	0.536710	0.709200
O681	O68	0.168820	0.568690	0.757190
C691	C69	0.654530	0.060100	0.729800
C701	C70	0.625900	0.084140	0.719400
N351	N35	0.608800	0.083820	0.689510
O691	O69	0.657730	0.036710	0.709200
O701	O70	0.668820	0.068690	0.757190
C711	C71	0.654530	0.560100	0.229800
C721	C72	0.625900	0.584140	0.219400
N361	N36	0.608800	0.583820	0.189510
O711	O71	0.657730	0.536710	0.209200
O721	O72	0.668820	0.568690	0.257190
C731	C73	0.845470	0.060100	0.770200
C741	C74	0.874100	0.084140	0.780600
N371	N37	0.891200	0.083820	0.810490
O731	O73	0.842270	0.036710	0.790800
O741	O74	0.831180	0.068690	0.742810
C751	C75	0.845470	0.560100	0.270200
C761	C76	0.874100	0.584140	0.280600
N381	N38	0.891200	0.583820	0.310490
O751	O75	0.842270	0.536710	0.290800
O761	O76	0.831180	0.568690	0.242810
C771	C77	0.345470	0.060100	0.270200
C781	C78	0.374100	0.084140	0.280600
N391	N39	0.391200	0.083820	0.310490
O771	O77	0.342270	0.036710	0.290800
O781	O78	0.331180	0.068690	0.242810
C791	C79	0.345470	0.560100	0.770200
C801	C80	0.374100	0.584140	0.780600
N401	N40	0.391200	0.583820	0.810490
O791	O79	0.342270	0.536710	0.790800
O801	O80	0.331180	0.568690	0.742810
C811	C81	0.154530	0.939900	0.770200
C821	C82	0.125900	0.915860	0.780600
N411	N41	0.108800	0.916180	0.810490
O811	O81	0.157730	0.963290	0.790800
O821	O82	0.168820	0.931310	0.742810
C831	C83	0.154530	0.439900	0.270200
C841	C84	0.125900	0.415860	0.280600
N421	N42	0.108800	0.416180	0.310490
O831	O83	0.157730	0.463290	0.290800
O841	O84	0.168820	0.431310	0.242810
C851	C85	0.654530	0.939900	0.270200
C861	C86	0.625900	0.915860	0.280600
N431	N43	0.608800	0.916180	0.310490
O851	O85	0.657730	0.963290	0.290800
O861	O86	0.668820	0.931310	0.242810
C871	C87	0.654530	0.439900	0.770200
C881	C88	0.625900	0.415860	0.780600
N441	N44	0.608800	0.416180	0.810490
O871	O87	0.657730	0.463290	0.790800
O881	O88	0.668820	0.431310	0.742810
C891	C89	0.845470	0.939900	0.229800
C901	C90	0.874100	0.915860	0.219400
N451	N45	0.891200	0.916180	0.189510
O891	O89	0.842270	0.963290	0.209200
O901	O90	0.831180	0.931310	0.257190
C911	C91	0.845470	0.439900	0.729800
C921	C92	0.874100	0.415860	0.719400
N461	N46	0.891200	0.416180	0.689510
O911	O91	0.842270	0.463290	0.709200
O921	O92	0.831180	0.431310	0.757190
C931	C93	0.345470	0.939900	0.729800
C941	C94	0.374100	0.915860	0.719400
N471	N47	0.391200	0.916180	0.689510
O931	O93	0.342270	0.963290	0.709200
O941	O94	0.331180	0.931310	0.757190
C951	C95	0.345470	0.439900	0.229800
C961	C96	0.374100	0.415860	0.219400
N481	N48	0.391200	0.416180	0.189510
O951	O95	0.342270	0.463290	0.209200
O961	O96	0.331180	0.431310	0.257190
C971	C97	0.154530	0.229800	0.939900
C981	C98	0.125900	0.219400	0.915860
N491	N49	0.108800	0.189510	0.916180
O971	O97	0.157730	0.209200	0.963290
O981	O98	0.168820	0.257190	0.931310
C991	C99	0.154530	0.729800	0.439900
C1001	C100	0.125900	0.719400	0.415860
N501	N50	0.108800	0.689510	0.416180
O991	O99	0.157730	0.709200	0.463290
O1001	O100	0.168820	0.757190	0.431310
C1011	C101	0.654530	0.229800	0.439900
C1021	C102	0.625900	0.219400	0.415860
N511	N51	0.608800	0.189510	0.416180
O1011	O101	0.657730	0.209200	0.463290
O1021	O102	0.668820	0.257190	0.431310
C1031	C103	0.654530	0.729800	0.939900
C1041	C104	0.625900	0.719400	0.915860
N521	N52	0.608800	0.689510	0.916180
O1031	O103	0.657730	0.709200	0.963290
O1041	O104	0.668820	0.757190	0.931310
C1051	C105	0.845470	0.770200	0.939900
C1061	C106	0.874100	0.780600	0.915860
N531	N53	0.891200	0.810490	0.916180
O1051	O105	0.842270	0.790800	0.963290
O1061	O106	0.831180	0.742810	0.931310
C1071	C107	0.845470	0.270200	0.439900
C1081	C108	0.874100	0.280600	0.415860
N541	N54	0.891200	0.310490	0.416180
O1071	O107	0.842270	0.290800	0.463290
O1081	O108	0.831180	0.242810	0.431310
C1091	C109	0.345470	0.770200	0.439900
C1101	C110	0.374100	0.780600	0.415860
N551	N55	0.391200	0.810490	0.416180
O1091	O109	0.342270	0.790800	0.463290
O1101	O110	0.331180	0.742810	0.431310
C1111	C111	0.345470	0.270200	0.939900
C1121	C112	0.374100	0.280600	0.915860
N561	N56	0.391200	0.310490	0.916180
O1111	O111	0.342270	0.290800	0.963290
O1121	O112	0.331180	0.242810	0.931310
C1131	C113	0.154530	0.770200	0.060100
C1141	C114	0.125900	0.780600	0.084140
N571	N57	0.108800	0.810490	0.083820
O1131	O113	0.157730	0.790800	0.036710
O1141	O114	0.168820	0.742810	0.068690
C1151	C115	0.154530	0.270200	0.560100
C1161	C116	0.125900	0.280600	0.584140
N581	N58	0.108800	0.310490	0.583820
O1151	O115	0.157730	0.290800	0.536710
O1161	O116	0.168820	0.242810	0.568690
C1171	C117	0.654530	0.770200	0.560100
C1181	C118	0.625900	0.780600	0.584140
N591	N59	0.608800	0.810490	0.583820
O1171	O117	0.657730	0.790800	0.536710
O1181	O118	0.668820	0.742810	0.568690
C1191	C119	0.654530	0.270200	0.060100
C1201	C120	0.625900	0.280600	0.084140
N601	N60	0.608800	0.310490	0.083820
O1191	O119	0.657730	0.290800	0.036710
O1201	O120	0.668820	0.242810	0.068690
C1211	C121	0.845470	0.229800	0.060100
C1221	C122	0.874100	0.219400	0.084140
N611	N61	0.891200	0.189510	0.083820
O1211	O121	0.842270	0.209200	0.036710
O1221	O122	0.831180	0.257190	0.068690
C1231	C123	0.845470	0.729800	0.560100
C1241	C124	0.874100	0.719400	0.584140
N621	N62	0.891200	0.689510	0.583820
O1231	O123	0.842270	0.709200	0.536710
O1241	O124	0.831180	0.757190	0.568690
C1251	C125	0.345470	0.229800	0.560100
C1261	C126	0.374100	0.219400	0.584140
N631	N63	0.391200	0.189510	0.583820
O1251	O125	0.342270	0.209200	0.536710
O1261	O126	0.331180	0.257190	0.568690
C1271	C127	0.345470	0.729800	0.060100
C1281	C128	0.374100	0.719400	0.084140
N641	N64	0.391200	0.689510	0.083820
O1271	O127	0.342270	0.709200	0.036710
O1281	O128	0.331180	0.757190	0.068690
C1291	C129	0.229800	0.060100	0.845470
C1301	C130	0.219400	0.084140	0.874100
N651	N65	0.189510	0.083820	0.891200
O1291	O129	0.209200	0.036710	0.842270
O1301	O130	0.257190	0.068690	0.831180
C1311	C131	0.229800	0.560100	0.345470
C1321	C132	0.219400	0.584140	0.374100
N661	N66	0.189510	0.583820	0.391200
O1311	O131	0.209200	0.536710	0.342270
O1321	O132	0.257190	0.568690	0.331180
C1331	C133	0.729800	0.060100	0.345470
C1341	C134	0.719400	0.084140	0.374100
N671	N67	0.689510	0.083820	0.391200
O1331	O133	0.709200	0.036710	0.342270
O1341	O134	0.757190	0.068690	0.331180
C1351	C135	0.729800	0.560100	0.845470
C1361	C136	0.719400	0.584140	0.874100
N681	N68	0.689510	0.583820	0.891200
O1351	O135	0.709200	0.536710	0.842270
O1361	O136	0.757190	0.568690	0.831180
C1371	C137	0.770200	0.060100	0.154530
C1381	C138	0.780600	0.084140	0.125900
N691	N69	0.810490	0.083820	0.108800
O1371	O137	0.790800	0.036710	0.157730
O1381	O138	0.742810	0.068690	0.168820
C1391	C139	0.770200	0.560100	0.654530
C1401	C140	0.780600	0.584140	0.625900
N701	N70	0.810490	0.583820	0.608800
O1391	O139	0.790800	0.536710	0.657730
O1401	O140	0.742810	0.568690	0.668820
C1411	C141	0.270200	0.060100	0.654530
C1421	C142	0.280600	0.084140	0.625900
N711	N71	0.310490	0.083820	0.608800
O1411	O141	0.290800	0.036710	0.657730
O1421	O142	0.242810	0.068690	0.668820
C1431	C143	0.270200	0.560100	0.154530
C1441	C144	0.280600	0.584140	0.125900
N721	N72	0.310490	0.583820	0.108800
O1431	O143	0.290800	0.536710	0.157730
O1441	O144	0.242810	0.568690	0.168820
C1451	C145	0.770200	0.939900	0.845470
C1461	C146	0.780600	0.915860	0.874100
N731	N73	0.810490	0.916180	0.891200
O1451	O145	0.790800	0.963290	0.842270
O1461	O146	0.742810	0.931310	0.831180
C1471	C147	0.770200	0.439900	0.345470
C1481	C148	0.780600	0.415860	0.374100
N741	N74	0.810490	0.416180	0.391200
O1471	O147	0.790800	0.463290	0.342270
O1481	O148	0.742810	0.431310	0.331180
C1491	C149	0.270200	0.939900	0.345470
C1501	C150	0.280600	0.915860	0.374100
N751	N75	0.310490	0.916180	0.391200
O1491	O149	0.290800	0.963290	0.342270
O1501	O150	0.242810	0.931310	0.331180
C1511	C151	0.270200	0.439900	0.845470
C1521	C152	0.280600	0.415860	0.874100
N761	N76	0.310490	0.416180	0.891200
O1511	O151	0.290800	0.463290	0.842270
O1521	O152	0.242810	0.431310	0.831180
C1531	C153	0.229800	0.939900	0.154530
C1541	C154	0.219400	0.915860	0.125900
N771	N77	0.189510	0.916180	0.108800
O1531	O153	0.209200	0.963290	0.157730
O1541	O154	0.257190	0.931310	0.168820
C1551	C155	0.229800	0.439900	0.654530
C1561	C156	0.219400	0.415860	0.625900
N781	N78	0.189510	0.416180	0.608800
O1551	O155	0.209200	0.463290	0.657730
O1561	O156	0.257190	0.431310	0.668820
C1571	C157	0.729800	0.939900	0.654530
C1581	C158	0.719400	0.915860	0.625900
N791	N79	0.689510	0.916180	0.608800
O1571	O157	0.709200	0.963290	0.657730
O1581	O158	0.757190	0.931310	0.668820
C1591	C159	0.729800	0.439900	0.154530
C1601	C160	0.719400	0.415860	0.125900
N801	N80	0.689510	0.416180	0.108800
O1591	O159	0.709200	0.463290	0.157730
O1601	O160	0.757190	0.431310	0.168820
C1611	C161	0.060100	0.154530	0.770200
C1621	C162	0.084140	0.125900	0.780600
N811	N81	0.083820	0.108800	0.810490
O1611	O161	0.036710	0.157730	0.790800
O1621	O162	0.068690	0.168820	0.742810
C1631	C163	0.060100	0.654530	0.270200
C1641	C164	0.084140	0.625900	0.280600
N821	N82	0.083820	0.608800	0.310490
O1631	O163	0.036710	0.657730	0.290800
O1641	O164	0.068690	0.668820	0.242810
C1651	C165	0.560100	0.154530	0.270200
C1661	C166	0.584140	0.125900	0.280600
N831	N83	0.583820	0.108800	0.310490
O1651	O165	0.536710	0.157730	0.290800
O1661	O166	0.568690	0.168820	0.242810
C1671	C167	0.560100	0.654530	0.770200
C1681	C168	0.584140	0.625900	0.780600
N841	N84	0.583820	0.608800	0.810490
O1671	O167	0.536710	0.657730	0.790800
O1681	O168	0.568690	0.668820	0.742810
C1691	C169	0.060100	0.845470	0.229800
C1701	C170	0.084140	0.874100	0.219400
N851	N85	0.083820	0.891200	0.189510
O1691	O169	0.036710	0.842270	0.209200
O1701	O170	0.068690	0.831180	0.257190
C1711	C171	0.060100	0.345470	0.729800
C1721	C172	0.084140	0.374100	0.719400
N861	N86	0.083820	0.391200	0.689510
O1711	O171	0.036710	0.342270	0.709200
O1721	O172	0.068690	0.331180	0.757190
C1731	C173	0.560100	0.845470	0.729800
C1741	C174	0.584140	0.874100	0.719400
N871	N87	0.583820	0.891200	0.689510
O1731	O173	0.536710	0.842270	0.709200
O1741	O174	0.568690	0.831180	0.757190
C1751	C175	0.560100	0.345470	0.229800
C1761	C176	0.584140	0.374100	0.219400
N881	N88	0.583820	0.391200	0.189510
O1751	O175	0.536710	0.342270	0.209200
O1761	O176	0.568690	0.331180	0.257190
C1771	C177	0.939900	0.154530	0.229800
C1781	C178	0.915860	0.125900	0.219400
N891	N89	0.916180	0.108800	0.189510
O1771	O177	0.963290	0.157730	0.209200
O1781	O178	0.931310	0.168820	0.257190
C1791	C179	0.939900	0.654530	0.729800
C1801	C180	0.915860	0.625900	0.719400
N901	N90	0.916180	0.608800	0.689510
O1791	O179	0.963290	0.657730	0.709200
O1801	O180	0.931310	0.668820	0.757190
C1811	C181	0.439900	0.154530	0.729800
C1821	C182	0.415860	0.125900	0.719400
N911	N91	0.416180	0.108800	0.689510
O1811	O181	0.463290	0.157730	0.709200
O1821	O182	0.431310	0.168820	0.757190
C1831	C183	0.439900	0.654530	0.229800
C1841	C184	0.415860	0.625900	0.219400
N921	N92	0.416180	0.608800	0.189510
O1831	O183	0.463290	0.657730	0.209200
O1841	O184	0.431310	0.668820	0.257190
C1851	C185	0.939900	0.845470	0.770200
C1861	C186	0.915860	0.874100	0.780600
N931	N93	0.916180	0.891200	0.810490
O1851	O185	0.963290	0.842270	0.790800
O1861	O186	0.931310	0.831180	0.742810
C1871	C187	0.939900	0.345470	0.270200
C1881	C188	0.915860	0.374100	0.280600
N941	N94	0.916180	0.391200	0.310490
O1871	O187	0.963290	0.342270	0.290800
O1881	O188	0.931310	0.331180	0.242810
C1891	C189	0.439900	0.845470	0.270200
C1901	C190	0.415860	0.874100	0.280600
N951	N95	0.416180	0.891200	0.310490
O1891	O189	0.463290	0.842270	0.290800
O1901	O190	0.431310	0.831180	0.242810
C1911	C191	0.439900	0.345470	0.770200
C1921	C192	0.415860	0.374100	0.780600
N961	N96	0.416180	0.391200	0.810490
O1911	O191	0.463290	0.342270	0.790800
O1921	O192	0.431310	0.331180	0.742810
C1931	C193	0.770200	0.845470	0.939900
C1941	C194	0.780600	0.874100	0.915860
N971	N97	0.810490	0.891200	0.916180
O1931	O193	0.790800	0.842270	0.963290
O1941	O194	0.742810	0.831180	0.931310
C1951	C195	0.770200	0.345470	0.439900
C1961	C196	0.780600	0.374100	0.415860
N981	N98	0.810490	0.391200	0.416180
O1951	O195	0.790800	0.342270	0.463290
O1961	O196	0.742810	0.331180	0.431310
C1971	C197	0.270200	0.845470	0.439900
C1981	C198	0.280600	0.874100	0.415860
N991	N99	0.310490	0.891200	0.416180
O1971	O197	0.290800	0.842270	0.463290
O1981	O198	0.242810	0.831180	0.431310
C1991	C199	0.270200	0.345470	0.939900
C2001	C200	0.280600	0.374100	0.915860
N1001	N100	0.310490	0.391200	0.916180
O1991	O199	0.290800	0.342270	0.963290
O2001	O200	0.242810	0.331180	0.931310
C2011	C201	0.229800	0.154530	0.939900
C2021	C202	0.219400	0.125900	0.915860
N1011	N101	0.189510	0.108800	0.916180
O2011	O201	0.209200	0.157730	0.963290
O2021	O202	0.257190	0.168820	0.931310
C2031	C203	0.229800	0.654530	0.439900
C2041	C204	0.219400	0.625900	0.415860
N1021	N102	0.189510	0.608800	0.416180
O2031	O203	0.209200	0.657730	0.463290
O2041	O204	0.257190	0.668820	0.431310
C2051	C205	0.729800	0.154530	0.439900
C2061	C206	0.719400	0.125900	0.415860
N1031	N103	0.689510	0.108800	0.416180
O2051	O205	0.709200	0.157730	0.463290
O2061	O206	0.757190	0.168820	0.431310
C2071	C207	0.729800	0.654530	0.939900
C2081	C208	0.719400	0.625900	0.915860
N1041	N104	0.689510	0.608800	0.916180
O2071	O207	0.709200	0.657730	0.963290
O2081	O208	0.757190	0.668820	0.931310
C2091	C209	0.229800	0.845470	0.060100
C2101	C210	0.219400	0.874100	0.084140
N1051	N105	0.189510	0.891200	0.083820
O2091	O209	0.209200	0.842270	0.036710
O2101	O210	0.257190	0.831180	0.068690
C2111	C211	0.229800	0.345470	0.560100
C2121	C212	0.219400	0.374100	0.584140
N1061	N106	0.189510	0.391200	0.583820
O2111	O211	0.209200	0.342270	0.536710
O2121	O212	0.257190	0.331180	0.568690
C2131	C213	0.729800	0.845470	0.560100
C2141	C214	0.719400	0.874100	0.584140
N1071	N107	0.689510	0.891200	0.583820
O2131	O213	0.709200	0.842270	0.536710
O2141	O214	0.757190	0.831180	0.568690
C2151	C215	0.729800	0.345470	0.060100
C2161	C216	0.719400	0.374100	0.084140
N1081	N108	0.689510	0.391200	0.083820
O2151	O215	0.709200	0.342270	0.036710
O2161	O216	0.757190	0.331180	0.068690
C2171	C217	0.770200	0.154530	0.060100
C2181	C218	0.780600	0.125900	0.084140
N1091	N109	0.810490	0.108800	0.083820
O2171	O217	0.790800	0.157730	0.036710
O2181	O218	0.742810	0.168820	0.068690
C2191	C219	0.770200	0.654530	0.560100
C2201	C220	0.780600	0.625900	0.584140
N1101	N110	0.810490	0.608800	0.583820
O2191	O219	0.790800	0.657730	0.536710
O2201	O220	0.742810	0.668820	0.568690
C2211	C221	0.270200	0.154530	0.560100
C2221	C222	0.280600	0.125900	0.584140
N1111	N111	0.310490	0.108800	0.583820
O2211	O221	0.290800	0.157730	0.536710
O2221	O222	0.242810	0.168820	0.568690
C2231	C223	0.270200	0.654530	0.060100
C2241	C224	0.280600	0.625900	0.084140
N1121	N112	0.310490	0.608800	0.083820
O2231	O223	0.290800	0.657730	0.036710
O2241	O224	0.242810	0.668820	0.068690
C2251	C225	0.939900	0.770200	0.845470
C2261	C226	0.915860	0.780600	0.874100
N1131	N113	0.916180	0.810490	0.891200
O2251	O225	0.963290	0.790800	0.842270
O2261	O226	0.931310	0.742810	0.831180
C2271	C227	0.939900	0.270200	0.345470
C2281	C228	0.915860	0.280600	0.374100
N1141	N114	0.916180	0.310490	0.391200
O2271	O227	0.963290	0.290800	0.342270
O2281	O228	0.931310	0.242810	0.331180
C2291	C229	0.439900	0.770200	0.345470
C2301	C230	0.415860	0.780600	0.374100
N1151	N115	0.416180	0.810490	0.391200
O2291	O229	0.463290	0.790800	0.342270
O2301	O230	0.431310	0.742810	0.331180
C2311	C231	0.439900	0.270200	0.845470
C2321	C232	0.415860	0.280600	0.874100
N1161	N116	0.416180	0.310490	0.891200
O2311	O231	0.463290	0.290800	0.842270
O2321	O232	0.431310	0.242810	0.831180
C2331	C233	0.939900	0.229800	0.154530
C2341	C234	0.915860	0.219400	0.125900
N1171	N117	0.916180	0.189510	0.108800
O2331	O233	0.963290	0.209200	0.157730
O2341	O234	0.931310	0.257190	0.168820
C2351	C235	0.939900	0.729800	0.654530
C2361	C236	0.915860	0.719400	0.625900
N1181	N118	0.916180	0.689510	0.608800
O2351	O235	0.963290	0.709200	0.657730
O2361	O236	0.931310	0.757190	0.668820
C2371	C237	0.439900	0.229800	0.654530
C2381	C238	0.415860	0.219400	0.625900
N1191	N119	0.416180	0.189510	0.608800
O2371	O237	0.463290	0.209200	0.657730
O2381	O238	0.431310	0.257190	0.668820
C2391	C239	0.439900	0.729800	0.154530
C2401	C240	0.415860	0.719400	0.125900
N1201	N120	0.416180	0.689510	0.108800
O2391	O239	0.463290	0.709200	0.157730
O2401	O240	0.431310	0.757190	0.168820
C2411	C241	0.060100	0.229800	0.845470
C2421	C242	0.084140	0.219400	0.874100
N1211	N121	0.083820	0.189510	0.891200
O2411	O241	0.036710	0.209200	0.842270
O2421	O242	0.068690	0.257190	0.831180
C2431	C243	0.060100	0.729800	0.345470
C2441	C244	0.084140	0.719400	0.374100
N1221	N122	0.083820	0.689510	0.391200
O2431	O243	0.036710	0.709200	0.342270
O2441	O244	0.068690	0.757190	0.331180
C2451	C245	0.560100	0.229800	0.345470
C2461	C246	0.584140	0.219400	0.374100
N1231	N123	0.583820	0.189510	0.391200
O2451	O245	0.536710	0.209200	0.342270
O2461	O246	0.568690	0.257190	0.331180
C2471	C247	0.560100	0.729800	0.845470
C2481	C248	0.584140	0.719400	0.874100
N1241	N124	0.583820	0.689510	0.891200
O2471	O247	0.536710	0.709200	0.842270
O2481	O248	0.568690	0.757190	0.831180
C2491	C249	0.060100	0.770200	0.154530
C2501	C250	0.084140	0.780600	0.125900
N1251	N125	0.083820	0.810490	0.108800
O2491	O249	0.036710	0.790800	0.157730
O2501	O250	0.068690	0.742810	0.168820
C2511	C251	0.060100	0.270200	0.654530
C2521	C252	0.084140	0.280600	0.625900
N1261	N126	0.083820	0.310490	0.608800
O2511	O251	0.036710	0.290800	0.657730
O2521	O252	0.068690	0.242810	0.668820
C2531	C253	0.560100	0.770200	0.654530
C2541	C254	0.584140	0.780600	0.625900
N1271	N127	0.583820	0.810490	0.608800
O2531	O253	0.536710	0.790800	0.657730
O2541	O254	0.568690	0.742810	0.668820
C2551	C255	0.560100	0.270200	0.154530
C2561	C256	0.584140	0.280600	0.125900
N1281	N128	0.583820	0.310490	0.108800
O2551	O255	0.536710	0.290800	0.157730
O2561	O256	0.568690	0.242810	0.168820
C2571	C257	0.845470	0.939900	0.770200
C2581	C258	0.874100	0.915860	0.780600
N1291	N129	0.891200	0.916180	0.810490
O2571	O257	0.842270	0.963290	0.790800
O2581	O258	0.831180	0.931310	0.742810
C2591	C259	0.845470	0.439900	0.270200
C2601	C260	0.874100	0.415860	0.280600
N1301	N130	0.891200	0.416180	0.310490
O2591	O259	0.842270	0.463290	0.290800
O2601	O260	0.831180	0.431310	0.242810
C2611	C261	0.345470	0.939900	0.270200
C2621	C262	0.374100	0.915860	0.280600
N1311	N131	0.391200	0.916180	0.310490
O2611	O261	0.342270	0.963290	0.290800
O2621	O262	0.331180	0.931310	0.242810
C2631	C263	0.345470	0.439900	0.770200
C2641	C264	0.374100	0.415860	0.780600
N1321	N132	0.391200	0.416180	0.810490
O2631	O263	0.342270	0.463290	0.790800
O2641	O264	0.331180	0.431310	0.742810
C2651	C265	0.154530	0.939900	0.229800
C2661	C266	0.125900	0.915860	0.219400
N1331	N133	0.108800	0.916180	0.189510
O2651	O265	0.157730	0.963290	0.209200
O2661	O266	0.168820	0.931310	0.257190
C2671	C267	0.154530	0.439900	0.729800
C2681	C268	0.125900	0.415860	0.719400
N1341	N134	0.108800	0.416180	0.689510
O2671	O267	0.157730	0.463290	0.709200
O2681	O268	0.168820	0.431310	0.757190
C2691	C269	0.654530	0.939900	0.729800
C2701	C270	0.625900	0.915860	0.719400
N1351	N135	0.608800	0.916180	0.689510
O2691	O269	0.657730	0.963290	0.709200
O2701	O270	0.668820	0.931310	0.757190
C2711	C271	0.654530	0.439900	0.229800
C2721	C272	0.625900	0.415860	0.219400
N1361	N136	0.608800	0.416180	0.189510
O2711	O271	0.657730	0.463290	0.209200
O2721	O272	0.668820	0.431310	0.257190
C2731	C273	0.845470	0.060100	0.229800
C2741	C274	0.874100	0.084140	0.219400
N1371	N137	0.891200	0.083820	0.189510
O2731	O273	0.842270	0.036710	0.209200
O2741	O274	0.831180	0.068690	0.257190
C2751	C275	0.845470	0.560100	0.729800
C2761	C276	0.874100	0.584140	0.719400
N1381	N138	0.891200	0.583820	0.689510
O2751	O275	0.842270	0.536710	0.709200
O2761	O276	0.831180	0.568690	0.757190
C2771	C277	0.345470	0.060100	0.729800
C2781	C278	0.374100	0.084140	0.719400
N1391	N139	0.391200	0.083820	0.689510
O2771	O277	0.342270	0.036710	0.709200
O2781	O278	0.331180	0.068690	0.757190
C2791	C279	0.345470	0.560100	0.229800
C2801	C280	0.374100	0.584140	0.219400
N1401	N140	0.391200	0.583820	0.189510
O2791	O279	0.342270	0.536710	0.209200
O2801	O280	0.331180	0.568690	0.257190
C2811	C281	0.154530	0.060100	0.770200
C2821	C282	0.125900	0.084140	0.780600
N1411	N141	0.108800	0.083820	0.810490
O2811	O281	0.157730	0.036710	0.790800
O2821	O282	0.168820	0.068690	0.742810
C2831	C283	0.154530	0.560100	0.270200
C2841	C284	0.125900	0.584140	0.280600
N1421	N142	0.108800	0.583820	0.310490
O2831	O283	0.157730	0.536710	0.290800
O2841	O284	0.168820	0.568690	0.242810
C2851	C285	0.654530	0.060100	0.270200
C2861	C286	0.625900	0.084140	0.280600
N1431	N143	0.608800	0.083820	0.310490
O2851	O285	0.657730	0.036710	0.290800
O2861	O286	0.668820	0.068690	0.242810
C2871	C287	0.654530	0.560100	0.770200
C2881	C288	0.625900	0.584140	0.780600
N1441	N144	0.608800	0.583820	0.810490
O2871	O287	0.657730	0.536710	0.790800
O2881	O288	0.668820	0.568690	0.742810
C2891	C289	0.845470	0.770200	0.060100
C2901	C290	0.874100	0.780600	0.084140
N1451	N145	0.891200	0.810490	0.083820
O2891	O289	0.842270	0.790800	0.036710
O2901	O290	0.831180	0.742810	0.068690
C2911	C291	0.845470	0.270200	0.560100
C2921	C292	0.874100	0.280600	0.584140
N1461	N146	0.891200	0.310490	0.583820
O2911	O291	0.842270	0.290800	0.536710
O2921	O292	0.831180	0.242810	0.568690
C2931	C293	0.345470	0.770200	0.560100
C2941	C294	0.374100	0.780600	0.584140
N1471	N147	0.391200	0.810490	0.583820
O2931	O293	0.342270	0.790800	0.536710
O2941	O294	0.331180	0.742810	0.568690
C2951	C295	0.345470	0.270200	0.060100
C2961	C296	0.374100	0.280600	0.084140
N1481	N148	0.391200	0.310490	0.083820
O2951	O295	0.342270	0.290800	0.036710
O2961	O296	0.331180	0.242810	0.068690
C2971	C297	0.154530	0.229800	0.060100
C2981	C298	0.125900	0.219400	0.084140
N1491	N149	0.108800	0.189510	0.083820
O2971	O297	0.157730	0.209200	0.036710
O2981	O298	0.168820	0.257190	0.068690
C2991	C299	0.154530	0.729800	0.560100
C3001	C300	0.125900	0.719400	0.584140
N1501	N150	0.108800	0.689510	0.583820
O2991	O299	0.157730	0.709200	0.536710
O3001	O300	0.168820	0.757190	0.568690
C3011	C301	0.654530	0.229800	0.560100
C3021	C302	0.625900	0.219400	0.584140
N1511	N151	0.608800	0.189510	0.583820
O3011	O301	0.657730	0.209200	0.536710
O3021	O302	0.668820	0.257190	0.568690
C3031	C303	0.654530	0.729800	0.060100
C3041	C304	0.625900	0.719400	0.084140
N1521	N152	0.608800	0.689510	0.083820
O3031	O303	0.657730	0.709200	0.036710
O3041	O304	0.668820	0.757190	0.068690
C3051	C305	0.845470	0.229800	0.939900
C3061	C306	0.874100	0.219400	0.915860
N1531	N153	0.891200	0.189510	0.916180
O3051	O305	0.842270	0.209200	0.963290
O3061	O306	0.831180	0.257190	0.931310
C3071	C307	0.845470	0.729800	0.439900
C3081	C308	0.874100	0.719400	0.415860
N1541	N154	0.891200	0.689510	0.416180
O3071	O307	0.842270	0.709200	0.463290
O3081	O308	0.831180	0.757190	0.431310
C3091	C309	0.345470	0.229800	0.439900
C3101	C310	0.374100	0.219400	0.415860
N1551	N155	0.391200	0.189510	0.416180
O3091	O309	0.342270	0.209200	0.463290
O3101	O310	0.331180	0.257190	0.431310
C3111	C311	0.345470	0.729800	0.939900
C3121	C312	0.374100	0.719400	0.915860
N1561	N156	0.391200	0.689510	0.916180
O3111	O311	0.342270	0.709200	0.963290
O3121	O312	0.331180	0.757190	0.931310
C3131	C313	0.154530	0.770200	0.939900
C3141	C314	0.125900	0.780600	0.915860
N1571	N157	0.108800	0.810490	0.916180
O3131	O313	0.157730	0.790800	0.963290
O3141	O314	0.168820	0.742810	0.931310
C3151	C315	0.154530	0.270200	0.439900
C3161	C316	0.125900	0.280600	0.415860
N1581	N158	0.108800	0.310490	0.416180
O3151	O315	0.157730	0.290800	0.463290
O3161	O316	0.168820	0.242810	0.431310
C3171	C317	0.654530	0.770200	0.439900
C3181	C318	0.625900	0.780600	0.415860
N1591	N159	0.608800	0.810490	0.416180
O3171	O317	0.657730	0.790800	0.463290
O3181	O318	0.668820	0.742810	0.431310
C3191	C319	0.654530	0.270200	0.939900
C3201	C320	0.625900	0.280600	0.915860
N1601	N160	0.608800	0.310490	0.916180
O3191	O319	0.657730	0.290800	0.963290
O3201	O320	0.668820	0.242810	0.931310
C3211	C321	0.770200	0.939900	0.154530
C3221	C322	0.780600	0.915860	0.125900
N1611	N161	0.810490	0.916180	0.108800
O3211	O321	0.790800	0.963290	0.157730
O3221	O322	0.742810	0.931310	0.168820
C3231	C323	0.770200	0.439900	0.654530
C3241	C324	0.780600	0.415860	0.625900
N1621	N162	0.810490	0.416180	0.608800
O3231	O323	0.790800	0.463290	0.657730
O3241	O324	0.742810	0.431310	0.668820
C3251	C325	0.270200	0.939900	0.654530
C3261	C326	0.280600	0.915860	0.625900
N1631	N163	0.310490	0.916180	0.608800
O3251	O325	0.290800	0.963290	0.657730
O3261	O326	0.242810	0.931310	0.668820
C3271	C327	0.270200	0.439900	0.154530
C3281	C328	0.280600	0.415860	0.125900
N1641	N164	0.310490	0.416180	0.108800
O3271	O327	0.290800	0.463290	0.157730
O3281	O328	0.242810	0.431310	0.168820
C3291	C329	0.229800	0.939900	0.845470
C3301	C330	0.219400	0.915860	0.874100
N1651	N165	0.189510	0.916180	0.891200
O3291	O329	0.209200	0.963290	0.842270
O3301	O330	0.257190	0.931310	0.831180
C3311	C331	0.229800	0.439900	0.345470
C3321	C332	0.219400	0.415860	0.374100
N1661	N166	0.189510	0.416180	0.391200
O3311	O331	0.209200	0.463290	0.342270
O3321	O332	0.257190	0.431310	0.331180
C3331	C333	0.729800	0.939900	0.345470
C3341	C334	0.719400	0.915860	0.374100
N1671	N167	0.689510	0.916180	0.391200
O3331	O333	0.709200	0.963290	0.342270
O3341	O334	0.757190	0.931310	0.331180
C3351	C335	0.729800	0.439900	0.845470
C3361	C336	0.719400	0.415860	0.874100
N1681	N168	0.689510	0.416180	0.891200
O3351	O335	0.709200	0.463290	0.842270
O3361	O336	0.757190	0.431310	0.831180
C3371	C337	0.229800	0.060100	0.154530
C3381	C338	0.219400	0.084140	0.125900
N1691	N169	0.189510	0.083820	0.108800
O3371	O337	0.209200	0.036710	0.157730
O3381	O338	0.257190	0.068690	0.168820
C3391	C339	0.229800	0.560100	0.654530
C3401	C340	0.219400	0.584140	0.625900
N1701	N170	0.189510	0.583820	0.608800
O3391	O339	0.209200	0.536710	0.657730
O3401	O340	0.257190	0.568690	0.668820
C3411	C341	0.729800	0.060100	0.654530
C3421	C342	0.719400	0.084140	0.625900
N1711	N171	0.689510	0.083820	0.608800
O3411	O341	0.709200	0.036710	0.657730
O3421	O342	0.757190	0.068690	0.668820
C3431	C343	0.729800	0.560100	0.154530
C3441	C344	0.719400	0.584140	0.125900
N1721	N172	0.689510	0.583820	0.108800
O3431	O343	0.709200	0.536710	0.157730
O3441	O344	0.757190	0.568690	0.168820
C3451	C345	0.770200	0.060100	0.845470
C3461	C346	0.780600	0.084140	0.874100
N1731	N173	0.810490	0.083820	0.891200
O3451	O345	0.790800	0.036710	0.842270
O3461	O346	0.742810	0.068690	0.831180
C3471	C347	0.770200	0.560100	0.345470
C3481	C348	0.780600	0.584140	0.374100
N1741	N174	0.810490	0.583820	0.391200
O3471	O347	0.790800	0.536710	0.342270
O3481	O348	0.742810	0.568690	0.331180
C3491	C349	0.270200	0.060100	0.345470
C3501	C350	0.280600	0.084140	0.374100
N1751	N175	0.310490	0.083820	0.391200
O3491	O349	0.290800	0.036710	0.342270
O3501	O350	0.242810	0.068690	0.331180
C3511	C351	0.270200	0.560100	0.845470
C3521	C352	0.280600	0.584140	0.874100
N1761	N176	0.310490	0.583820	0.891200
O3511	O351	0.290800	0.536710	0.842270
O3521	O352	0.242810	0.568690	0.831180
C3531	C353	0.939900	0.845470	0.229800
C3541	C354	0.915860	0.874100	0.219400
N1771	N177	0.916180	0.891200	0.189510
O3531	O353	0.963290	0.842270	0.209200
O3541	O354	0.931310	0.831180	0.257190
C3551	C355	0.939900	0.345470	0.729800
C3561	C356	0.915860	0.374100	0.719400
N1781	N178	0.916180	0.391200	0.689510
O3551	O355	0.963290	0.342270	0.709200
O3561	O356	0.931310	0.331180	0.757190
C3571	C357	0.439900	0.845470	0.729800
C3581	C358	0.415860	0.874100	0.719400
N1791	N179	0.416180	0.891200	0.689510
O3571	O357	0.463290	0.842270	0.709200
O3581	O358	0.431310	0.831180	0.757190
C3591	C359	0.439900	0.345470	0.229800
C3601	C360	0.415860	0.374100	0.219400
N1801	N180	0.416180	0.391200	0.189510
O3591	O359	0.463290	0.342270	0.209200
O3601	O360	0.431310	0.331180	0.257190
C3611	C361	0.939900	0.154530	0.770200
C3621	C362	0.915860	0.125900	0.780600
N1811	N181	0.916180	0.108800	0.810490
O3611	O361	0.963290	0.157730	0.790800
O3621	O362	0.931310	0.168820	0.742810
C3631	C363	0.939900	0.654530	0.270200
C3641	C364	0.915860	0.625900	0.280600
N1821	N182	0.916180	0.608800	0.310490
O3631	O363	0.963290	0.657730	0.290800
O3641	O364	0.931310	0.668820	0.242810
C3651	C365	0.439900	0.154530	0.270200
C3661	C366	0.415860	0.125900	0.280600
N1831	N183	0.416180	0.108800	0.310490
O3651	O365	0.463290	0.157730	0.290800
O3661	O366	0.431310	0.168820	0.242810
C3671	C367	0.439900	0.654530	0.770200
C3681	C368	0.415860	0.625900	0.780600
N1841	N184	0.416180	0.608800	0.810490
O3671	O367	0.463290	0.657730	0.790800
O3681	O368	0.431310	0.668820	0.742810
C3691	C369	0.060100	0.845470	0.770200
C3701	C370	0.084140	0.874100	0.780600
N1851	N185	0.083820	0.891200	0.810490
O3691	O369	0.036710	0.842270	0.790800
O3701	O370	0.068690	0.831180	0.742810
C3711	C371	0.060100	0.345470	0.270200
C3721	C372	0.084140	0.374100	0.280600
N1861	N186	0.083820	0.391200	0.310490
O3711	O371	0.036710	0.342270	0.290800
O3721	O372	0.068690	0.331180	0.242810
C3731	C373	0.560100	0.845470	0.270200
C3741	C374	0.584140	0.874100	0.280600
N1871	N187	0.583820	0.891200	0.310490
O3731	O373	0.536710	0.842270	0.290800
O3741	O374	0.568690	0.831180	0.242810
C3751	C375	0.560100	0.345470	0.770200
C3761	C376	0.584140	0.374100	0.780600
N1881	N188	0.583820	0.391200	0.810490
O3751	O375	0.536710	0.342270	0.790800
O3761	O376	0.568690	0.331180	0.742810
C3771	C377	0.060100	0.154530	0.229800
C3781	C378	0.084140	0.125900	0.219400
N1891	N189	0.083820	0.108800	0.189510
O3771	O377	0.036710	0.157730	0.209200
O3781	O378	0.068690	0.168820	0.257190
C3791	C379	0.060100	0.654530	0.729800
C3801	C380	0.084140	0.625900	0.719400
N1901	N190	0.083820	0.608800	0.689510
O3791	O379	0.036710	0.657730	0.709200
O3801	O380	0.068690	0.668820	0.757190
C3811	C381	0.560100	0.154530	0.729800
C3821	C382	0.584140	0.125900	0.719400
N1911	N191	0.583820	0.108800	0.689510
O3811	O381	0.536710	0.157730	0.709200
O3821	O382	0.568690	0.168820	0.757190
C3831	C383	0.560100	0.654530	0.229800
C3841	C384	0.584140	0.625900	0.219400
N1921	N192	0.583820	0.608800	0.189510
O3831	O383	0.536710	0.657730	0.209200
O3841	O384	0.568690	0.668820	0.257190
Ce11	Ce1	0.216480	0.283520	0.047830
O3851	O385	0.222200	0.277800	0.107590
O3861	O386	0.173290	0.326710	0.043000
Ce21	Ce2	0.216480	0.783520	0.547830
O3871	O387	0.222200	0.777800	0.607590
O3881	O388	0.173290	0.826710	0.543000
Ce31	Ce3	0.783520	0.716480	0.047830
O3891	O389	0.777800	0.722200	0.107590
O3901	O390	0.826710	0.673290	0.043000
Ce41	Ce4	0.783520	0.216480	0.547830
O3911	O391	0.777800	0.222200	0.607590
O3921	O392	0.826710	0.173290	0.543000
Ce51	Ce5	0.283520	0.216480	0.047830
O3931	O393	0.277800	0.222200	0.107590
O3941	O394	0.326710	0.173290	0.043000
Ce61	Ce6	0.783520	0.283520	0.952170
O3951	O395	0.777800	0.277800	0.892410
O3961	O396	0.826710	0.326710	0.957000
Ce71	Ce7	0.783520	0.783520	0.452170
O3971	O397	0.777800	0.777800	0.392410
O3981	O398	0.826710	0.826710	0.457000
Ce81	Ce8	0.283520	0.283520	0.452170
O3991	O399	0.277800	0.277800	0.392410
O4001	O400	0.326710	0.326710	0.457000
Ce91	Ce9	0.216480	0.716480	0.952170
O4011	O401	0.222200	0.722200	0.892410
O4021	O402	0.173290	0.673290	0.957000
Ce101	Ce10	0.216480	0.216480	0.452170
O4031	O403	0.222200	0.222200	0.392410
O4041	O404	0.173290	0.173290	0.457000
Ce111	Ce11	0.047830	0.216480	0.283520
O4051	O405	0.107590	0.222200	0.277800
O4061	O406	0.043000	0.173290	0.326710
Ce121	Ce12	0.547830	0.216480	0.783520
O4071	O407	0.607590	0.222200	0.777800
O4081	O408	0.543000	0.173290	0.826710
Ce131	Ce13	0.047830	0.783520	0.716480
O4091	O409	0.107590	0.777800	0.722200
O4101	O410	0.043000	0.826710	0.673290
Ce141	Ce14	0.047830	0.283520	0.216480
O4111	O411	0.107590	0.277800	0.222200
O4121	O412	0.043000	0.326710	0.173290
Ce151	Ce15	0.547830	0.783520	0.216480
O4131	O413	0.607590	0.777800	0.222200
O4141	O414	0.543000	0.826710	0.173290
Ce161	Ce16	0.952170	0.783520	0.283520
O4151	O415	0.892410	0.777800	0.277800
O4161	O416	0.957000	0.826710	0.326710
Ce171	Ce17	0.452170	0.783520	0.783520
O4171	O417	0.392410	0.777800	0.777800
O4181	O418	0.457000	0.826710	0.826710
Ce181	Ce18	0.452170	0.283520	0.283520
O4191	O419	0.392410	0.277800	0.277800
O4201	O420	0.457000	0.326710	0.326710
Ce191	Ce19	0.952170	0.216480	0.716480
O4211	O421	0.892410	0.222200	0.722200
O4221	O422	0.957000	0.173290	0.673290
Ce201	Ce20	0.452170	0.216480	0.216480
O4231	O423	0.392410	0.222200	0.222200
O4241	O424	0.457000	0.173290	0.173290
Ce211	Ce21	0.283520	0.047830	0.216480
O4251	O425	0.277800	0.107590	0.222200
O4261	O426	0.326710	0.043000	0.173290
Ce221	Ce22	0.283520	0.547830	0.716480
O4271	O427	0.277800	0.607590	0.722200
O4281	O428	0.326710	0.543000	0.673290
Ce231	Ce23	0.716480	0.047830	0.783520
O4291	O429	0.722200	0.107590	0.777800
O4301	O430	0.673290	0.043000	0.826710
Ce241	Ce24	0.716480	0.547830	0.283520
O4311	O431	0.722200	0.607590	0.277800
O4321	O432	0.673290	0.543000	0.326710
Ce251	Ce25	0.216480	0.047830	0.283520
O4331	O433	0.222200	0.107590	0.277800
O4341	O434	0.173290	0.043000	0.326710
Ce261	Ce26	0.283520	0.952170	0.783520
O4351	O435	0.277800	0.892410	0.777800
O4361	O436	0.326710	0.957000	0.826710
Ce271	Ce27	0.283520	0.452170	0.283520
O4371	O437	0.277800	0.392410	0.277800
O4381	O438	0.326710	0.457000	0.326710
Ce281	Ce28	0.716480	0.952170	0.216480
O4391	O439	0.722200	0.892410	0.222200
O4401	O440	0.673290	0.957000	0.173290
Ce291	Ce29	0.716480	0.452170	0.716480
O4411	O441	0.722200	0.392410	0.722200
O4421	O442	0.673290	0.457000	0.673290
Ce301	Ce30	0.216480	0.452170	0.216480
O4431	O443	0.222200	0.392410	0.222200
O4441	O444	0.173290	0.457000	0.173290
Ce311	Ce31	0.283520	0.216480	0.952170
O4451	O445	0.277800	0.222200	0.892410
O4461	O446	0.326710	0.173290	0.957000
Ce321	Ce32	0.283520	0.716480	0.452170
O4471	O447	0.277800	0.722200	0.392410
O4481	O448	0.326710	0.673290	0.457000
Ce331	Ce33	0.716480	0.783520	0.952170
O4491	O449	0.722200	0.777800	0.892410
O4501	O450	0.673290	0.826710	0.957000
Ce341	Ce34	0.716480	0.283520	0.452170
O4511	O451	0.722200	0.277800	0.392410
O4521	O452	0.673290	0.326710	0.457000
Ce351	Ce35	0.216480	0.283520	0.952170
O4531	O453	0.222200	0.277800	0.892410
O4541	O454	0.173290	0.326710	0.957000
Ce361	Ce36	0.283520	0.783520	0.047830
O4551	O455	0.277800	0.777800	0.107590
O4561	O456	0.326710	0.826710	0.043000
Ce371	Ce37	0.283520	0.283520	0.547830
O4571	O457	0.277800	0.277800	0.607590
O4581	O458	0.326710	0.326710	0.543000
Ce381	Ce38	0.716480	0.216480	0.047830
O4591	O459	0.722200	0.222200	0.107590
O4601	O460	0.673290	0.173290	0.043000
Ce391	Ce39	0.716480	0.716480	0.547830
O4611	O461	0.722200	0.722200	0.607590
O4621	O462	0.673290	0.673290	0.543000
Ce401	Ce40	0.216480	0.216480	0.547830
O4631	O463	0.222200	0.222200	0.607590
O4641	O464	0.173290	0.173290	0.543000
Ce411	Ce41	0.216480	0.047830	0.716480
O4651	O465	0.222200	0.107590	0.722200
O4661	O466	0.173290	0.043000	0.673290
Ce421	Ce42	0.216480	0.547830	0.216480
O4671	O467	0.222200	0.607590	0.222200
O4681	O468	0.173290	0.543000	0.173290
Ce431	Ce43	0.783520	0.047830	0.283520
O4691	O469	0.777800	0.107590	0.277800
O4701	O470	0.826710	0.043000	0.326710
Ce441	Ce44	0.783520	0.547830	0.783520
O4711	O471	0.777800	0.607590	0.777800
O4721	O472	0.826710	0.543000	0.826710
Ce451	Ce45	0.283520	0.547830	0.283520
O4731	O473	0.277800	0.607590	0.277800
O4741	O474	0.326710	0.543000	0.326710
Ce461	Ce46	0.783520	0.952170	0.716480
O4751	O475	0.777800	0.892410	0.722200
O4761	O476	0.826710	0.957000	0.673290
Ce471	Ce47	0.783520	0.452170	0.216480
O4771	O477	0.777800	0.392410	0.222200
O4781	O478	0.826710	0.457000	0.173290
Ce481	Ce48	0.283520	0.952170	0.216480
O4791	O479	0.277800	0.892410	0.222200
O4801	O480	0.326710	0.957000	0.173290
Ce491	Ce49	0.216480	0.952170	0.283520
O4811	O481	0.222200	0.892410	0.277800
O4821	O482	0.173290	0.957000	0.326710
Ce501	Ce50	0.216480	0.452170	0.783520
O4831	O483	0.222200	0.392410	0.777800
O4841	O484	0.173290	0.457000	0.826710
Ce511	Ce51	0.047830	0.283520	0.783520
O4851	O485	0.107590	0.277800	0.777800
O4861	O486	0.043000	0.326710	0.826710
Ce521	Ce52	0.547830	0.283520	0.283520
O4871	O487	0.607590	0.277800	0.277800
O4881	O488	0.543000	0.326710	0.326710
Ce531	Ce53	0.047830	0.716480	0.216480
O4891	O489	0.107590	0.722200	0.222200
O4901	O490	0.043000	0.673290	0.173290
Ce541	Ce54	0.547830	0.716480	0.716480
O4911	O491	0.607590	0.722200	0.722200
O4921	O492	0.543000	0.673290	0.673290
Ce551	Ce55	0.547830	0.216480	0.216480
O4931	O493	0.607590	0.222200	0.222200
O4941	O494	0.543000	0.173290	0.173290
Ce561	Ce56	0.952170	0.283520	0.216480
O4951	O495	0.892410	0.277800	0.222200
O4961	O496	0.957000	0.326710	0.173290
Ce571	Ce57	0.452170	0.283520	0.716480
O4971	O497	0.392410	0.277800	0.722200
O4981	O498	0.457000	0.326710	0.673290
Ce581	Ce58	0.952170	0.716480	0.783520
O4991	O499	0.892410	0.722200	0.777800
O5001	O500	0.957000	0.673290	0.826710
Ce591	Ce59	0.952170	0.216480	0.283520
O5011	O501	0.892410	0.222200	0.277800
O5021	O502	0.957000	0.173290	0.326710
Ce601	Ce60	0.452170	0.716480	0.283520
O5031	O503	0.392410	0.722200	0.277800
O5041	O504	0.457000	0.673290	0.326710
Ce611	Ce61	0.783520	0.716480	0.952170
O5051	O505	0.777800	0.722200	0.892410
O5061	O506	0.826710	0.673290	0.957000
Ce621	Ce62	0.783520	0.216480	0.452170
O5071	O507	0.777800	0.222200	0.392410
O5081	O508	0.826710	0.173290	0.457000
Ce631	Ce63	0.216480	0.783520	0.452170
O5091	O509	0.222200	0.777800	0.392410
O5101	O510	0.173290	0.826710	0.457000
Ce641	Ce64	0.216480	0.716480	0.047830
O5111	O511	0.222200	0.722200	0.107590
O5121	O512	0.173290	0.673290	0.043000
Ce651	Ce65	0.783520	0.283520	0.047830
O5131	O513	0.777800	0.277800	0.107590
O5141	O514	0.826710	0.326710	0.043000
Ce661	Ce66	0.783520	0.783520	0.547830
O5151	O515	0.777800	0.777800	0.607590
O5161	O516	0.826710	0.826710	0.543000
Ce671	Ce67	0.952170	0.783520	0.716480
O5171	O517	0.892410	0.777800	0.722200
O5181	O518	0.957000	0.826710	0.673290
Ce681	Ce68	0.452170	0.783520	0.216480
O5191	O519	0.392410	0.777800	0.222200
O5201	O520	0.457000	0.826710	0.173290
Ce691	Ce69	0.452170	0.216480	0.783520
O5211	O521	0.392410	0.222200	0.777800
O5221	O522	0.457000	0.173290	0.826710
Ce701	Ce70	0.047830	0.216480	0.716480
O5231	O523	0.107590	0.222200	0.722200
O5241	O524	0.043000	0.173290	0.673290
Ce711	Ce71	0.047830	0.783520	0.283520
O5251	O525	0.107590	0.777800	0.277800
O5261	O526	0.043000	0.826710	0.326710
Ce721	Ce72	0.547830	0.783520	0.783520
O5271	O527	0.607590	0.777800	0.777800
O5281	O528	0.543000	0.826710	0.826710
Ce731	Ce73	0.716480	0.952170	0.783520
O5291	O529	0.722200	0.892410	0.777800
O5301	O530	0.673290	0.957000	0.826710
Ce741	Ce74	0.716480	0.452170	0.283520
O5311	O531	0.722200	0.392410	0.277800
O5321	O532	0.673290	0.457000	0.326710
Ce751	Ce75	0.283520	0.452170	0.716480
O5331	O533	0.277800	0.392410	0.722200
O5341	O534	0.326710	0.457000	0.673290
Ce761	Ce76	0.716480	0.047830	0.216480
O5351	O535	0.722200	0.107590	0.222200
O5361	O536	0.673290	0.043000	0.173290
Ce771	Ce77	0.716480	0.547830	0.716480
O5371	O537	0.722200	0.607590	0.722200
O5381	O538	0.673290	0.543000	0.673290
Ce781	Ce78	0.283520	0.047830	0.783520
O5391	O539	0.277800	0.107590	0.777800
O5401	O540	0.326710	0.043000	0.826710
Ce791	Ce79	0.716480	0.783520	0.047830
O5411	O541	0.722200	0.777800	0.107590
O5421	O542	0.673290	0.826710	0.043000
Ce801	Ce80	0.716480	0.283520	0.547830
O5431	O543	0.722200	0.277800	0.607590
O5441	O544	0.673290	0.326710	0.543000
Ce811	Ce81	0.283520	0.716480	0.547830
O5451	O545	0.277800	0.722200	0.607590
O5461	O546	0.326710	0.673290	0.543000
Ce821	Ce82	0.716480	0.216480	0.952170
O5471	O547	0.722200	0.222200	0.892410
O5481	O548	0.673290	0.173290	0.957000
Ce831	Ce83	0.716480	0.716480	0.452170
O5491	O549	0.722200	0.722200	0.392410
O5501	O550	0.673290	0.673290	0.457000
Ce841	Ce84	0.283520	0.783520	0.952170
O5511	O551	0.277800	0.777800	0.892410
O5521	O552	0.326710	0.826710	0.957000
Ce851	Ce85	0.783520	0.952170	0.283520
O5531	O553	0.777800	0.892410	0.277800
O5541	O554	0.826710	0.957000	0.326710
Ce861	Ce86	0.783520	0.452170	0.783520
O5551	O555	0.777800	0.392410	0.777800
O5561	O556	0.826710	0.457000	0.826710
Ce871	Ce87	0.216480	0.952170	0.716480
O5571	O557	0.222200	0.892410	0.722200
O5581	O558	0.173290	0.957000	0.673290
Ce881	Ce88	0.216480	0.547830	0.783520
O5591	O559	0.222200	0.607590	0.777800
O5601	O560	0.173290	0.543000	0.826710
Ce891	Ce89	0.783520	0.047830	0.716480
O5611	O561	0.777800	0.107590	0.722200
O5621	O562	0.826710	0.043000	0.673290
Ce901	Ce90	0.783520	0.547830	0.216480
O5631	O563	0.777800	0.607590	0.222200
O5641	O564	0.826710	0.543000	0.173290
Ce911	Ce91	0.952170	0.716480	0.216480
O5651	O565	0.892410	0.722200	0.222200
O5661	O566	0.957000	0.673290	0.173290
Ce921	Ce92	0.452170	0.716480	0.716480
O5671	O567	0.392410	0.722200	0.722200
O5681	O568	0.457000	0.673290	0.673290
Ce931	Ce93	0.952170	0.283520	0.783520
O5691	O569	0.892410	0.277800	0.777800
O5701	O570	0.957000	0.326710	0.826710
Ce941	Ce94	0.047830	0.716480	0.783520
O5711	O571	0.107590	0.722200	0.777800
O5721	O572	0.043000	0.673290	0.826710
Ce951	Ce95	0.547830	0.716480	0.283520
O5731	O573	0.607590	0.722200	0.277800
O5741	O574	0.543000	0.673290	0.326710
Ce961	Ce96	0.547830	0.283520	0.716480
O5751	O575	0.607590	0.277800	0.722200
O5761	O576	0.543000	0.326710	0.673290
Ce971	Ce97	0.201510	0.201510	0.000000
Ce981	Ce98	0.201510	0.701510	0.500000
Ce991	Ce99	0.701510	0.201510	0.500000
Ce1001	Ce100	0.701510	0.701510	0.000000
Ce1011	Ce101	0.798490	0.798490	0.000000
Ce1021	Ce102	0.798490	0.298490	0.500000
Ce1031	Ce103	0.298490	0.798490	0.500000
Ce1041	Ce104	0.298490	0.298490	0.000000
Ce1051	Ce105	0.798490	0.201510	0.000000
Ce1061	Ce106	0.798490	0.701510	0.500000
Ce1071	Ce107	0.298490	0.201510	0.500000
Ce1081	Ce108	0.298490	0.701510	0.000000
Ce1091	Ce109	0.201510	0.798490	0.000000
Ce1101	Ce110	0.201510	0.298490	0.500000
Ce1111	Ce111	0.701510	0.798490	0.500000
Ce1121	Ce112	0.701510	0.298490	0.000000
Ce1131	Ce113	0.000000	0.201510	0.201510
Ce1141	Ce114	0.000000	0.701510	0.701510
Ce1151	Ce115	0.500000	0.201510	0.701510
Ce1161	Ce116	0.500000	0.701510	0.201510
Ce1171	Ce117	0.000000	0.798490	0.798490
Ce1181	Ce118	0.000000	0.298490	0.298490
Ce1191	Ce119	0.500000	0.798490	0.298490
Ce1201	Ce120	0.500000	0.298490	0.798490
Ce1211	Ce121	0.000000	0.798490	0.201510
Ce1221	Ce122	0.000000	0.298490	0.701510
Ce1231	Ce123	0.500000	0.798490	0.701510
Ce1241	Ce124	0.500000	0.298490	0.201510
Ce1251	Ce125	0.000000	0.201510	0.798490
Ce1261	Ce126	0.000000	0.701510	0.298490
Ce1271	Ce127	0.500000	0.201510	0.298490
Ce1281	Ce128	0.500000	0.701510	0.798490
Ce1291	Ce129	0.201510	0.000000	0.201510
Ce1301	Ce130	0.201510	0.500000	0.701510
Ce1311	Ce131	0.701510	0.000000	0.701510
Ce1321	Ce132	0.701510	0.500000	0.201510
Ce1331	Ce133	0.798490	0.000000	0.798490
Ce1341	Ce134	0.798490	0.500000	0.298490
Ce1351	Ce135	0.298490	0.000000	0.298490
Ce1361	Ce136	0.298490	0.500000	0.798490
Ce1371	Ce137	0.201510	0.000000	0.798490
Ce1381	Ce138	0.201510	0.500000	0.298490
Ce1391	Ce139	0.701510	0.000000	0.298490
Ce1401	Ce140	0.701510	0.500000	0.798490
Ce1411	Ce141	0.798490	0.000000	0.201510
Ce1421	Ce142	0.798490	0.500000	0.701510
Ce1431	Ce143	0.298490	0.000000	0.701510
Ce1441	Ce144	0.298490	0.500000	0.201510
O5771	O577	0.226500	0.226500	0.048600
O5781	O578	0.226500	0.726500	0.548600
O5791	O579	0.726500	0.226500	0.548600
O5801	O580	0.726500	0.726500	0.048600
O5811	O581	0.773500	0.773500	0.048600
O5821	O582	0.773500	0.273500	0.548600
O5831	O583	0.273500	0.773500	0.548600
O5841	O584	0.273500	0.273500	0.048600
O5851	O585	0.773500	0.226500	0.951400
O5861	O586	0.773500	0.726500	0.451400
O5871	O587	0.273500	0.226500	0.451400
O5881	O588	0.273500	0.726500	0.951400
O5891	O589	0.226500	0.773500	0.951400
O5901	O590	0.226500	0.273500	0.451400
O5911	O591	0.726500	0.773500	0.451400
O5921	O592	0.726500	0.273500	0.951400
O5931	O593	0.048600	0.226500	0.226500
O5941	O594	0.048600	0.726500	0.726500
O5951	O595	0.548600	0.226500	0.726500
O5961	O596	0.548600	0.726500	0.226500
O5971	O597	0.048600	0.773500	0.773500
O5981	O598	0.048600	0.273500	0.273500
O5991	O599	0.548600	0.773500	0.273500
O6001	O600	0.548600	0.273500	0.773500
O6011	O601	0.951400	0.773500	0.226500
O6021	O602	0.951400	0.273500	0.726500
O6031	O603	0.451400	0.773500	0.726500
O6041	O604	0.451400	0.273500	0.226500
O6051	O605	0.951400	0.226500	0.773500
O6061	O606	0.951400	0.726500	0.273500
O6071	O607	0.451400	0.226500	0.273500
O6081	O608	0.451400	0.726500	0.773500
O6091	O609	0.226500	0.048600	0.226500
O6101	O610	0.226500	0.548600	0.726500
O6111	O611	0.726500	0.048600	0.726500
O6121	O612	0.726500	0.548600	0.226500
O6131	O613	0.773500	0.048600	0.773500
O6141	O614	0.773500	0.548600	0.273500
O6151	O615	0.273500	0.048600	0.273500
O6161	O616	0.273500	0.548600	0.773500
O6171	O617	0.226500	0.951400	0.773500
O6181	O618	0.226500	0.451400	0.273500
O6191	O619	0.726500	0.951400	0.273500
O6201	O620	0.726500	0.451400	0.773500
O6211	O621	0.773500	0.951400	0.226500
O6221	O622	0.773500	0.451400	0.726500
O6231	O623	0.273500	0.951400	0.726500
O6241	O624	0.273500	0.451400	0.226500
O6251	O625	0.226500	0.226500	0.951400
O6261	O626	0.226500	0.726500	0.451400
O6271	O627	0.726500	0.226500	0.451400
O6281	O628	0.726500	0.726500	0.951400
O6291	O629	0.773500	0.773500	0.951400
O6301	O630	0.773500	0.273500	0.451400
O6311	O631	0.273500	0.773500	0.451400
O6321	O632	0.273500	0.273500	0.951400
O6331	O633	0.226500	0.773500	0.048600
O6341	O634	0.226500	0.273500	0.548600
O6351	O635	0.726500	0.773500	0.548600
O6361	O636	0.726500	0.273500	0.048600
O6371	O637	0.773500	0.226500	0.048600
O6381	O638	0.773500	0.726500	0.548600
O6391	O639	0.273500	0.226500	0.548600
O6401	O640	0.273500	0.726500	0.048600
O6411	O641	0.226500	0.048600	0.773500
O6421	O642	0.226500	0.548600	0.273500
O6431	O643	0.726500	0.048600	0.273500
O6441	O644	0.726500	0.548600	0.773500
O6451	O645	0.773500	0.048600	0.226500
O6461	O646	0.773500	0.548600	0.726500
O6471	O647	0.273500	0.048600	0.726500
O6481	O648	0.273500	0.548600	0.226500
O6491	O649	0.773500	0.951400	0.773500
O6501	O650	0.773500	0.451400	0.273500
O6511	O651	0.273500	0.951400	0.273500
O6521	O652	0.273500	0.451400	0.773500
O6531	O653	0.226500	0.951400	0.226500
O6541	O654	0.226500	0.451400	0.726500
O6551	O655	0.726500	0.951400	0.726500
O6561	O656	0.726500	0.451400	0.226500
O6571	O657	0.048600	0.226500	0.773500
O6581	O658	0.048600	0.726500	0.273500
O6591	O659	0.548600	0.226500	0.273500
O6601	O660	0.548600	0.726500	0.773500
O6611	O661	0.048600	0.773500	0.226500
O6621	O662	0.048600	0.273500	0.726500
O6631	O663	0.548600	0.773500	0.726500
O6641	O664	0.548600	0.273500	0.226500
O6651	O665	0.951400	0.226500	0.226500
O6661	O666	0.951400	0.726500	0.726500
O6671	O667	0.451400	0.226500	0.726500
O6681	O668	0.451400	0.726500	0.226500
O6691	O669	0.951400	0.773500	0.773500
O6701	O670	0.951400	0.273500	0.273500
O6711	O671	0.451400	0.773500	0.273500
O6721	O672	0.451400	0.273500	0.773500
O6731	O673	0.241900	0.302000	0.000000
O6741	O674	0.241900	0.802000	0.500000
O6751	O675	0.741900	0.302000	0.500000
O6761	O676	0.741900	0.802000	0.000000
O6771	O677	0.758100	0.698000	0.000000
O6781	O678	0.758100	0.198000	0.500000
O6791	O679	0.258100	0.698000	0.500000
O6801	O680	0.258100	0.198000	0.000000
O6811	O681	0.758100	0.302000	0.000000
O6821	O682	0.758100	0.802000	0.500000
O6831	O683	0.258100	0.302000	0.500000
O6841	O684	0.258100	0.802000	0.000000
O6851	O685	0.241900	0.698000	0.000000
O6861	O686	0.241900	0.198000	0.500000
O6871	O687	0.741900	0.698000	0.500000
O6881	O688	0.741900	0.198000	0.000000
O6891	O689	0.000000	0.241900	0.302000
O6901	O690	0.000000	0.741900	0.802000
O6911	O691	0.500000	0.241900	0.802000
O6921	O692	0.500000	0.741900	0.302000
O6931	O693	0.000000	0.758100	0.698000
O6941	O694	0.000000	0.258100	0.198000
O6951	O695	0.500000	0.758100	0.198000
O6961	O696	0.500000	0.258100	0.698000
O6971	O697	0.000000	0.758100	0.302000
O6981	O698	0.000000	0.258100	0.802000
O6991	O699	0.500000	0.758100	0.802000
O7001	O700	0.500000	0.258100	0.302000
O7011	O701	0.000000	0.241900	0.698000
O7021	O702	0.000000	0.741900	0.198000
O7031	O703	0.500000	0.241900	0.198000
O7041	O704	0.500000	0.741900	0.698000
O7051	O705	0.302000	0.000000	0.241900
O7061	O706	0.302000	0.500000	0.741900
O7071	O707	0.802000	0.000000	0.741900
O7081	O708	0.802000	0.500000	0.241900
O7091	O709	0.698000	0.000000	0.758100
O7101	O710	0.698000	0.500000	0.258100
O7111	O711	0.198000	0.000000	0.258100
O7121	O712	0.198000	0.500000	0.758100
O7131	O713	0.302000	0.000000	0.758100
O7141	O714	0.302000	0.500000	0.258100
O7151	O715	0.802000	0.000000	0.258100
O7161	O716	0.802000	0.500000	0.758100
O7171	O717	0.698000	0.000000	0.241900
O7181	O718	0.698000	0.500000	0.741900
O7191	O719	0.198000	0.000000	0.741900
O7201	O720	0.198000	0.500000	0.241900
O7211	O721	0.302000	0.241900	0.000000
O7221	O722	0.302000	0.741900	0.500000
O7231	O723	0.802000	0.241900	0.500000
O7241	O724	0.802000	0.741900	0.000000
O7251	O725	0.698000	0.758100	0.000000
O7261	O726	0.698000	0.258100	0.500000
O7271	O727	0.198000	0.758100	0.500000
O7281	O728	0.198000	0.258100	0.000000
O7291	O729	0.302000	0.758100	0.000000
O7301	O730	0.302000	0.258100	0.500000
O7311	O731	0.802000	0.758100	0.500000
O7321	O732	0.802000	0.258100	0.000000
O7331	O733	0.698000	0.241900	0.000000
O7341	O734	0.698000	0.741900	0.500000
O7351	O735	0.198000	0.241900	0.500000
O7361	O736	0.198000	0.741900	0.000000
O7371	O737	0.241900	0.000000	0.698000
O7381	O738	0.241900	0.500000	0.198000
O7391	O739	0.741900	0.000000	0.198000
O7401	O740	0.741900	0.500000	0.698000
O7411	O741	0.758100	0.000000	0.302000
O7421	O742	0.758100	0.500000	0.802000
O7431	O743	0.258100	0.000000	0.802000
O7441	O744	0.258100	0.500000	0.302000
O7451	O745	0.758100	0.000000	0.698000
O7461	O746	0.758100	0.500000	0.198000
O7471	O747	0.258100	0.000000	0.198000
O7481	O748	0.258100	0.500000	0.698000
O7491	O749	0.241900	0.000000	0.302000
O7501	O750	0.241900	0.500000	0.802000
O7511	O751	0.741900	0.000000	0.802000
O7521	O752	0.741900	0.500000	0.302000
O7531	O753	0.000000	0.302000	0.758100
O7541	O754	0.000000	0.802000	0.258100
O7551	O755	0.500000	0.302000	0.258100
O7561	O756	0.500000	0.802000	0.758100
O7571	O757	0.000000	0.698000	0.241900
O7581	O758	0.000000	0.198000	0.741900
O7591	O759	0.500000	0.698000	0.741900
O7601	O760	0.500000	0.198000	0.241900
O7611	O761	0.000000	0.302000	0.241900
O7621	O762	0.000000	0.802000	0.741900
O7631	O763	0.500000	0.302000	0.741900
O7641	O764	0.500000	0.802000	0.241900
O7651	O765	0.000000	0.698000	0.758100
O7661	O766	0.000000	0.198000	0.258100
O7671	O767	0.500000	0.698000	0.258100
O7681	O768	0.500000	0.198000	0.758100
C3851	C385	0.236900	0.109100	0.109100
C3861	C386	0.236900	0.609100	0.609100
C3871	C387	0.736900	0.109100	0.609100
C3881	C388	0.736900	0.609100	0.109100
C3891	C389	0.763100	0.890900	0.109100
C3901	C390	0.763100	0.390900	0.609100
C3911	C391	0.263100	0.890900	0.609100
C3921	C392	0.263100	0.390900	0.109100
C3931	C393	0.763100	0.109100	0.890900
C3941	C394	0.763100	0.609100	0.390900
C3951	C395	0.263100	0.109100	0.390900
C3961	C396	0.263100	0.609100	0.890900
C3971	C397	0.236900	0.890900	0.890900
C3981	C398	0.236900	0.390900	0.390900
C3991	C399	0.736900	0.890900	0.390900
C4001	C400	0.736900	0.390900	0.890900
C4011	C401	0.109100	0.236900	0.109100
C4021	C402	0.109100	0.736900	0.609100
C4031	C403	0.609100	0.236900	0.609100
C4041	C404	0.609100	0.736900	0.109100
C4051	C405	0.109100	0.763100	0.890900
C4061	C406	0.109100	0.263100	0.390900
C4071	C407	0.609100	0.763100	0.390900
C4081	C408	0.609100	0.263100	0.890900
C4091	C409	0.890900	0.763100	0.109100
C4101	C410	0.890900	0.263100	0.609100
C4111	C411	0.390900	0.763100	0.609100
C4121	C412	0.390900	0.263100	0.109100
C4131	C413	0.890900	0.236900	0.890900
C4141	C414	0.890900	0.736900	0.390900
C4151	C415	0.390900	0.236900	0.390900
C4161	C416	0.390900	0.736900	0.890900
C4171	C417	0.109100	0.109100	0.236900
C4181	C418	0.109100	0.609100	0.736900
C4191	C419	0.609100	0.109100	0.736900
C4201	C420	0.609100	0.609100	0.236900
C4211	C421	0.890900	0.109100	0.763100
C4221	C422	0.890900	0.609100	0.263100
C4231	C423	0.390900	0.109100	0.263100
C4241	C424	0.390900	0.609100	0.763100
C4251	C425	0.109100	0.890900	0.763100
C4261	C426	0.109100	0.390900	0.263100
C4271	C427	0.609100	0.890900	0.263100
C4281	C428	0.609100	0.390900	0.763100
C4291	C429	0.890900	0.890900	0.236900
C4301	C430	0.890900	0.390900	0.736900
C4311	C431	0.390900	0.890900	0.736900
C4321	C432	0.390900	0.390900	0.236900
C4331	C433	0.109100	0.236900	0.890900
C4341	C434	0.109100	0.736900	0.390900
C4351	C435	0.609100	0.236900	0.390900
C4361	C436	0.609100	0.736900	0.890900
C4371	C437	0.890900	0.763100	0.890900
C4381	C438	0.890900	0.263100	0.390900
C4391	C439	0.390900	0.763100	0.390900
C4401	C440	0.390900	0.263100	0.890900
C4411	C441	0.109100	0.763100	0.109100
C4421	C442	0.109100	0.263100	0.609100
C4431	C443	0.609100	0.763100	0.609100
C4441	C444	0.609100	0.263100	0.109100
C4451	C445	0.890900	0.236900	0.109100
C4461	C446	0.890900	0.736900	0.609100
C4471	C447	0.390900	0.236900	0.609100
C4481	C448	0.390900	0.736900	0.109100
C4491	C449	0.236900	0.109100	0.890900
C4501	C450	0.236900	0.609100	0.390900
C4511	C451	0.736900	0.109100	0.390900
C4521	C452	0.736900	0.609100	0.890900
C4531	C453	0.763100	0.109100	0.109100
C4541	C454	0.763100	0.609100	0.609100
C4551	C455	0.263100	0.109100	0.609100
C4561	C456	0.263100	0.609100	0.109100
C4571	C457	0.763100	0.890900	0.890900
C4581	C458	0.763100	0.390900	0.390900
C4591	C459	0.263100	0.890900	0.390900
C4601	C460	0.263100	0.390900	0.890900
C4611	C461	0.236900	0.890900	0.109100
C4621	C462	0.236900	0.390900	0.609100
C4631	C463	0.736900	0.890900	0.609100
C4641	C464	0.736900	0.390900	0.109100
C4651	C465	0.109100	0.109100	0.763100
C4661	C466	0.109100	0.609100	0.263100
C4671	C467	0.609100	0.109100	0.263100
C4681	C468	0.609100	0.609100	0.763100
C4691	C469	0.109100	0.890900	0.236900
C4701	C470	0.109100	0.390900	0.736900
C4711	C471	0.609100	0.890900	0.736900
C4721	C472	0.609100	0.390900	0.236900
C4731	C473	0.890900	0.109100	0.236900
C4741	C474	0.890900	0.609100	0.736900
C4751	C475	0.390900	0.109100	0.736900
C4761	C476	0.390900	0.609100	0.236900
C4771	C477	0.890900	0.890900	0.763100
C4781	C478	0.890900	0.390900	0.263100
C4791	C479	0.390900	0.890900	0.263100
C4801	C480	0.390900	0.390900	0.763100
