data_JALPAQ_freeONLY_PM
_symmetry_space_group_name_H-M	'P1'
_cell_length_a	20.124000
_cell_length_b	7.031200
_cell_length_c	17.227400
_cell_angle_alpha	90.000000
_cell_angle_beta	90.000000
_cell_angle_gamma	90.000000
_symmetry_Int_Tables_number 1

loop_
_symmetry_equiv_pos_as_xyz
'x,y,z'

loop_
_atom_site_label
_atom_site_type_symbol
_atom_site_fract_x
_atom_site_fract_y
_atom_site_fract_z
Cu11	Cu1	0.508560	0.845510	0.594780
O11	O1	0.427780	0.704500	0.558760
O21	O2	0.507070	0.779900	0.482810
O31	O3	0.488120	0.630100	0.201390
O41	O4	0.407640	0.442700	0.161020
N11	N1	0.101760	0.412900	0.396830
C11	C1	0.451570	0.706900	0.491520
C21	C2	0.435310	0.535500	0.211890
C31	C3	0.413010	0.627000	0.426020
C41	C4	0.443450	0.611300	0.353670
H11	H1	0.487900	0.644000	0.347000
C51	C5	0.405890	0.545700	0.292200
C61	C6	0.340230	0.502400	0.302280
H21	H2	0.315900	0.457700	0.260200
C71	C7	0.308790	0.523100	0.373730
C81	C8	0.347960	0.584900	0.435350
H31	H3	0.328900	0.597500	0.484200
C91	C9	0.237530	0.489000	0.382290
C101	C10	0.194540	0.495400	0.319570
H41	H4	0.211300	0.524500	0.270700
C111	C11	0.129030	0.460400	0.327730
H51	H5	0.101700	0.469200	0.284400
C121	C12	0.142470	0.407600	0.458530
H61	H6	0.124800	0.377100	0.506800
C131	C13	0.208640	0.445100	0.453130
H71	H7	0.234800	0.441300	0.497600
Cu21	Cu2	0.008560	0.154490	0.905210
O51	O5	0.927780	0.295500	0.941240
O61	O6	0.007070	0.220100	0.017190
O71	O7	0.988120	0.369900	0.298610
O81	O8	0.907640	0.557300	0.338980
N21	N2	0.601760	0.587100	0.103170
C141	C14	0.951570	0.293100	0.008480
C151	C15	0.935310	0.464500	0.288110
C161	C16	0.913010	0.373000	0.073980
C171	C17	0.943450	0.388700	0.146330
H81	H8	0.987900	0.356000	0.153000
C181	C18	0.905890	0.454300	0.207800
C191	C19	0.840230	0.497600	0.197720
H91	H9	0.815900	0.542300	0.239800
C201	C20	0.808790	0.476900	0.126270
C211	C21	0.847960	0.415100	0.064650
H101	H10	0.828900	0.402500	0.015800
C221	C22	0.737530	0.511000	0.117710
C231	C23	0.694540	0.504600	0.180430
H111	H11	0.711300	0.475500	0.229300
C241	C24	0.629030	0.539600	0.172270
H121	H12	0.601700	0.530800	0.215600
C251	C25	0.642470	0.592400	0.041470
H131	H13	0.624800	0.622900	0.993200
C261	C26	0.708640	0.554900	0.046870
H141	H14	0.734800	0.558700	0.002400
Cu31	Cu3	0.008560	0.345510	0.405220
O91	O9	0.927780	0.204500	0.441240
O101	O10	0.007070	0.279900	0.517190
O111	O11	0.988120	0.130100	0.798610
O121	O12	0.907640	0.942700	0.838980
N31	N3	0.601760	0.912900	0.603170
C271	C27	0.951570	0.206900	0.508480
C281	C28	0.935310	0.035500	0.788110
C291	C29	0.913010	0.127000	0.573980
C301	C30	0.943450	0.111300	0.646330
H151	H15	0.987900	0.144000	0.653000
C311	C31	0.905890	0.045700	0.707800
C321	C32	0.840230	0.002400	0.697720
H161	H16	0.815900	0.957700	0.739800
C331	C33	0.808790	0.023100	0.626270
C341	C34	0.847960	0.084900	0.564650
H171	H17	0.828900	0.097500	0.515800
C351	C35	0.737530	0.989000	0.617710
C361	C36	0.694540	0.995400	0.680430
H181	H18	0.711300	0.024500	0.729300
C371	C37	0.629030	0.960400	0.672270
H191	H19	0.601700	0.969200	0.715600
C381	C38	0.642470	0.907600	0.541470
H201	H20	0.624800	0.877100	0.493200
C391	C39	0.708640	0.945100	0.546870
H211	H21	0.734800	0.941300	0.502400
Cu41	Cu4	0.508560	0.654490	0.094780
O131	O13	0.427780	0.795500	0.058760
O141	O14	0.507070	0.720100	0.982810
O151	O15	0.488120	0.869900	0.701390
O161	O16	0.407640	0.057300	0.661020
N41	N4	0.101760	0.087100	0.896830
C401	C40	0.451570	0.793100	0.991520
C411	C41	0.435310	0.964500	0.711890
C421	C42	0.413010	0.873000	0.926020
C431	C43	0.443450	0.888700	0.853670
H221	H22	0.487900	0.856000	0.847000
C441	C44	0.405890	0.954300	0.792200
C451	C45	0.340230	0.997600	0.802280
H231	H23	0.315900	0.042300	0.760200
C461	C46	0.308790	0.976900	0.873730
C471	C47	0.347960	0.915100	0.935350
H241	H24	0.328900	0.902500	0.984200
C481	C48	0.237530	0.011000	0.882290
C491	C49	0.194540	0.004600	0.819570
H251	H25	0.211300	0.975500	0.770700
C501	C50	0.129030	0.039600	0.827730
H261	H26	0.101700	0.030800	0.784400
C511	C51	0.142470	0.092400	0.958530
H271	H27	0.124800	0.122900	0.006800
C521	C52	0.208640	0.054900	0.953130
H281	H28	0.234800	0.058700	0.997600
Cu51	Cu5	0.991440	0.654490	0.594780
O171	O17	0.072220	0.795500	0.558760
O181	O18	0.992930	0.720100	0.482810
O191	O19	0.011880	0.869900	0.201390
O201	O20	0.092360	0.057300	0.161020
N51	N5	0.398240	0.087100	0.396830
C531	C53	0.048430	0.793100	0.491520
C541	C54	0.064690	0.964500	0.211890
C551	C55	0.086990	0.873000	0.426020
C561	C56	0.056550	0.888700	0.353670
H291	H29	0.012100	0.856000	0.347000
C571	C57	0.094110	0.954300	0.292200
C581	C58	0.159770	0.997600	0.302280
H301	H30	0.184100	0.042300	0.260200
C591	C59	0.191210	0.976900	0.373730
C601	C60	0.152040	0.915100	0.435350
H311	H31	0.171100	0.902500	0.484200
C611	C61	0.262470	0.011000	0.382290
C621	C62	0.305460	0.004600	0.319570
H321	H32	0.288700	0.975500	0.270700
C631	C63	0.370970	0.039600	0.327730
H331	H33	0.398300	0.030800	0.284400
C641	C64	0.357530	0.092400	0.458530
H341	H34	0.375200	0.122900	0.506800
C651	C65	0.291360	0.054900	0.453130
H351	H35	0.265200	0.058700	0.497600
Cu61	Cu6	0.491440	0.345510	0.905210
O211	O21	0.572220	0.204500	0.941240
O221	O22	0.492930	0.279900	0.017190
O231	O23	0.511880	0.130100	0.298610
O241	O24	0.592360	0.942700	0.338980
N61	N6	0.898240	0.912900	0.103170
C661	C66	0.548430	0.206900	0.008480
C671	C67	0.564690	0.035500	0.288110
C681	C68	0.586990	0.127000	0.073980
C691	C69	0.556550	0.111300	0.146330
H361	H36	0.512100	0.144000	0.153000
C701	C70	0.594110	0.045700	0.207800
C711	C71	0.659770	0.002400	0.197720
H371	H37	0.684100	0.957700	0.239800
C721	C72	0.691210	0.023100	0.126270
C731	C73	0.652040	0.084900	0.064650
H381	H38	0.671100	0.097500	0.015800
C741	C74	0.762470	0.989000	0.117710
C751	C75	0.805460	0.995400	0.180430
H391	H39	0.788700	0.024500	0.229300
C761	C76	0.870970	0.960400	0.172270
H401	H40	0.898300	0.969200	0.215600
C771	C77	0.857530	0.907600	0.041470
H411	H41	0.875200	0.877100	0.993200
C781	C78	0.791360	0.945100	0.046870
H421	H42	0.765200	0.941300	0.002400
Cu71	Cu7	0.491440	0.154490	0.405220
O251	O25	0.572220	0.295500	0.441240
O261	O26	0.492930	0.220100	0.517190
O271	O27	0.511880	0.369900	0.798610
O281	O28	0.592360	0.557300	0.838980
N71	N7	0.898240	0.587100	0.603170
C791	C79	0.548430	0.293100	0.508480
C801	C80	0.564690	0.464500	0.788110
C811	C81	0.586990	0.373000	0.573980
C821	C82	0.556550	0.388700	0.646330
H431	H43	0.512100	0.356000	0.653000
C831	C83	0.594110	0.454300	0.707800
C841	C84	0.659770	0.497600	0.697720
H441	H44	0.684100	0.542300	0.739800
C851	C85	0.691210	0.476900	0.626270
C861	C86	0.652040	0.415100	0.564650
H451	H45	0.671100	0.402500	0.515800
C871	C87	0.762470	0.511000	0.617710
C881	C88	0.805460	0.504600	0.680430
H461	H46	0.788700	0.475500	0.729300
C891	C89	0.870970	0.539600	0.672270
H471	H47	0.898300	0.530800	0.715600
C901	C90	0.857530	0.592400	0.541470
H481	H48	0.875200	0.622900	0.493200
C911	C91	0.791360	0.554900	0.546870
H491	H49	0.765200	0.558700	0.502400
Cu81	Cu8	0.991440	0.845510	0.094780
O291	O29	0.072220	0.704500	0.058760
O301	O30	0.992930	0.779900	0.982810
O311	O31	0.011880	0.630100	0.701390
O321	O32	0.092360	0.442700	0.661020
N81	N8	0.398240	0.412900	0.896830
C921	C92	0.048430	0.706900	0.991520
C931	C93	0.064690	0.535500	0.711890
C941	C94	0.086990	0.627000	0.926020
C951	C95	0.056550	0.611300	0.853670
H501	H50	0.012100	0.644000	0.847000
C961	C96	0.094110	0.545700	0.792200
C971	C97	0.159770	0.502400	0.802280
H511	H51	0.184100	0.457700	0.760200
C981	C98	0.191210	0.523100	0.873730
C991	C99	0.152040	0.584900	0.935350
H521	H52	0.171100	0.597500	0.984200
C1001	C100	0.262470	0.489000	0.882290
C1011	C101	0.305460	0.495400	0.819570
H531	H53	0.288700	0.524500	0.770700
C1021	C102	0.370970	0.460400	0.827730
H541	H54	0.398300	0.469200	0.784400
C1031	C103	0.357530	0.407600	0.958530
H551	H55	0.375200	0.377100	0.006800
C1041	C104	0.291360	0.445100	0.953130
H561	H56	0.265200	0.441300	0.997600
