data_JALTUL_freeONLY_PM
_symmetry_space_group_name_H-M	'P1'
_cell_length_a	14.724000
_cell_length_b	8.561000
_cell_length_c	13.267000
_cell_angle_alpha	90.000000
_cell_angle_beta	104.110000
_cell_angle_gamma	90.000000
_symmetry_Int_Tables_number 1

loop_
_symmetry_equiv_pos_as_xyz
'x,y,z'

loop_
_atom_site_label
_atom_site_type_symbol
_atom_site_fract_x
_atom_site_fract_y
_atom_site_fract_z
N11	N1	0.203700	0.137400	0.346700
N21	N2	0.295100	0.339400	0.133300
N31	N3	0.126200	0.933400	0.509400
N41	N4	0.373200	0.934800	0.485500
C11	C1	0.272200	0.199800	0.291500
C21	C2	0.227500	0.266200	0.184800
C31	C3	0.042400	0.031900	0.483100
C41	C4	0.455800	0.035700	0.509800
Li11	Li1	0.248300	0.040100	0.493000
H11	H1	0.175000	0.045000	0.312000
H21	H2	0.161000	0.214000	0.343000
H31	H3	0.324000	0.427000	0.168000
H41	H4	0.340000	0.264000	0.134000
H51	H5	0.140000	0.899000	0.573000
H61	H6	0.112000	0.835000	0.477000
H71	H7	0.388000	0.845000	0.522000
H81	H8	0.361000	0.895000	0.421000
H91	H9	0.315000	0.291000	0.339000
H101	H10	0.314000	0.105000	0.287000
H111	H11	0.191000	0.177000	0.140000
H121	H12	0.185000	0.355000	0.190000
H131	H13	0.440000	0.146000	0.474000
H141	H14	0.472000	0.062000	0.586000
H151	H15	0.058000	0.142000	0.510000
H161	H16	0.020000	0.045000	0.403000
N51	N5	0.796300	0.637400	0.153300
N61	N6	0.704900	0.839400	0.366700
N71	N7	0.873800	0.433400	0.990600
N81	N8	0.626800	0.434800	0.014500
C51	C5	0.727800	0.699800	0.208500
C61	C6	0.772500	0.766200	0.315200
C71	C7	0.957600	0.531900	0.016900
C81	C8	0.544200	0.535700	0.990200
Li21	Li2	0.751700	0.540100	0.007000
H171	H17	0.825000	0.545000	0.188000
H181	H18	0.839000	0.714000	0.157000
H191	H19	0.676000	0.927000	0.332000
H201	H20	0.660000	0.764000	0.366000
H211	H21	0.860000	0.399000	0.927000
H221	H22	0.888000	0.335000	0.023000
H231	H23	0.612000	0.345000	0.978000
H241	H24	0.639000	0.395000	0.079000
H251	H25	0.685000	0.791000	0.161000
H261	H26	0.686000	0.605000	0.213000
H271	H27	0.809000	0.677000	0.360000
H281	H28	0.815000	0.855000	0.310000
H291	H29	0.560000	0.646000	0.026000
H301	H30	0.528000	0.562000	0.914000
H311	H31	0.942000	0.642000	0.990000
H321	H32	0.980000	0.545000	0.097000
N91	N9	0.796300	0.862600	0.653300
N101	N10	0.704900	0.660600	0.866700
N111	N11	0.873800	0.066600	0.490600
N121	N12	0.626800	0.065200	0.514500
C91	C9	0.727800	0.800200	0.708500
C101	C10	0.772500	0.733800	0.815200
C111	C11	0.957600	0.968100	0.516900
C121	C12	0.544200	0.964300	0.490200
Li31	Li3	0.751700	0.959900	0.507000
H331	H33	0.825000	0.955000	0.688000
H341	H34	0.839000	0.786000	0.657000
H351	H35	0.676000	0.573000	0.832000
H361	H36	0.660000	0.736000	0.866000
H371	H37	0.860000	0.101000	0.427000
H381	H38	0.888000	0.165000	0.523000
H391	H39	0.612000	0.155000	0.478000
H401	H40	0.639000	0.105000	0.579000
H411	H41	0.685000	0.709000	0.661000
H421	H42	0.686000	0.895000	0.713000
H431	H43	0.809000	0.823000	0.860000
H441	H44	0.815000	0.645000	0.810000
H451	H45	0.560000	0.854000	0.526000
H461	H46	0.528000	0.938000	0.414000
H471	H47	0.942000	0.858000	0.490000
H481	H48	0.980000	0.955000	0.597000
N131	N13	0.203700	0.362600	0.846700
N141	N14	0.295100	0.160600	0.633300
N151	N15	0.126200	0.566600	0.009400
N161	N16	0.373200	0.565200	0.985500
C131	C13	0.272200	0.300200	0.791500
C141	C14	0.227500	0.233800	0.684800
C151	C15	0.042400	0.468100	0.983100
C161	C16	0.455800	0.464300	0.009800
Li41	Li4	0.248300	0.459900	0.993000
H491	H49	0.175000	0.455000	0.812000
H501	H50	0.161000	0.286000	0.843000
H511	H51	0.324000	0.073000	0.668000
H521	H52	0.340000	0.236000	0.634000
H531	H53	0.140000	0.601000	0.073000
H541	H54	0.112000	0.665000	0.977000
H551	H55	0.388000	0.655000	0.022000
H561	H56	0.361000	0.605000	0.921000
H571	H57	0.315000	0.209000	0.839000
H581	H58	0.314000	0.395000	0.787000
H591	H59	0.191000	0.323000	0.640000
H601	H60	0.185000	0.145000	0.690000
H611	H61	0.440000	0.354000	0.974000
H621	H62	0.472000	0.438000	0.086000
H631	H63	0.058000	0.358000	0.010000
H641	H64	0.020000	0.455000	0.903000
