data_JILXOS_freeONLY_PM
_symmetry_space_group_name_H-M	'P1'
_cell_length_a	7.357800
_cell_length_b	21.996900
_cell_length_c	20.344700
_cell_angle_alpha	90.000000
_cell_angle_beta	90.000000
_cell_angle_gamma	90.000000
_symmetry_Int_Tables_number 1

loop_
_symmetry_equiv_pos_as_xyz
'x,y,z'

loop_
_atom_site_label
_atom_site_type_symbol
_atom_site_fract_x
_atom_site_fract_y
_atom_site_fract_z
Cu11	Cu1	0.571120	0.587380	0.674190
Cu21	Cu2	0.428880	0.912620	0.674190
Cu31	Cu3	0.571120	0.412620	0.825810
Cu41	Cu4	0.428880	0.087380	0.825810
Cu51	Cu5	0.428880	0.412620	0.325810
Cu61	Cu6	0.571120	0.087380	0.325810
Cu71	Cu7	0.428880	0.587380	0.174190
Cu81	Cu8	0.571120	0.912620	0.174190
Cu91	Cu9	0.500000	0.500000	0.500000
Cu101	Cu10	0.500000	0.000000	0.500000
Cu111	Cu11	0.500000	0.500000	0.000000
Cu121	Cu12	0.500000	0.000000	0.000000
Cu131	Cu13	0.000000	0.750000	0.180000
Cu141	Cu14	0.000000	0.250000	0.320000
Cu151	Cu15	0.000000	0.250000	0.820000
Cu161	Cu16	0.000000	0.750000	0.680000
H11	H1	0.204900	0.531800	0.699100
H21	H2	0.931800	0.515200	0.648100
H31	H3	0.108200	0.616700	0.498300
H41	H4	0.372900	0.631900	0.554400
H51	H5	0.470900	0.569000	0.376000
H61	H6	0.465300	0.651500	0.298100
H71	H7	0.613600	0.711800	0.225600
H81	H8	0.080600	0.664300	0.294800
H91	H9	0.946500	0.605200	0.375000
H101	H10	0.795100	0.968200	0.699100
H111	H11	0.068200	0.984800	0.648100
H121	H12	0.891800	0.883300	0.498300
H131	H13	0.627100	0.868100	0.554400
H141	H14	0.529100	0.931000	0.376000
H151	H15	0.534700	0.848500	0.298100
H161	H16	0.386400	0.788200	0.225600
H171	H17	0.919400	0.835700	0.294800
H181	H18	0.053500	0.894800	0.375000
H191	H19	0.204900	0.468200	0.800900
H201	H20	0.931800	0.484800	0.851900
H211	H21	0.108200	0.383300	0.001700
H221	H22	0.372900	0.368100	0.945600
H231	H23	0.470900	0.431000	0.124000
H241	H24	0.465300	0.348500	0.201900
H251	H25	0.613600	0.288200	0.274400
H261	H26	0.080600	0.335700	0.205200
H271	H27	0.946500	0.394800	0.125000
H281	H28	0.795100	0.031800	0.800900
H291	H29	0.068200	0.015200	0.851900
H301	H30	0.891800	0.116700	0.001700
H311	H31	0.627100	0.131900	0.945600
H321	H32	0.529100	0.069000	0.124000
H331	H33	0.534700	0.151500	0.201900
H341	H34	0.386400	0.211800	0.274400
H351	H35	0.919400	0.164300	0.205200
H361	H36	0.053500	0.105200	0.125000
H371	H37	0.795100	0.468200	0.300900
H381	H38	0.068200	0.484800	0.351900
H391	H39	0.891800	0.383300	0.501700
H401	H40	0.627100	0.368100	0.445600
H411	H41	0.529100	0.431000	0.624000
H421	H42	0.534700	0.348500	0.701900
H431	H43	0.386400	0.288200	0.774400
H441	H44	0.919400	0.335700	0.705200
H451	H45	0.053500	0.394800	0.625000
H461	H46	0.204900	0.031800	0.300900
H471	H47	0.931800	0.015200	0.351900
H481	H48	0.108200	0.116700	0.501700
H491	H49	0.372900	0.131900	0.445600
H501	H50	0.470900	0.069000	0.624000
H511	H51	0.465300	0.151500	0.701900
H521	H52	0.613600	0.211800	0.774400
H531	H53	0.080600	0.164300	0.705200
H541	H54	0.946500	0.105200	0.625000
H551	H55	0.795100	0.531800	0.199100
H561	H56	0.068200	0.515200	0.148100
H571	H57	0.891800	0.616700	0.998300
H581	H58	0.627100	0.631900	0.054400
H591	H59	0.529100	0.569000	0.876000
H601	H60	0.534700	0.651500	0.798100
H611	H61	0.386400	0.711800	0.725600
H621	H62	0.919400	0.664300	0.794800
H631	H63	0.053500	0.605200	0.875000
H641	H64	0.204900	0.968200	0.199100
H651	H65	0.931800	0.984800	0.148100
H661	H66	0.108200	0.883300	0.998300
H671	H67	0.372900	0.868100	0.054400
H681	H68	0.470900	0.931000	0.876000
H691	H69	0.465300	0.848500	0.798100
H701	H70	0.613600	0.788200	0.725600
H711	H71	0.080600	0.835700	0.794800
H721	H72	0.946500	0.894800	0.875000
C11	C1	0.596100	0.520220	0.731850
C21	C2	0.184900	0.549190	0.658060
C31	C3	0.020500	0.538500	0.627550
C41	C4	0.989500	0.562820	0.566330
C51	C5	0.124900	0.598750	0.539200
C61	C6	0.283600	0.607590	0.573200
C71	C7	0.815500	0.550330	0.530920
C81	C8	0.584600	0.581160	0.391070
C91	C9	0.687100	0.621690	0.346080
C101	C10	0.591400	0.654010	0.299540
C111	C11	0.681600	0.689590	0.255660
C121	C12	0.954400	0.662400	0.296600
C131	C13	0.875400	0.626000	0.344700
C141	C14	0.187100	0.696350	0.152900
C151	C15	0.403900	0.979780	0.731850
C161	C16	0.815100	0.950810	0.658060
C171	C17	0.979500	0.961500	0.627550
C181	C18	0.010500	0.937180	0.566330
C191	C19	0.875100	0.901250	0.539200
C201	C20	0.716400	0.892410	0.573200
C211	C21	0.184500	0.949670	0.530920
C221	C22	0.415400	0.918840	0.391070
C231	C23	0.312900	0.878310	0.346080
C241	C24	0.408600	0.845990	0.299540
C251	C25	0.318400	0.810410	0.255660
C261	C26	0.045600	0.837600	0.296600
C271	C27	0.124600	0.874000	0.344700
C281	C28	0.812900	0.803650	0.152900
C291	C29	0.596100	0.479780	0.768150
C301	C30	0.184900	0.450810	0.841940
C311	C31	0.020500	0.461500	0.872450
C321	C32	0.989500	0.437180	0.933670
C331	C33	0.124900	0.401250	0.960800
C341	C34	0.283600	0.392410	0.926800
C351	C35	0.815500	0.449670	0.969080
C361	C36	0.584600	0.418840	0.108930
C371	C37	0.687100	0.378310	0.153920
C381	C38	0.591400	0.345990	0.200460
C391	C39	0.681600	0.310410	0.244340
C401	C40	0.954400	0.337600	0.203400
C411	C41	0.875400	0.374000	0.155300
C421	C42	0.187100	0.303650	0.347100
C431	C43	0.403900	0.020220	0.768150
C441	C44	0.815100	0.049190	0.841940
C451	C45	0.979500	0.038500	0.872450
C461	C46	0.010500	0.062820	0.933670
C471	C47	0.875100	0.098750	0.960800
C481	C48	0.716400	0.107590	0.926800
C491	C49	0.184500	0.050330	0.969080
C501	C50	0.415400	0.081160	0.108930
C511	C51	0.312900	0.121690	0.153920
C521	C52	0.408600	0.154010	0.200460
C531	C53	0.318400	0.189590	0.244340
C541	C54	0.045600	0.162400	0.203400
C551	C55	0.124600	0.126000	0.155300
C561	C56	0.812900	0.196350	0.347100
C571	C57	0.403900	0.479780	0.268150
C581	C58	0.815100	0.450810	0.341940
C591	C59	0.979500	0.461500	0.372450
C601	C60	0.010500	0.437180	0.433670
C611	C61	0.875100	0.401250	0.460800
C621	C62	0.716400	0.392410	0.426800
C631	C63	0.184500	0.449670	0.469080
C641	C64	0.415400	0.418840	0.608930
C651	C65	0.312900	0.378310	0.653920
C661	C66	0.408600	0.345990	0.700460
C671	C67	0.318400	0.310410	0.744340
C681	C68	0.045600	0.337600	0.703400
C691	C69	0.124600	0.374000	0.655300
C701	C70	0.812900	0.303650	0.847100
C711	C71	0.596100	0.020220	0.268150
C721	C72	0.184900	0.049190	0.341940
C731	C73	0.020500	0.038500	0.372450
C741	C74	0.989500	0.062820	0.433670
C751	C75	0.124900	0.098750	0.460800
C761	C76	0.283600	0.107590	0.426800
C771	C77	0.815500	0.050330	0.469080
C781	C78	0.584600	0.081160	0.608930
C791	C79	0.687100	0.121690	0.653920
C801	C80	0.591400	0.154010	0.700460
C811	C81	0.681600	0.189590	0.744340
C821	C82	0.954400	0.162400	0.703400
C831	C83	0.875400	0.126000	0.655300
C841	C84	0.187100	0.196350	0.847100
C851	C85	0.403900	0.520220	0.231850
C861	C86	0.815100	0.549190	0.158060
C871	C87	0.979500	0.538500	0.127550
C881	C88	0.010500	0.562820	0.066330
C891	C89	0.875100	0.598750	0.039200
C901	C90	0.716400	0.607590	0.073200
C911	C91	0.184500	0.550330	0.030920
C921	C92	0.415400	0.581160	0.891070
C931	C93	0.312900	0.621690	0.846080
C941	C94	0.408600	0.654010	0.799540
C951	C95	0.318400	0.689590	0.755660
C961	C96	0.045600	0.662400	0.796600
C971	C97	0.124600	0.626000	0.844700
C981	C98	0.812900	0.696350	0.652900
C991	C99	0.596100	0.979780	0.231850
C1001	C100	0.184900	0.950810	0.158060
C1011	C101	0.020500	0.961500	0.127550
C1021	C102	0.989500	0.937180	0.066330
C1031	C103	0.124900	0.901250	0.039200
C1041	C104	0.283600	0.892410	0.073200
C1051	C105	0.815500	0.949670	0.030920
C1061	C106	0.584600	0.918840	0.891070
C1071	C107	0.687100	0.878310	0.846080
C1081	C108	0.591400	0.845990	0.799540
C1091	C109	0.681600	0.810410	0.755660
C1101	C110	0.954400	0.837600	0.796600
C1111	C111	0.875400	0.874000	0.844700
C1121	C112	0.187100	0.803650	0.652900
N11	N1	0.316300	0.583000	0.632110
N21	N2	0.794400	0.577890	0.474650
N31	N3	0.629500	0.560650	0.447040
N41	N4	0.861300	0.694320	0.253400
N51	N5	0.288500	0.656710	0.153190
N61	N6	0.683700	0.917000	0.632110
N71	N7	0.205600	0.922110	0.474650
N81	N8	0.370500	0.939350	0.447040
N91	N9	0.138700	0.805680	0.253400
N101	N10	0.711500	0.843290	0.153190
N111	N11	0.316300	0.417000	0.867890
N121	N12	0.794400	0.422110	0.025350
N131	N13	0.629500	0.439350	0.052960
N141	N14	0.861300	0.305680	0.246600
N151	N15	0.288500	0.343290	0.346810
N161	N16	0.683700	0.083000	0.867890
N171	N17	0.205600	0.077890	0.025350
N181	N18	0.370500	0.060650	0.052960
N191	N19	0.138700	0.194320	0.246600
N201	N20	0.711500	0.156710	0.346810
N211	N21	0.683700	0.417000	0.367890
N221	N22	0.205600	0.422110	0.525350
N231	N23	0.370500	0.439350	0.552960
N241	N24	0.138700	0.305680	0.746600
N251	N25	0.711500	0.343290	0.846810
N261	N26	0.316300	0.083000	0.367890
N271	N27	0.794400	0.077890	0.525350
N281	N28	0.629500	0.060650	0.552960
N291	N29	0.861300	0.194320	0.746600
N301	N30	0.288500	0.156710	0.846810
N311	N31	0.683700	0.583000	0.132110
N321	N32	0.205600	0.577890	0.974650
N331	N33	0.370500	0.560650	0.947040
N341	N34	0.138700	0.694320	0.753400
N351	N35	0.711500	0.656710	0.653190
N361	N36	0.316300	0.917000	0.132110
N371	N37	0.794400	0.922110	0.974650
N381	N38	0.629500	0.939350	0.947040
N391	N39	0.861300	0.805680	0.753400
N401	N40	0.288500	0.843290	0.653190
O11	O1	0.704200	0.512550	0.556880
O21	O2	0.295800	0.987450	0.556880
O31	O3	0.704200	0.487450	0.943120
O41	O4	0.295800	0.012550	0.943120
O51	O5	0.295800	0.487450	0.443120
O61	O6	0.704200	0.012550	0.443120
O71	O7	0.295800	0.512550	0.056880
O81	O8	0.704200	0.987450	0.056880
