data_JIXWUJ02_freeONLY_PM
_symmetry_space_group_name_H-M	'P1'
_cell_length_a	11.657500
_cell_length_b	10.105300
_cell_length_c	14.879000
_cell_angle_alpha	90.000000
_cell_angle_beta	91.633000
_cell_angle_gamma	90.000000
_symmetry_Int_Tables_number 1

loop_
_symmetry_equiv_pos_as_xyz
'x,y,z'

loop_
_atom_site_label
_atom_site_type_symbol
_atom_site_fract_x
_atom_site_fract_y
_atom_site_fract_z
Mn11	Mn1	0.739470	0.599440	0.315090
Mn21	Mn2	0.243170	0.584620	0.868830
O11	O1	0.098580	0.662600	0.939790
O21	O2	0.686120	0.528800	0.021570
O31	O3	0.851650	0.576000	0.197500
O41	O4	0.627040	0.498100	0.219600
O51	O5	0.519000	0.287600	0.002030
O61	O6	0.691740	0.791900	0.252490
O71	O7	0.106600	0.879600	0.909360
O81	O8	0.653470	0.236700	0.106850
O91	O9	0.461230	0.497700	0.141170
O101	O10	0.684200	0.924700	0.131670
O111	O11	0.012900	0.611600	0.123410
O121	O12	0.846200	0.607400	0.962240
C11	C1	0.947700	0.631000	0.186000
C21	C2	0.669400	0.817200	0.170000
C31	C3	0.573500	0.208100	0.049500
C41	C4	0.518600	0.509200	0.211700
C51	C5	0.065400	0.782300	0.947300
C61	C6	0.741200	0.602800	0.967800
H11	H1	0.018800	0.782200	0.977700
H21	H2	0.554000	0.113100	0.042100
H31	H3	0.645700	0.749000	0.134400
H41	H4	0.478100	0.513000	0.270400
H51	H5	0.691900	0.664200	0.927300
H61	H6	0.979400	0.681700	0.231900
Mn31	Mn3	0.760530	0.099440	0.184910
Mn41	Mn4	0.256830	0.084620	0.631170
O131	O13	0.401420	0.162600	0.560210
O141	O14	0.813880	0.028800	0.478430
O151	O15	0.648350	0.076000	0.302500
O161	O16	0.872960	0.998100	0.280400
O171	O17	0.981000	0.787600	0.497970
O181	O18	0.808260	0.291900	0.247510
O191	O19	0.393400	0.379600	0.590640
O201	O20	0.846530	0.736700	0.393150
O211	O21	0.038770	0.997700	0.358830
O221	O22	0.815800	0.424700	0.368330
O231	O23	0.487100	0.111600	0.376590
O241	O24	0.653800	0.107400	0.537760
C71	C7	0.552300	0.131000	0.314000
C81	C8	0.830600	0.317200	0.330000
C91	C9	0.926500	0.708100	0.450500
C101	C10	0.981400	0.009200	0.288300
C111	C11	0.434600	0.282300	0.552700
C121	C12	0.758800	0.102800	0.532200
H71	H7	0.481200	0.282200	0.522300
H81	H8	0.946000	0.613100	0.457900
H91	H9	0.854300	0.249000	0.365600
H101	H10	0.021900	0.013000	0.229600
H111	H11	0.808100	0.164200	0.572700
H121	H12	0.520600	0.181700	0.268100
Mn51	Mn5	0.260530	0.400560	0.684910
Mn61	Mn6	0.756830	0.415380	0.131170
O251	O25	0.901420	0.337400	0.060210
O261	O26	0.313880	0.471200	0.978430
O271	O27	0.148350	0.424000	0.802500
O281	O28	0.372960	0.501900	0.780400
O291	O29	0.481000	0.712400	0.997970
O301	O30	0.308260	0.208100	0.747510
O311	O31	0.893400	0.120400	0.090640
O321	O32	0.346530	0.763300	0.893150
O331	O33	0.538770	0.502300	0.858830
O341	O34	0.315800	0.075300	0.868330
O351	O35	0.987100	0.388400	0.876590
O361	O36	0.153800	0.392600	0.037760
C131	C13	0.052300	0.369000	0.814000
C141	C14	0.330600	0.182800	0.830000
C151	C15	0.426500	0.791900	0.950500
C161	C16	0.481400	0.490800	0.788300
C171	C17	0.934600	0.217700	0.052700
C181	C18	0.258800	0.397200	0.032200
H131	H13	0.981200	0.217800	0.022300
H141	H14	0.446000	0.886900	0.957900
H151	H15	0.354300	0.251000	0.865600
H161	H16	0.521900	0.487000	0.729600
H171	H17	0.308100	0.335800	0.072700
H181	H18	0.020600	0.318300	0.768100
Mn71	Mn7	0.239470	0.900560	0.815090
Mn81	Mn8	0.743170	0.915380	0.368830
O371	O37	0.598580	0.837400	0.439790
O381	O38	0.186120	0.971200	0.521570
O391	O39	0.351650	0.924000	0.697500
O401	O40	0.127040	0.001900	0.719600
O411	O41	0.019000	0.212400	0.502030
O421	O42	0.191740	0.708100	0.752490
O431	O43	0.606600	0.620400	0.409360
O441	O44	0.153470	0.263300	0.606850
O451	O45	0.961230	0.002300	0.641170
O461	O46	0.184200	0.575300	0.631670
O471	O47	0.512900	0.888400	0.623410
O481	O48	0.346200	0.892600	0.462240
C191	C19	0.447700	0.869000	0.686000
C201	C20	0.169400	0.682800	0.670000
C211	C21	0.073500	0.291900	0.549500
C221	C22	0.018600	0.990800	0.711700
C231	C23	0.565400	0.717700	0.447300
C241	C24	0.241200	0.897200	0.467800
H191	H19	0.518800	0.717800	0.477700
H201	H20	0.054000	0.386900	0.542100
H211	H21	0.145700	0.751000	0.634400
H221	H22	0.978100	0.987000	0.770400
H231	H23	0.191900	0.835800	0.427300
H241	H24	0.479400	0.818300	0.731900
Mn91	Mn9	0.000000	0.500000	0.000000
Mn101	Mn10	0.500000	0.000000	0.500000
Mn111	Mn11	0.500000	0.500000	0.000000
Mn121	Mn12	0.000000	0.000000	0.500000
