data_JIZJUZ_freeONLY_PM
_symmetry_space_group_name_H-M	'P1'
_cell_length_a	15.088300
_cell_length_b	17.531000
_cell_length_c	17.531000
_cell_angle_alpha	90.000000
_cell_angle_beta	90.000000
_cell_angle_gamma	90.000000
_symmetry_Int_Tables_number 1

loop_
_symmetry_equiv_pos_as_xyz
'x,y,z'

loop_
_atom_site_label
_atom_site_type_symbol
_atom_site_fract_x
_atom_site_fract_y
_atom_site_fract_z
Co11	Co1	0.529950	0.599500	0.640810
Co21	Co2	0.970050	0.640810	0.599500
Co31	Co3	0.470050	0.359190	0.599500
Co41	Co4	0.750000	0.648790	0.648790
Co51	Co5	0.250000	0.648790	0.351210
Co61	Co6	0.529950	0.400500	0.359190
Co71	Co7	0.029950	0.400500	0.640810
Co81	Co8	0.470050	0.640810	0.400500
Co91	Co9	0.029950	0.599500	0.359190
Co101	Co10	0.970050	0.359190	0.400500
Co111	Co11	0.750000	0.351210	0.351210
Co121	Co12	0.250000	0.351210	0.648790
H11	H1	0.593000	0.335500	0.083700
H21	H2	0.582900	0.390500	0.960500
H31	H3	0.677000	0.983100	0.377100
H41	H4	0.953500	0.167100	0.628400
H51	H5	0.842400	0.238400	0.515900
H61	H6	0.258900	0.497400	0.742000
H71	H7	0.220300	0.418700	0.272200
H81	H8	0.714600	0.885900	0.636800
H91	H9	0.342400	0.238400	0.484100
H101	H10	0.417100	0.960500	0.609500
H111	H11	0.741100	0.258000	0.497400
H121	H12	0.285400	0.363200	0.885900
H131	H13	0.720300	0.581300	0.272200
H141	H14	0.785400	0.363200	0.114100
H151	H15	0.157600	0.515900	0.761600
H161	H16	0.907000	0.916300	0.664500
H171	H17	0.157600	0.484100	0.238400
H181	H18	0.177000	0.983100	0.622900
H191	H19	0.593000	0.664500	0.916300
H201	H20	0.714600	0.114100	0.363200
H211	H21	0.046500	0.371600	0.167100
H221	H22	0.779700	0.272200	0.581300
H231	H23	0.770600	0.609800	0.484200
H241	H24	0.401700	0.538300	0.756900
H251	H25	0.901700	0.538300	0.243100
H261	H26	0.622200	0.348900	0.211200
H271	H27	0.657600	0.484100	0.761600
H281	H28	0.401700	0.461700	0.243100
H291	H29	0.823000	0.377100	0.983100
H301	H30	0.598300	0.756900	0.461700
H311	H31	0.842400	0.761600	0.484100
H321	H32	0.270600	0.609800	0.515800
H331	H33	0.098300	0.756900	0.538300
H341	H34	0.177000	0.016900	0.377100
H351	H35	0.546500	0.371600	0.832900
H361	H36	0.131600	0.114700	0.455700
H371	H37	0.877800	0.788800	0.651100
H381	H38	0.823000	0.622900	0.016900
H391	H39	0.270600	0.390200	0.484200
H401	H40	0.368400	0.455700	0.114700
H411	H41	0.453500	0.832900	0.628400
H421	H42	0.917100	0.960500	0.390500
H431	H43	0.631600	0.885300	0.455700
H441	H44	0.323000	0.377100	0.016900
H451	H45	0.214600	0.885900	0.363200
H461	H46	0.323000	0.622900	0.983100
H471	H47	0.093000	0.664500	0.083700
H481	H48	0.720300	0.418700	0.727800
H491	H49	0.729400	0.515800	0.390200
H501	H50	0.046500	0.628400	0.832900
H511	H51	0.279700	0.272200	0.418700
H521	H52	0.131600	0.885300	0.544300
H531	H53	0.082900	0.390500	0.039500
H541	H54	0.220300	0.581300	0.727800
H551	H55	0.953500	0.832900	0.371600
H561	H56	0.758900	0.497400	0.258000
H571	H57	0.546500	0.628400	0.167100
H581	H58	0.758900	0.502600	0.742000
H591	H59	0.377800	0.788800	0.348900
H601	H60	0.214600	0.114100	0.636800
H611	H61	0.582900	0.609500	0.039500
H621	H62	0.082900	0.609500	0.960500
H631	H63	0.622200	0.651100	0.788800
H641	H64	0.407000	0.083700	0.664500
H651	H65	0.279700	0.727800	0.581300
H661	H66	0.598300	0.243100	0.538300
H671	H67	0.901700	0.461700	0.756900
H681	H68	0.877800	0.211200	0.348900
H691	H69	0.285400	0.636800	0.114100
H701	H70	0.785400	0.636800	0.885900
H711	H71	0.377800	0.211200	0.651100
H721	H72	0.741100	0.742000	0.502600
H731	H73	0.907000	0.083700	0.335500
H741	H74	0.258900	0.502600	0.258000
H751	H75	0.407000	0.916300	0.335500
H761	H76	0.093000	0.335500	0.916300
H771	H77	0.342400	0.761600	0.515900
H781	H78	0.453500	0.167100	0.371600
H791	H79	0.677000	0.016900	0.622900
H801	H80	0.241100	0.742000	0.497400
H811	H81	0.868400	0.544300	0.114700
H821	H82	0.417100	0.039500	0.390500
H831	H83	0.122200	0.651100	0.211200
H841	H84	0.241100	0.258000	0.502600
H851	H85	0.368400	0.544300	0.885300
H861	H86	0.098300	0.243100	0.461700
H871	H87	0.657600	0.515900	0.238400
H881	H88	0.779700	0.727800	0.418700
H891	H89	0.122200	0.348900	0.788800
H901	H90	0.917100	0.039500	0.609500
H911	H91	0.770600	0.390200	0.515800
H921	H92	0.229400	0.484200	0.390200
H931	H93	0.729400	0.484200	0.609800
H941	H94	0.229400	0.515800	0.609800
H951	H95	0.868400	0.455700	0.885300
H961	H96	0.631600	0.114700	0.544300
C11	C1	0.068700	0.369600	0.808400
C21	C2	0.022600	0.615600	0.946100
C31	C3	0.999300	0.130000	0.626200
C41	C4	0.793400	0.726500	0.473300
C51	C5	0.131600	0.020700	0.622800
C61	C6	0.293400	0.726500	0.526700
C71	C7	0.956100	0.613780	0.001410
C81	C8	0.793400	0.273500	0.526700
C91	C9	0.947600	0.115100	0.362400
C101	C10	0.820200	0.354200	0.503890
C111	C11	0.631600	0.020700	0.377200
C121	C12	0.431300	0.808400	0.369600
C131	C13	0.000700	0.626200	0.870000
C141	C14	0.977400	0.946100	0.384400
C151	C15	0.052400	0.637600	0.115100
C161	C16	0.097710	0.551590	0.624150
C171	C17	0.920900	0.567900	0.133220
C181	C18	0.052400	0.362400	0.884900
C191	C19	0.706600	0.473300	0.726500
C201	C20	0.420900	0.432100	0.133220
C211	C21	0.097710	0.448410	0.375850
C221	C22	0.456100	0.386220	0.001410
C231	C23	0.586900	0.152940	0.366400
C241	C24	0.654400	0.900990	0.632000
C251	C25	0.890200	0.356610	0.235230
C261	C26	0.956100	0.386220	0.998590
C271	C27	0.890200	0.643390	0.764770
C281	C28	0.345600	0.368000	0.900990
C291	C29	0.977400	0.053900	0.615600
C301	C30	0.597710	0.551590	0.375850
C311	C31	0.579100	0.866780	0.432100
C321	C32	0.022600	0.384400	0.053900
C331	C33	0.913100	0.633600	0.847060
C341	C34	0.522600	0.615600	0.053900
C351	C35	0.477400	0.053900	0.384400
C361	C36	0.368400	0.377200	0.979300
C371	C37	0.402290	0.375850	0.448410
C381	C38	0.068700	0.630400	0.191600
C391	C39	0.413100	0.366400	0.847060
C401	C40	0.320200	0.354200	0.496110
C411	C41	0.706600	0.526700	0.273500
C421	C42	0.631600	0.979300	0.622800
C431	C43	0.000700	0.373800	0.130000
C441	C44	0.523100	0.083420	0.605570
C451	C45	0.456100	0.613780	0.998590
C461	C46	0.206600	0.473300	0.273500
C471	C47	0.447600	0.115100	0.637600
C481	C48	0.976900	0.394430	0.916580
C491	C49	0.999300	0.870000	0.373800
C501	C50	0.441300	0.564470	0.789940
C511	C51	0.558700	0.789940	0.435530
C521	C52	0.131600	0.979300	0.377200
C531	C53	0.206600	0.526700	0.726500
C541	C54	0.079100	0.866780	0.567900
C551	C55	0.920900	0.432100	0.866780
C561	C56	0.043900	0.998590	0.613780
C571	C57	0.543900	0.998590	0.386220
C581	C58	0.552400	0.637600	0.884900
C591	C59	0.579100	0.133220	0.567900
C601	C60	0.043900	0.001410	0.386220
C611	C61	0.597710	0.448410	0.624150
C621	C62	0.499300	0.870000	0.626200
C631	C63	0.477400	0.946100	0.615600
C641	C64	0.154400	0.900990	0.368000
C651	C65	0.058700	0.789940	0.564470
C661	C66	0.390200	0.643390	0.235230
C671	C67	0.552400	0.362400	0.115100
C681	C68	0.941300	0.435530	0.789940
C691	C69	0.413100	0.633600	0.152940
C701	C70	0.568700	0.630400	0.808400
C711	C71	0.543900	0.001410	0.613780
C721	C72	0.902290	0.624150	0.448410
C731	C73	0.293400	0.273500	0.473300
C741	C74	0.868400	0.377200	0.020700
C751	C75	0.079100	0.133220	0.432100
C761	C76	0.476900	0.394430	0.083420
C771	C77	0.931300	0.808400	0.630400
C781	C78	0.868400	0.622800	0.979300
C791	C79	0.154400	0.099010	0.632000
C801	C80	0.023100	0.083420	0.394430
C811	C81	0.179800	0.496110	0.354200
C821	C82	0.902290	0.375850	0.551590
C831	C83	0.402290	0.624150	0.551590
C841	C84	0.390200	0.356610	0.764770
C851	C85	0.109800	0.764770	0.356610
C861	C86	0.441300	0.435530	0.210060
C871	C87	0.500700	0.373800	0.870000
C881	C88	0.058700	0.210060	0.435530
C891	C89	0.609800	0.764770	0.643390
C901	C90	0.086900	0.152940	0.633600
C911	C91	0.522600	0.384400	0.946100
C921	C92	0.941300	0.564470	0.210060
C931	C93	0.431300	0.191600	0.630400
C941	C94	0.947600	0.884900	0.637600
C951	C95	0.586900	0.847060	0.633600
C961	C96	0.820200	0.645800	0.496110
C971	C97	0.476900	0.605570	0.916580
C981	C98	0.447600	0.884900	0.362400
C991	C99	0.320200	0.645800	0.503890
C1001	C100	0.679800	0.496110	0.645800
C1011	C101	0.086900	0.847060	0.366400
C1021	C102	0.523100	0.916580	0.394430
C1031	C103	0.609800	0.235230	0.356610
C1041	C104	0.109800	0.235230	0.643390
C1051	C105	0.568700	0.369600	0.191600
C1061	C106	0.023100	0.916580	0.605570
C1071	C107	0.654400	0.099010	0.368000
C1081	C108	0.420900	0.567900	0.866780
C1091	C109	0.368400	0.622800	0.020700
C1101	C110	0.845600	0.368000	0.099010
C1111	C111	0.913100	0.366400	0.152940
C1121	C112	0.345600	0.632000	0.099010
C1131	C113	0.179800	0.503890	0.645800
C1141	C114	0.679800	0.503890	0.354200
C1151	C115	0.931300	0.191600	0.369600
C1161	C116	0.499300	0.130000	0.373800
C1171	C117	0.976900	0.605570	0.083420
C1181	C118	0.500700	0.626200	0.130000
C1191	C119	0.558700	0.210060	0.564470
C1201	C120	0.845600	0.632000	0.900990
N11	N1	0.513580	0.403990	0.240150
N21	N2	0.486420	0.240150	0.596010
N31	N3	0.486420	0.759850	0.403990
N41	N4	0.013580	0.596010	0.240150
N51	N5	0.986420	0.240150	0.403990
N61	N6	0.986420	0.759850	0.596010
N71	N7	0.513580	0.596010	0.759850
N81	N8	0.013580	0.403990	0.759850
O11	O1	0.023080	0.519290	0.622400
O21	O2	0.808280	0.649390	0.749000
O31	O3	0.658390	0.425800	0.359460
O41	O4	0.658390	0.574200	0.640540
O51	O5	0.394230	0.387370	0.377910
O61	O6	0.841610	0.359460	0.425800
O71	O7	0.105770	0.377910	0.387370
O81	O8	0.808280	0.350610	0.251000
O91	O9	0.158390	0.574200	0.359460
O101	O10	0.191720	0.749000	0.350610
O111	O11	0.841610	0.640540	0.574200
O121	O12	0.308280	0.350610	0.749000
O131	O13	0.523080	0.519290	0.377600
O141	O14	0.523080	0.480710	0.622400
O151	O15	0.341610	0.640540	0.425800
O161	O16	0.476920	0.622400	0.519290
O171	O17	0.546590	0.282760	0.356300
O181	O18	0.976920	0.377600	0.519290
O191	O19	0.158390	0.425800	0.640540
O201	O20	0.894230	0.387370	0.622090
O211	O21	0.546590	0.717240	0.643700
O221	O22	0.691720	0.251000	0.350610
O231	O23	0.476920	0.377600	0.480710
O241	O24	0.105770	0.622090	0.612630
O251	O25	0.976920	0.622400	0.480710
O261	O26	0.894230	0.612630	0.377910
O271	O27	0.191720	0.251000	0.649390
O281	O28	0.046590	0.717240	0.356300
O291	O29	0.046590	0.282760	0.643700
O301	O30	0.605770	0.377910	0.612630
O311	O31	0.953410	0.356300	0.282760
O321	O32	0.453410	0.643700	0.282760
O331	O33	0.953410	0.643700	0.717240
O341	O34	0.341610	0.359460	0.574200
O351	O35	0.023080	0.480710	0.377600
O361	O36	0.308280	0.649390	0.251000
O371	O37	0.453410	0.356300	0.717240
O381	O38	0.691720	0.749000	0.649390
O391	O39	0.605770	0.622090	0.387370
O401	O40	0.394230	0.612630	0.622090
