data_JIZJAF_freeONLY_PM
_symmetry_space_group_name_H-M	'P1'
_cell_length_a	17.520700
_cell_length_b	17.520700
_cell_length_c	15.126100
_cell_angle_alpha	90.000000
_cell_angle_beta	90.000000
_cell_angle_gamma	90.000000
_symmetry_Int_Tables_number 1

loop_
_symmetry_equiv_pos_as_xyz
'x,y,z'

loop_
_atom_site_label
_atom_site_type_symbol
_atom_site_fract_x
_atom_site_fract_y
_atom_site_fract_z
Co11	Co1	0.899330	0.140930	0.969330
C11	C1	0.050700	0.125500	0.902600
C21	C2	0.004500	0.145900	0.822400
H11	H1	0.017600	0.109800	0.773500
C31	C3	0.026600	0.226400	0.794600
H21	H2	0.999000	0.240200	0.740500
H31	H3	0.081700	0.228600	0.783500
H41	H4	0.013400	0.262300	0.841800
C41	C4	0.735400	0.141000	0.888800
C51	C5	0.652500	0.131000	0.910900
C61	C6	0.630700	0.121000	0.997200
H51	H5	0.668000	0.121500	0.042700
C71	C7	0.554600	0.110100	0.018200
H61	H6	0.540400	0.100600	0.077800
C81	C8	0.498100	0.113000	0.952100
C91	C9	0.521200	0.124100	0.865300
H71	H7	0.484000	0.125800	0.819700
C101	C10	0.597900	0.132800	0.844200
H81	H8	0.613000	0.140000	0.784400
C111	C11	0.416000	0.105500	0.974800
C121	C12	0.365600	0.069700	0.918100
H91	H9	0.383600	0.046300	0.865400
C131	C13	0.288500	0.068100	0.938700
H101	H10	0.254400	0.045100	0.897800
C141	C14	0.309200	0.130000	0.068700
H111	H11	0.290100	0.151000	0.122200
C151	C15	0.386600	0.134700	0.052000
H121	H12	0.419500	0.158100	0.093900
N11	N1	0.260000	0.097100	0.012800
O11	O1	0.121630	0.113500	0.896400
O21	O2	0.017820	0.122230	0.977200
O31	O3	0.925850	0.139490	0.841500
O41	O4	0.750990	0.148100	0.807000
O51	O5	0.782750	0.141880	0.951100
Co21	Co2	0.100670	0.859070	0.969330
C161	C16	0.949300	0.874500	0.902600
C171	C17	0.995500	0.854100	0.822400
H131	H13	0.982400	0.890200	0.773500
C181	C18	0.973400	0.773600	0.794600
H141	H14	0.001000	0.759800	0.740500
H151	H15	0.918300	0.771400	0.783500
H161	H16	0.986600	0.737700	0.841800
C191	C19	0.264600	0.859000	0.888800
C201	C20	0.347500	0.869000	0.910900
C211	C21	0.369300	0.879000	0.997200
H171	H17	0.332000	0.878500	0.042700
C221	C22	0.445400	0.889900	0.018200
H181	H18	0.459600	0.899400	0.077800
C231	C23	0.501900	0.887000	0.952100
C241	C24	0.478800	0.875900	0.865300
H191	H19	0.516000	0.874200	0.819700
C251	C25	0.402100	0.867200	0.844200
H201	H20	0.387000	0.860000	0.784400
C261	C26	0.584000	0.894500	0.974800
C271	C27	0.634400	0.930300	0.918100
H211	H21	0.616400	0.953700	0.865400
C281	C28	0.711500	0.931900	0.938700
H221	H22	0.745600	0.954900	0.897800
C291	C29	0.690800	0.870000	0.068700
H231	H23	0.709900	0.849000	0.122200
C301	C30	0.613400	0.865300	0.052000
H241	H24	0.580500	0.841900	0.093900
N21	N2	0.740000	0.902900	0.012800
O61	O6	0.878370	0.886500	0.896400
O71	O7	0.982180	0.877770	0.977200
O81	O8	0.074150	0.860510	0.841500
O91	O9	0.249010	0.851900	0.807000
O101	O10	0.217250	0.858120	0.951100
Co31	Co3	0.140930	0.100670	0.030670
C311	C31	0.125500	0.949300	0.097400
C321	C32	0.145900	0.995500	0.177600
H251	H25	0.109800	0.982400	0.226500
C331	C33	0.226400	0.973400	0.205400
H261	H26	0.240200	0.001000	0.259500
H271	H27	0.228600	0.918300	0.216500
H281	H28	0.262300	0.986600	0.158200
C341	C34	0.141000	0.264600	0.111200
C351	C35	0.131000	0.347500	0.089100
C361	C36	0.121000	0.369300	0.002800
H291	H29	0.121500	0.332000	0.957300
C371	C37	0.110100	0.445400	0.981800
H301	H30	0.100600	0.459600	0.922200
C381	C38	0.113000	0.501900	0.047900
C391	C39	0.124100	0.478800	0.134700
H311	H31	0.125800	0.516000	0.180300
C401	C40	0.132800	0.402100	0.155800
H321	H32	0.140000	0.387000	0.215600
C411	C41	0.105500	0.584000	0.025200
C421	C42	0.069700	0.634400	0.081900
H331	H33	0.046300	0.616400	0.134600
C431	C43	0.068100	0.711500	0.061300
H341	H34	0.045100	0.745600	0.102200
C441	C44	0.130000	0.690800	0.931300
H351	H35	0.151000	0.709900	0.877800
C451	C45	0.134700	0.613400	0.948000
H361	H36	0.158100	0.580500	0.906100
N31	N3	0.097100	0.740000	0.987200
O111	O11	0.113500	0.878370	0.103600
O121	O12	0.122230	0.982180	0.022800
O131	O13	0.139490	0.074150	0.158500
O141	O14	0.148100	0.249010	0.193000
O151	O15	0.141880	0.217250	0.048900
Co41	Co4	0.859070	0.899330	0.030670
C461	C46	0.874500	0.050700	0.097400
C471	C47	0.854100	0.004500	0.177600
H371	H37	0.890200	0.017600	0.226500
C481	C48	0.773600	0.026600	0.205400
H381	H38	0.759800	0.999000	0.259500
H391	H39	0.771400	0.081700	0.216500
H401	H40	0.737700	0.013400	0.158200
C491	C49	0.859000	0.735400	0.111200
C501	C50	0.869000	0.652500	0.089100
C511	C51	0.879000	0.630700	0.002800
H411	H41	0.878500	0.668000	0.957300
C521	C52	0.889900	0.554600	0.981800
H421	H42	0.899400	0.540400	0.922200
C531	C53	0.887000	0.498100	0.047900
C541	C54	0.875900	0.521200	0.134700
H431	H43	0.874200	0.484000	0.180300
C551	C55	0.867200	0.597900	0.155800
H441	H44	0.860000	0.613000	0.215600
C561	C56	0.894500	0.416000	0.025200
C571	C57	0.930300	0.365600	0.081900
H451	H45	0.953700	0.383600	0.134600
C581	C58	0.931900	0.288500	0.061300
H461	H46	0.954900	0.254400	0.102200
C591	C59	0.870000	0.309200	0.931300
H471	H47	0.849000	0.290100	0.877800
C601	C60	0.865300	0.386600	0.948000
H481	H48	0.841900	0.419500	0.906100
N41	N4	0.902900	0.260000	0.987200
O161	O16	0.886500	0.121630	0.103600
O171	O17	0.877770	0.017820	0.022800
O181	O18	0.860510	0.925850	0.158500
O191	O19	0.851900	0.750990	0.193000
O201	O20	0.858120	0.782750	0.048900
Co51	Co5	0.899330	0.859070	0.469330
C611	C61	0.050700	0.874500	0.402600
C621	C62	0.004500	0.854100	0.322400
H491	H49	0.017600	0.890200	0.273500
C631	C63	0.026600	0.773600	0.294600
H501	H50	0.999000	0.759800	0.240500
H511	H51	0.081700	0.771400	0.283500
H521	H52	0.013400	0.737700	0.341800
C641	C64	0.735400	0.859000	0.388800
C651	C65	0.652500	0.869000	0.410900
C661	C66	0.630700	0.879000	0.497200
H531	H53	0.668000	0.878500	0.542700
C671	C67	0.554600	0.889900	0.518200
H541	H54	0.540400	0.899400	0.577800
C681	C68	0.498100	0.887000	0.452100
C691	C69	0.521200	0.875900	0.365300
H551	H55	0.484000	0.874200	0.319700
C701	C70	0.597900	0.867200	0.344200
H561	H56	0.613000	0.860000	0.284400
C711	C71	0.416000	0.894500	0.474800
C721	C72	0.365600	0.930300	0.418100
H571	H57	0.383600	0.953700	0.365400
C731	C73	0.288500	0.931900	0.438700
H581	H58	0.254400	0.954900	0.397800
C741	C74	0.309200	0.870000	0.568700
H591	H59	0.290100	0.849000	0.622200
C751	C75	0.386600	0.865300	0.552000
H601	H60	0.419500	0.841900	0.593900
N51	N5	0.260000	0.902900	0.512800
O211	O21	0.121630	0.886500	0.396400
O221	O22	0.017820	0.877770	0.477200
O231	O23	0.925850	0.860510	0.341500
O241	O24	0.750990	0.851900	0.307000
O251	O25	0.782750	0.858120	0.451100
Co61	Co6	0.100670	0.140930	0.469330
C761	C76	0.949300	0.125500	0.402600
C771	C77	0.995500	0.145900	0.322400
H611	H61	0.982400	0.109800	0.273500
C781	C78	0.973400	0.226400	0.294600
H621	H62	0.001000	0.240200	0.240500
H631	H63	0.918300	0.228600	0.283500
H641	H64	0.986600	0.262300	0.341800
C791	C79	0.264600	0.141000	0.388800
C801	C80	0.347500	0.131000	0.410900
C811	C81	0.369300	0.121000	0.497200
H651	H65	0.332000	0.121500	0.542700
C821	C82	0.445400	0.110100	0.518200
H661	H66	0.459600	0.100600	0.577800
C831	C83	0.501900	0.113000	0.452100
C841	C84	0.478800	0.124100	0.365300
H671	H67	0.516000	0.125800	0.319700
C851	C85	0.402100	0.132800	0.344200
H681	H68	0.387000	0.140000	0.284400
C861	C86	0.584000	0.105500	0.474800
C871	C87	0.634400	0.069700	0.418100
H691	H69	0.616400	0.046300	0.365400
C881	C88	0.711500	0.068100	0.438700
H701	H70	0.745600	0.045100	0.397800
C891	C89	0.690800	0.130000	0.568700
H711	H71	0.709900	0.151000	0.622200
C901	C90	0.613400	0.134700	0.552000
H721	H72	0.580500	0.158100	0.593900
N61	N6	0.740000	0.097100	0.512800
O261	O26	0.878370	0.113500	0.396400
O271	O27	0.982180	0.122230	0.477200
O281	O28	0.074150	0.139490	0.341500
O291	O29	0.249010	0.148100	0.307000
O301	O30	0.217250	0.141880	0.451100
Co71	Co7	0.140930	0.899330	0.530670
C911	C91	0.125500	0.050700	0.597400
C921	C92	0.145900	0.004500	0.677600
H731	H73	0.109800	0.017600	0.726500
C931	C93	0.226400	0.026600	0.705400
H741	H74	0.240200	0.999000	0.759500
H751	H75	0.228600	0.081700	0.716500
H761	H76	0.262300	0.013400	0.658200
C941	C94	0.141000	0.735400	0.611200
C951	C95	0.131000	0.652500	0.589100
C961	C96	0.121000	0.630700	0.502800
H771	H77	0.121500	0.668000	0.457300
C971	C97	0.110100	0.554600	0.481800
H781	H78	0.100600	0.540400	0.422200
C981	C98	0.113000	0.498100	0.547900
C991	C99	0.124100	0.521200	0.634700
H791	H79	0.125800	0.484000	0.680300
C1001	C100	0.132800	0.597900	0.655800
H801	H80	0.140000	0.613000	0.715600
C1011	C101	0.105500	0.416000	0.525200
C1021	C102	0.069700	0.365600	0.581900
H811	H81	0.046300	0.383600	0.634600
C1031	C103	0.068100	0.288500	0.561300
H821	H82	0.045100	0.254400	0.602200
C1041	C104	0.130000	0.309200	0.431300
H831	H83	0.151000	0.290100	0.377800
C1051	C105	0.134700	0.386600	0.448000
H841	H84	0.158100	0.419500	0.406100
N71	N7	0.097100	0.260000	0.487200
O311	O31	0.113500	0.121630	0.603600
O321	O32	0.122230	0.017820	0.522800
O331	O33	0.139490	0.925850	0.658500
O341	O34	0.148100	0.750990	0.693000
O351	O35	0.141880	0.782750	0.548900
Co81	Co8	0.859070	0.100670	0.530670
C1061	C106	0.874500	0.949300	0.597400
C1071	C107	0.854100	0.995500	0.677600
H851	H85	0.890200	0.982400	0.726500
C1081	C108	0.773600	0.973400	0.705400
H861	H86	0.759800	0.001000	0.759500
H871	H87	0.771400	0.918300	0.716500
H881	H88	0.737700	0.986600	0.658200
C1091	C109	0.859000	0.264600	0.611200
C1101	C110	0.869000	0.347500	0.589100
C1111	C111	0.879000	0.369300	0.502800
H891	H89	0.878500	0.332000	0.457300
C1121	C112	0.889900	0.445400	0.481800
H901	H90	0.899400	0.459600	0.422200
C1131	C113	0.887000	0.501900	0.547900
C1141	C114	0.875900	0.478800	0.634700
H911	H91	0.874200	0.516000	0.680300
C1151	C115	0.867200	0.402100	0.655800
H921	H92	0.860000	0.387000	0.715600
C1161	C116	0.894500	0.584000	0.525200
C1171	C117	0.930300	0.634400	0.581900
H931	H93	0.953700	0.616400	0.634600
C1181	C118	0.931900	0.711500	0.561300
H941	H94	0.954900	0.745600	0.602200
C1191	C119	0.870000	0.690800	0.431300
H951	H95	0.849000	0.709900	0.377800
C1201	C120	0.865300	0.613400	0.448000
H961	H96	0.841900	0.580500	0.406100
N81	N8	0.902900	0.740000	0.487200
O361	O36	0.886500	0.878370	0.603600
O371	O37	0.877770	0.982180	0.522800
O381	O38	0.860510	0.074150	0.658500
O391	O39	0.851900	0.249010	0.693000
O401	O40	0.858120	0.217250	0.548900
Co91	Co9	0.851640	0.148360	0.750000
Co101	Co10	0.148360	0.851640	0.750000
Co111	Co11	0.148360	0.148360	0.250000
Co121	Co12	0.851640	0.851640	0.250000
