data_JOFKIA01_freeONLY_PM
_symmetry_space_group_name_H-M	'P1'
_cell_length_a	21.537300
_cell_length_b	21.537300
_cell_length_c	8.875300
_cell_angle_alpha	90.000000
_cell_angle_beta	90.000000
_cell_angle_gamma	120.000000
_symmetry_Int_Tables_number 1

loop_
_symmetry_equiv_pos_as_xyz
'x,y,z'

loop_
_atom_site_label
_atom_site_type_symbol
_atom_site_fract_x
_atom_site_fract_y
_atom_site_fract_z
Cu11	Cu1	0.296800	0.174450	0.464470
C11	C1	0.265830	0.009830	0.750000
C21	C2	0.246270	0.032490	0.530400
C31	C3	0.215950	0.030690	0.379600
H11	H1	0.399000	0.224000	0.212000
H21	H2	0.427900	0.220000	0.351000
N11	N1	0.303550	0.081230	0.734300
N21	N2	0.265870	0.974810	0.877300
H31	H3	0.291100	0.998600	0.953700
H41	H4	0.240700	0.928800	0.881500
N31	N3	0.290090	0.094670	0.590100
N41	N4	0.230160	0.977030	0.623500
O11	O1	0.237970	0.093240	0.325100
O21	O2	0.173150	0.973090	0.322100
O31	O3	0.393320	0.213200	0.302300
Cu21	Cu2	0.963470	0.507790	0.797800
C41	C4	0.932500	0.343160	0.083330
C51	C5	0.912940	0.365820	0.863730
C61	C6	0.882620	0.364020	0.712930
H51	H5	0.065670	0.557330	0.545330
H61	H6	0.094570	0.553330	0.684330
N51	N5	0.970220	0.414560	0.067630
N61	N6	0.932540	0.308140	0.210630
H71	H7	0.957770	0.331930	0.287030
H81	H8	0.907370	0.262130	0.214830
N71	N7	0.956760	0.428000	0.923430
N81	N8	0.896830	0.310360	0.956830
O41	O4	0.904640	0.426570	0.658430
O51	O5	0.839820	0.306420	0.655430
O61	O6	0.059990	0.546530	0.635630
Cu31	Cu3	0.630130	0.841120	0.131140
C71	C7	0.599160	0.676500	0.416670
C81	C8	0.579600	0.699160	0.197070
C91	C9	0.549280	0.697360	0.046270
H91	H9	0.732330	0.890670	0.878670
H101	H10	0.761230	0.886670	0.017670
N91	N9	0.636880	0.747900	0.400970
N101	N10	0.599200	0.641480	0.543970
H111	H11	0.624430	0.665270	0.620370
H121	H12	0.574030	0.595470	0.548170
N111	N11	0.623420	0.761340	0.256770
N121	N12	0.563490	0.643700	0.290170
O71	O7	0.571300	0.759910	0.991770
O81	O8	0.506480	0.639760	0.988770
O91	O9	0.726650	0.879870	0.968970
Cu41	Cu4	0.825550	0.122350	0.464470
C101	C10	0.990170	0.256000	0.750000
C111	C11	0.967510	0.213780	0.530400
C121	C12	0.969310	0.185260	0.379600
H131	H13	0.776000	0.175000	0.212000
H141	H14	0.780000	0.207900	0.351000
N131	N13	0.918770	0.222320	0.734300
N141	N14	0.025190	0.291060	0.877300
H151	H15	0.001400	0.292500	0.953700
H161	H16	0.071200	0.311900	0.881500
N151	N15	0.905330	0.195420	0.590100
N161	N16	0.022970	0.253130	0.623500
O101	O10	0.906760	0.144730	0.325100
O111	O11	0.026910	0.200060	0.322100
O121	O12	0.786800	0.180120	0.302300
Cu51	Cu5	0.492210	0.455680	0.797800
C131	C13	0.656840	0.589330	0.083330
C141	C14	0.634180	0.547110	0.863730
C151	C15	0.635980	0.518590	0.712930
H171	H17	0.442670	0.508330	0.545330
H181	H18	0.446670	0.541230	0.684330
N171	N17	0.585440	0.555650	0.067630
N181	N18	0.691860	0.624390	0.210630
H191	H19	0.668070	0.625830	0.287030
H201	H20	0.737870	0.645230	0.214830
N191	N19	0.572000	0.528750	0.923430
N201	N20	0.689640	0.586460	0.956830
O131	O13	0.573430	0.478060	0.658430
O141	O14	0.693580	0.533390	0.655430
O151	O15	0.453470	0.513450	0.635630
Cu61	Cu6	0.158880	0.789010	0.131140
C161	C16	0.323500	0.922670	0.416670
C171	C17	0.300840	0.880450	0.197070
C181	C18	0.302640	0.851930	0.046270
H211	H21	0.109330	0.841670	0.878670
H221	H22	0.113330	0.874570	0.017670
N211	N21	0.252100	0.888990	0.400970
N221	N22	0.358520	0.957730	0.543970
H231	H23	0.334730	0.959170	0.620370
H241	H24	0.404530	0.978570	0.548170
N231	N23	0.238660	0.862090	0.256770
N241	N24	0.356300	0.919800	0.290170
O161	O16	0.240090	0.811400	0.991770
O171	O17	0.360240	0.866730	0.988770
O181	O18	0.120130	0.846790	0.968970
Cu71	Cu7	0.877650	0.703200	0.464470
C191	C19	0.744000	0.734170	0.750000
C201	C20	0.786220	0.753730	0.530400
C211	C21	0.814740	0.784050	0.379600
H251	H25	0.825000	0.601000	0.212000
H261	H26	0.792100	0.572100	0.351000
N251	N25	0.777680	0.696450	0.734300
N261	N26	0.708940	0.734130	0.877300
H271	H27	0.707500	0.708900	0.953700
H281	H28	0.688100	0.759300	0.881500
N271	N27	0.804580	0.709910	0.590100
N281	N28	0.746870	0.769840	0.623500
O191	O19	0.855270	0.762030	0.325100
O201	O20	0.799940	0.826850	0.322100
O211	O21	0.819880	0.606680	0.302300
Cu81	Cu8	0.544320	0.036530	0.797800
C221	C22	0.410670	0.067500	0.083330
C231	C23	0.452890	0.087060	0.863730
C241	C24	0.481410	0.117380	0.712930
H291	H29	0.491670	0.934330	0.545330
H301	H30	0.458770	0.905430	0.684330
N291	N29	0.444350	0.029780	0.067630
N301	N30	0.375610	0.067460	0.210630
H311	H31	0.374170	0.042230	0.287030
H321	H32	0.354770	0.092630	0.214830
N311	N31	0.471250	0.043240	0.923430
N321	N32	0.413540	0.103170	0.956830
O221	O22	0.521940	0.095360	0.658430
O231	O23	0.466610	0.160180	0.655430
O241	O24	0.486550	0.940010	0.635630
Cu91	Cu9	0.210990	0.369870	0.131140
C251	C25	0.077330	0.400840	0.416670
C261	C26	0.119550	0.420400	0.197070
C271	C27	0.148070	0.450720	0.046270
H331	H33	0.158330	0.267670	0.878670
H341	H34	0.125430	0.238770	0.017670
N331	N33	0.111010	0.363120	0.400970
N341	N34	0.042270	0.400800	0.543970
H351	H35	0.040830	0.375570	0.620370
H361	H36	0.021430	0.425970	0.548170
N351	N35	0.137910	0.376580	0.256770
N361	N36	0.080200	0.436510	0.290170
O251	O25	0.188600	0.428700	0.991770
O261	O26	0.133270	0.493520	0.988770
O271	O27	0.153210	0.273350	0.968970
Cu101	Cu10	0.703200	0.825550	0.535530
C281	C28	0.734170	0.990170	0.250000
C291	C29	0.753730	0.967510	0.469600
C301	C30	0.784050	0.969310	0.620400
H371	H37	0.601000	0.776000	0.788000
H381	H38	0.572100	0.780000	0.649000
N371	N37	0.696450	0.918770	0.265700
N381	N38	0.734130	0.025190	0.122700
H391	H39	0.708900	0.001400	0.046300
H401	H40	0.759300	0.071200	0.118500
N391	N39	0.709910	0.905330	0.409900
N401	N40	0.769840	0.022970	0.376500
O281	O28	0.762030	0.906760	0.674900
O291	O29	0.826850	0.026910	0.677900
O301	O30	0.606680	0.786800	0.697700
Cu111	Cu11	0.369870	0.158880	0.868860
C311	C31	0.400840	0.323500	0.583330
C321	C32	0.420400	0.300840	0.802930
C331	C33	0.450720	0.302640	0.953730
H411	H41	0.267670	0.109330	0.121330
H421	H42	0.238770	0.113330	0.982330
N411	N41	0.363120	0.252100	0.599030
N421	N42	0.400800	0.358520	0.456030
H431	H43	0.375570	0.334730	0.379630
H441	H44	0.425970	0.404530	0.451830
N431	N43	0.376580	0.238660	0.743230
N441	N44	0.436510	0.356300	0.709830
O311	O31	0.428700	0.240090	0.008230
O321	O32	0.493520	0.360240	0.011230
O331	O33	0.273350	0.120130	0.031030
Cu121	Cu12	0.036530	0.492210	0.202200
C341	C34	0.067500	0.656840	0.916670
C351	C35	0.087060	0.634180	0.136270
C361	C36	0.117380	0.635980	0.287070
H451	H45	0.934330	0.442670	0.454670
H461	H46	0.905430	0.446670	0.315670
N451	N45	0.029780	0.585440	0.932370
N461	N46	0.067460	0.691860	0.789370
H471	H47	0.042230	0.668070	0.712970
H481	H48	0.092630	0.737870	0.785170
N471	N47	0.043240	0.572000	0.076570
N481	N48	0.103170	0.689640	0.043170
O341	O34	0.095360	0.573430	0.341570
O351	O35	0.160180	0.693580	0.344570
O361	O36	0.940010	0.453470	0.364370
Cu131	Cu13	0.174450	0.877650	0.535530
C371	C37	0.009830	0.744000	0.250000
C381	C38	0.032490	0.786220	0.469600
C391	C39	0.030690	0.814740	0.620400
H491	H49	0.224000	0.825000	0.788000
H501	H50	0.220000	0.792100	0.649000
N491	N49	0.081230	0.777680	0.265700
N501	N50	0.974810	0.708940	0.122700
H511	H51	0.998600	0.707500	0.046300
H521	H52	0.928800	0.688100	0.118500
N511	N51	0.094670	0.804580	0.409900
N521	N52	0.977030	0.746870	0.376500
O371	O37	0.093240	0.855270	0.674900
O381	O38	0.973090	0.799940	0.677900
O391	O39	0.213200	0.819880	0.697700
Cu141	Cu14	0.841120	0.210990	0.868860
C401	C40	0.676500	0.077330	0.583330
C411	C41	0.699160	0.119550	0.802930
C421	C42	0.697360	0.148070	0.953730
H531	H53	0.890670	0.158330	0.121330
H541	H54	0.886670	0.125430	0.982330
N531	N53	0.747900	0.111010	0.599030
N541	N54	0.641480	0.042270	0.456030
H551	H55	0.665270	0.040830	0.379630
H561	H56	0.595470	0.021430	0.451830
N551	N55	0.761340	0.137910	0.743230
N561	N56	0.643700	0.080200	0.709830
O401	O40	0.759910	0.188600	0.008230
O411	O41	0.639760	0.133270	0.011230
O421	O42	0.879870	0.153210	0.031030
Cu151	Cu15	0.507790	0.544320	0.202200
C431	C43	0.343160	0.410670	0.916670
C441	C44	0.365820	0.452890	0.136270
C451	C45	0.364020	0.481410	0.287070
H571	H57	0.557330	0.491670	0.454670
H581	H58	0.553330	0.458770	0.315670
N571	N57	0.414560	0.444350	0.932370
N581	N58	0.308140	0.375610	0.789370
H591	H59	0.331930	0.374170	0.712970
H601	H60	0.262130	0.354770	0.785170
N591	N59	0.428000	0.471250	0.076570
N601	N60	0.310360	0.413540	0.043170
O431	O43	0.426570	0.521940	0.341570
O441	O44	0.306420	0.466610	0.344570
O451	O45	0.546530	0.486550	0.364370
Cu161	Cu16	0.122350	0.296800	0.535530
C461	C46	0.256000	0.265830	0.250000
C471	C47	0.213780	0.246270	0.469600
C481	C48	0.185260	0.215950	0.620400
H611	H61	0.175000	0.399000	0.788000
H621	H62	0.207900	0.427900	0.649000
N611	N61	0.222320	0.303550	0.265700
N621	N62	0.291060	0.265870	0.122700
H631	H63	0.292500	0.291100	0.046300
H641	H64	0.311900	0.240700	0.118500
N631	N63	0.195420	0.290090	0.409900
N641	N64	0.253130	0.230160	0.376500
O461	O46	0.144730	0.237970	0.674900
O471	O47	0.200060	0.173150	0.677900
O481	O48	0.180120	0.393320	0.697700
Cu171	Cu17	0.789010	0.630130	0.868860
C491	C49	0.922670	0.599160	0.583330
C501	C50	0.880450	0.579600	0.802930
C511	C51	0.851930	0.549280	0.953730
H651	H65	0.841670	0.732330	0.121330
H661	H66	0.874570	0.761230	0.982330
N651	N65	0.888990	0.636880	0.599030
N661	N66	0.957730	0.599200	0.456030
H671	H67	0.959170	0.624430	0.379630
H681	H68	0.978570	0.574030	0.451830
N671	N67	0.862090	0.623420	0.743230
N681	N68	0.919800	0.563490	0.709830
O491	O49	0.811400	0.571300	0.008230
O501	O50	0.866730	0.506480	0.011230
O511	O51	0.846790	0.726650	0.031030
Cu181	Cu18	0.455680	0.963470	0.202200
C521	C52	0.589330	0.932500	0.916670
C531	C53	0.547110	0.912940	0.136270
C541	C54	0.518590	0.882620	0.287070
H691	H69	0.508330	0.065670	0.454670
H701	H70	0.541230	0.094570	0.315670
N691	N69	0.555650	0.970220	0.932370
N701	N70	0.624390	0.932540	0.789370
H711	H71	0.625830	0.957770	0.712970
H721	H72	0.645230	0.907370	0.785170
N711	N71	0.528750	0.956760	0.076570
N721	N72	0.586460	0.896830	0.043170
O521	O52	0.478060	0.904640	0.341570
O531	O53	0.533390	0.839820	0.344570
O541	O54	0.513450	0.059990	0.364370
