data_JOGSAA_freeONLY_PM
_symmetry_space_group_name_H-M	'P1'
_cell_length_a	15.072100
_cell_length_b	24.769400
_cell_length_c	15.170700
_cell_angle_alpha	90.000000
_cell_angle_beta	110.541000
_cell_angle_gamma	90.000000
_symmetry_Int_Tables_number 1

loop_
_symmetry_equiv_pos_as_xyz
'x,y,z'

loop_
_atom_site_label
_atom_site_type_symbol
_atom_site_fract_x
_atom_site_fract_y
_atom_site_fract_z
Ni11	Ni1	0.396210	0.522270	0.108120
C11	C1	0.209500	0.495900	0.130100
H11	H1	0.248300	0.484300	0.189400
C21	C2	0.110700	0.490400	0.104000
H21	H2	0.084800	0.477800	0.147400
C31	C3	0.052700	0.503500	0.014400
C41	C4	0.094500	0.522500	0.956000
H31	H3	0.057100	0.531700	0.894800
C51	C5	0.192700	0.528900	0.984200
H41	H4	0.219600	0.541300	0.941400
C61	C6	0.322700	0.636300	0.080700
C71	C7	0.322300	0.691800	0.081900
H51	H5	0.265200	0.710100	0.056200
C81	C8	0.404000	0.720200	0.119800
C91	C9	0.479700	0.691700	0.150500
H61	H6	0.538100	0.709100	0.172800
C101	C10	0.476800	0.633200	0.151500
H71	H7	0.532300	0.614100	0.182100
C111	C11	0.546500	0.498300	0.044000
C121	C12	0.495300	0.479600	0.298300
H81	H8	0.517200	0.455600	0.263400
C131	C13	0.520700	0.472800	0.394200
H91	H9	0.561600	0.444700	0.422600
C141	C14	0.489000	0.505400	0.449900
C151	C15	0.433400	0.548700	0.401900
H101	H10	0.410500	0.573500	0.434800
C161	C16	0.412300	0.555000	0.307000
H111	H11	0.377400	0.585200	0.278200
N11	N1	0.438000	0.521300	0.254700
N21	N2	0.248500	0.517200	0.073000
N31	N3	0.398500	0.606600	0.110700
O11	O1	0.620400	0.482700	0.034800
O21	O2	0.536600	0.512600	0.120100
O31	O3	0.388900	0.437000	0.105200
H121	H12	0.369300	0.420600	0.143900
H131	H13	0.425700	0.412600	0.098500
Ni21	Ni2	0.603790	0.022270	0.891880
C171	C17	0.790500	0.995900	0.869900
H141	H14	0.751700	0.984300	0.810600
C181	C18	0.889300	0.990400	0.896000
H151	H15	0.915200	0.977800	0.852600
C191	C19	0.947300	0.003500	0.985600
C201	C20	0.905500	0.022500	0.044000
H161	H16	0.942900	0.031700	0.105200
C211	C21	0.807300	0.028900	0.015800
H171	H17	0.780400	0.041300	0.058600
C221	C22	0.677300	0.136300	0.919300
C231	C23	0.677700	0.191800	0.918100
H181	H18	0.734800	0.210100	0.943800
C241	C24	0.596000	0.220200	0.880200
C251	C25	0.520300	0.191700	0.849500
H191	H19	0.461900	0.209100	0.827200
C261	C26	0.523200	0.133200	0.848500
H201	H20	0.467700	0.114100	0.817900
C271	C27	0.453500	0.998300	0.956000
C281	C28	0.504700	0.979600	0.701700
H211	H21	0.482800	0.955600	0.736600
C291	C29	0.479300	0.972800	0.605800
H221	H22	0.438400	0.944700	0.577400
C301	C30	0.511000	0.005400	0.550100
C311	C31	0.566600	0.048700	0.598100
H231	H23	0.589500	0.073500	0.565200
C321	C32	0.587700	0.055000	0.693000
H241	H24	0.622600	0.085200	0.721800
N41	N4	0.562000	0.021300	0.745300
N51	N5	0.751500	0.017200	0.927000
N61	N6	0.601500	0.106600	0.889300
O41	O4	0.379600	0.982700	0.965200
O51	O5	0.463400	0.012600	0.879900
O61	O6	0.611100	0.937000	0.894800
H251	H25	0.630700	0.920600	0.856100
H261	H26	0.574300	0.912600	0.901500
Ni31	Ni3	0.603790	0.477730	0.891880
C331	C33	0.790500	0.504100	0.869900
H271	H27	0.751700	0.515700	0.810600
C341	C34	0.889300	0.509600	0.896000
H281	H28	0.915200	0.522200	0.852600
C351	C35	0.947300	0.496500	0.985600
C361	C36	0.905500	0.477500	0.044000
H291	H29	0.942900	0.468300	0.105200
C371	C37	0.807300	0.471100	0.015800
H301	H30	0.780400	0.458700	0.058600
C381	C38	0.677300	0.363700	0.919300
C391	C39	0.677700	0.308200	0.918100
H311	H31	0.734800	0.289900	0.943800
C401	C40	0.596000	0.279800	0.880200
C411	C41	0.520300	0.308300	0.849500
H321	H32	0.461900	0.290900	0.827200
C421	C42	0.523200	0.366800	0.848500
H331	H33	0.467700	0.385900	0.817900
C431	C43	0.453500	0.501700	0.956000
C441	C44	0.504700	0.520400	0.701700
H341	H34	0.482800	0.544400	0.736600
C451	C45	0.479300	0.527200	0.605800
H351	H35	0.438400	0.555300	0.577400
C461	C46	0.511000	0.494600	0.550100
C471	C47	0.566600	0.451300	0.598100
H361	H36	0.589500	0.426500	0.565200
C481	C48	0.587700	0.445000	0.693000
H371	H37	0.622600	0.414800	0.721800
N71	N7	0.562000	0.478700	0.745300
N81	N8	0.751500	0.482800	0.927000
N91	N9	0.601500	0.393400	0.889300
O71	O7	0.379600	0.517300	0.965200
O81	O8	0.463400	0.487400	0.879900
O91	O9	0.611100	0.563000	0.894800
H381	H38	0.630700	0.579400	0.856100
H391	H39	0.574300	0.587400	0.901500
Ni41	Ni4	0.396210	0.977730	0.108120
C491	C49	0.209500	0.004100	0.130100
H401	H40	0.248300	0.015700	0.189400
C501	C50	0.110700	0.009600	0.104000
H411	H41	0.084800	0.022200	0.147400
C511	C51	0.052700	0.996500	0.014400
C521	C52	0.094500	0.977500	0.956000
H421	H42	0.057100	0.968300	0.894800
C531	C53	0.192700	0.971100	0.984200
H431	H43	0.219600	0.958700	0.941400
C541	C54	0.322700	0.863700	0.080700
C551	C55	0.322300	0.808200	0.081900
H441	H44	0.265200	0.789900	0.056200
C561	C56	0.404000	0.779800	0.119800
C571	C57	0.479700	0.808300	0.150500
H451	H45	0.538100	0.790900	0.172800
C581	C58	0.476800	0.866800	0.151500
H461	H46	0.532300	0.885900	0.182100
C591	C59	0.546500	0.001700	0.044000
C601	C60	0.495300	0.020400	0.298300
H471	H47	0.517200	0.044400	0.263400
C611	C61	0.520700	0.027200	0.394200
H481	H48	0.561600	0.055300	0.422600
C621	C62	0.489000	0.994600	0.449900
C631	C63	0.433400	0.951300	0.401900
H491	H49	0.410500	0.926500	0.434800
C641	C64	0.412300	0.945000	0.307000
H501	H50	0.377400	0.914800	0.278200
N101	N10	0.438000	0.978700	0.254700
N111	N11	0.248500	0.982800	0.073000
N121	N12	0.398500	0.893400	0.110700
O101	O10	0.620400	0.017300	0.034800
O111	O11	0.536600	0.987400	0.120100
O121	O12	0.388900	0.063000	0.105200
H511	H51	0.369300	0.079400	0.143900
H521	H52	0.425700	0.087400	0.098500
W11	W1	0.003160	0.392470	0.314250
W21	W2	0.266980	0.392290	0.371890
W31	W3	0.234870	0.317990	0.153980
W41	W4	0.971610	0.317800	0.095690
W51	W5	0.030130	0.324220	0.512720
W61	W6	0.469710	0.318180	0.344900
W71	W7	0.294380	0.324420	0.570690
W81	W8	0.779760	0.318300	0.195570
O131	O13	0.002100	0.388800	0.438400
O141	O14	0.100800	0.310600	0.110100
O151	O15	0.137100	0.396300	0.360800
O161	O16	0.388600	0.366400	0.379500
O171	O17	0.161300	0.335200	0.537100
O181	O18	0.032700	0.300900	0.362500
O191	O19	0.977400	0.459500	0.290000
O201	O20	0.302500	0.388700	0.503200
O211	O21	0.008200	0.366600	0.197800
O221	O22	0.416500	0.301600	0.569700
O231	O23	0.366800	0.313900	0.227000
O241	O24	0.283100	0.459200	0.356700
O251	O25	0.873800	0.365800	0.269900
O261	O26	0.900500	0.301900	0.455500
O271	O27	0.023900	0.348100	0.615000
O281	O28	0.535100	0.304800	0.473900
O291	O29	0.242700	0.361200	0.069900
O301	O30	0.852200	0.313400	0.116100
O311	O31	0.328800	0.349300	0.682100
O321	O32	0.693100	0.362600	0.137500
O331	O33	0.935300	0.359500	0.999500
O341	O34	0.745200	0.304100	0.303900
O351	O35	0.225000	0.365600	0.246900
O361	O36	0.248100	0.301300	0.409400
O371	O37	0.547600	0.359200	0.320800
W91	W9	0.003160	0.107530	0.314250
W101	W10	0.266980	0.107710	0.371890
W111	W11	0.234870	0.182010	0.153980
W121	W12	0.971610	0.182200	0.095690
W131	W13	0.030130	0.175780	0.512720
W141	W14	0.469710	0.181820	0.344900
W151	W15	0.294380	0.175580	0.570690
W161	W16	0.779760	0.181700	0.195570
O381	O38	0.002100	0.111200	0.438400
O391	O39	0.100800	0.189400	0.110100
O401	O40	0.137100	0.103700	0.360800
O411	O41	0.388600	0.133600	0.379500
O421	O42	0.161300	0.164800	0.537100
O431	O43	0.032700	0.199100	0.362500
O441	O44	0.977400	0.040500	0.290000
O451	O45	0.302500	0.111300	0.503200
O461	O46	0.008200	0.133400	0.197800
O471	O47	0.416500	0.198400	0.569700
O481	O48	0.366800	0.186100	0.227000
O491	O49	0.283100	0.040800	0.356700
O501	O50	0.873800	0.134200	0.269900
O511	O51	0.900500	0.198100	0.455500
O521	O52	0.023900	0.151900	0.615000
O531	O53	0.535100	0.195200	0.473900
O541	O54	0.242700	0.138800	0.069900
O551	O55	0.852200	0.186600	0.116100
O561	O56	0.328800	0.150700	0.682100
O571	O57	0.693100	0.137400	0.137500
O581	O58	0.935300	0.140500	0.999500
O591	O59	0.745200	0.195900	0.303900
O601	O60	0.225000	0.134400	0.246900
O611	O61	0.248100	0.198700	0.409400
O621	O62	0.547600	0.140800	0.320800
P11	P1	0.993700	0.250000	0.305000
P21	P2	0.272600	0.250000	0.365800
W171	W17	0.497880	0.250000	0.546680
W181	W18	0.806130	0.250000	0.395350
O631	O63	0.226000	0.250000	0.261300
O641	O64	0.011100	0.250000	0.212100
O651	O65	0.242600	0.250000	0.096700
O661	O66	0.273900	0.250000	0.587400
O671	O67	0.059800	0.250000	0.541900
O681	O68	0.883900	0.250000	0.282600
O691	O69	0.592700	0.250000	0.648700
O701	O70	0.512200	0.250000	0.315000
O711	O71	0.722200	0.250000	0.147500
O721	O72	0.739300	0.250000	0.464600
O731	O73	0.383200	0.250000	0.392000
O741	O74	0.943500	0.250000	0.031200
W191	W19	0.996840	0.892470	0.685750
W201	W20	0.733020	0.892290	0.628110
W211	W21	0.765130	0.817990	0.846020
W221	W22	0.028390	0.817800	0.904310
W231	W23	0.969870	0.824220	0.487280
W241	W24	0.530290	0.818180	0.655100
W251	W25	0.705620	0.824420	0.429310
W261	W26	0.220240	0.818300	0.804430
O751	O75	0.997900	0.888800	0.561600
O761	O76	0.899200	0.810600	0.889900
O771	O77	0.862900	0.896300	0.639200
O781	O78	0.611400	0.866400	0.620500
O791	O79	0.838700	0.835200	0.462900
O801	O80	0.967300	0.800900	0.637500
O811	O81	0.022600	0.959500	0.710000
O821	O82	0.697500	0.888700	0.496800
O831	O83	0.991800	0.866600	0.802200
O841	O84	0.583500	0.801600	0.430300
O851	O85	0.633200	0.813900	0.773000
O861	O86	0.716900	0.959200	0.643300
O871	O87	0.126200	0.865800	0.730100
O881	O88	0.099500	0.801900	0.544500
O891	O89	0.976100	0.848100	0.385000
O901	O90	0.464900	0.804800	0.526100
O911	O91	0.757300	0.861200	0.930100
O921	O92	0.147800	0.813400	0.883900
O931	O93	0.671200	0.849300	0.317900
O941	O94	0.306900	0.862600	0.862500
O951	O95	0.064700	0.859500	0.000500
O961	O96	0.254800	0.804100	0.696100
O971	O97	0.775000	0.865600	0.753100
O981	O98	0.751900	0.801300	0.590600
O991	O99	0.452400	0.859200	0.679200
W271	W27	0.996840	0.607530	0.685750
W281	W28	0.733020	0.607710	0.628110
W291	W29	0.765130	0.682010	0.846020
W301	W30	0.028390	0.682200	0.904310
W311	W31	0.969870	0.675780	0.487280
W321	W32	0.530290	0.681820	0.655100
W331	W33	0.705620	0.675580	0.429310
W341	W34	0.220240	0.681700	0.804430
O1001	O100	0.997900	0.611200	0.561600
O1011	O101	0.899200	0.689400	0.889900
O1021	O102	0.862900	0.603700	0.639200
O1031	O103	0.611400	0.633600	0.620500
O1041	O104	0.838700	0.664800	0.462900
O1051	O105	0.967300	0.699100	0.637500
O1061	O106	0.022600	0.540500	0.710000
O1071	O107	0.697500	0.611300	0.496800
O1081	O108	0.991800	0.633400	0.802200
O1091	O109	0.583500	0.698400	0.430300
O1101	O110	0.633200	0.686100	0.773000
O1111	O111	0.716900	0.540800	0.643300
O1121	O112	0.126200	0.634200	0.730100
O1131	O113	0.099500	0.698100	0.544500
O1141	O114	0.976100	0.651900	0.385000
O1151	O115	0.464900	0.695200	0.526100
O1161	O116	0.757300	0.638800	0.930100
O1171	O117	0.147800	0.686600	0.883900
O1181	O118	0.671200	0.650700	0.317900
O1191	O119	0.306900	0.637400	0.862500
O1201	O120	0.064700	0.640500	0.000500
O1211	O121	0.254800	0.695900	0.696100
O1221	O122	0.775000	0.634400	0.753100
O1231	O123	0.751900	0.698700	0.590600
O1241	O124	0.452400	0.640800	0.679200
P31	P3	0.006300	0.750000	0.695000
P41	P4	0.727400	0.750000	0.634200
W351	W35	0.502120	0.750000	0.453320
W361	W36	0.193870	0.750000	0.604650
O1251	O125	0.774000	0.750000	0.738700
O1261	O126	0.988900	0.750000	0.787900
O1271	O127	0.757400	0.750000	0.903300
O1281	O128	0.726100	0.750000	0.412600
O1291	O129	0.940200	0.750000	0.458100
O1301	O130	0.116100	0.750000	0.717400
O1311	O131	0.407300	0.750000	0.351300
O1321	O132	0.487800	0.750000	0.685000
O1331	O133	0.277800	0.750000	0.852500
O1341	O134	0.260700	0.750000	0.535400
O1351	O135	0.616800	0.750000	0.608000
O1361	O136	0.056500	0.750000	0.968800
