data_JOKXUC10_freeONLY_PM
_symmetry_space_group_name_H-M	'P1'
_cell_length_a	13.961000
_cell_length_b	26.998000
_cell_length_c	7.589000
_cell_angle_alpha	90.000000
_cell_angle_beta	90.000000
_cell_angle_gamma	89.160000
_symmetry_Int_Tables_number 1

loop_
_symmetry_equiv_pos_as_xyz
'x,y,z'

loop_
_atom_site_label
_atom_site_type_symbol
_atom_site_fract_x
_atom_site_fract_y
_atom_site_fract_z
Cd11	Cd1	0.286250	0.134550	0.876670
N11	N1	0.263400	0.078900	0.090400
N21	N2	0.262000	0.078000	0.649200
N31	N3	0.332400	0.198600	0.087000
N41	N4	0.133000	0.168800	0.870000
N51	N5	0.324400	0.192200	0.648000
N61	N6	0.452900	0.124600	0.833800
C11	C1	0.257700	0.048700	0.195000
C21	C2	0.257500	0.048500	0.542000
C31	C3	0.395500	0.218100	0.151000
C41	C4	0.081300	0.199000	0.826000
C51	C5	0.428500	0.192000	0.628000
C61	C6	0.482300	0.152900	0.685000
C71	C7	0.590300	0.155200	0.652000
Cd21	Cd2	0.286250	0.634550	0.376670
N71	N7	0.263400	0.578900	0.590400
N81	N8	0.262000	0.578000	0.149200
N91	N9	0.332400	0.698600	0.587000
N101	N10	0.133000	0.668800	0.370000
N111	N11	0.324400	0.692200	0.148000
N121	N12	0.452900	0.624600	0.333800
C81	C8	0.257700	0.548700	0.695000
C91	C9	0.257500	0.548500	0.042000
C101	C10	0.395500	0.718100	0.651000
C111	C11	0.081300	0.699000	0.326000
C121	C12	0.428500	0.692000	0.128000
C131	C13	0.482300	0.652900	0.185000
C141	C14	0.590300	0.655200	0.152000
Cd31	Cd3	0.213750	0.865450	0.876670
N131	N13	0.236600	0.921100	0.090400
N141	N14	0.238000	0.922000	0.649200
N151	N15	0.167600	0.801400	0.087000
N161	N16	0.367000	0.831200	0.870000
N171	N17	0.175600	0.807800	0.648000
N181	N18	0.047100	0.875400	0.833800
C151	C15	0.242300	0.951300	0.195000
C161	C16	0.242500	0.951500	0.542000
C171	C17	0.104500	0.781900	0.151000
C181	C18	0.418700	0.801000	0.826000
C191	C19	0.071500	0.808000	0.628000
C201	C20	0.017700	0.847100	0.685000
C211	C21	0.909700	0.844800	0.652000
Cd41	Cd4	0.213750	0.365450	0.376670
N191	N19	0.236600	0.421100	0.590400
N201	N20	0.238000	0.422000	0.149200
N211	N21	0.167600	0.301400	0.587000
N221	N22	0.367000	0.331200	0.370000
N231	N23	0.175600	0.307800	0.148000
N241	N24	0.047100	0.375400	0.333800
C221	C22	0.242300	0.451300	0.695000
C231	C23	0.242500	0.451500	0.042000
C241	C24	0.104500	0.281900	0.651000
C251	C25	0.418700	0.301000	0.326000
C261	C26	0.071500	0.308000	0.128000
C271	C27	0.017700	0.347100	0.185000
C281	C28	0.909700	0.344800	0.152000
Cd51	Cd5	0.713750	0.865450	0.123330
N251	N25	0.736600	0.921100	0.909600
N261	N26	0.738000	0.922000	0.350800
N271	N27	0.667600	0.801400	0.913000
N281	N28	0.867000	0.831200	0.130000
N291	N29	0.675600	0.807800	0.352000
N301	N30	0.547100	0.875400	0.166200
C291	C29	0.742300	0.951300	0.805000
C301	C30	0.742500	0.951500	0.458000
C311	C31	0.604500	0.781900	0.849000
C321	C32	0.918700	0.801000	0.174000
C331	C33	0.571500	0.808000	0.372000
C341	C34	0.517700	0.847100	0.315000
C351	C35	0.409700	0.844800	0.348000
Cd61	Cd6	0.713750	0.365450	0.623330
N311	N31	0.736600	0.421100	0.409600
N321	N32	0.738000	0.422000	0.850800
N331	N33	0.667600	0.301400	0.413000
N341	N34	0.867000	0.331200	0.630000
N351	N35	0.675600	0.307800	0.852000
N361	N36	0.547100	0.375400	0.666200
C361	C36	0.742300	0.451300	0.305000
C371	C37	0.742500	0.451500	0.958000
C381	C38	0.604500	0.281900	0.349000
C391	C39	0.918700	0.301000	0.674000
C401	C40	0.571500	0.308000	0.872000
C411	C41	0.517700	0.347100	0.815000
C421	C42	0.409700	0.344800	0.848000
Cd71	Cd7	0.786250	0.134550	0.123330
N371	N37	0.763400	0.078900	0.909600
N381	N38	0.762000	0.078000	0.350800
N391	N39	0.832400	0.198600	0.913000
N401	N40	0.633000	0.168800	0.130000
N411	N41	0.824400	0.192200	0.352000
N421	N42	0.952900	0.124600	0.166200
C431	C43	0.757700	0.048700	0.805000
C441	C44	0.757500	0.048500	0.458000
C451	C45	0.895500	0.218100	0.849000
C461	C46	0.581300	0.199000	0.174000
C471	C47	0.928500	0.192000	0.372000
C481	C48	0.982300	0.152900	0.315000
C491	C49	0.090300	0.155200	0.348000
Cd81	Cd8	0.786250	0.634550	0.623330
N431	N43	0.763400	0.578900	0.409600
N441	N44	0.762000	0.578000	0.850800
N451	N45	0.832400	0.698600	0.413000
N461	N46	0.633000	0.668800	0.630000
N471	N47	0.824400	0.692200	0.852000
N481	N48	0.952900	0.624600	0.666200
C501	C50	0.757700	0.548700	0.305000
C511	C51	0.757500	0.548500	0.958000
C521	C52	0.895500	0.718100	0.349000
C531	C53	0.581300	0.699000	0.674000
C541	C54	0.928500	0.692000	0.872000
C551	C55	0.982300	0.652900	0.815000
C561	C56	0.090300	0.655200	0.848000
Ni11	Ni1	0.250000	0.000000	0.367900
Ni21	Ni2	0.250000	0.500000	0.867900
Ni31	Ni3	0.750000	0.000000	0.632100
Ni41	Ni4	0.750000	0.500000	0.132100
Ni51	Ni5	0.500000	0.250000	0.250000
Ni61	Ni6	0.000000	0.750000	0.250000
Ni71	Ni7	0.500000	0.750000	0.750000
Ni81	Ni8	0.000000	0.250000	0.750000
