data_JOKXOW10_freeONLY_PM
_symmetry_space_group_name_H-M	'P1'
_cell_length_a	14.014000
_cell_length_b	26.963000
_cell_length_c	7.576000
_cell_angle_alpha	90.000000
_cell_angle_beta	90.000000
_cell_angle_gamma	91.740000
_symmetry_Int_Tables_number 1

loop_
_symmetry_equiv_pos_as_xyz
'x,y,z'

loop_
_atom_site_label
_atom_site_type_symbol
_atom_site_fract_x
_atom_site_fract_y
_atom_site_fract_z
Cd11	Cd1	0.274840	0.135430	0.881050
N11	N1	0.254400	0.079600	0.099000
N21	N2	0.249100	0.078000	0.655400
N31	N3	0.325900	0.199900	0.089900
N41	N4	0.123300	0.168000	0.871400
N51	N5	0.317600	0.192600	0.652500
N61	N6	0.441000	0.125700	0.837000
C11	C1	0.252100	0.049300	0.202300
C21	C2	0.249400	0.048600	0.549600
C31	C3	0.391800	0.218800	0.153000
C41	C4	0.075400	0.198300	0.825900
C51	C5	0.419300	0.191100	0.627000
C61	C6	0.474200	0.157400	0.695000
C71	C7	0.579400	0.157400	0.656000
Cd21	Cd2	0.274840	0.635430	0.381050
N71	N7	0.254400	0.579600	0.599000
N81	N8	0.249100	0.578000	0.155400
N91	N9	0.325900	0.699900	0.589900
N101	N10	0.123300	0.668000	0.371400
N111	N11	0.317600	0.692600	0.152500
N121	N12	0.441000	0.625700	0.337000
C81	C8	0.252100	0.549300	0.702300
C91	C9	0.249400	0.548600	0.049600
C101	C10	0.391800	0.718800	0.653000
C111	C11	0.075400	0.698300	0.325900
C121	C12	0.419300	0.691100	0.127000
C131	C13	0.474200	0.657400	0.195000
C141	C14	0.579400	0.657400	0.156000
Cd31	Cd3	0.225160	0.864570	0.881050
N131	N13	0.245600	0.920400	0.099000
N141	N14	0.250900	0.922000	0.655400
N151	N15	0.174100	0.800100	0.089900
N161	N16	0.376700	0.832000	0.871400
N171	N17	0.182400	0.807400	0.652500
N181	N18	0.059000	0.874300	0.837000
C151	C15	0.247900	0.950700	0.202300
C161	C16	0.250600	0.951400	0.549600
C171	C17	0.108200	0.781200	0.153000
C181	C18	0.424600	0.801700	0.825900
C191	C19	0.080700	0.808900	0.627000
C201	C20	0.025800	0.842600	0.695000
C211	C21	0.920600	0.842600	0.656000
Cd41	Cd4	0.225160	0.364570	0.381050
N191	N19	0.245600	0.420400	0.599000
N201	N20	0.250900	0.422000	0.155400
N211	N21	0.174100	0.300100	0.589900
N221	N22	0.376700	0.332000	0.371400
N231	N23	0.182400	0.307400	0.152500
N241	N24	0.059000	0.374300	0.337000
C221	C22	0.247900	0.450700	0.702300
C231	C23	0.250600	0.451400	0.049600
C241	C24	0.108200	0.281200	0.653000
C251	C25	0.424600	0.301700	0.325900
C261	C26	0.080700	0.308900	0.127000
C271	C27	0.025800	0.342600	0.195000
C281	C28	0.920600	0.342600	0.156000
Cd51	Cd5	0.725160	0.864570	0.118950
N251	N25	0.745600	0.920400	0.901000
N261	N26	0.750900	0.922000	0.344600
N271	N27	0.674100	0.800100	0.910100
N281	N28	0.876700	0.832000	0.128600
N291	N29	0.682400	0.807400	0.347500
N301	N30	0.559000	0.874300	0.163000
C291	C29	0.747900	0.950700	0.797700
C301	C30	0.750600	0.951400	0.450400
C311	C31	0.608200	0.781200	0.847000
C321	C32	0.924600	0.801700	0.174100
C331	C33	0.580700	0.808900	0.373000
C341	C34	0.525800	0.842600	0.305000
C351	C35	0.420600	0.842600	0.344000
Cd61	Cd6	0.725160	0.364570	0.618950
N311	N31	0.745600	0.420400	0.401000
N321	N32	0.750900	0.422000	0.844600
N331	N33	0.674100	0.300100	0.410100
N341	N34	0.876700	0.332000	0.628600
N351	N35	0.682400	0.307400	0.847500
N361	N36	0.559000	0.374300	0.663000
C361	C36	0.747900	0.450700	0.297700
C371	C37	0.750600	0.451400	0.950400
C381	C38	0.608200	0.281200	0.347000
C391	C39	0.924600	0.301700	0.674100
C401	C40	0.580700	0.308900	0.873000
C411	C41	0.525800	0.342600	0.805000
C421	C42	0.420600	0.342600	0.844000
Cd71	Cd7	0.774840	0.135430	0.118950
N371	N37	0.754400	0.079600	0.901000
N381	N38	0.749100	0.078000	0.344600
N391	N39	0.825900	0.199900	0.910100
N401	N40	0.623300	0.168000	0.128600
N411	N41	0.817600	0.192600	0.347500
N421	N42	0.941000	0.125700	0.163000
C431	C43	0.752100	0.049300	0.797700
C441	C44	0.749400	0.048600	0.450400
C451	C45	0.891800	0.218800	0.847000
C461	C46	0.575400	0.198300	0.174100
C471	C47	0.919300	0.191100	0.373000
C481	C48	0.974200	0.157400	0.305000
C491	C49	0.079400	0.157400	0.344000
Cd81	Cd8	0.774840	0.635430	0.618950
N431	N43	0.754400	0.579600	0.401000
N441	N44	0.749100	0.578000	0.844600
N451	N45	0.825900	0.699900	0.410100
N461	N46	0.623300	0.668000	0.628600
N471	N47	0.817600	0.692600	0.847500
N481	N48	0.941000	0.625700	0.663000
C501	C50	0.752100	0.549300	0.297700
C511	C51	0.749400	0.548600	0.950400
C521	C52	0.891800	0.718800	0.347000
C531	C53	0.575400	0.698300	0.674100
C541	C54	0.919300	0.691100	0.873000
C551	C55	0.974200	0.657400	0.805000
C561	C56	0.079400	0.657400	0.844000
Ni11	Ni1	0.250000	0.000000	0.374400
Ni21	Ni2	0.250000	0.500000	0.874400
Ni31	Ni3	0.750000	0.000000	0.625600
Ni41	Ni4	0.750000	0.500000	0.125600
Ni51	Ni5	0.500000	0.250000	0.250000
Ni61	Ni6	0.000000	0.750000	0.250000
Ni71	Ni7	0.500000	0.750000	0.750000
Ni81	Ni8	0.000000	0.250000	0.750000
