data_JOKYOX_freeONLY_PM
_symmetry_space_group_name_H-M	'P1'
_cell_length_a	14.157000
_cell_length_b	26.699000
_cell_length_c	7.586000
_cell_angle_alpha	90.000000
_cell_angle_beta	90.000000
_cell_angle_gamma	90.000000
_symmetry_Int_Tables_number 1

loop_
_symmetry_equiv_pos_as_xyz
'x,y,z'

loop_
_atom_site_label
_atom_site_type_symbol
_atom_site_fract_x
_atom_site_fract_y
_atom_site_fract_z
Cd11	Cd1	0.218940	0.114140	0.130750
N11	N1	0.249000	0.171400	0.905000
N21	N2	0.242100	0.170700	0.345200
N31	N3	0.167000	0.051500	0.338000
N41	N4	0.369600	0.080000	0.126000
N51	N5	0.176500	0.057000	0.901000
N61	N6	0.056300	0.129500	0.080000
C11	C1	0.249000	0.201400	0.798000
C21	C2	0.246500	0.200800	0.451300
C31	C3	0.104300	0.031600	0.401000
C41	C4	0.420100	0.050200	0.080700
C51	C5	0.075300	0.060400	0.877000
C61	C6	0.025500	0.098600	0.936000
C71	C7	0.920400	0.100500	0.989600
Cd21	Cd2	0.281060	0.885860	0.630750
N71	N7	0.251000	0.828600	0.405000
N81	N8	0.257900	0.829300	0.845200
N91	N9	0.333000	0.948500	0.838000
N101	N10	0.130400	0.920000	0.626000
N111	N11	0.323500	0.943000	0.401000
N121	N12	0.443700	0.870500	0.580000
C81	C8	0.251000	0.798600	0.298000
C91	C9	0.253500	0.799200	0.951300
C101	C10	0.395700	0.968400	0.901000
C111	C11	0.079900	0.949800	0.580700
C121	C12	0.424700	0.939600	0.377000
C131	C13	0.474500	0.901400	0.436000
C141	C14	0.579600	0.899500	0.489600
Cd31	Cd3	0.781060	0.614140	0.869250
N131	N13	0.751000	0.671400	0.095000
N141	N14	0.757900	0.670700	0.654800
N151	N15	0.833000	0.551500	0.662000
N161	N16	0.630400	0.580000	0.874000
N171	N17	0.823500	0.557000	0.099000
N181	N18	0.943700	0.629500	0.920000
C151	C15	0.751000	0.701400	0.202000
C161	C16	0.753500	0.700800	0.548700
C171	C17	0.895700	0.531600	0.599000
C181	C18	0.579900	0.550200	0.919300
C191	C19	0.924700	0.560400	0.123000
C201	C20	0.974500	0.598600	0.064000
C211	C21	0.079600	0.600500	0.010400
Cd41	Cd4	0.718940	0.385860	0.369250
N191	N19	0.749000	0.328600	0.595000
N201	N20	0.742100	0.329300	0.154800
N211	N21	0.667000	0.448500	0.162000
N221	N22	0.869600	0.420000	0.374000
N231	N23	0.676500	0.443000	0.599000
N241	N24	0.556300	0.370500	0.420000
C221	C22	0.749000	0.298600	0.702000
C231	C23	0.746500	0.299200	0.048700
C241	C24	0.604300	0.468400	0.099000
C251	C25	0.920100	0.449800	0.419300
C261	C26	0.575300	0.439600	0.623000
C271	C27	0.525500	0.401400	0.564000
C281	C28	0.420400	0.399500	0.510400
Cd51	Cd5	0.781060	0.885860	0.869250
N251	N25	0.751000	0.828600	0.095000
N261	N26	0.757900	0.829300	0.654800
N271	N27	0.833000	0.948500	0.662000
N281	N28	0.630400	0.920000	0.874000
N291	N29	0.823500	0.943000	0.099000
N301	N30	0.943700	0.870500	0.920000
C291	C29	0.751000	0.798600	0.202000
C301	C30	0.753500	0.799200	0.548700
C311	C31	0.895700	0.968400	0.599000
C321	C32	0.579900	0.949800	0.919300
C331	C33	0.924700	0.939600	0.123000
C341	C34	0.974500	0.901400	0.064000
C351	C35	0.079600	0.899500	0.010400
Cd61	Cd6	0.718940	0.114140	0.369250
N311	N31	0.749000	0.171400	0.595000
N321	N32	0.742100	0.170700	0.154800
N331	N33	0.667000	0.051500	0.162000
N341	N34	0.869600	0.080000	0.374000
N351	N35	0.676500	0.057000	0.599000
N361	N36	0.556300	0.129500	0.420000
C361	C36	0.749000	0.201400	0.702000
C371	C37	0.746500	0.200800	0.048700
C381	C38	0.604300	0.031600	0.099000
C391	C39	0.920100	0.050200	0.419300
C401	C40	0.575300	0.060400	0.623000
C411	C41	0.525500	0.098600	0.564000
C421	C42	0.420400	0.100500	0.510400
Cd71	Cd7	0.218940	0.385860	0.130750
N371	N37	0.249000	0.328600	0.905000
N381	N38	0.242100	0.329300	0.345200
N391	N39	0.167000	0.448500	0.338000
N401	N40	0.369600	0.420000	0.126000
N411	N41	0.176500	0.443000	0.901000
N421	N42	0.056300	0.370500	0.080000
C431	C43	0.249000	0.298600	0.798000
C441	C44	0.246500	0.299200	0.451300
C451	C45	0.104300	0.468400	0.401000
C461	C46	0.420100	0.449800	0.080700
C471	C47	0.075300	0.439600	0.877000
C481	C48	0.025500	0.401400	0.936000
C491	C49	0.920400	0.399500	0.989600
Cd81	Cd8	0.281060	0.614140	0.630750
N431	N43	0.251000	0.671400	0.405000
N441	N44	0.257900	0.670700	0.845200
N451	N45	0.333000	0.551500	0.838000
N461	N46	0.130400	0.580000	0.626000
N471	N47	0.323500	0.557000	0.401000
N481	N48	0.443700	0.629500	0.580000
C501	C50	0.251000	0.701400	0.298000
C511	C51	0.253500	0.700800	0.951300
C521	C52	0.395700	0.531600	0.901000
C531	C53	0.079900	0.550200	0.580700
C541	C54	0.424700	0.560400	0.377000
C551	C55	0.474500	0.598600	0.436000
C561	C56	0.579600	0.600500	0.489600
Ni11	Ni1	0.248900	0.250000	0.624100
Ni21	Ni2	0.251100	0.750000	0.124100
Ni31	Ni3	0.751100	0.750000	0.375900
Ni41	Ni4	0.748900	0.250000	0.875900
Ni51	Ni5	0.000000	0.000000	0.500000
Ni61	Ni6	0.500000	0.000000	0.000000
Ni71	Ni7	0.000000	0.500000	0.500000
Ni81	Ni8	0.500000	0.500000	0.000000
