data_JOKYAJ_freeONLY_PM
_symmetry_space_group_name_H-M	'P1'
_cell_length_a	14.061000
_cell_length_b	27.192000
_cell_length_c	7.590000
_cell_angle_alpha	90.000000
_cell_angle_beta	90.000000
_cell_angle_gamma	90.000000
_symmetry_Int_Tables_number 1

loop_
_symmetry_equiv_pos_as_xyz
'x,y,z'

loop_
_atom_site_label
_atom_site_type_symbol
_atom_site_fract_x
_atom_site_fract_y
_atom_site_fract_z
Cd11	Cd1	0.214730	0.115920	0.121500
N11	N1	0.240000	0.172000	0.893000
N21	N2	0.247000	0.172400	0.329000
N31	N3	0.160000	0.056700	0.339000
N41	N4	0.361000	0.076900	0.116000
N51	N5	0.172000	0.056900	0.900000
N61	N6	0.051000	0.127100	0.075000
C11	C1	0.243000	0.201900	0.786000
C21	C2	0.251000	0.201400	0.436000
C31	C3	0.101000	0.035500	0.403000
C41	C4	0.415000	0.048500	0.072000
C51	C5	0.073000	0.057000	0.880000
C61	C6	0.016000	0.091000	0.941000
C71	C7	0.910000	0.092200	0.909000
Cd21	Cd2	0.285270	0.884080	0.621500
N71	N7	0.260000	0.828000	0.393000
N81	N8	0.253000	0.827600	0.829000
N91	N9	0.340000	0.943300	0.839000
N101	N10	0.139000	0.923100	0.616000
N111	N11	0.328000	0.943100	0.400000
N121	N12	0.449000	0.872900	0.575000
C81	C8	0.257000	0.798100	0.286000
C91	C9	0.249000	0.798600	0.936000
C101	C10	0.399000	0.964500	0.903000
C111	C11	0.085000	0.951500	0.572000
C121	C12	0.427000	0.943000	0.380000
C131	C13	0.484000	0.909000	0.441000
C141	C14	0.590000	0.907800	0.409000
Cd31	Cd3	0.785270	0.615920	0.878500
N131	N13	0.760000	0.672000	0.107000
N141	N14	0.753000	0.672400	0.671000
N151	N15	0.840000	0.556700	0.661000
N161	N16	0.639000	0.576900	0.884000
N171	N17	0.828000	0.556900	0.100000
N181	N18	0.949000	0.627100	0.925000
C151	C15	0.757000	0.701900	0.214000
C161	C16	0.749000	0.701400	0.564000
C171	C17	0.899000	0.535500	0.597000
C181	C18	0.585000	0.548500	0.928000
C191	C19	0.927000	0.557000	0.120000
C201	C20	0.984000	0.591000	0.059000
C211	C21	0.090000	0.592200	0.091000
Cd41	Cd4	0.714730	0.384080	0.378500
N191	N19	0.740000	0.328000	0.607000
N201	N20	0.747000	0.327600	0.171000
N211	N21	0.660000	0.443300	0.161000
N221	N22	0.861000	0.423100	0.384000
N231	N23	0.672000	0.443100	0.600000
N241	N24	0.551000	0.372900	0.425000
C221	C22	0.743000	0.298100	0.714000
C231	C23	0.751000	0.298600	0.064000
C241	C24	0.601000	0.464500	0.097000
C251	C25	0.915000	0.451500	0.428000
C261	C26	0.573000	0.443000	0.620000
C271	C27	0.516000	0.409000	0.559000
C281	C28	0.410000	0.407800	0.591000
Cd51	Cd5	0.785270	0.884080	0.878500
N251	N25	0.760000	0.828000	0.107000
N261	N26	0.753000	0.827600	0.671000
N271	N27	0.840000	0.943300	0.661000
N281	N28	0.639000	0.923100	0.884000
N291	N29	0.828000	0.943100	0.100000
N301	N30	0.949000	0.872900	0.925000
C291	C29	0.757000	0.798100	0.214000
C301	C30	0.749000	0.798600	0.564000
C311	C31	0.899000	0.964500	0.597000
C321	C32	0.585000	0.951500	0.928000
C331	C33	0.927000	0.943000	0.120000
C341	C34	0.984000	0.909000	0.059000
C351	C35	0.090000	0.907800	0.091000
Cd61	Cd6	0.714730	0.115920	0.378500
N311	N31	0.740000	0.172000	0.607000
N321	N32	0.747000	0.172400	0.171000
N331	N33	0.660000	0.056700	0.161000
N341	N34	0.861000	0.076900	0.384000
N351	N35	0.672000	0.056900	0.600000
N361	N36	0.551000	0.127100	0.425000
C361	C36	0.743000	0.201900	0.714000
C371	C37	0.751000	0.201400	0.064000
C381	C38	0.601000	0.035500	0.097000
C391	C39	0.915000	0.048500	0.428000
C401	C40	0.573000	0.057000	0.620000
C411	C41	0.516000	0.091000	0.559000
C421	C42	0.410000	0.092200	0.591000
Cd71	Cd7	0.214730	0.384080	0.121500
N371	N37	0.240000	0.328000	0.893000
N381	N38	0.247000	0.327600	0.329000
N391	N39	0.160000	0.443300	0.339000
N401	N40	0.361000	0.423100	0.116000
N411	N41	0.172000	0.443100	0.900000
N421	N42	0.051000	0.372900	0.075000
C431	C43	0.243000	0.298100	0.786000
C441	C44	0.251000	0.298600	0.436000
C451	C45	0.101000	0.464500	0.403000
C461	C46	0.415000	0.451500	0.072000
C471	C47	0.073000	0.443000	0.880000
C481	C48	0.016000	0.409000	0.941000
C491	C49	0.910000	0.407800	0.909000
Cd81	Cd8	0.285270	0.615920	0.621500
N431	N43	0.260000	0.672000	0.393000
N441	N44	0.253000	0.672400	0.829000
N451	N45	0.340000	0.556700	0.839000
N461	N46	0.139000	0.576900	0.616000
N471	N47	0.328000	0.556900	0.400000
N481	N48	0.449000	0.627100	0.575000
C501	C50	0.257000	0.701900	0.286000
C511	C51	0.249000	0.701400	0.936000
C521	C52	0.399000	0.535500	0.903000
C531	C53	0.085000	0.548500	0.572000
C541	C54	0.427000	0.557000	0.380000
C551	C55	0.484000	0.591000	0.441000
C561	C56	0.590000	0.592200	0.409000
Ni11	Ni1	0.250100	0.250000	0.610400
Ni21	Ni2	0.249900	0.750000	0.110400
Ni31	Ni3	0.749900	0.750000	0.389600
Ni41	Ni4	0.750100	0.250000	0.889600
Ni51	Ni5	0.000000	0.000000	0.500000
Ni61	Ni6	0.500000	0.000000	0.000000
Ni71	Ni7	0.000000	0.500000	0.500000
Ni81	Ni8	0.500000	0.500000	0.000000
