data_JOQSOZ_freeONLY_PM
_symmetry_space_group_name_H-M	'P1'
_cell_length_a	16.271700
_cell_length_b	12.668400
_cell_length_c	17.602100
_cell_angle_alpha	90.000000
_cell_angle_beta	112.523000
_cell_angle_gamma	90.000000
_symmetry_Int_Tables_number 1

loop_
_symmetry_equiv_pos_as_xyz
'x,y,z'

loop_
_atom_site_label
_atom_site_type_symbol
_atom_site_fract_x
_atom_site_fract_y
_atom_site_fract_z
Cu11	Cu1	0.525280	0.171990	0.450940
Cu21	Cu2	0.613660	0.104090	0.367080
Cu31	Cu3	0.080080	0.112890	0.441430
N11	N1	0.187220	0.099700	0.425500
N21	N2	0.427860	0.078950	0.390370
N31	N3	0.507370	0.015500	0.315390
N41	N4	0.495990	0.805200	0.126620
N51	N5	0.623270	0.312900	0.762670
N61	N6	0.636140	0.193780	0.543300
N71	N7	0.717720	0.140000	0.467130
N81	N8	0.967710	0.119300	0.449320
C11	C1	0.266500	0.119000	0.485400
H11	H1	0.267700	0.138800	0.536700
C21	C2	0.345980	0.111300	0.475700
H21	H2	0.399000	0.125900	0.519600
C31	C3	0.347280	0.081500	0.400060
C41	C4	0.264410	0.061400	0.337110
H31	H3	0.261000	0.041900	0.285100
C51	C5	0.188600	0.070600	0.352700
H41	H4	0.134500	0.055800	0.310100
C61	C6	0.434560	0.019700	0.331380
H51	H5	0.385900	0.979000	0.299700
C71	C7	0.568000	0.812800	0.196350
H61	H6	0.616100	0.768700	0.203300
C81	C8	0.574510	0.882900	0.258670
H71	H7	0.626500	0.886600	0.305600
C91	C9	0.502640	0.947700	0.250570
C101	C10	0.428060	0.940900	0.176830
H81	H8	0.379000	0.984100	0.167800
C111	C11	0.427900	0.869700	0.117850
H91	H9	0.377800	0.866200	0.069200
C121	C12	0.556390	0.319200	0.689950
H101	H10	0.504200	0.351700	0.687400
C131	C13	0.559630	0.280400	0.617760
H111	H11	0.510500	0.287800	0.568700
C141	C14	0.635530	0.230700	0.618060
C151	C15	0.705510	0.220400	0.694930
H121	H12	0.757800	0.186100	0.699800
C161	C16	0.695610	0.262100	0.763300
H131	H13	0.742800	0.254300	0.813700
C171	C17	0.712550	0.177400	0.535890
H141	H14	0.765000	0.192500	0.580400
C181	C18	0.900200	0.059100	0.406100
H151	H15	0.908500	0.010700	0.369900
C191	C19	0.817670	0.063500	0.411240
H161	H16	0.772400	0.018900	0.378900
C201	C20	0.802000	0.134500	0.464620
C211	C21	0.872700	0.199400	0.509100
H171	H17	0.865800	0.250700	0.544000
C221	C22	0.953700	0.187500	0.501400
H181	H18	0.001000	0.229200	0.534200
Cu41	Cu4	0.474720	0.671990	0.049060
Cu51	Cu5	0.386340	0.604090	0.132920
Cu61	Cu6	0.919920	0.612890	0.058570
N91	N9	0.812780	0.599700	0.074500
N101	N10	0.572140	0.578950	0.109630
N111	N11	0.492630	0.515500	0.184610
N121	N12	0.504010	0.305200	0.373380
N131	N13	0.376730	0.812900	0.737330
N141	N14	0.363860	0.693780	0.956700
N151	N15	0.282280	0.640000	0.032870
N161	N16	0.032290	0.619300	0.050680
C231	C23	0.733500	0.619000	0.014600
H191	H19	0.732300	0.638800	0.963300
C241	C24	0.654020	0.611300	0.024300
H201	H20	0.601000	0.625900	0.980400
C251	C25	0.652720	0.581500	0.099940
C261	C26	0.735590	0.561400	0.162890
H211	H21	0.739000	0.541900	0.214900
C271	C27	0.811400	0.570600	0.147300
H221	H22	0.865500	0.555800	0.189900
C281	C28	0.565440	0.519700	0.168620
H231	H23	0.614100	0.479000	0.200300
C291	C29	0.432000	0.312800	0.303650
H241	H24	0.383900	0.268700	0.296700
C301	C30	0.425490	0.382900	0.241330
H251	H25	0.373500	0.386600	0.194400
C311	C31	0.497360	0.447700	0.249430
C321	C32	0.571940	0.440900	0.323170
H261	H26	0.621000	0.484100	0.332200
C331	C33	0.572100	0.369700	0.382150
H271	H27	0.622200	0.366200	0.430800
C341	C34	0.443610	0.819200	0.810050
H281	H28	0.495800	0.851700	0.812600
C351	C35	0.440370	0.780400	0.882240
H291	H29	0.489500	0.787800	0.931300
C361	C36	0.364470	0.730700	0.881940
C371	C37	0.294490	0.720400	0.805070
H301	H30	0.242200	0.686100	0.800200
C381	C38	0.304390	0.762100	0.736700
H311	H31	0.257200	0.754300	0.686300
C391	C39	0.287450	0.677400	0.964110
H321	H32	0.235000	0.692500	0.919600
C401	C40	0.099800	0.559100	0.093900
H331	H33	0.091500	0.510700	0.130100
C411	C41	0.182330	0.563500	0.088760
H341	H34	0.227600	0.518900	0.121100
C421	C42	0.198000	0.634500	0.035380
C431	C43	0.127300	0.699400	0.990900
H351	H35	0.134200	0.750700	0.956000
C441	C44	0.046300	0.687500	0.998600
H361	H36	0.999000	0.729200	0.965800
Cu71	Cu7	0.474720	0.828010	0.549060
Cu81	Cu8	0.386340	0.895910	0.632920
Cu91	Cu9	0.919920	0.887110	0.558570
N171	N17	0.812780	0.900300	0.574500
N181	N18	0.572140	0.921050	0.609630
N191	N19	0.492630	0.984500	0.684610
N201	N20	0.504010	0.194800	0.873380
N211	N21	0.376730	0.687100	0.237330
N221	N22	0.363860	0.806220	0.456700
N231	N23	0.282280	0.860000	0.532870
N241	N24	0.032290	0.880700	0.550680
C451	C45	0.733500	0.881000	0.514600
H371	H37	0.732300	0.861200	0.463300
C461	C46	0.654020	0.888700	0.524300
H381	H38	0.601000	0.874100	0.480400
C471	C47	0.652720	0.918500	0.599940
C481	C48	0.735590	0.938600	0.662890
H391	H39	0.739000	0.958100	0.714900
C491	C49	0.811400	0.929400	0.647300
H401	H40	0.865500	0.944200	0.689900
C501	C50	0.565440	0.980300	0.668620
H411	H41	0.614100	0.021000	0.700300
C511	C51	0.432000	0.187200	0.803650
H421	H42	0.383900	0.231300	0.796700
C521	C52	0.425490	0.117100	0.741330
H431	H43	0.373500	0.113400	0.694400
C531	C53	0.497360	0.052300	0.749430
C541	C54	0.571940	0.059100	0.823170
H441	H44	0.621000	0.015900	0.832200
C551	C55	0.572100	0.130300	0.882150
H451	H45	0.622200	0.133800	0.930800
C561	C56	0.443610	0.680800	0.310050
H461	H46	0.495800	0.648300	0.312600
C571	C57	0.440370	0.719600	0.382240
H471	H47	0.489500	0.712200	0.431300
C581	C58	0.364470	0.769300	0.381940
C591	C59	0.294490	0.779600	0.305070
H481	H48	0.242200	0.813900	0.300200
C601	C60	0.304390	0.737900	0.236700
H491	H49	0.257200	0.745700	0.186300
C611	C61	0.287450	0.822600	0.464110
H501	H50	0.235000	0.807500	0.419600
C621	C62	0.099800	0.940900	0.593900
H511	H51	0.091500	0.989300	0.630100
C631	C63	0.182330	0.936500	0.588760
H521	H52	0.227600	0.981100	0.621100
C641	C64	0.198000	0.865500	0.535380
C651	C65	0.127300	0.800600	0.490900
H531	H53	0.134200	0.749300	0.456000
C661	C66	0.046300	0.812500	0.498600
H541	H54	0.999000	0.770800	0.465800
Cu101	Cu10	0.525280	0.328010	0.950940
Cu111	Cu11	0.613660	0.395910	0.867080
Cu121	Cu12	0.080080	0.387110	0.941430
N251	N25	0.187220	0.400300	0.925500
N261	N26	0.427860	0.421050	0.890370
N271	N27	0.507370	0.484500	0.815390
N281	N28	0.495990	0.694800	0.626620
N291	N29	0.623270	0.187100	0.262670
N301	N30	0.636140	0.306220	0.043300
N311	N31	0.717720	0.360000	0.967130
N321	N32	0.967710	0.380700	0.949320
C671	C67	0.266500	0.381000	0.985400
H551	H55	0.267700	0.361200	0.036700
C681	C68	0.345980	0.388700	0.975700
H561	H56	0.399000	0.374100	0.019600
C691	C69	0.347280	0.418500	0.900060
C701	C70	0.264410	0.438600	0.837110
H571	H57	0.261000	0.458100	0.785100
C711	C71	0.188600	0.429400	0.852700
H581	H58	0.134500	0.444200	0.810100
C721	C72	0.434560	0.480300	0.831380
H591	H59	0.385900	0.521000	0.799700
C731	C73	0.568000	0.687200	0.696350
H601	H60	0.616100	0.731300	0.703300
C741	C74	0.574510	0.617100	0.758670
H611	H61	0.626500	0.613400	0.805600
C751	C75	0.502640	0.552300	0.750570
C761	C76	0.428060	0.559100	0.676830
H621	H62	0.379000	0.515900	0.667800
C771	C77	0.427900	0.630300	0.617850
H631	H63	0.377800	0.633800	0.569200
C781	C78	0.556390	0.180800	0.189950
H641	H64	0.504200	0.148300	0.187400
C791	C79	0.559630	0.219600	0.117760
H651	H65	0.510500	0.212200	0.068700
C801	C80	0.635530	0.269300	0.118060
C811	C81	0.705510	0.279600	0.194930
H661	H66	0.757800	0.313900	0.199800
C821	C82	0.695610	0.237900	0.263300
H671	H67	0.742800	0.245700	0.313700
C831	C83	0.712550	0.322600	0.035890
H681	H68	0.765000	0.307500	0.080400
C841	C84	0.900200	0.440900	0.906100
H691	H69	0.908500	0.489300	0.869900
C851	C85	0.817670	0.436500	0.911240
H701	H70	0.772400	0.481100	0.878900
C861	C86	0.802000	0.365500	0.964620
C871	C87	0.872700	0.300600	0.009100
H711	H71	0.865800	0.249300	0.044000
C881	C88	0.953700	0.312500	0.001400
H721	H72	0.001000	0.270800	0.034200
