data_JOQZUM_freeONLY_PM
_symmetry_space_group_name_H-M	'P1'
_cell_length_a	13.069900
_cell_length_b	13.759200
_cell_length_c	13.896400
_cell_angle_alpha	113.728000
_cell_angle_beta	111.883000
_cell_angle_gamma	101.365000
_symmetry_Int_Tables_number 1

loop_
_symmetry_equiv_pos_as_xyz
'x,y,z'

loop_
_atom_site_label
_atom_site_type_symbol
_atom_site_fract_x
_atom_site_fract_y
_atom_site_fract_z
Mn11	Mn1	0.486670	0.730290	0.868760
Mn21	Mn2	0.877490	0.448330	0.645200
Mn31	Mn3	0.122510	0.551670	0.354800
Mn41	Mn4	0.513330	0.269710	0.131240
Mn51	Mn5	0.882090	0.138470	0.868760
Mn61	Mn6	0.267710	0.196870	0.645200
Mn71	Mn7	0.732290	0.803130	0.354800
Mn81	Mn8	0.117910	0.861530	0.131240
Mo11	Mo1	0.120710	0.870710	0.741420
Mo21	Mo2	0.730830	0.480830	0.961660
Mo31	Mo3	0.879290	0.129290	0.258580
Mo41	Mo4	0.269170	0.519170	0.038340
H11	H1	0.298500	0.074600	0.226800
H21	H2	0.701500	0.925400	0.773200
H31	H3	0.449600	0.288400	0.317600
H41	H4	0.676100	0.351000	0.497000
H51	H5	0.236500	0.038300	0.464600
H61	H6	0.632000	0.970800	0.682400
H71	H7	0.428300	0.152200	0.226800
H81	H8	0.368000	0.029200	0.317600
H91	H9	0.728100	0.426300	0.464600
H101	H10	0.271900	0.573700	0.535400
H111	H11	0.320900	0.146000	0.497000
H121	H12	0.550400	0.711600	0.682400
H131	H13	0.571700	0.847800	0.773200
H141	H14	0.679100	0.854000	0.503000
H151	H15	0.323900	0.649000	0.503000
H161	H16	0.763500	0.961700	0.535400
C11	C1	0.759600	0.449700	0.811800
C21	C2	0.029300	0.975100	0.800000
C31	C3	0.873870	0.129670	0.101540
C41	C4	0.119600	0.369900	0.979600
C51	C5	0.880400	0.630100	0.020400
C61	C6	0.117300	0.495100	0.884200
C71	C7	0.243500	0.678200	0.102000
C81	C8	0.824700	0.013300	0.314000
C91	C9	0.733100	0.610900	0.115800
C101	C10	0.010700	0.699300	0.686000
C111	C11	0.989300	0.300700	0.314000
C121	C12	0.272330	0.028130	0.898460
C131	C13	0.727670	0.971870	0.101540
C141	C14	0.552200	0.362100	0.811800
C151	C15	0.270700	0.824900	0.800000
C161	C16	0.044050	0.175550	0.416900
C171	C17	0.127150	0.758650	0.583100
C181	C18	0.640000	0.390300	0.020400
C191	C19	0.882700	0.504900	0.115800
C201	C20	0.358500	0.423800	0.102000
C211	C21	0.126130	0.870330	0.898460
C221	C22	0.970700	0.024900	0.200000
C231	C23	0.872850	0.241350	0.416900
C241	C24	0.756500	0.321800	0.898000
C251	C25	0.240400	0.550300	0.188200
C261	C26	0.266900	0.389100	0.884200
C271	C27	0.175300	0.986700	0.686000
C281	C28	0.729300	0.175100	0.200000
C291	C29	0.641500	0.576200	0.898000
C301	C30	0.955950	0.824450	0.583100
C311	C31	0.447800	0.637900	0.188200
C321	C32	0.360000	0.609700	0.979600
N11	N1	0.955520	0.606930	0.659300
N21	N2	0.355750	0.109930	0.979400
N31	N3	0.871920	0.804620	0.499240
N41	N4	0.042080	0.290650	0.953600
N51	N5	0.229070	0.762310	0.134960
N61	N6	0.647860	0.197500	0.170380
N71	N7	0.957920	0.709350	0.046400
N81	N8	0.770930	0.237690	0.865040
N91	N9	0.796220	0.947630	0.340700
N101	N10	0.220900	0.565600	0.265000
N111	N11	0.455900	0.300600	0.735000
N121	N12	0.127320	0.694620	0.499240
N131	N13	0.405890	0.372650	0.134960
N141	N14	0.044480	0.393070	0.340700
N151	N15	0.544100	0.699400	0.265000
N161	N16	0.123650	0.869470	0.979400
N171	N17	0.644250	0.890070	0.020600
N181	N18	0.738660	0.679840	0.202340
N191	N19	0.203780	0.052370	0.659300
N201	N20	0.261340	0.320160	0.797660
N211	N21	0.411520	0.662950	0.953600
N221	N22	0.022520	0.972880	0.170380
N231	N23	0.977480	0.027120	0.829620
N241	N24	0.779100	0.434400	0.735000
N251	N25	0.128080	0.195380	0.500760
N261	N26	0.588480	0.337050	0.046400
N271	N27	0.594110	0.627350	0.865040
N281	N28	0.352140	0.802500	0.829620
N291	N29	0.963680	0.522500	0.202340
N301	N30	0.872680	0.305380	0.500760
N311	N31	0.876350	0.130530	0.020600
N321	N32	0.036320	0.477500	0.797660
O11	O1	0.480720	0.240010	0.264760
O21	O2	0.284040	0.024750	0.264760
O31	O3	0.307070	0.084550	0.505060
O41	O4	0.302010	0.579490	0.494940
O51	O5	0.692930	0.915450	0.494940
O61	O6	0.715960	0.975250	0.735240
O71	O7	0.697990	0.420510	0.505060
O81	O8	0.519280	0.759990	0.735240
