data_JORYUM_freeONLY_PM
_symmetry_space_group_name_H-M	'P1'
_cell_length_a	30.817000
_cell_length_b	10.354000
_cell_length_c	34.565000
_cell_angle_alpha	90.000000
_cell_angle_beta	98.748000
_cell_angle_gamma	90.000000
_symmetry_Int_Tables_number 1

loop_
_symmetry_equiv_pos_as_xyz
'x,y,z'

loop_
_atom_site_label
_atom_site_type_symbol
_atom_site_fract_x
_atom_site_fract_y
_atom_site_fract_z
Ag11	Ag1	0.381560	0.935340	0.830450
Ag21	Ag2	0.314130	0.685710	0.646500
C11	C1	0.266200	0.837100	0.818500
H11	H1	0.257800	0.899800	0.837300
H21	H2	0.240100	0.789800	0.806300
H31	H3	0.279200	0.882700	0.798200
C21	C2	0.299000	0.744100	0.839270
C31	C3	0.291590	0.620800	0.853970
C41	C4	0.332490	0.575700	0.870730
C51	C5	0.346700	0.453900	0.893100
H41	H4	0.361000	0.395900	0.876500
H51	H5	0.321000	0.410800	0.900700
H61	H6	0.367400	0.475800	0.916600
C61	C6	0.266700	0.342700	0.812380
H71	H7	0.256100	0.253400	0.812400
H81	H8	0.297500	0.346000	0.824600
H91	H9	0.264100	0.373900	0.785400
C71	C7	0.239630	0.426300	0.834920
C81	C8	0.250080	0.549200	0.852220
C91	C9	0.213100	0.586700	0.867330
C101	C10	0.204000	0.704700	0.889920
H101	H10	0.190400	0.771000	0.871800
H111	H11	0.231500	0.737700	0.904400
H121	H12	0.183900	0.682300	0.908400
C111	C11	0.323200	0.105300	0.745780
H131	H13	0.322300	0.016200	0.755100
H141	H14	0.329800	0.105400	0.718900
H151	H15	0.294700	0.146600	0.746300
C121	C12	0.358220	0.178600	0.771790
C131	C13	0.377100	0.297300	0.765230
C141	C14	0.406700	0.321500	0.798680
C151	C15	0.436500	0.433100	0.810100
H161	H16	0.447300	0.429100	0.838200
H171	H17	0.420300	0.513900	0.804000
H181	H18	0.461400	0.429600	0.795500
C161	C16	0.328600	0.579900	0.750360
H191	H19	0.345600	0.659700	0.755300
H201	H20	0.328300	0.533800	0.775100
H211	H21	0.298400	0.601000	0.738700
C171	C17	0.349100	0.495900	0.722630
C181	C18	0.370300	0.375700	0.729010
C191	C19	0.383550	0.344300	0.693830
C201	C20	0.409500	0.232200	0.681850
H221	H22	0.390900	0.154900	0.678800
H231	H23	0.435000	0.216600	0.702000
H241	H24	0.419600	0.252000	0.656900
C211	C21	0.194200	0.604300	0.598780
H251	H25	0.180600	0.529900	0.609800
H261	H26	0.172200	0.648500	0.579900
H271	H27	0.205600	0.664100	0.619900
C221	C22	0.231000	0.559000	0.578590
C231	C23	0.228430	0.500100	0.542080
C241	C24	0.271800	0.474300	0.537010
C251	C25	0.291200	0.412900	0.504860
H281	H28	0.305400	0.479000	0.490800
H291	H29	0.268000	0.370400	0.486800
H301	H30	0.313000	0.348700	0.515800
C261	C26	0.149000	0.301800	0.550050
H311	H31	0.132300	0.350100	0.567200
H321	H32	0.177700	0.278300	0.564600
H331	H33	0.132900	0.223300	0.540900
C271	C27	0.155100	0.383700	0.515760
C281	C28	0.189320	0.472500	0.512160
C291	C29	0.179250	0.526600	0.475690
C301	C30	0.202700	0.626100	0.455410
H341	H34	0.223900	0.583700	0.441200
H351	H35	0.218100	0.685800	0.474800
H361	H36	0.181400	0.674200	0.436900
C311	C31	0.421000	0.900000	0.738000
H371	H37	0.398200	0.843700	0.724300
H381	H38	0.439300	0.933100	0.719400
H391	H39	0.407300	0.972500	0.749800
C321	C32	0.448800	0.825200	0.769370
C331	C33	0.488200	0.758100	0.766770
C341	C34	0.500640	0.703800	0.803210
C351	C35	0.538800	0.620500	0.817780
H401	H40	0.564600	0.674700	0.826100
H411	H41	0.544700	0.562400	0.796800
H421	H42	0.532200	0.569500	0.840100
N11	N1	0.341290	0.773700	0.846190
N21	N2	0.361650	0.670000	0.865530
H431	H43	0.390100	0.665000	0.873600
N31	N3	0.199300	0.390800	0.840320
N41	N4	0.183490	0.489900	0.859710
H441	H44	0.157100	0.491200	0.866500
N51	N5	0.374850	0.131400	0.806700
N61	N6	0.404390	0.221900	0.822980
H451	H45	0.419900	0.215600	0.846500
N71	N7	0.349180	0.535800	0.685890
N81	N8	0.370450	0.441200	0.668750
H461	H46	0.375100	0.443200	0.644300
N91	N9	0.272650	0.569400	0.596190
N101	N10	0.296370	0.516900	0.570130
H471	H47	0.325200	0.511200	0.574500
N111	N11	0.125910	0.382600	0.483130
N121	N12	0.141100	0.468700	0.458900
H481	H48	0.127900	0.485400	0.435000
N131	N13	0.437760	0.813600	0.805050
N141	N14	0.470170	0.739800	0.825470
H491	H49	0.471100	0.718200	0.850200
Ag31	Ag3	0.881560	0.435340	0.830450
Ag41	Ag4	0.814130	0.185710	0.646500
C361	C36	0.766200	0.337100	0.818500
H501	H50	0.757800	0.399800	0.837300
H511	H51	0.740100	0.289800	0.806300
H521	H52	0.779200	0.382700	0.798200
C371	C37	0.799000	0.244100	0.839270
C381	C38	0.791590	0.120800	0.853970
C391	C39	0.832490	0.075700	0.870730
C401	C40	0.846700	0.953900	0.893100
H531	H53	0.861000	0.895900	0.876500
H541	H54	0.821000	0.910800	0.900700
H551	H55	0.867400	0.975800	0.916600
C411	C41	0.766700	0.842700	0.812380
H561	H56	0.756100	0.753400	0.812400
H571	H57	0.797500	0.846000	0.824600
H581	H58	0.764100	0.873900	0.785400
C421	C42	0.739630	0.926300	0.834920
C431	C43	0.750080	0.049200	0.852220
C441	C44	0.713100	0.086700	0.867330
C451	C45	0.704000	0.204700	0.889920
H591	H59	0.690400	0.271000	0.871800
H601	H60	0.731500	0.237700	0.904400
H611	H61	0.683900	0.182300	0.908400
C461	C46	0.823200	0.605300	0.745780
H621	H62	0.822300	0.516200	0.755100
H631	H63	0.829800	0.605400	0.718900
H641	H64	0.794700	0.646600	0.746300
C471	C47	0.858220	0.678600	0.771790
C481	C48	0.877100	0.797300	0.765230
C491	C49	0.906700	0.821500	0.798680
C501	C50	0.936500	0.933100	0.810100
H651	H65	0.947300	0.929100	0.838200
H661	H66	0.920300	0.013900	0.804000
H671	H67	0.961400	0.929600	0.795500
C511	C51	0.828600	0.079900	0.750360
H681	H68	0.845600	0.159700	0.755300
H691	H69	0.828300	0.033800	0.775100
H701	H70	0.798400	0.101000	0.738700
C521	C52	0.849100	0.995900	0.722630
C531	C53	0.870300	0.875700	0.729010
C541	C54	0.883550	0.844300	0.693830
C551	C55	0.909500	0.732200	0.681850
H711	H71	0.890900	0.654900	0.678800
H721	H72	0.935000	0.716600	0.702000
H731	H73	0.919600	0.752000	0.656900
C561	C56	0.694200	0.104300	0.598780
H741	H74	0.680600	0.029900	0.609800
H751	H75	0.672200	0.148500	0.579900
H761	H76	0.705600	0.164100	0.619900
C571	C57	0.731000	0.059000	0.578590
C581	C58	0.728430	0.000100	0.542080
C591	C59	0.771800	0.974300	0.537010
C601	C60	0.791200	0.912900	0.504860
H771	H77	0.805400	0.979000	0.490800
H781	H78	0.768000	0.870400	0.486800
H791	H79	0.813000	0.848700	0.515800
C611	C61	0.649000	0.801800	0.550050
H801	H80	0.632300	0.850100	0.567200
H811	H81	0.677700	0.778300	0.564600
H821	H82	0.632900	0.723300	0.540900
C621	C62	0.655100	0.883700	0.515760
C631	C63	0.689320	0.972500	0.512160
C641	C64	0.679250	0.026600	0.475690
C651	C65	0.702700	0.126100	0.455410
H831	H83	0.723900	0.083700	0.441200
H841	H84	0.718100	0.185800	0.474800
H851	H85	0.681400	0.174200	0.436900
C661	C66	0.921000	0.400000	0.738000
H861	H86	0.898200	0.343700	0.724300
H871	H87	0.939300	0.433100	0.719400
H881	H88	0.907300	0.472500	0.749800
C671	C67	0.948800	0.325200	0.769370
C681	C68	0.988200	0.258100	0.766770
C691	C69	0.000640	0.203800	0.803210
C701	C70	0.038800	0.120500	0.817780
H891	H89	0.064600	0.174700	0.826100
H901	H90	0.044700	0.062400	0.796800
H911	H91	0.032200	0.069500	0.840100
N151	N15	0.841290	0.273700	0.846190
N161	N16	0.861650	0.170000	0.865530
H921	H92	0.890100	0.165000	0.873600
N171	N17	0.699300	0.890800	0.840320
N181	N18	0.683490	0.989900	0.859710
H931	H93	0.657100	0.991200	0.866500
N191	N19	0.874850	0.631400	0.806700
N201	N20	0.904390	0.721900	0.822980
H941	H94	0.919900	0.715600	0.846500
N211	N21	0.849180	0.035800	0.685890
N221	N22	0.870450	0.941200	0.668750
H951	H95	0.875100	0.943200	0.644300
N231	N23	0.772650	0.069400	0.596190
N241	N24	0.796370	0.016900	0.570130
H961	H96	0.825200	0.011200	0.574500
N251	N25	0.625910	0.882600	0.483130
N261	N26	0.641100	0.968700	0.458900
H971	H97	0.627900	0.985400	0.435000
N271	N27	0.937760	0.313600	0.805050
N281	N28	0.970170	0.239800	0.825470
H981	H98	0.971100	0.218200	0.850200
Ag51	Ag5	0.618440	0.935340	0.669550
Ag61	Ag6	0.685870	0.685710	0.853500
C711	C71	0.733800	0.837100	0.681500
H991	H99	0.742200	0.899800	0.662700
H1001	H100	0.759900	0.789800	0.693700
H1011	H101	0.720800	0.882700	0.701800
C721	C72	0.701000	0.744100	0.660730
C731	C73	0.708410	0.620800	0.646030
C741	C74	0.667510	0.575700	0.629270
C751	C75	0.653300	0.453900	0.606900
H1021	H102	0.639000	0.395900	0.623500
H1031	H103	0.679000	0.410800	0.599300
H1041	H104	0.632600	0.475800	0.583400
C761	C76	0.733300	0.342700	0.687620
H1051	H105	0.743900	0.253400	0.687600
H1061	H106	0.702500	0.346000	0.675400
H1071	H107	0.735900	0.373900	0.714600
C771	C77	0.760370	0.426300	0.665080
C781	C78	0.749920	0.549200	0.647780
C791	C79	0.786900	0.586700	0.632670
C801	C80	0.796000	0.704700	0.610080
H1081	H108	0.809600	0.771000	0.628200
H1091	H109	0.768500	0.737700	0.595600
H1101	H110	0.816100	0.682300	0.591600
C811	C81	0.676800	0.105300	0.754220
H1111	H111	0.677700	0.016200	0.744900
H1121	H112	0.670200	0.105400	0.781100
H1131	H113	0.705300	0.146600	0.753700
C821	C82	0.641780	0.178600	0.728210
C831	C83	0.622900	0.297300	0.734770
C841	C84	0.593300	0.321500	0.701320
C851	C85	0.563500	0.433100	0.689900
H1141	H114	0.552700	0.429100	0.661800
H1151	H115	0.579700	0.513900	0.696000
H1161	H116	0.538600	0.429600	0.704500
C861	C86	0.671400	0.579900	0.749640
H1171	H117	0.654400	0.659700	0.744700
H1181	H118	0.671700	0.533800	0.724900
H1191	H119	0.701600	0.601000	0.761300
C871	C87	0.650900	0.495900	0.777370
C881	C88	0.629700	0.375700	0.770990
C891	C89	0.616450	0.344300	0.806170
C901	C90	0.590500	0.232200	0.818150
H1201	H120	0.609100	0.154900	0.821200
H1211	H121	0.565000	0.216600	0.798000
H1221	H122	0.580400	0.252000	0.843100
C911	C91	0.805800	0.604300	0.901220
H1231	H123	0.819400	0.529900	0.890200
H1241	H124	0.827800	0.648500	0.920100
H1251	H125	0.794400	0.664100	0.880100
C921	C92	0.769000	0.559000	0.921410
C931	C93	0.771570	0.500100	0.957920
C941	C94	0.728200	0.474300	0.962990
C951	C95	0.708800	0.412900	0.995140
H1261	H126	0.694600	0.479000	0.009200
H1271	H127	0.732000	0.370400	0.013200
H1281	H128	0.687000	0.348700	0.984200
C961	C96	0.851000	0.301800	0.949950
H1291	H129	0.867700	0.350100	0.932800
H1301	H130	0.822300	0.278300	0.935400
H1311	H131	0.867100	0.223300	0.959100
C971	C97	0.844900	0.383700	0.984240
C981	C98	0.810680	0.472500	0.987840
C991	C99	0.820750	0.526600	0.024310
C1001	C100	0.797300	0.626100	0.044590
H1321	H132	0.776100	0.583700	0.058800
H1331	H133	0.781900	0.685800	0.025200
H1341	H134	0.818600	0.674200	0.063100
C1011	C101	0.579000	0.900000	0.762000
H1351	H135	0.601800	0.843700	0.775700
H1361	H136	0.560700	0.933100	0.780600
H1371	H137	0.592700	0.972500	0.750200
C1021	C102	0.551200	0.825200	0.730630
C1031	C103	0.511800	0.758100	0.733230
C1041	C104	0.499360	0.703800	0.696790
C1051	C105	0.461200	0.620500	0.682220
H1381	H138	0.435400	0.674700	0.673900
H1391	H139	0.455300	0.562400	0.703200
H1401	H140	0.467800	0.569500	0.659900
N291	N29	0.658710	0.773700	0.653810
N301	N30	0.638350	0.670000	0.634470
H1411	H141	0.609900	0.665000	0.626400
N311	N31	0.800700	0.390800	0.659680
N321	N32	0.816510	0.489900	0.640290
H1421	H142	0.842900	0.491200	0.633500
N331	N33	0.625150	0.131400	0.693300
N341	N34	0.595610	0.221900	0.677020
H1431	H143	0.580100	0.215600	0.653500
N351	N35	0.650820	0.535800	0.814110
N361	N36	0.629550	0.441200	0.831250
H1441	H144	0.624900	0.443200	0.855700
N371	N37	0.727350	0.569400	0.903810
N381	N38	0.703630	0.516900	0.929870
H1451	H145	0.674800	0.511200	0.925500
N391	N39	0.874090	0.382600	0.016870
N401	N40	0.858900	0.468700	0.041100
H1461	H146	0.872100	0.485400	0.065000
N411	N41	0.562240	0.813600	0.694950
N421	N42	0.529830	0.739800	0.674530
H1471	H147	0.528900	0.718200	0.649800
Ag71	Ag7	0.118440	0.435340	0.669550
Ag81	Ag8	0.185870	0.185710	0.853500
C1061	C106	0.233800	0.337100	0.681500
H1481	H148	0.242200	0.399800	0.662700
H1491	H149	0.259900	0.289800	0.693700
H1501	H150	0.220800	0.382700	0.701800
C1071	C107	0.201000	0.244100	0.660730
C1081	C108	0.208410	0.120800	0.646030
C1091	C109	0.167510	0.075700	0.629270
C1101	C110	0.153300	0.953900	0.606900
H1511	H151	0.139000	0.895900	0.623500
H1521	H152	0.179000	0.910800	0.599300
H1531	H153	0.132600	0.975800	0.583400
C1111	C111	0.233300	0.842700	0.687620
H1541	H154	0.243900	0.753400	0.687600
H1551	H155	0.202500	0.846000	0.675400
H1561	H156	0.235900	0.873900	0.714600
C1121	C112	0.260370	0.926300	0.665080
C1131	C113	0.249920	0.049200	0.647780
C1141	C114	0.286900	0.086700	0.632670
C1151	C115	0.296000	0.204700	0.610080
H1571	H157	0.309600	0.271000	0.628200
H1581	H158	0.268500	0.237700	0.595600
H1591	H159	0.316100	0.182300	0.591600
C1161	C116	0.176800	0.605300	0.754220
H1601	H160	0.177700	0.516200	0.744900
H1611	H161	0.170200	0.605400	0.781100
H1621	H162	0.205300	0.646600	0.753700
C1171	C117	0.141780	0.678600	0.728210
C1181	C118	0.122900	0.797300	0.734770
C1191	C119	0.093300	0.821500	0.701320
C1201	C120	0.063500	0.933100	0.689900
H1631	H163	0.052700	0.929100	0.661800
H1641	H164	0.079700	0.013900	0.696000
H1651	H165	0.038600	0.929600	0.704500
C1211	C121	0.171400	0.079900	0.749640
H1661	H166	0.154400	0.159700	0.744700
H1671	H167	0.171700	0.033800	0.724900
H1681	H168	0.201600	0.101000	0.761300
C1221	C122	0.150900	0.995900	0.777370
C1231	C123	0.129700	0.875700	0.770990
C1241	C124	0.116450	0.844300	0.806170
C1251	C125	0.090500	0.732200	0.818150
H1691	H169	0.109100	0.654900	0.821200
H1701	H170	0.065000	0.716600	0.798000
H1711	H171	0.080400	0.752000	0.843100
C1261	C126	0.305800	0.104300	0.901220
H1721	H172	0.319400	0.029900	0.890200
H1731	H173	0.327800	0.148500	0.920100
H1741	H174	0.294400	0.164100	0.880100
C1271	C127	0.269000	0.059000	0.921410
C1281	C128	0.271570	0.000100	0.957920
C1291	C129	0.228200	0.974300	0.962990
C1301	C130	0.208800	0.912900	0.995140
H1751	H175	0.194600	0.979000	0.009200
H1761	H176	0.232000	0.870400	0.013200
H1771	H177	0.187000	0.848700	0.984200
C1311	C131	0.351000	0.801800	0.949950
H1781	H178	0.367700	0.850100	0.932800
H1791	H179	0.322300	0.778300	0.935400
H1801	H180	0.367100	0.723300	0.959100
C1321	C132	0.344900	0.883700	0.984240
C1331	C133	0.310680	0.972500	0.987840
C1341	C134	0.320750	0.026600	0.024310
C1351	C135	0.297300	0.126100	0.044590
H1811	H181	0.276100	0.083700	0.058800
H1821	H182	0.281900	0.185800	0.025200
H1831	H183	0.318600	0.174200	0.063100
C1361	C136	0.079000	0.400000	0.762000
H1841	H184	0.101800	0.343700	0.775700
H1851	H185	0.060700	0.433100	0.780600
H1861	H186	0.092700	0.472500	0.750200
C1371	C137	0.051200	0.325200	0.730630
C1381	C138	0.011800	0.258100	0.733230
C1391	C139	0.999360	0.203800	0.696790
C1401	C140	0.961200	0.120500	0.682220
H1871	H187	0.935400	0.174700	0.673900
H1881	H188	0.955300	0.062400	0.703200
H1891	H189	0.967800	0.069500	0.659900
N431	N43	0.158710	0.273700	0.653810
N441	N44	0.138350	0.170000	0.634470
H1901	H190	0.109900	0.165000	0.626400
N451	N45	0.300700	0.890800	0.659680
N461	N46	0.316510	0.989900	0.640290
H1911	H191	0.342900	0.991200	0.633500
N471	N47	0.125150	0.631400	0.693300
N481	N48	0.095610	0.721900	0.677020
H1921	H192	0.080100	0.715600	0.653500
N491	N49	0.150820	0.035800	0.814110
N501	N50	0.129550	0.941200	0.831250
H1931	H193	0.124900	0.943200	0.855700
N511	N51	0.227350	0.069400	0.903810
N521	N52	0.203630	0.016900	0.929870
H1941	H194	0.174800	0.011200	0.925500
N531	N53	0.374090	0.882600	0.016870
N541	N54	0.358900	0.968700	0.041100
H1951	H195	0.372100	0.985400	0.065000
N551	N55	0.062240	0.313600	0.694950
N561	N56	0.029830	0.239800	0.674530
H1961	H196	0.028900	0.218200	0.649800
C1411	C141	0.601200	0.380300	0.406070
C1421	C142	0.563930	0.335300	0.426850
H1971	H197	0.543600	0.407900	0.429300
H1981	H198	0.547200	0.265700	0.411600
C1431	C143	0.583100	0.285400	0.467450
H1991	H199	0.609800	0.234600	0.465400
H2001	H200	0.591900	0.360100	0.484700
C1441	C144	0.551360	0.201200	0.486370
H2011	H201	0.543900	0.123500	0.470000
H2021	H202	0.523900	0.250000	0.487100
C1451	C145	0.569900	0.159400	0.527210
H2031	H203	0.597800	0.112800	0.526500
H2041	H204	0.576600	0.237100	0.543800
C1461	C146	0.538800	0.071900	0.545880
H2051	H205	0.539000	0.984100	0.534600
H2061	H206	0.508500	0.106000	0.539900
C1471	C147	0.552200	0.064800	0.589490
O11	O1	0.620710	0.296000	0.388880
O21	O2	0.611470	0.499400	0.408030
O31	O3	0.572000	0.967200	0.604290
O41	O4	0.542300	0.159600	0.609860
C1481	C148	0.101200	0.880300	0.406070
C1491	C149	0.063930	0.835300	0.426850
H2071	H207	0.043600	0.907900	0.429300
H2081	H208	0.047200	0.765700	0.411600
C1501	C150	0.083100	0.785400	0.467450
H2091	H209	0.109800	0.734600	0.465400
H2101	H210	0.091900	0.860100	0.484700
C1511	C151	0.051360	0.701200	0.486370
H2111	H211	0.043900	0.623500	0.470000
H2121	H212	0.023900	0.750000	0.487100
C1521	C152	0.069900	0.659400	0.527210
H2131	H213	0.097800	0.612800	0.526500
H2141	H214	0.076600	0.737100	0.543800
C1531	C153	0.038800	0.571900	0.545880
H2151	H215	0.039000	0.484100	0.534600
H2161	H216	0.008500	0.606000	0.539900
C1541	C154	0.052200	0.564800	0.589490
O51	O5	0.120710	0.796000	0.388880
O61	O6	0.111470	0.999400	0.408030
O71	O7	0.072000	0.467200	0.604290
O81	O8	0.042300	0.659600	0.609860
C1551	C155	0.398800	0.380300	0.093930
C1561	C156	0.436070	0.335300	0.073150
H2171	H217	0.456400	0.407900	0.070700
H2181	H218	0.452800	0.265700	0.088400
C1571	C157	0.416900	0.285400	0.032550
H2191	H219	0.390200	0.234600	0.034600
H2201	H220	0.408100	0.360100	0.015300
C1581	C158	0.448640	0.201200	0.013630
H2211	H221	0.456100	0.123500	0.030000
H2221	H222	0.476100	0.250000	0.012900
C1591	C159	0.430100	0.159400	0.972790
H2231	H223	0.402200	0.112800	0.973500
H2241	H224	0.423400	0.237100	0.956200
C1601	C160	0.461200	0.071900	0.954120
H2251	H225	0.461000	0.984100	0.965400
H2261	H226	0.491500	0.106000	0.960100
C1611	C161	0.447800	0.064800	0.910510
O91	O9	0.379290	0.296000	0.111120
O101	O10	0.388530	0.499400	0.091970
O111	O11	0.428000	0.967200	0.895710
O121	O12	0.457700	0.159600	0.890140
C1621	C162	0.898800	0.880300	0.093930
C1631	C163	0.936070	0.835300	0.073150
H2271	H227	0.956400	0.907900	0.070700
H2281	H228	0.952800	0.765700	0.088400
C1641	C164	0.916900	0.785400	0.032550
H2291	H229	0.890200	0.734600	0.034600
H2301	H230	0.908100	0.860100	0.015300
C1651	C165	0.948640	0.701200	0.013630
H2311	H231	0.956100	0.623500	0.030000
H2321	H232	0.976100	0.750000	0.012900
C1661	C166	0.930100	0.659400	0.972790
H2331	H233	0.902200	0.612800	0.973500
H2341	H234	0.923400	0.737100	0.956200
C1671	C167	0.961200	0.571900	0.954120
H2351	H235	0.961000	0.484100	0.965400
H2361	H236	0.991500	0.606000	0.960100
C1681	C168	0.947800	0.564800	0.910510
O131	O13	0.879290	0.796000	0.111120
O141	O14	0.888530	0.999400	0.091970
O151	O15	0.928000	0.467200	0.895710
O161	O16	0.957700	0.659600	0.890140
C1691	C169	0.398800	0.619700	0.593930
C1701	C170	0.436070	0.664700	0.573150
H2371	H237	0.456400	0.592100	0.570700
H2381	H238	0.452800	0.734300	0.588400
C1711	C171	0.416900	0.714600	0.532550
H2391	H239	0.390200	0.765400	0.534600
H2401	H240	0.408100	0.639900	0.515300
C1721	C172	0.448640	0.798800	0.513630
H2411	H241	0.456100	0.876500	0.530000
H2421	H242	0.476100	0.750000	0.512900
C1731	C173	0.430100	0.840600	0.472790
H2431	H243	0.402200	0.887200	0.473500
H2441	H244	0.423400	0.762900	0.456200
C1741	C174	0.461200	0.928100	0.454120
H2451	H245	0.461000	0.015900	0.465400
H2461	H246	0.491500	0.894000	0.460100
C1751	C175	0.447800	0.935200	0.410510
O171	O17	0.379290	0.704000	0.611120
O181	O18	0.388530	0.500600	0.591970
O191	O19	0.428000	0.032800	0.395710
O201	O20	0.457700	0.840400	0.390140
C1761	C176	0.898800	0.119700	0.593930
C1771	C177	0.936070	0.164700	0.573150
H2471	H247	0.956400	0.092100	0.570700
H2481	H248	0.952800	0.234300	0.588400
C1781	C178	0.916900	0.214600	0.532550
H2491	H249	0.890200	0.265400	0.534600
H2501	H250	0.908100	0.139900	0.515300
C1791	C179	0.948640	0.298800	0.513630
H2511	H251	0.956100	0.376500	0.530000
H2521	H252	0.976100	0.250000	0.512900
C1801	C180	0.930100	0.340600	0.472790
H2531	H253	0.902200	0.387200	0.473500
H2541	H254	0.923400	0.262900	0.456200
C1811	C181	0.961200	0.428100	0.454120
H2551	H255	0.961000	0.515900	0.465400
H2561	H256	0.991500	0.394000	0.460100
C1821	C182	0.947800	0.435200	0.410510
O211	O21	0.879290	0.204000	0.611120
O221	O22	0.888530	0.000600	0.591970
O231	O23	0.928000	0.532800	0.395710
O241	O24	0.957700	0.340400	0.390140
C1831	C183	0.601200	0.619700	0.906070
C1841	C184	0.563930	0.664700	0.926850
H2571	H257	0.543600	0.592100	0.929300
H2581	H258	0.547200	0.734300	0.911600
C1851	C185	0.583100	0.714600	0.967450
H2591	H259	0.609800	0.765400	0.965400
H2601	H260	0.591900	0.639900	0.984700
C1861	C186	0.551360	0.798800	0.986370
H2611	H261	0.543900	0.876500	0.970000
H2621	H262	0.523900	0.750000	0.987100
C1871	C187	0.569900	0.840600	0.027210
H2631	H263	0.597800	0.887200	0.026500
H2641	H264	0.576600	0.762900	0.043800
C1881	C188	0.538800	0.928100	0.045880
H2651	H265	0.539000	0.015900	0.034600
H2661	H266	0.508500	0.894000	0.039900
C1891	C189	0.552200	0.935200	0.089490
O251	O25	0.620710	0.704000	0.888880
O261	O26	0.611470	0.500600	0.908030
O271	O27	0.572000	0.032800	0.104290
O281	O28	0.542300	0.840400	0.109860
C1901	C190	0.101200	0.119700	0.906070
C1911	C191	0.063930	0.164700	0.926850
H2671	H267	0.043600	0.092100	0.929300
H2681	H268	0.047200	0.234300	0.911600
C1921	C192	0.083100	0.214600	0.967450
H2691	H269	0.109800	0.265400	0.965400
H2701	H270	0.091900	0.139900	0.984700
C1931	C193	0.051360	0.298800	0.986370
H2711	H271	0.043900	0.376500	0.970000
H2721	H272	0.023900	0.250000	0.987100
C1941	C194	0.069900	0.340600	0.027210
H2731	H273	0.097800	0.387200	0.026500
H2741	H274	0.076600	0.262900	0.043800
C1951	C195	0.038800	0.428100	0.045880
H2751	H275	0.039000	0.515900	0.034600
H2761	H276	0.008500	0.394000	0.039900
C1961	C196	0.052200	0.435200	0.089490
O291	O29	0.120710	0.204000	0.888880
O301	O30	0.111470	0.000600	0.908030
O311	O31	0.072000	0.532800	0.104290
O321	O32	0.042300	0.340400	0.109860
Ag91	Ag9	0.618440	0.064660	0.169550
Ag101	Ag10	0.685870	0.314290	0.353500
C1971	C197	0.733800	0.162900	0.181500
H2771	H277	0.742200	0.100200	0.162700
H2781	H278	0.759900	0.210200	0.193700
H2791	H279	0.720800	0.117300	0.201800
C1981	C198	0.701000	0.255900	0.160730
C1991	C199	0.708410	0.379200	0.146030
C2001	C200	0.667510	0.424300	0.129270
C2011	C201	0.653300	0.546100	0.106900
H2801	H280	0.639000	0.604100	0.123500
H2811	H281	0.679000	0.589200	0.099300
H2821	H282	0.632600	0.524200	0.083400
C2021	C202	0.733300	0.657300	0.187620
H2831	H283	0.743900	0.746600	0.187600
H2841	H284	0.702500	0.654000	0.175400
H2851	H285	0.735900	0.626100	0.214600
C2031	C203	0.760370	0.573700	0.165080
C2041	C204	0.749920	0.450800	0.147780
C2051	C205	0.786900	0.413300	0.132670
C2061	C206	0.796000	0.295300	0.110080
H2861	H286	0.809600	0.229000	0.128200
H2871	H287	0.768500	0.262300	0.095600
H2881	H288	0.816100	0.317700	0.091600
C2071	C207	0.676800	0.894700	0.254220
H2891	H289	0.677700	0.983800	0.244900
H2901	H290	0.670200	0.894600	0.281100
H2911	H291	0.705300	0.853400	0.253700
C2081	C208	0.641780	0.821400	0.228210
C2091	C209	0.622900	0.702700	0.234770
C2101	C210	0.593300	0.678500	0.201320
C2111	C211	0.563500	0.566900	0.189900
H2921	H292	0.552700	0.570900	0.161800
H2931	H293	0.579700	0.486100	0.196000
H2941	H294	0.538600	0.570400	0.204500
C2121	C212	0.671400	0.420100	0.249640
H2951	H295	0.654400	0.340300	0.244700
H2961	H296	0.671700	0.466200	0.224900
H2971	H297	0.701600	0.399000	0.261300
C2131	C213	0.650900	0.504100	0.277370
C2141	C214	0.629700	0.624300	0.270990
C2151	C215	0.616450	0.655700	0.306170
C2161	C216	0.590500	0.767800	0.318150
H2981	H298	0.609100	0.845100	0.321200
H2991	H299	0.565000	0.783400	0.298000
H3001	H300	0.580400	0.748000	0.343100
C2171	C217	0.805800	0.395700	0.401220
H3011	H301	0.819400	0.470100	0.390200
H3021	H302	0.827800	0.351500	0.420100
H3031	H303	0.794400	0.335900	0.380100
C2181	C218	0.769000	0.441000	0.421410
C2191	C219	0.771570	0.499900	0.457920
C2201	C220	0.728200	0.525700	0.462990
C2211	C221	0.708800	0.587100	0.495140
H3041	H304	0.694600	0.521000	0.509200
H3051	H305	0.732000	0.629600	0.513200
H3061	H306	0.687000	0.651300	0.484200
C2221	C222	0.851000	0.698200	0.449950
H3071	H307	0.867700	0.649900	0.432800
H3081	H308	0.822300	0.721700	0.435400
H3091	H309	0.867100	0.776700	0.459100
C2231	C223	0.844900	0.616300	0.484240
C2241	C224	0.810680	0.527500	0.487840
C2251	C225	0.820750	0.473400	0.524310
C2261	C226	0.797300	0.373900	0.544590
H3101	H310	0.776100	0.416300	0.558800
H3111	H311	0.781900	0.314200	0.525200
H3121	H312	0.818600	0.325800	0.563100
C2271	C227	0.579000	0.100000	0.262000
H3131	H313	0.601800	0.156300	0.275700
H3141	H314	0.560700	0.066900	0.280600
H3151	H315	0.592700	0.027500	0.250200
C2281	C228	0.551200	0.174800	0.230630
C2291	C229	0.511800	0.241900	0.233230
C2301	C230	0.499360	0.296200	0.196790
C2311	C231	0.461200	0.379500	0.182220
H3161	H316	0.435400	0.325300	0.173900
H3171	H317	0.455300	0.437600	0.203200
H3181	H318	0.467800	0.430500	0.159900
N571	N57	0.658710	0.226300	0.153810
N581	N58	0.638350	0.330000	0.134470
H3191	H319	0.609900	0.335000	0.126400
N591	N59	0.800700	0.609200	0.159680
N601	N60	0.816510	0.510100	0.140290
H3201	H320	0.842900	0.508800	0.133500
N611	N61	0.625150	0.868600	0.193300
N621	N62	0.595610	0.778100	0.177020
H3211	H321	0.580100	0.784400	0.153500
N631	N63	0.650820	0.464200	0.314110
N641	N64	0.629550	0.558800	0.331250
H3221	H322	0.624900	0.556800	0.355700
N651	N65	0.727350	0.430600	0.403810
N661	N66	0.703630	0.483100	0.429870
H3231	H323	0.674800	0.488800	0.425500
N671	N67	0.874090	0.617400	0.516870
N681	N68	0.858900	0.531300	0.541100
H3241	H324	0.872100	0.514600	0.565000
N691	N69	0.562240	0.186400	0.194950
N701	N70	0.529830	0.260200	0.174530
H3251	H325	0.528900	0.281800	0.149800
Ag111	Ag11	0.118440	0.564660	0.169550
Ag121	Ag12	0.185870	0.814290	0.353500
C2321	C232	0.233800	0.662900	0.181500
H3261	H326	0.242200	0.600200	0.162700
H3271	H327	0.259900	0.710200	0.193700
H3281	H328	0.220800	0.617300	0.201800
C2331	C233	0.201000	0.755900	0.160730
C2341	C234	0.208410	0.879200	0.146030
C2351	C235	0.167510	0.924300	0.129270
C2361	C236	0.153300	0.046100	0.106900
H3291	H329	0.139000	0.104100	0.123500
H3301	H330	0.179000	0.089200	0.099300
H3311	H331	0.132600	0.024200	0.083400
C2371	C237	0.233300	0.157300	0.187620
H3321	H332	0.243900	0.246600	0.187600
H3331	H333	0.202500	0.154000	0.175400
H3341	H334	0.235900	0.126100	0.214600
C2381	C238	0.260370	0.073700	0.165080
C2391	C239	0.249920	0.950800	0.147780
C2401	C240	0.286900	0.913300	0.132670
C2411	C241	0.296000	0.795300	0.110080
H3351	H335	0.309600	0.729000	0.128200
H3361	H336	0.268500	0.762300	0.095600
H3371	H337	0.316100	0.817700	0.091600
C2421	C242	0.176800	0.394700	0.254220
H3381	H338	0.177700	0.483800	0.244900
H3391	H339	0.170200	0.394600	0.281100
H3401	H340	0.205300	0.353400	0.253700
C2431	C243	0.141780	0.321400	0.228210
C2441	C244	0.122900	0.202700	0.234770
C2451	C245	0.093300	0.178500	0.201320
C2461	C246	0.063500	0.066900	0.189900
H3411	H341	0.052700	0.070900	0.161800
H3421	H342	0.079700	0.986100	0.196000
H3431	H343	0.038600	0.070400	0.204500
C2471	C247	0.171400	0.920100	0.249640
H3441	H344	0.154400	0.840300	0.244700
H3451	H345	0.171700	0.966200	0.224900
H3461	H346	0.201600	0.899000	0.261300
C2481	C248	0.150900	0.004100	0.277370
C2491	C249	0.129700	0.124300	0.270990
C2501	C250	0.116450	0.155700	0.306170
C2511	C251	0.090500	0.267800	0.318150
H3471	H347	0.109100	0.345100	0.321200
H3481	H348	0.065000	0.283400	0.298000
H3491	H349	0.080400	0.248000	0.343100
C2521	C252	0.305800	0.895700	0.401220
H3501	H350	0.319400	0.970100	0.390200
H3511	H351	0.327800	0.851500	0.420100
H3521	H352	0.294400	0.835900	0.380100
C2531	C253	0.269000	0.941000	0.421410
C2541	C254	0.271570	0.999900	0.457920
C2551	C255	0.228200	0.025700	0.462990
C2561	C256	0.208800	0.087100	0.495140
H3531	H353	0.194600	0.021000	0.509200
H3541	H354	0.232000	0.129600	0.513200
H3551	H355	0.187000	0.151300	0.484200
C2571	C257	0.351000	0.198200	0.449950
H3561	H356	0.367700	0.149900	0.432800
H3571	H357	0.322300	0.221700	0.435400
H3581	H358	0.367100	0.276700	0.459100
C2581	C258	0.344900	0.116300	0.484240
C2591	C259	0.310680	0.027500	0.487840
C2601	C260	0.320750	0.973400	0.524310
C2611	C261	0.297300	0.873900	0.544590
H3591	H359	0.276100	0.916300	0.558800
H3601	H360	0.281900	0.814200	0.525200
H3611	H361	0.318600	0.825800	0.563100
C2621	C262	0.079000	0.600000	0.262000
H3621	H362	0.101800	0.656300	0.275700
H3631	H363	0.060700	0.566900	0.280600
H3641	H364	0.092700	0.527500	0.250200
C2631	C263	0.051200	0.674800	0.230630
C2641	C264	0.011800	0.741900	0.233230
C2651	C265	0.999360	0.796200	0.196790
C2661	C266	0.961200	0.879500	0.182220
H3651	H365	0.935400	0.825300	0.173900
H3661	H366	0.955300	0.937600	0.203200
H3671	H367	0.967800	0.930500	0.159900
N711	N71	0.158710	0.726300	0.153810
N721	N72	0.138350	0.830000	0.134470
H3681	H368	0.109900	0.835000	0.126400
N731	N73	0.300700	0.109200	0.159680
N741	N74	0.316510	0.010100	0.140290
H3691	H369	0.342900	0.008800	0.133500
N751	N75	0.125150	0.368600	0.193300
N761	N76	0.095610	0.278100	0.177020
H3701	H370	0.080100	0.284400	0.153500
N771	N77	0.150820	0.964200	0.314110
N781	N78	0.129550	0.058800	0.331250
H3711	H371	0.124900	0.056800	0.355700
N791	N79	0.227350	0.930600	0.403810
N801	N80	0.203630	0.983100	0.429870
H3721	H372	0.174800	0.988800	0.425500
N811	N81	0.374090	0.117400	0.516870
N821	N82	0.358900	0.031300	0.541100
H3731	H373	0.372100	0.014600	0.565000
N831	N83	0.062240	0.686400	0.194950
N841	N84	0.029830	0.760200	0.174530
H3741	H374	0.028900	0.781800	0.149800
Ag131	Ag13	0.381560	0.064660	0.330450
Ag141	Ag14	0.314130	0.314290	0.146500
C2671	C267	0.266200	0.162900	0.318500
H3751	H375	0.257800	0.100200	0.337300
H3761	H376	0.240100	0.210200	0.306300
H3771	H377	0.279200	0.117300	0.298200
C2681	C268	0.299000	0.255900	0.339270
C2691	C269	0.291590	0.379200	0.353970
C2701	C270	0.332490	0.424300	0.370730
C2711	C271	0.346700	0.546100	0.393100
H3781	H378	0.361000	0.604100	0.376500
H3791	H379	0.321000	0.589200	0.400700
H3801	H380	0.367400	0.524200	0.416600
C2721	C272	0.266700	0.657300	0.312380
H3811	H381	0.256100	0.746600	0.312400
H3821	H382	0.297500	0.654000	0.324600
H3831	H383	0.264100	0.626100	0.285400
C2731	C273	0.239630	0.573700	0.334920
C2741	C274	0.250080	0.450800	0.352220
C2751	C275	0.213100	0.413300	0.367330
C2761	C276	0.204000	0.295300	0.389920
H3841	H384	0.190400	0.229000	0.371800
H3851	H385	0.231500	0.262300	0.404400
H3861	H386	0.183900	0.317700	0.408400
C2771	C277	0.323200	0.894700	0.245780
H3871	H387	0.322300	0.983800	0.255100
H3881	H388	0.329800	0.894600	0.218900
H3891	H389	0.294700	0.853400	0.246300
C2781	C278	0.358220	0.821400	0.271790
C2791	C279	0.377100	0.702700	0.265230
C2801	C280	0.406700	0.678500	0.298680
C2811	C281	0.436500	0.566900	0.310100
H3901	H390	0.447300	0.570900	0.338200
H3911	H391	0.420300	0.486100	0.304000
H3921	H392	0.461400	0.570400	0.295500
C2821	C282	0.328600	0.420100	0.250360
H3931	H393	0.345600	0.340300	0.255300
H3941	H394	0.328300	0.466200	0.275100
H3951	H395	0.298400	0.399000	0.238700
C2831	C283	0.349100	0.504100	0.222630
C2841	C284	0.370300	0.624300	0.229010
C2851	C285	0.383550	0.655700	0.193830
C2861	C286	0.409500	0.767800	0.181850
H3961	H396	0.390900	0.845100	0.178800
H3971	H397	0.435000	0.783400	0.202000
H3981	H398	0.419600	0.748000	0.156900
C2871	C287	0.194200	0.395700	0.098780
H3991	H399	0.180600	0.470100	0.109800
H4001	H400	0.172200	0.351500	0.079900
H4011	H401	0.205600	0.335900	0.119900
C2881	C288	0.231000	0.441000	0.078590
C2891	C289	0.228430	0.499900	0.042080
C2901	C290	0.271800	0.525700	0.037010
C2911	C291	0.291200	0.587100	0.004860
H4021	H402	0.305400	0.521000	0.990800
H4031	H403	0.268000	0.629600	0.986800
H4041	H404	0.313000	0.651300	0.015800
C2921	C292	0.149000	0.698200	0.050050
H4051	H405	0.132300	0.649900	0.067200
H4061	H406	0.177700	0.721700	0.064600
H4071	H407	0.132900	0.776700	0.040900
C2931	C293	0.155100	0.616300	0.015760
C2941	C294	0.189320	0.527500	0.012160
C2951	C295	0.179250	0.473400	0.975690
C2961	C296	0.202700	0.373900	0.955410
H4081	H408	0.223900	0.416300	0.941200
H4091	H409	0.218100	0.314200	0.974800
H4101	H410	0.181400	0.325800	0.936900
C2971	C297	0.421000	0.100000	0.238000
H4111	H411	0.398200	0.156300	0.224300
H4121	H412	0.439300	0.066900	0.219400
H4131	H413	0.407300	0.027500	0.249800
C2981	C298	0.448800	0.174800	0.269370
C2991	C299	0.488200	0.241900	0.266770
C3001	C300	0.500640	0.296200	0.303210
C3011	C301	0.538800	0.379500	0.317780
H4141	H414	0.564600	0.325300	0.326100
H4151	H415	0.544700	0.437600	0.296800
H4161	H416	0.532200	0.430500	0.340100
N851	N85	0.341290	0.226300	0.346190
N861	N86	0.361650	0.330000	0.365530
H4171	H417	0.390100	0.335000	0.373600
N871	N87	0.199300	0.609200	0.340320
N881	N88	0.183490	0.510100	0.359710
H4181	H418	0.157100	0.508800	0.366500
N891	N89	0.374850	0.868600	0.306700
N901	N90	0.404390	0.778100	0.322980
H4191	H419	0.419900	0.784400	0.346500
N911	N91	0.349180	0.464200	0.185890
N921	N92	0.370450	0.558800	0.168750
H4201	H420	0.375100	0.556800	0.144300
N931	N93	0.272650	0.430600	0.096190
N941	N94	0.296370	0.483100	0.070130
H4211	H421	0.325200	0.488800	0.074500
N951	N95	0.125910	0.617400	0.983130
N961	N96	0.141100	0.531300	0.958900
H4221	H422	0.127900	0.514600	0.935000
N971	N97	0.437760	0.186400	0.305050
N981	N98	0.470170	0.260200	0.325470
H4231	H423	0.471100	0.281800	0.350200
Ag151	Ag15	0.881560	0.564660	0.330450
Ag161	Ag16	0.814130	0.814290	0.146500
C3021	C302	0.766200	0.662900	0.318500
H4241	H424	0.757800	0.600200	0.337300
H4251	H425	0.740100	0.710200	0.306300
H4261	H426	0.779200	0.617300	0.298200
C3031	C303	0.799000	0.755900	0.339270
C3041	C304	0.791590	0.879200	0.353970
C3051	C305	0.832490	0.924300	0.370730
C3061	C306	0.846700	0.046100	0.393100
H4271	H427	0.861000	0.104100	0.376500
H4281	H428	0.821000	0.089200	0.400700
H4291	H429	0.867400	0.024200	0.416600
C3071	C307	0.766700	0.157300	0.312380
H4301	H430	0.756100	0.246600	0.312400
H4311	H431	0.797500	0.154000	0.324600
H4321	H432	0.764100	0.126100	0.285400
C3081	C308	0.739630	0.073700	0.334920
C3091	C309	0.750080	0.950800	0.352220
C3101	C310	0.713100	0.913300	0.367330
C3111	C311	0.704000	0.795300	0.389920
H4331	H433	0.690400	0.729000	0.371800
H4341	H434	0.731500	0.762300	0.404400
H4351	H435	0.683900	0.817700	0.408400
C3121	C312	0.823200	0.394700	0.245780
H4361	H436	0.822300	0.483800	0.255100
H4371	H437	0.829800	0.394600	0.218900
H4381	H438	0.794700	0.353400	0.246300
C3131	C313	0.858220	0.321400	0.271790
C3141	C314	0.877100	0.202700	0.265230
C3151	C315	0.906700	0.178500	0.298680
C3161	C316	0.936500	0.066900	0.310100
H4391	H439	0.947300	0.070900	0.338200
H4401	H440	0.920300	0.986100	0.304000
H4411	H441	0.961400	0.070400	0.295500
C3171	C317	0.828600	0.920100	0.250360
H4421	H442	0.845600	0.840300	0.255300
H4431	H443	0.828300	0.966200	0.275100
H4441	H444	0.798400	0.899000	0.238700
C3181	C318	0.849100	0.004100	0.222630
C3191	C319	0.870300	0.124300	0.229010
C3201	C320	0.883550	0.155700	0.193830
C3211	C321	0.909500	0.267800	0.181850
H4451	H445	0.890900	0.345100	0.178800
H4461	H446	0.935000	0.283400	0.202000
H4471	H447	0.919600	0.248000	0.156900
C3221	C322	0.694200	0.895700	0.098780
H4481	H448	0.680600	0.970100	0.109800
H4491	H449	0.672200	0.851500	0.079900
H4501	H450	0.705600	0.835900	0.119900
C3231	C323	0.731000	0.941000	0.078590
C3241	C324	0.728430	0.999900	0.042080
C3251	C325	0.771800	0.025700	0.037010
C3261	C326	0.791200	0.087100	0.004860
H4511	H451	0.805400	0.021000	0.990800
H4521	H452	0.768000	0.129600	0.986800
H4531	H453	0.813000	0.151300	0.015800
C3271	C327	0.649000	0.198200	0.050050
H4541	H454	0.632300	0.149900	0.067200
H4551	H455	0.677700	0.221700	0.064600
H4561	H456	0.632900	0.276700	0.040900
C3281	C328	0.655100	0.116300	0.015760
C3291	C329	0.689320	0.027500	0.012160
C3301	C330	0.679250	0.973400	0.975690
C3311	C331	0.702700	0.873900	0.955410
H4571	H457	0.723900	0.916300	0.941200
H4581	H458	0.718100	0.814200	0.974800
H4591	H459	0.681400	0.825800	0.936900
C3321	C332	0.921000	0.600000	0.238000
H4601	H460	0.898200	0.656300	0.224300
H4611	H461	0.939300	0.566900	0.219400
H4621	H462	0.907300	0.527500	0.249800
C3331	C333	0.948800	0.674800	0.269370
C3341	C334	0.988200	0.741900	0.266770
C3351	C335	0.000640	0.796200	0.303210
C3361	C336	0.038800	0.879500	0.317780
H4631	H463	0.064600	0.825300	0.326100
H4641	H464	0.044700	0.937600	0.296800
H4651	H465	0.032200	0.930500	0.340100
N991	N99	0.841290	0.726300	0.346190
N1001	N100	0.861650	0.830000	0.365530
H4661	H466	0.890100	0.835000	0.373600
N1011	N101	0.699300	0.109200	0.340320
N1021	N102	0.683490	0.010100	0.359710
H4671	H467	0.657100	0.008800	0.366500
N1031	N103	0.874850	0.368600	0.306700
N1041	N104	0.904390	0.278100	0.322980
H4681	H468	0.919900	0.284400	0.346500
N1051	N105	0.849180	0.964200	0.185890
N1061	N106	0.870450	0.058800	0.168750
H4691	H469	0.875100	0.056800	0.144300
N1071	N107	0.772650	0.930600	0.096190
N1081	N108	0.796370	0.983100	0.070130
H4701	H470	0.825200	0.988800	0.074500
N1091	N109	0.625910	0.117400	0.983130
N1101	N110	0.641100	0.031300	0.958900
H4711	H471	0.627900	0.014600	0.935000
N1111	N111	0.937760	0.686400	0.305050
N1121	N112	0.970170	0.760200	0.325470
H4721	H472	0.971100	0.781800	0.350200
