data_JOSNAG_freeONLY_PM
_symmetry_space_group_name_H-M	'P1'
_cell_length_a	9.239000
_cell_length_b	9.790000
_cell_length_c	10.709000
_cell_angle_alpha	68.040000
_cell_angle_beta	84.490000
_cell_angle_gamma	62.010000
_symmetry_Int_Tables_number 1

loop_
_symmetry_equiv_pos_as_xyz
'x,y,z'

loop_
_atom_site_label
_atom_site_type_symbol
_atom_site_fract_x
_atom_site_fract_y
_atom_site_fract_z
La11	La1	0.775300	0.456200	0.015900
La21	La2	0.224700	0.543800	0.984100
H11	H1	0.113000	0.268000	0.436000
H21	H2	0.170000	0.402000	0.348000
H31	H3	0.867000	0.483000	0.468000
H41	H4	0.915000	0.619000	0.371000
H51	H5	0.361000	0.619000	0.374000
H61	H6	0.538000	0.473000	0.374000
H71	H7	0.634000	0.661000	0.248000
H81	H8	0.577000	0.687000	0.386000
H91	H9	0.381000	0.898000	0.128000
H101	H10	0.325000	0.924000	0.263000
H111	H11	0.567000	0.958000	0.276000
H121	H12	0.598000	0.957000	0.125000
H131	H13	0.122000	0.186000	0.032000
H141	H14	0.057000	0.094000	0.095000
H151	H15	0.814000	0.100000	0.187000
H161	H16	0.661000	0.204000	0.164000
H171	H17	0.887000	0.732000	0.564000
H181	H18	0.830000	0.598000	0.652000
H191	H19	0.133000	0.517000	0.532000
H201	H20	0.085000	0.381000	0.629000
H211	H21	0.639000	0.381000	0.626000
H221	H22	0.462000	0.527000	0.626000
H231	H23	0.366000	0.339000	0.752000
H241	H24	0.423000	0.313000	0.614000
H251	H25	0.619000	0.102000	0.872000
H261	H26	0.675000	0.076000	0.737000
H271	H27	0.433000	0.042000	0.724000
H281	H28	0.402000	0.043000	0.875000
H291	H29	0.878000	0.814000	0.968000
H301	H30	0.943000	0.906000	0.905000
H311	H31	0.186000	0.900000	0.813000
H321	H32	0.339000	0.796000	0.836000
C11	C1	0.986700	0.405300	0.252000
C21	C2	0.074600	0.383700	0.374800
C31	C3	0.957600	0.505200	0.439800
C41	C4	0.400200	0.588000	0.194800
C51	C5	0.456400	0.588600	0.321900
C61	C6	0.537000	0.700600	0.295000
C71	C7	0.422800	0.883900	0.215200
C81	C8	0.514600	0.985200	0.190500
C91	C9	0.407400	0.171200	0.125000
C101	C10	0.013300	0.594700	0.748000
C111	C11	0.925400	0.616300	0.625200
C121	C12	0.042400	0.494800	0.560200
C131	C13	0.599800	0.412000	0.805200
C141	C14	0.543600	0.411400	0.678100
C151	C15	0.463000	0.299400	0.705000
C161	C16	0.577200	0.116100	0.784800
C171	C17	0.485400	0.014800	0.809500
C181	C18	0.592600	0.828800	0.875000
O11	O1	0.022000	0.468200	0.134600
O21	O2	0.872500	0.365800	0.266300
O31	O3	0.501000	0.551000	0.110200
O41	O4	0.422000	0.265600	0.173000
O51	O5	0.252400	0.622000	0.176800
O61	O6	0.308500	0.232900	0.022700
O71	O7	0.037100	0.188200	0.038000
O81	O8	0.745200	0.198900	0.149800
O91	O9	0.978000	0.531800	0.865400
O101	O10	0.127500	0.634200	0.733700
O111	O11	0.499000	0.449000	0.889800
O121	O12	0.578000	0.734400	0.827000
O131	O13	0.747600	0.378000	0.823200
O141	O14	0.691500	0.767100	0.977300
O151	O15	0.962900	0.811800	0.962000
O161	O16	0.254800	0.801100	0.850200
