data_JOVDON_freeONLY_PM
_symmetry_space_group_name_H-M	'P1'
_cell_length_a	6.673000
_cell_length_b	14.044000
_cell_length_c	23.825000
_cell_angle_alpha	90.000000
_cell_angle_beta	90.000000
_cell_angle_gamma	90.000000
_symmetry_Int_Tables_number 1

loop_
_symmetry_equiv_pos_as_xyz
'x,y,z'

loop_
_atom_site_label
_atom_site_type_symbol
_atom_site_fract_x
_atom_site_fract_y
_atom_site_fract_z
Ce11	Ce1	0.881440	0.705660	0.633920
Ce21	Ce2	0.381440	0.794340	0.866080
Ce31	Ce3	0.618560	0.705660	0.366080
Ce41	Ce4	0.118560	0.794340	0.133920
Ce51	Ce5	0.118560	0.294340	0.366080
Ce61	Ce6	0.618560	0.205660	0.133920
Ce71	Ce7	0.381440	0.294340	0.633920
Ce81	Ce8	0.881440	0.205660	0.866080
H11	H1	0.918000	0.916000	0.611000
H21	H2	0.584000	0.769000	0.723000
H31	H3	0.543000	0.855000	0.666000
H41	H4	0.874000	0.519000	0.568000
H51	H5	0.001000	0.500000	0.609000
H61	H6	0.300000	0.719000	0.587000
H71	H7	0.374000	0.709000	0.652000
H81	H8	0.418000	0.584000	0.889000
H91	H9	0.084000	0.731000	0.777000
H101	H10	0.043000	0.645000	0.834000
H111	H11	0.374000	0.981000	0.932000
H121	H12	0.501000	0.000000	0.891000
H131	H13	0.800000	0.781000	0.913000
H141	H14	0.874000	0.791000	0.848000
H151	H15	0.582000	0.916000	0.389000
H161	H16	0.916000	0.769000	0.277000
H171	H17	0.957000	0.855000	0.334000
H181	H18	0.626000	0.519000	0.432000
H191	H19	0.499000	0.500000	0.391000
H201	H20	0.200000	0.719000	0.413000
H211	H21	0.126000	0.709000	0.348000
H221	H22	0.082000	0.584000	0.111000
H231	H23	0.416000	0.731000	0.223000
H241	H24	0.457000	0.645000	0.166000
H251	H25	0.126000	0.981000	0.068000
H261	H26	0.999000	0.000000	0.109000
H271	H27	0.700000	0.781000	0.087000
H281	H28	0.626000	0.791000	0.152000
H291	H29	0.082000	0.084000	0.389000
H301	H30	0.416000	0.231000	0.277000
H311	H31	0.457000	0.145000	0.334000
H321	H32	0.126000	0.481000	0.432000
H331	H33	0.999000	0.500000	0.391000
H341	H34	0.700000	0.281000	0.413000
H351	H35	0.626000	0.291000	0.348000
H361	H36	0.582000	0.416000	0.111000
H371	H37	0.916000	0.269000	0.223000
H381	H38	0.957000	0.355000	0.166000
H391	H39	0.626000	0.019000	0.068000
H401	H40	0.499000	0.000000	0.109000
H411	H41	0.200000	0.219000	0.087000
H421	H42	0.126000	0.209000	0.152000
H431	H43	0.418000	0.084000	0.611000
H441	H44	0.084000	0.231000	0.723000
H451	H45	0.043000	0.145000	0.666000
H461	H46	0.374000	0.481000	0.568000
H471	H47	0.501000	0.500000	0.609000
H481	H48	0.800000	0.281000	0.587000
H491	H49	0.874000	0.291000	0.652000
H501	H50	0.918000	0.416000	0.889000
H511	H51	0.584000	0.269000	0.777000
H521	H52	0.543000	0.355000	0.834000
H531	H53	0.874000	0.019000	0.932000
H541	H54	0.001000	0.000000	0.891000
H551	H55	0.300000	0.219000	0.913000
H561	H56	0.374000	0.209000	0.848000
C11	C1	0.022200	0.890600	0.732300
C21	C2	0.055900	0.932800	0.787800
C31	C3	0.013100	0.027200	0.766100
C41	C4	0.988100	0.987200	0.709400
C51	C5	0.861700	0.703900	0.491100
C61	C6	0.522200	0.609400	0.767700
C71	C7	0.555900	0.567200	0.712200
C81	C8	0.513100	0.472800	0.733900
C91	C9	0.488100	0.512800	0.790600
C101	C10	0.361700	0.796100	0.008900
C111	C11	0.477800	0.890600	0.267700
C121	C12	0.444100	0.932800	0.212200
C131	C13	0.486900	0.027200	0.233900
C141	C14	0.511900	0.987200	0.290600
C151	C15	0.638300	0.703900	0.508900
C161	C16	0.977800	0.609400	0.232300
C171	C17	0.944100	0.567200	0.287800
C181	C18	0.986900	0.472800	0.266100
C191	C19	0.011900	0.512800	0.209400
C201	C20	0.138300	0.796100	0.991100
C211	C21	0.977800	0.109400	0.267700
C221	C22	0.944100	0.067200	0.212200
C231	C23	0.986900	0.972800	0.233900
C241	C24	0.011900	0.012800	0.290600
C251	C25	0.138300	0.296100	0.508900
C261	C26	0.477800	0.390600	0.232300
C271	C27	0.444100	0.432800	0.287800
C281	C28	0.486900	0.527200	0.266100
C291	C29	0.511900	0.487200	0.209400
C301	C30	0.638300	0.203900	0.991100
C311	C31	0.522200	0.109400	0.732300
C321	C32	0.555900	0.067200	0.787800
C331	C33	0.513100	0.972800	0.766100
C341	C34	0.488100	0.012800	0.709400
C351	C35	0.361700	0.296100	0.491100
C361	C36	0.022200	0.390600	0.767700
C371	C37	0.055900	0.432800	0.712200
C381	C38	0.013100	0.527200	0.733900
C391	C39	0.988100	0.487200	0.790600
C401	C40	0.861700	0.203900	0.008900
O11	O1	0.024400	0.808200	0.713100
O21	O2	0.105800	0.903800	0.835600
O31	O3	0.004500	0.109900	0.785900
O41	O4	0.955800	0.020800	0.662200
O51	O5	0.987900	0.706600	0.529200
O61	O6	0.895300	0.699900	0.439300
O71	O7	0.879300	0.871800	0.595900
O81	O8	0.585400	0.795900	0.680400
O91	O9	0.960600	0.540600	0.593400
O101	O10	0.250400	0.720300	0.620900
O111	O11	0.524400	0.691800	0.786900
O121	O12	0.605800	0.596200	0.664400
O131	O13	0.504500	0.390100	0.714100
O141	O14	0.455800	0.479200	0.837800
O151	O15	0.487900	0.793400	0.970800
O161	O16	0.395300	0.800100	0.060700
O171	O17	0.379300	0.628200	0.904100
O181	O18	0.085400	0.704100	0.819600
O191	O19	0.460600	0.959400	0.906600
O201	O20	0.750400	0.779700	0.879100
O211	O21	0.475600	0.808200	0.286900
O221	O22	0.394200	0.903800	0.164400
O231	O23	0.495500	0.109900	0.214100
O241	O24	0.544200	0.020800	0.337800
O251	O25	0.512100	0.706600	0.470800
O261	O26	0.604700	0.699900	0.560700
O271	O27	0.620700	0.871800	0.404100
O281	O28	0.914600	0.795900	0.319600
O291	O29	0.539400	0.540600	0.406600
O301	O30	0.249600	0.720300	0.379100
O311	O31	0.975600	0.691800	0.213100
O321	O32	0.894200	0.596200	0.335600
O331	O33	0.995500	0.390100	0.285900
O341	O34	0.044200	0.479200	0.162200
O351	O35	0.012100	0.793400	0.029200
O361	O36	0.104700	0.800100	0.939300
O371	O37	0.120700	0.628200	0.095900
O381	O38	0.414600	0.704100	0.180400
O391	O39	0.039400	0.959400	0.093400
O401	O40	0.749600	0.779700	0.120900
O411	O41	0.975600	0.191800	0.286900
O421	O42	0.894200	0.096200	0.164400
O431	O43	0.995500	0.890100	0.214100
O441	O44	0.044200	0.979200	0.337800
O451	O45	0.012100	0.293400	0.470800
O461	O46	0.104700	0.300100	0.560700
O471	O47	0.120700	0.128200	0.404100
O481	O48	0.414600	0.204100	0.319600
O491	O49	0.039400	0.459400	0.406600
O501	O50	0.749600	0.279700	0.379100
O511	O51	0.475600	0.308200	0.213100
O521	O52	0.394200	0.403800	0.335600
O531	O53	0.495500	0.609900	0.285900
O541	O54	0.544200	0.520800	0.162200
O551	O55	0.512100	0.206600	0.029200
O561	O56	0.604700	0.199900	0.939300
O571	O57	0.620700	0.371800	0.095900
O581	O58	0.914600	0.295900	0.180400
O591	O59	0.539400	0.040600	0.093400
O601	O60	0.249600	0.220300	0.120900
O611	O61	0.524400	0.191800	0.713100
O621	O62	0.605800	0.096200	0.835600
O631	O63	0.504500	0.890100	0.785900
O641	O64	0.455800	0.979200	0.662200
O651	O65	0.487900	0.293400	0.529200
O661	O66	0.395300	0.300100	0.439300
O671	O67	0.379300	0.128200	0.595900
O681	O68	0.085400	0.204100	0.680400
O691	O69	0.460600	0.459400	0.593400
O701	O70	0.750400	0.279700	0.620900
O711	O71	0.024400	0.308200	0.786900
O721	O72	0.105800	0.403800	0.664400
O731	O73	0.004500	0.609900	0.714100
O741	O74	0.955800	0.520800	0.837800
O751	O75	0.987900	0.206600	0.970800
O761	O76	0.895300	0.199900	0.060700
O771	O77	0.879300	0.371800	0.904100
O781	O78	0.585400	0.295900	0.819600
O791	O79	0.960600	0.040600	0.906600
O801	O80	0.250400	0.220300	0.879100
