data_JUFZER_freeONLY_PM
_symmetry_space_group_name_H-M	'P1'
_cell_length_a	14.112900
_cell_length_b	14.790300
_cell_length_c	21.160200
_cell_angle_alpha	90.000000
_cell_angle_beta	107.645000
_cell_angle_gamma	90.000000
_symmetry_Int_Tables_number 1

loop_
_symmetry_equiv_pos_as_xyz
'x,y,z'

loop_
_atom_site_label
_atom_site_type_symbol
_atom_site_fract_x
_atom_site_fract_y
_atom_site_fract_z
Cd11	Cd1	0.921950	0.562460	0.317040
Cd21	Cd2	0.285440	0.064770	0.551160
O11	O1	0.957300	0.578200	0.430600
H11	H1	0.023100	0.575200	0.452400
H21	H2	0.934700	0.548700	0.457100
O21	O2	0.177200	0.180100	0.534300
O31	O3	0.154500	0.324200	0.502700
O41	O4	0.419800	0.910200	0.298300
O51	O5	0.564600	0.944500	0.369200
O61	O6	0.759100	0.557300	0.318900
O71	O7	0.222800	0.019200	0.631800
H31	H3	0.203500	0.046900	0.662800
H41	H4	0.264800	0.980900	0.649100
C11	C1	0.503500	0.886800	0.337300
C21	C2	0.370000	0.818100	0.415800
H51	H5	0.426500	0.852100	0.436000
C31	C3	0.469300	0.722300	0.359400
C41	C4	0.196500	0.786200	0.399500
H61	H6	0.137700	0.798400	0.409200
C51	C5	0.280600	0.838300	0.427900
C61	C6	0.375500	0.748100	0.374100
C71	C7	0.530100	0.787900	0.342300
C81	C8	0.619900	0.761000	0.332700
H71	H7	0.661900	0.804500	0.323900
C91	C9	0.289300	0.698200	0.344400
H81	H8	0.291500	0.651600	0.315500
C101	C10	0.200100	0.716900	0.357300
C111	C11	0.111300	0.657900	0.325900
C121	C12	0.647300	0.670100	0.336000
C131	C13	0.274100	0.917300	0.471600
C141	C14	0.499400	0.631500	0.363400
H91	H9	0.459600	0.587500	0.373800
C151	C15	0.585900	0.606700	0.352200
H101	H10	0.604100	0.546000	0.355500
O81	O8	0.191900	0.946800	0.474900
O91	O9	0.122300	0.589000	0.295500
O101	O10	0.029600	0.680700	0.335000
O111	O11	0.353900	0.957800	0.500900
C161	C16	0.200800	0.251200	0.510600
O121	O12	0.806300	0.702300	0.323100
C171	C17	0.743900	0.642300	0.325600
Cd31	Cd3	0.421950	0.062460	0.317040
Cd41	Cd4	0.785440	0.564770	0.551160
O131	O13	0.457300	0.078200	0.430600
H111	H11	0.523100	0.075200	0.452400
H121	H12	0.434700	0.048700	0.457100
O141	O14	0.677200	0.680100	0.534300
O151	O15	0.654500	0.824200	0.502700
O161	O16	0.919800	0.410200	0.298300
O171	O17	0.064600	0.444500	0.369200
O181	O18	0.259100	0.057300	0.318900
O191	O19	0.722800	0.519200	0.631800
H131	H13	0.703500	0.546900	0.662800
H141	H14	0.764800	0.480900	0.649100
C181	C18	0.003500	0.386800	0.337300
C191	C19	0.870000	0.318100	0.415800
H151	H15	0.926500	0.352100	0.436000
C201	C20	0.969300	0.222300	0.359400
C211	C21	0.696500	0.286200	0.399500
H161	H16	0.637700	0.298400	0.409200
C221	C22	0.780600	0.338300	0.427900
C231	C23	0.875500	0.248100	0.374100
C241	C24	0.030100	0.287900	0.342300
C251	C25	0.119900	0.261000	0.332700
H171	H17	0.161900	0.304500	0.323900
C261	C26	0.789300	0.198200	0.344400
H181	H18	0.791500	0.151600	0.315500
C271	C27	0.700100	0.216900	0.357300
C281	C28	0.611300	0.157900	0.325900
C291	C29	0.147300	0.170100	0.336000
C301	C30	0.774100	0.417300	0.471600
C311	C31	0.999400	0.131500	0.363400
H191	H19	0.959600	0.087500	0.373800
C321	C32	0.085900	0.106700	0.352200
H201	H20	0.104100	0.046000	0.355500
O201	O20	0.691900	0.446800	0.474900
O211	O21	0.622300	0.089000	0.295500
O221	O22	0.529600	0.180700	0.335000
O231	O23	0.853900	0.457800	0.500900
C331	C33	0.700800	0.751200	0.510600
O241	O24	0.306300	0.202300	0.323100
C341	C34	0.243900	0.142300	0.325600
Cd51	Cd5	0.078050	0.562460	0.182960
Cd61	Cd6	0.714560	0.064770	0.948840
O251	O25	0.042700	0.578200	0.069400
H211	H21	0.976900	0.575200	0.047600
H221	H22	0.065300	0.548700	0.042900
O261	O26	0.822800	0.180100	0.965700
O271	O27	0.845500	0.324200	0.997300
O281	O28	0.580200	0.910200	0.201700
O291	O29	0.435400	0.944500	0.130800
O301	O30	0.240900	0.557300	0.181100
O311	O31	0.777200	0.019200	0.868200
H231	H23	0.796500	0.046900	0.837200
H241	H24	0.735200	0.980900	0.850900
C351	C35	0.496500	0.886800	0.162700
C361	C36	0.630000	0.818100	0.084200
H251	H25	0.573500	0.852100	0.064000
C371	C37	0.530700	0.722300	0.140600
C381	C38	0.803500	0.786200	0.100500
H261	H26	0.862300	0.798400	0.090800
C391	C39	0.719400	0.838300	0.072100
C401	C40	0.624500	0.748100	0.125900
C411	C41	0.469900	0.787900	0.157700
C421	C42	0.380100	0.761000	0.167300
H271	H27	0.338100	0.804500	0.176100
C431	C43	0.710700	0.698200	0.155600
H281	H28	0.708500	0.651600	0.184500
C441	C44	0.799900	0.716900	0.142700
C451	C45	0.888700	0.657900	0.174100
C461	C46	0.352700	0.670100	0.164000
C471	C47	0.725900	0.917300	0.028400
C481	C48	0.500600	0.631500	0.136600
H291	H29	0.540400	0.587500	0.126200
C491	C49	0.414100	0.606700	0.147800
H301	H30	0.395900	0.546000	0.144500
O321	O32	0.808100	0.946800	0.025100
O331	O33	0.877700	0.589000	0.204500
O341	O34	0.970400	0.680700	0.165000
O351	O35	0.646100	0.957800	0.999100
C501	C50	0.799200	0.251200	0.989400
O361	O36	0.193700	0.702300	0.176900
C511	C51	0.256100	0.642300	0.174400
Cd71	Cd7	0.578050	0.062460	0.182960
Cd81	Cd8	0.214560	0.564770	0.948840
O371	O37	0.542700	0.078200	0.069400
H311	H31	0.476900	0.075200	0.047600
H321	H32	0.565300	0.048700	0.042900
O381	O38	0.322800	0.680100	0.965700
O391	O39	0.345500	0.824200	0.997300
O401	O40	0.080200	0.410200	0.201700
O411	O41	0.935400	0.444500	0.130800
O421	O42	0.740900	0.057300	0.181100
O431	O43	0.277200	0.519200	0.868200
H331	H33	0.296500	0.546900	0.837200
H341	H34	0.235200	0.480900	0.850900
C521	C52	0.996500	0.386800	0.162700
C531	C53	0.130000	0.318100	0.084200
H351	H35	0.073500	0.352100	0.064000
C541	C54	0.030700	0.222300	0.140600
C551	C55	0.303500	0.286200	0.100500
H361	H36	0.362300	0.298400	0.090800
C561	C56	0.219400	0.338300	0.072100
C571	C57	0.124500	0.248100	0.125900
C581	C58	0.969900	0.287900	0.157700
C591	C59	0.880100	0.261000	0.167300
H371	H37	0.838100	0.304500	0.176100
C601	C60	0.210700	0.198200	0.155600
H381	H38	0.208500	0.151600	0.184500
C611	C61	0.299900	0.216900	0.142700
C621	C62	0.388700	0.157900	0.174100
C631	C63	0.852700	0.170100	0.164000
C641	C64	0.225900	0.417300	0.028400
C651	C65	0.000600	0.131500	0.136600
H391	H39	0.040400	0.087500	0.126200
C661	C66	0.914100	0.106700	0.147800
H401	H40	0.895900	0.046000	0.144500
O441	O44	0.308100	0.446800	0.025100
O451	O45	0.377700	0.089000	0.204500
O461	O46	0.470400	0.180700	0.165000
O471	O47	0.146100	0.457800	0.999100
C671	C67	0.299200	0.751200	0.989400
O481	O48	0.693700	0.202300	0.176900
C681	C68	0.756100	0.142300	0.174400
Cd91	Cd9	0.078050	0.437540	0.682960
Cd101	Cd10	0.714560	0.935230	0.448840
O491	O49	0.042700	0.421800	0.569400
H411	H41	0.976900	0.424800	0.547600
H421	H42	0.065300	0.451300	0.542900
O501	O50	0.822800	0.819900	0.465700
O511	O51	0.845500	0.675800	0.497300
O521	O52	0.580200	0.089800	0.701700
O531	O53	0.435400	0.055500	0.630800
O541	O54	0.240900	0.442700	0.681100
O551	O55	0.777200	0.980800	0.368200
H431	H43	0.796500	0.953100	0.337200
H441	H44	0.735200	0.019100	0.350900
C691	C69	0.496500	0.113200	0.662700
C701	C70	0.630000	0.181900	0.584200
H451	H45	0.573500	0.147900	0.564000
C711	C71	0.530700	0.277700	0.640600
C721	C72	0.803500	0.213800	0.600500
H461	H46	0.862300	0.201600	0.590800
C731	C73	0.719400	0.161700	0.572100
C741	C74	0.624500	0.251900	0.625900
C751	C75	0.469900	0.212100	0.657700
C761	C76	0.380100	0.239000	0.667300
H471	H47	0.338100	0.195500	0.676100
C771	C77	0.710700	0.301800	0.655600
H481	H48	0.708500	0.348400	0.684500
C781	C78	0.799900	0.283100	0.642700
C791	C79	0.888700	0.342100	0.674100
C801	C80	0.352700	0.329900	0.664000
C811	C81	0.725900	0.082700	0.528400
C821	C82	0.500600	0.368500	0.636600
H491	H49	0.540400	0.412500	0.626200
C831	C83	0.414100	0.393300	0.647800
H501	H50	0.395900	0.454000	0.644500
O561	O56	0.808100	0.053200	0.525100
O571	O57	0.877700	0.411000	0.704500
O581	O58	0.970400	0.319300	0.665000
O591	O59	0.646100	0.042200	0.499100
C841	C84	0.799200	0.748800	0.489400
O601	O60	0.193700	0.297700	0.676900
C851	C85	0.256100	0.357700	0.674400
Cd111	Cd11	0.578050	0.937540	0.682960
Cd121	Cd12	0.214560	0.435230	0.448840
O611	O61	0.542700	0.921800	0.569400
H511	H51	0.476900	0.924800	0.547600
H521	H52	0.565300	0.951300	0.542900
O621	O62	0.322800	0.319900	0.465700
O631	O63	0.345500	0.175800	0.497300
O641	O64	0.080200	0.589800	0.701700
O651	O65	0.935400	0.555500	0.630800
O661	O66	0.740900	0.942700	0.681100
O671	O67	0.277200	0.480800	0.368200
H531	H53	0.296500	0.453100	0.337200
H541	H54	0.235200	0.519100	0.350900
C861	C86	0.996500	0.613200	0.662700
C871	C87	0.130000	0.681900	0.584200
H551	H55	0.073500	0.647900	0.564000
C881	C88	0.030700	0.777700	0.640600
C891	C89	0.303500	0.713800	0.600500
H561	H56	0.362300	0.701600	0.590800
C901	C90	0.219400	0.661700	0.572100
C911	C91	0.124500	0.751900	0.625900
C921	C92	0.969900	0.712100	0.657700
C931	C93	0.880100	0.739000	0.667300
H571	H57	0.838100	0.695500	0.676100
C941	C94	0.210700	0.801800	0.655600
H581	H58	0.208500	0.848400	0.684500
C951	C95	0.299900	0.783100	0.642700
C961	C96	0.388700	0.842100	0.674100
C971	C97	0.852700	0.829900	0.664000
C981	C98	0.225900	0.582700	0.528400
C991	C99	0.000600	0.868500	0.636600
H591	H59	0.040400	0.912500	0.626200
C1001	C100	0.914100	0.893300	0.647800
H601	H60	0.895900	0.954000	0.644500
O681	O68	0.308100	0.553200	0.525100
O691	O69	0.377700	0.911000	0.704500
O701	O70	0.470400	0.819300	0.665000
O711	O71	0.146100	0.542200	0.499100
C1011	C101	0.299200	0.248800	0.489400
O721	O72	0.693700	0.797700	0.676900
C1021	C102	0.756100	0.857700	0.674400
Cd131	Cd13	0.921950	0.437540	0.817040
Cd141	Cd14	0.285440	0.935230	0.051160
O731	O73	0.957300	0.421800	0.930600
H611	H61	0.023100	0.424800	0.952400
H621	H62	0.934700	0.451300	0.957100
O741	O74	0.177200	0.819900	0.034300
O751	O75	0.154500	0.675800	0.002700
O761	O76	0.419800	0.089800	0.798300
O771	O77	0.564600	0.055500	0.869200
O781	O78	0.759100	0.442700	0.818900
O791	O79	0.222800	0.980800	0.131800
H631	H63	0.203500	0.953100	0.162800
H641	H64	0.264800	0.019100	0.149100
C1031	C103	0.503500	0.113200	0.837300
C1041	C104	0.370000	0.181900	0.915800
H651	H65	0.426500	0.147900	0.936000
C1051	C105	0.469300	0.277700	0.859400
C1061	C106	0.196500	0.213800	0.899500
H661	H66	0.137700	0.201600	0.909200
C1071	C107	0.280600	0.161700	0.927900
C1081	C108	0.375500	0.251900	0.874100
C1091	C109	0.530100	0.212100	0.842300
C1101	C110	0.619900	0.239000	0.832700
H671	H67	0.661900	0.195500	0.823900
C1111	C111	0.289300	0.301800	0.844400
H681	H68	0.291500	0.348400	0.815500
C1121	C112	0.200100	0.283100	0.857300
C1131	C113	0.111300	0.342100	0.825900
C1141	C114	0.647300	0.329900	0.836000
C1151	C115	0.274100	0.082700	0.971600
C1161	C116	0.499400	0.368500	0.863400
H691	H69	0.459600	0.412500	0.873800
C1171	C117	0.585900	0.393300	0.852200
H701	H70	0.604100	0.454000	0.855500
O801	O80	0.191900	0.053200	0.974900
O811	O81	0.122300	0.411000	0.795500
O821	O82	0.029600	0.319300	0.835000
O831	O83	0.353900	0.042200	0.000900
C1181	C118	0.200800	0.748800	0.010600
O841	O84	0.806300	0.297700	0.823100
C1191	C119	0.743900	0.357700	0.825600
Cd151	Cd15	0.421950	0.937540	0.817040
Cd161	Cd16	0.785440	0.435230	0.051160
O851	O85	0.457300	0.921800	0.930600
H711	H71	0.523100	0.924800	0.952400
H721	H72	0.434700	0.951300	0.957100
O861	O86	0.677200	0.319900	0.034300
O871	O87	0.654500	0.175800	0.002700
O881	O88	0.919800	0.589800	0.798300
O891	O89	0.064600	0.555500	0.869200
O901	O90	0.259100	0.942700	0.818900
O911	O91	0.722800	0.480800	0.131800
H731	H73	0.703500	0.453100	0.162800
H741	H74	0.764800	0.519100	0.149100
C1201	C120	0.003500	0.613200	0.837300
C1211	C121	0.870000	0.681900	0.915800
H751	H75	0.926500	0.647900	0.936000
C1221	C122	0.969300	0.777700	0.859400
C1231	C123	0.696500	0.713800	0.899500
H761	H76	0.637700	0.701600	0.909200
C1241	C124	0.780600	0.661700	0.927900
C1251	C125	0.875500	0.751900	0.874100
C1261	C126	0.030100	0.712100	0.842300
C1271	C127	0.119900	0.739000	0.832700
H771	H77	0.161900	0.695500	0.823900
C1281	C128	0.789300	0.801800	0.844400
H781	H78	0.791500	0.848400	0.815500
C1291	C129	0.700100	0.783100	0.857300
C1301	C130	0.611300	0.842100	0.825900
C1311	C131	0.147300	0.829900	0.836000
C1321	C132	0.774100	0.582700	0.971600
C1331	C133	0.999400	0.868500	0.863400
H791	H79	0.959600	0.912500	0.873800
C1341	C134	0.085900	0.893300	0.852200
H801	H80	0.104100	0.954000	0.855500
O921	O92	0.691900	0.553200	0.974900
O931	O93	0.622300	0.911000	0.795500
O941	O94	0.529600	0.819300	0.835000
O951	O95	0.853900	0.542200	0.000900
C1351	C135	0.700800	0.248800	0.010600
O961	O96	0.306300	0.797700	0.823100
C1361	C136	0.243900	0.857700	0.825600
