data_JUPFOP_charged_PM
_symmetry_space_group_name_H-M	'P1'
_cell_length_a	12.120000
_cell_length_b	22.701500
_cell_length_c	12.988900
_cell_angle_alpha	90.000000
_cell_angle_beta	90.000000
_cell_angle_gamma	90.000000
_symmetry_Int_Tables_number 1

loop_
_symmetry_equiv_pos_as_xyz
'x,y,z'

loop_
_atom_site_label
_atom_site_type_symbol
_atom_site_fract_x
_atom_site_fract_y
_atom_site_fract_z
Ag11	Ag1	0.490230	0.941890	0.953210
Ag21	Ag2	0.749920	0.748430	0.200460
Ag31	Ag3	0.009770	0.558110	0.453210
Ag41	Ag4	0.750080	0.751570	0.700460
Ag51	Ag5	0.490230	0.058110	0.546790
Ag61	Ag6	0.749920	0.251570	0.299540
Ag71	Ag7	0.009770	0.441890	0.046790
Ag81	Ag8	0.750080	0.248430	0.799540
Ag91	Ag9	0.509770	0.058110	0.046790
Ag101	Ag10	0.250080	0.251570	0.799540
Ag111	Ag11	0.990230	0.441890	0.546790
Ag121	Ag12	0.249920	0.248430	0.299540
Ag131	Ag13	0.509770	0.941890	0.453210
Ag141	Ag14	0.250080	0.748430	0.700460
Ag151	Ag15	0.990230	0.558110	0.953210
Ag161	Ag16	0.249920	0.751570	0.200460
H11	H1	0.903800	0.677900	0.357500
H21	H2	0.839300	0.628200	0.299100
H31	H3	0.398900	0.824600	0.050500
H41	H4	0.336200	0.873300	0.113200
H51	H5	0.067900	0.553300	0.204600
H61	H6	0.938400	0.552800	0.206400
H71	H7	0.103900	0.679000	0.355200
H81	H8	0.168500	0.629900	0.295100
H91	H9	0.000200	0.752600	0.140500
H101	H10	0.001800	0.753500	0.261400
H111	H11	0.599300	0.823400	0.047100
H121	H12	0.666100	0.871600	0.107400
H131	H13	0.137400	0.036900	0.070800
H141	H14	0.114700	0.987200	0.989800
H151	H15	0.140300	0.051500	0.952800
H161	H16	0.596200	0.822100	0.857500
H171	H17	0.660700	0.871800	0.799100
H181	H18	0.101100	0.675400	0.550500
H191	H19	0.163800	0.626700	0.613200
H201	H20	0.432100	0.946700	0.704600
H211	H21	0.561600	0.947200	0.706400
H221	H22	0.396100	0.821000	0.855200
H231	H23	0.331500	0.870100	0.795100
H241	H24	0.499800	0.747400	0.640500
H251	H25	0.498200	0.746500	0.761400
H261	H26	0.900700	0.676600	0.547100
H271	H27	0.833900	0.628400	0.607400
H281	H28	0.362600	0.463100	0.570800
H291	H29	0.385300	0.512800	0.489800
H301	H30	0.359700	0.448500	0.452800
H311	H31	0.903800	0.322100	0.142500
H321	H32	0.839300	0.371800	0.200900
H331	H33	0.398900	0.175400	0.449500
H341	H34	0.336200	0.126700	0.386800
H351	H35	0.067900	0.446700	0.295400
H361	H36	0.938400	0.447200	0.293600
H371	H37	0.103900	0.321000	0.144800
H381	H38	0.168500	0.370100	0.204900
H391	H39	0.000200	0.247400	0.359500
H401	H40	0.001800	0.246500	0.238600
H411	H41	0.599300	0.176600	0.452900
H421	H42	0.666100	0.128400	0.392600
H431	H43	0.137400	0.963100	0.429200
H441	H44	0.114700	0.012800	0.510200
H451	H45	0.140300	0.948500	0.547200
H461	H46	0.596200	0.177900	0.642500
H471	H47	0.660700	0.128200	0.700900
H481	H48	0.101100	0.324600	0.949500
H491	H49	0.163800	0.373300	0.886800
H501	H50	0.432100	0.053300	0.795400
H511	H51	0.561600	0.052800	0.793600
H521	H52	0.396100	0.179000	0.644800
H531	H53	0.331500	0.129900	0.704900
H541	H54	0.499800	0.252600	0.859500
H551	H55	0.498200	0.253500	0.738600
H561	H56	0.900700	0.323400	0.952900
H571	H57	0.833900	0.371600	0.892600
H581	H58	0.362600	0.536900	0.929200
H591	H59	0.385300	0.487200	0.010200
H601	H60	0.359700	0.551500	0.047200
H611	H61	0.096200	0.322100	0.642500
H621	H62	0.160700	0.371800	0.700900
H631	H63	0.601100	0.175400	0.949500
H641	H64	0.663800	0.126700	0.886800
H651	H65	0.932100	0.446700	0.795400
H661	H66	0.061600	0.447200	0.793600
H671	H67	0.896100	0.321000	0.644800
H681	H68	0.831500	0.370100	0.704900
H691	H69	0.999800	0.247400	0.859500
H701	H70	0.998200	0.246500	0.738600
H711	H71	0.400700	0.176600	0.952900
H721	H72	0.333900	0.128400	0.892600
H731	H73	0.862600	0.963100	0.929200
H741	H74	0.885300	0.012800	0.010200
H751	H75	0.859700	0.948500	0.047200
H761	H76	0.403800	0.177900	0.142500
H771	H77	0.339300	0.128200	0.200900
H781	H78	0.898900	0.324600	0.449500
H791	H79	0.836200	0.373300	0.386800
H801	H80	0.567900	0.053300	0.295400
H811	H81	0.438400	0.052800	0.293600
H821	H82	0.603900	0.179000	0.144800
H831	H83	0.668500	0.129900	0.204900
H841	H84	0.500200	0.252600	0.359500
H851	H85	0.501800	0.253500	0.238600
H861	H86	0.099300	0.323400	0.452900
H871	H87	0.166100	0.371600	0.392600
H881	H88	0.637400	0.536900	0.429200
H891	H89	0.614700	0.487200	0.510200
H901	H90	0.640300	0.551500	0.547200
H911	H91	0.096200	0.677900	0.857500
H921	H92	0.160700	0.628200	0.799100
H931	H93	0.601100	0.824600	0.550500
H941	H94	0.663800	0.873300	0.613200
H951	H95	0.932100	0.553300	0.704600
H961	H96	0.061600	0.552800	0.706400
H971	H97	0.896100	0.679000	0.855200
H981	H98	0.831500	0.629900	0.795100
H991	H99	0.999800	0.752600	0.640500
H1001	H100	0.998200	0.753500	0.761400
H1011	H101	0.400700	0.823400	0.547100
H1021	H102	0.333900	0.871600	0.607400
H1031	H103	0.862600	0.036900	0.570800
H1041	H104	0.885300	0.987200	0.489800
H1051	H105	0.859700	0.051500	0.452800
H1061	H106	0.403800	0.822100	0.357500
H1071	H107	0.339300	0.871800	0.299100
H1081	H108	0.898900	0.675400	0.050500
H1091	H109	0.836200	0.626700	0.113200
H1101	H110	0.567900	0.946700	0.204600
H1111	H111	0.438400	0.947200	0.206400
H1121	H112	0.603900	0.821000	0.355200
H1131	H113	0.668500	0.870100	0.295100
H1141	H114	0.500200	0.747400	0.140500
H1151	H115	0.501800	0.746500	0.261400
H1161	H116	0.099300	0.676600	0.047100
H1171	H117	0.166100	0.628400	0.107400
H1181	H118	0.637400	0.463100	0.070800
H1191	H119	0.614700	0.512800	0.989800
H1201	H120	0.640300	0.448500	0.952800
C11	C1	0.404300	0.847000	0.296700
C21	C2	0.401300	0.848400	0.112500
C31	C3	0.002800	0.578200	0.204800
C41	C4	0.102500	0.654100	0.294500
C51	C5	0.501200	0.772000	0.201500
C61	C6	0.600000	0.847400	0.108800
C71	C7	0.278000	0.007800	0.001200
C81	C8	0.156600	0.022200	0.003900
C91	C9	0.095700	0.653000	0.796700
C101	C10	0.098700	0.651600	0.612500
C111	C11	0.497200	0.921800	0.704800
C121	C12	0.397500	0.845900	0.794500
C131	C13	0.998800	0.728000	0.701500
C141	C14	0.900000	0.652600	0.608800
C151	C15	0.222000	0.492200	0.501200
C161	C16	0.343400	0.477800	0.503900
C171	C17	0.404300	0.153000	0.203300
C181	C18	0.401300	0.151600	0.387500
C191	C19	0.002800	0.421800	0.295200
C201	C20	0.102500	0.345900	0.205500
C211	C21	0.501200	0.228000	0.298500
C221	C22	0.600000	0.152600	0.391200
C231	C23	0.278000	0.992200	0.498800
C241	C24	0.156600	0.977800	0.496100
C251	C25	0.095700	0.347000	0.703300
C261	C26	0.098700	0.348400	0.887500
C271	C27	0.497200	0.078200	0.795200
C281	C28	0.397500	0.154100	0.705500
C291	C29	0.998800	0.272000	0.798500
C301	C30	0.900000	0.347400	0.891200
C311	C31	0.222000	0.507800	0.998800
C321	C32	0.343400	0.522200	0.996100
C331	C33	0.595700	0.153000	0.703300
C341	C34	0.598700	0.151600	0.887500
C351	C35	0.997200	0.421800	0.795200
C361	C36	0.897500	0.345900	0.705500
C371	C37	0.498800	0.228000	0.798500
C381	C38	0.400000	0.152600	0.891200
C391	C39	0.722000	0.992200	0.998800
C401	C40	0.843400	0.977800	0.996100
C411	C41	0.904300	0.347000	0.203300
C421	C42	0.901300	0.348400	0.387500
C431	C43	0.502800	0.078200	0.295200
C441	C44	0.602500	0.154100	0.205500
C451	C45	0.001200	0.272000	0.298500
C461	C46	0.100000	0.347400	0.391200
C471	C47	0.778000	0.507800	0.498800
C481	C48	0.656600	0.522200	0.496100
C491	C49	0.595700	0.847000	0.796700
C501	C50	0.598700	0.848400	0.612500
C511	C51	0.997200	0.578200	0.704800
C521	C52	0.897500	0.654100	0.794500
C531	C53	0.498800	0.772000	0.701500
C541	C54	0.400000	0.847400	0.608800
C551	C55	0.722000	0.007800	0.501200
C561	C56	0.843400	0.022200	0.503900
C571	C57	0.904300	0.653000	0.296700
C581	C58	0.901300	0.651600	0.112500
C591	C59	0.502800	0.921800	0.204800
C601	C60	0.602500	0.845900	0.294500
C611	C61	0.001200	0.728000	0.201500
C621	C62	0.100000	0.652600	0.108800
C631	C63	0.778000	0.492200	0.001200
C641	C64	0.656600	0.477800	0.003900
N11	N1	0.503900	0.884280	0.297900
N21	N2	0.399600	0.809410	0.203400
N31	N3	0.500800	0.886070	0.110100
N41	N4	0.602100	0.808720	0.201200
N51	N5	0.996100	0.615720	0.797900
N61	N6	0.100400	0.690590	0.703400
N71	N7	0.999200	0.613930	0.610100
N81	N8	0.897900	0.691280	0.701200
N91	N9	0.503900	0.115720	0.202100
N101	N10	0.399600	0.190590	0.296600
N111	N11	0.500800	0.113930	0.389900
N121	N12	0.602100	0.191280	0.298800
N131	N13	0.996100	0.384280	0.702100
N141	N14	0.100400	0.309410	0.796600
N151	N15	0.999200	0.386070	0.889900
N161	N16	0.897900	0.308720	0.798800
N171	N17	0.496100	0.115720	0.702100
N181	N18	0.600400	0.190590	0.796600
N191	N19	0.499200	0.113930	0.889900
N201	N20	0.397900	0.191280	0.798800
N211	N21	0.003900	0.384280	0.202100
N221	N22	0.899600	0.309410	0.296600
N231	N23	0.000800	0.386070	0.389900
N241	N24	0.102100	0.308720	0.298800
N251	N25	0.496100	0.884280	0.797900
N261	N26	0.600400	0.809410	0.703400
N271	N27	0.499200	0.886070	0.610100
N281	N28	0.397900	0.808720	0.701200
N291	N29	0.003900	0.615720	0.297900
N301	N30	0.899600	0.690590	0.203400
N311	N31	0.000800	0.613930	0.110100
N321	N32	0.102100	0.691280	0.201200
O11	O1	0.318600	0.987950	0.920500
O21	O2	0.668000	0.982900	0.918000
O31	O3	0.181400	0.512050	0.420500
O41	O4	0.832000	0.517100	0.418000
O51	O5	0.318600	0.012050	0.579500
O61	O6	0.668000	0.017100	0.582000
O71	O7	0.181400	0.487950	0.079500
O81	O8	0.832000	0.482900	0.082000
O91	O9	0.681400	0.012050	0.079500
O101	O10	0.332000	0.017100	0.082000
O111	O11	0.818600	0.487950	0.579500
O121	O12	0.168000	0.482900	0.582000
O131	O13	0.681400	0.987950	0.420500
O141	O14	0.332000	0.982900	0.418000
O151	O15	0.818600	0.512050	0.920500
O161	O16	0.168000	0.517100	0.918000
H1211	H121	0.456500	0.626900	0.452700
H1221	H122	0.335800	0.619300	0.411400
H1231	H123	0.357300	0.624200	0.530100
C651	C65	0.369000	0.702200	0.456900
C661	C66	0.380600	0.637500	0.463300
O171	O17	0.456600	0.733800	0.452000
O181	O18	0.279700	0.724700	0.467900
H1241	H124	0.043500	0.873100	0.952700
H1251	H125	0.164200	0.880700	0.911400
H1261	H126	0.142700	0.875800	0.030100
C671	C67	0.131000	0.797800	0.956900
C681	C68	0.119400	0.862500	0.963300
O191	O19	0.043400	0.766200	0.952000
O201	O20	0.220300	0.775300	0.967900
H1271	H127	0.456500	0.373100	0.047300
H1281	H128	0.335800	0.380700	0.088600
H1291	H129	0.357300	0.375800	0.969900
C691	C69	0.369000	0.297800	0.043100
C701	C70	0.380600	0.362500	0.036700
O211	O21	0.456600	0.266200	0.048000
O221	O22	0.279700	0.275300	0.032100
H1301	H130	0.043500	0.126900	0.547300
H1311	H131	0.164200	0.119300	0.588600
H1321	H132	0.142700	0.124200	0.469900
C711	C71	0.131000	0.202200	0.543100
C721	C72	0.119400	0.137500	0.536700
O231	O23	0.043400	0.233800	0.548000
O241	O24	0.220300	0.224700	0.532100
H1331	H133	0.543500	0.373100	0.547300
H1341	H134	0.664200	0.380700	0.588600
H1351	H135	0.642700	0.375800	0.469900
C731	C73	0.631000	0.297800	0.543100
C741	C74	0.619400	0.362500	0.536700
O251	O25	0.543400	0.266200	0.548000
O261	O26	0.720300	0.275300	0.532100
H1361	H136	0.956500	0.126900	0.047300
H1371	H137	0.835800	0.119300	0.088600
H1381	H138	0.857300	0.124200	0.969900
C751	C75	0.869000	0.202200	0.043100
C761	C76	0.880600	0.137500	0.036700
O271	O27	0.956600	0.233800	0.048000
O281	O28	0.779700	0.224700	0.032100
H1391	H139	0.543500	0.626900	0.952700
H1401	H140	0.664200	0.619300	0.911400
H1411	H141	0.642700	0.624200	0.030100
C771	C77	0.631000	0.702200	0.956900
C781	C78	0.619400	0.637500	0.963300
O291	O29	0.543400	0.733800	0.952000
O301	O30	0.720300	0.724700	0.967900
H1421	H142	0.956500	0.873100	0.452700
H1431	H143	0.835800	0.880700	0.411400
H1441	H144	0.857300	0.875800	0.530100
C791	C79	0.869000	0.797800	0.456900
C801	C80	0.880600	0.862500	0.463300
O311	O31	0.956600	0.766200	0.452000
O321	O32	0.779700	0.775300	0.467900
