data_KACZEV_freeONLY_PM
_symmetry_space_group_name_H-M	'P1'
_cell_length_a	33.576700
_cell_length_b	33.576700
_cell_length_c	33.576700
_cell_angle_alpha	109.471000
_cell_angle_beta	109.471000
_cell_angle_gamma	109.471000
_symmetry_Int_Tables_number 1

loop_
_symmetry_equiv_pos_as_xyz
'x,y,z'

loop_
_atom_site_label
_atom_site_type_symbol
_atom_site_fract_x
_atom_site_fract_y
_atom_site_fract_z
In11	In1	0.777640	0.922300	0.115180
In21	In2	0.307120	0.662460	0.384820
In31	In3	0.192880	0.577700	0.355340
In41	In4	0.722360	0.837540	0.144660
In51	In5	0.855340	0.192880	0.077700
In61	In6	0.644660	0.722360	0.337540
In71	In7	0.615180	0.777640	0.422300
In81	In8	0.884820	0.307120	0.162460
In91	In9	0.662460	0.884820	0.807120
In101	In10	0.922300	0.615180	0.277640
In111	In11	0.837540	0.644660	0.222360
In121	In12	0.577700	0.855340	0.692880
In131	In13	0.162460	0.807120	0.884820
In141	In14	0.422300	0.277640	0.615180
In151	In15	0.337540	0.222360	0.644660
In161	In16	0.077700	0.692880	0.855340
In171	In17	0.277640	0.115180	0.922300
In181	In18	0.807120	0.384820	0.662460
In191	In19	0.692880	0.355340	0.577700
In201	In20	0.222360	0.144660	0.837540
In211	In21	0.355340	0.077700	0.192880
In221	In22	0.144660	0.337540	0.722360
In231	In23	0.115180	0.422300	0.777640
In241	In24	0.384820	0.162460	0.307120
In251	In25	0.750000	0.800020	0.050020
In261	In26	0.250000	0.699980	0.449980
In271	In27	0.949980	0.250000	0.199980
In281	In28	0.550020	0.750000	0.300020
In291	In29	0.699980	0.949980	0.750000
In301	In30	0.800020	0.550020	0.250000
In311	In31	0.199980	0.750000	0.949980
In321	In32	0.300020	0.250000	0.550020
In331	In33	0.250000	0.050020	0.800020
In341	In34	0.750000	0.449980	0.699980
In351	In35	0.449980	0.199980	0.250000
In361	In36	0.050020	0.300020	0.750000
H11	H1	0.694100	0.919000	0.978900
H21	H2	0.718700	0.813500	0.914400
H31	H3	0.693300	0.820300	0.846400
H41	H4	0.669600	0.923500	0.908700
H51	H5	0.199500	0.009000	0.143700
H61	H6	0.926400	0.984200	0.147600
H71	H7	0.230900	0.120900	0.262600
H81	H8	0.118600	0.976200	0.119200
H91	H9	0.148100	0.088300	0.235400
H101	H10	0.902600	0.849400	0.075000
H111	H11	0.003100	0.014400	0.156500
H121	H12	0.979900	0.884100	0.087400
H131	H13	0.440100	0.715200	0.521100
H141	H14	0.399100	0.804300	0.585600
H151	H15	0.473900	0.846900	0.653600
H161	H16	0.514800	0.760900	0.591300
H171	H17	0.365300	0.055800	0.356300
H181	H18	0.336600	0.778800	0.352400
H191	H19	0.358300	0.968300	0.237400
H201	H20	0.357000	0.999400	0.380800
H211	H21	0.352900	0.912700	0.264600
H221	H22	0.274400	0.827600	0.425000
H231	H23	0.357900	0.846600	0.343500
H241	H24	0.296700	0.892500	0.412600
H251	H25	0.059900	0.581000	0.275100
H261	H26	0.100900	0.686500	0.405200
H271	H27	0.026100	0.679700	0.373000
H281	H28	0.985200	0.576500	0.246100
H291	H29	0.134700	0.491000	0.690500
H301	H30	0.163400	0.515800	0.442200
H311	H31	0.141700	0.379100	0.610000
H321	H32	0.143000	0.523800	0.642400
H331	H33	0.147100	0.411700	0.559800
H341	H34	0.225600	0.650600	0.553200
H351	H35	0.142100	0.485600	0.488700
H361	H36	0.203300	0.615900	0.595800
H371	H37	0.805900	0.784800	0.224900
H381	H38	0.781300	0.695700	0.094800
H391	H39	0.806700	0.653100	0.127000
H401	H40	0.830400	0.739100	0.253900
H411	H41	0.300500	0.444200	0.809500
H421	H42	0.573600	0.721200	0.057800
H431	H43	0.269100	0.531700	0.890000
H441	H44	0.381400	0.500600	0.857600
H451	H45	0.351900	0.587300	0.940200
H461	H46	0.597400	0.672400	0.946800
H471	H47	0.496900	0.653400	0.011300
H481	H48	0.520100	0.607500	0.904200
H491	H49	0.775100	0.059900	0.081000
H501	H50	0.905200	0.100900	0.186500
H511	H51	0.873000	0.026100	0.179700
H521	H52	0.746100	0.985200	0.076500
H531	H53	0.190500	0.134700	0.991000
H541	H54	0.942200	0.163400	0.015800
H551	H55	0.110000	0.141700	0.879100
H561	H56	0.142400	0.143000	0.023800
H571	H57	0.059800	0.147100	0.911700
H581	H58	0.053200	0.225600	0.150600
H591	H59	0.988700	0.142100	0.985600
H601	H60	0.095800	0.203300	0.115900
H611	H61	0.724900	0.805900	0.284800
H621	H62	0.594800	0.781300	0.195700
H631	H63	0.627000	0.806700	0.153100
H641	H64	0.753900	0.830400	0.239100
H651	H65	0.309500	0.300500	0.944200
H661	H66	0.557800	0.573600	0.221200
H671	H67	0.390000	0.269100	0.031700
H681	H68	0.357600	0.381400	0.000600
H691	H69	0.440200	0.351900	0.087300
H701	H70	0.446800	0.597400	0.172400
H711	H71	0.511300	0.496900	0.153400
H721	H72	0.404200	0.520100	0.107500
H731	H73	0.478900	0.694100	0.419000
H741	H74	0.414400	0.718700	0.313500
H751	H75	0.346400	0.693300	0.320300
H761	H76	0.408700	0.669600	0.423500
H771	H77	0.643700	0.199500	0.509000
H781	H78	0.647600	0.926400	0.484200
H791	H79	0.762600	0.230900	0.620900
H801	H80	0.619200	0.118600	0.476200
H811	H81	0.735400	0.148100	0.588300
H821	H82	0.575000	0.902600	0.349400
H831	H83	0.656500	0.003100	0.514400
H841	H84	0.587400	0.979900	0.384100
H851	H85	0.021100	0.440100	0.215200
H861	H86	0.085600	0.399100	0.304300
H871	H87	0.153600	0.473900	0.346900
H881	H88	0.091300	0.514800	0.260900
H891	H89	0.856300	0.365300	0.555800
H901	H90	0.852400	0.336600	0.278800
H911	H91	0.737400	0.358300	0.468300
H921	H92	0.880800	0.357000	0.499400
H931	H93	0.764600	0.352900	0.412700
H941	H94	0.925000	0.274400	0.327600
H951	H95	0.843500	0.357900	0.346600
H961	H96	0.912600	0.296700	0.392500
H971	H97	0.715200	0.021100	0.940100
H981	H98	0.804300	0.085600	0.899100
H991	H99	0.846900	0.153600	0.973900
H1001	H100	0.760900	0.091300	0.014800
H1011	H101	0.055800	0.856300	0.865300
H1021	H102	0.778800	0.852400	0.836600
H1031	H103	0.968300	0.737400	0.858300
H1041	H104	0.999400	0.880800	0.857000
H1051	H105	0.912700	0.764600	0.852900
H1061	H106	0.827600	0.925000	0.774400
H1071	H107	0.846600	0.843500	0.857900
H1081	H108	0.892500	0.912600	0.796700
H1091	H109	0.919000	0.478900	0.194100
H1101	H110	0.813500	0.414400	0.218700
H1111	H111	0.820300	0.346400	0.193300
H1121	H112	0.923500	0.408700	0.169600
H1131	H113	0.009000	0.643700	0.699500
H1141	H114	0.984200	0.647600	0.426400
H1151	H115	0.120900	0.762600	0.730900
H1161	H116	0.976200	0.619200	0.618600
H1171	H117	0.088300	0.735400	0.648100
H1181	H118	0.849400	0.575000	0.402600
H1191	H119	0.014400	0.656500	0.503100
H1201	H120	0.884100	0.587400	0.479900
H1211	H121	0.784800	0.724900	0.305900
H1221	H122	0.695700	0.594800	0.281300
H1231	H123	0.653100	0.627000	0.306700
H1241	H124	0.739100	0.753900	0.330400
H1251	H125	0.444200	0.309500	0.800500
H1261	H126	0.721200	0.557800	0.073600
H1271	H127	0.531700	0.390000	0.769100
H1281	H128	0.500600	0.357600	0.881400
H1291	H129	0.587300	0.440200	0.851900
H1301	H130	0.672400	0.446800	0.097400
H1311	H131	0.653400	0.511300	0.996900
H1321	H132	0.607500	0.404200	0.020100
H1331	H133	0.581000	0.775100	0.559900
H1341	H134	0.686500	0.905200	0.600900
H1351	H135	0.679700	0.873000	0.526100
H1361	H136	0.576500	0.746100	0.485200
H1371	H137	0.491000	0.190500	0.634700
H1381	H138	0.515800	0.942200	0.663400
H1391	H139	0.379100	0.110000	0.641700
H1401	H140	0.523800	0.142400	0.643000
H1411	H141	0.411700	0.059800	0.647100
H1421	H142	0.650600	0.053200	0.725600
H1431	H143	0.485600	0.988700	0.642100
H1441	H144	0.615900	0.095800	0.703300
H1451	H145	0.215200	0.940100	0.021100
H1461	H146	0.304300	0.899100	0.085600
H1471	H147	0.346900	0.973900	0.153600
H1481	H148	0.260900	0.014800	0.091300
H1491	H149	0.555800	0.865300	0.856300
H1501	H150	0.278800	0.836600	0.852400
H1511	H151	0.468300	0.858300	0.737400
H1521	H152	0.499400	0.857000	0.880800
H1531	H153	0.412700	0.852900	0.764600
H1541	H154	0.327600	0.774400	0.925000
H1551	H155	0.346600	0.857900	0.843500
H1561	H156	0.392500	0.796700	0.912600
H1571	H157	0.419000	0.194100	0.478900
H1581	H158	0.313500	0.218700	0.414400
H1591	H159	0.320300	0.193300	0.346400
H1601	H160	0.423500	0.169600	0.408700
H1611	H161	0.509000	0.699500	0.643700
H1621	H162	0.484200	0.426400	0.647600
H1631	H163	0.620900	0.730900	0.762600
H1641	H164	0.476200	0.618600	0.619200
H1651	H165	0.588300	0.648100	0.735400
H1661	H166	0.349400	0.402600	0.575000
H1671	H167	0.514400	0.503100	0.656500
H1681	H168	0.384100	0.479900	0.587400
H1691	H169	0.284800	0.305900	0.724900
H1701	H170	0.195700	0.281300	0.594800
H1711	H171	0.153100	0.306700	0.627000
H1721	H172	0.239100	0.330400	0.753900
H1731	H173	0.944200	0.800500	0.309500
H1741	H174	0.221200	0.073600	0.557800
H1751	H175	0.031700	0.769100	0.390000
H1761	H176	0.000600	0.881400	0.357600
H1771	H177	0.087300	0.851900	0.440200
H1781	H178	0.172400	0.097400	0.446800
H1791	H179	0.153400	0.996900	0.511300
H1801	H180	0.107500	0.020100	0.404200
H1811	H181	0.081000	0.559900	0.775100
H1821	H182	0.186500	0.600900	0.905200
H1831	H183	0.179700	0.526100	0.873000
H1841	H184	0.076500	0.485200	0.746100
H1851	H185	0.991000	0.634700	0.190500
H1861	H186	0.015800	0.663400	0.942200
H1871	H187	0.879100	0.641700	0.110000
H1881	H188	0.023800	0.643000	0.142400
H1891	H189	0.911700	0.647100	0.059800
H1901	H190	0.150600	0.725600	0.053200
H1911	H191	0.985600	0.642100	0.988700
H1921	H192	0.115900	0.703300	0.095800
H1931	H193	0.194100	0.978900	0.919000
H1941	H194	0.218700	0.914400	0.813500
H1951	H195	0.193300	0.846400	0.820300
H1961	H196	0.169600	0.908700	0.923500
H1971	H197	0.699500	0.143700	0.009000
H1981	H198	0.426400	0.147600	0.984200
H1991	H199	0.730900	0.262600	0.120900
H2001	H200	0.618600	0.119200	0.976200
H2011	H201	0.648100	0.235400	0.088300
H2021	H202	0.402600	0.075000	0.849400
H2031	H203	0.503100	0.156500	0.014400
H2041	H204	0.479900	0.087400	0.884100
H2051	H205	0.940100	0.521100	0.715200
H2061	H206	0.899100	0.585600	0.804300
H2071	H207	0.973900	0.653600	0.846900
H2081	H208	0.014800	0.591300	0.760900
H2091	H209	0.865300	0.356300	0.055800
H2101	H210	0.836600	0.352400	0.778800
H2111	H211	0.858300	0.237400	0.968300
H2121	H212	0.857000	0.380800	0.999400
H2131	H213	0.852900	0.264600	0.912700
H2141	H214	0.774400	0.425000	0.827600
H2151	H215	0.857900	0.343500	0.846600
H2161	H216	0.796700	0.412600	0.892500
H2171	H217	0.559900	0.275100	0.581000
H2181	H218	0.600900	0.405200	0.686500
H2191	H219	0.526100	0.373000	0.679700
H2201	H220	0.485200	0.246100	0.576500
H2211	H221	0.634700	0.690500	0.491000
H2221	H222	0.663400	0.442200	0.515800
H2231	H223	0.641700	0.610000	0.379100
H2241	H224	0.643000	0.642400	0.523800
H2251	H225	0.647100	0.559800	0.411700
H2261	H226	0.725600	0.553200	0.650600
H2271	H227	0.642100	0.488700	0.485600
H2281	H228	0.703300	0.595800	0.615900
H2291	H229	0.305900	0.224900	0.784800
H2301	H230	0.281300	0.094800	0.695700
H2311	H231	0.306700	0.127000	0.653100
H2321	H232	0.330400	0.253900	0.739100
H2331	H233	0.800500	0.809500	0.444200
H2341	H234	0.073600	0.057800	0.721200
H2351	H235	0.769100	0.890000	0.531700
H2361	H236	0.881400	0.857600	0.500600
H2371	H237	0.851900	0.940200	0.587300
H2381	H238	0.097400	0.946800	0.672400
H2391	H239	0.996900	0.011300	0.653400
H2401	H240	0.020100	0.904200	0.607500
H2411	H241	0.275100	0.081000	0.059900
H2421	H242	0.405200	0.186500	0.100900
H2431	H243	0.373000	0.179700	0.026100
H2441	H244	0.246100	0.076500	0.985200
H2451	H245	0.690500	0.991000	0.134700
H2461	H246	0.442200	0.015800	0.163400
H2471	H247	0.610000	0.879100	0.141700
H2481	H248	0.642400	0.023800	0.143000
H2491	H249	0.559800	0.911700	0.147100
H2501	H250	0.553200	0.150600	0.225600
H2511	H251	0.488700	0.985600	0.142100
H2521	H252	0.595800	0.115900	0.203300
H2531	H253	0.224900	0.284800	0.805900
H2541	H254	0.094800	0.195700	0.781300
H2551	H255	0.127000	0.153100	0.806700
H2561	H256	0.253900	0.239100	0.830400
H2571	H257	0.809500	0.944200	0.300500
H2581	H258	0.057800	0.221200	0.573600
H2591	H259	0.890000	0.031700	0.269100
H2601	H260	0.857600	0.000600	0.381400
H2611	H261	0.940200	0.087300	0.351900
H2621	H262	0.946800	0.172400	0.597400
H2631	H263	0.011300	0.153400	0.496900
H2641	H264	0.904200	0.107500	0.520100
H2651	H265	0.978900	0.419000	0.694100
H2661	H266	0.914400	0.313500	0.718700
H2671	H267	0.846400	0.320300	0.693300
H2681	H268	0.908700	0.423500	0.669600
H2691	H269	0.143700	0.509000	0.199500
H2701	H270	0.147600	0.484200	0.926400
H2711	H271	0.262600	0.620900	0.230900
H2721	H272	0.119200	0.476200	0.118600
H2731	H273	0.235400	0.588300	0.148100
H2741	H274	0.075000	0.349400	0.902600
H2751	H275	0.156500	0.514400	0.003100
H2761	H276	0.087400	0.384100	0.979900
H2771	H277	0.521100	0.215200	0.440100
H2781	H278	0.585600	0.304300	0.399100
H2791	H279	0.653600	0.346900	0.473900
H2801	H280	0.591300	0.260900	0.514800
H2811	H281	0.356300	0.555800	0.365300
H2821	H282	0.352400	0.278800	0.336600
H2831	H283	0.237400	0.468300	0.358300
H2841	H284	0.380800	0.499400	0.357000
H2851	H285	0.264600	0.412700	0.352900
H2861	H286	0.425000	0.327600	0.274400
H2871	H287	0.343500	0.346600	0.357900
H2881	H288	0.412600	0.392500	0.296700
C11	C1	0.694310	0.898530	0.952340
C21	C2	0.708710	0.836150	0.914020
C31	C3	0.852970	0.893830	0.096340
C41	C4	0.904670	0.913960	0.107130
C51	C5	0.708630	0.865490	0.954800
C61	C6	0.276540	0.089480	0.220680
C71	C7	0.694030	0.840850	0.873620
C81	C8	0.725610	0.862380	0.000230
C91	C9	0.680030	0.901410	0.910200
C101	C10	0.223770	0.068500	0.204270
C111	C11	0.000900	0.952000	0.127900
C121	C12	0.189600	0.025600	0.163000
C131	C13	0.125900	0.028600	0.176300
C141	C14	0.936400	0.963000	0.134200
C151	C15	0.208300	0.091900	0.233000
C161	C16	0.141100	0.005500	0.148200
C171	C17	0.158700	0.071600	0.217100
C181	C18	0.922200	0.883100	0.091300
C191	C19	0.983200	0.980900	0.141500
C201	C20	0.969200	0.904400	0.100800
C211	C21	0.446190	0.741970	0.547660
C221	C22	0.422130	0.794690	0.585980
C231	C23	0.297490	0.756630	0.403660
C241	C24	0.306830	0.797540	0.392870
C251	C25	0.410690	0.753830	0.545200
C261	C26	0.368800	0.055860	0.279320
C271	C27	0.467230	0.820410	0.626380
C281	C28	0.362150	0.725380	0.499770
C291	C29	0.491210	0.769830	0.589800
C301	C30	0.364230	0.019500	0.295730
C311	C31	0.324100	0.873000	0.372100
C321	C32	0.362600	0.026600	0.337000
C331	C33	0.352300	0.949600	0.323700
C341	C34	0.328800	0.802200	0.365800
C351	C35	0.358900	0.975300	0.267000
C361	C36	0.357300	0.992900	0.351800
C371	C37	0.354500	0.941600	0.282900
C381	C38	0.291800	0.830900	0.408700
C391	C39	0.339400	0.841700	0.358500
C401	C40	0.303600	0.868400	0.399200
C411	C41	0.053810	0.601470	0.295780
C421	C42	0.077870	0.663850	0.372560
C431	C43	0.202510	0.606170	0.459140
C441	C44	0.193170	0.586040	0.490710
C451	C45	0.089310	0.634510	0.343140
C461	C46	0.131200	0.410520	0.687060
C471	C47	0.032770	0.659150	0.353180
C481	C48	0.137850	0.637620	0.363230
C491	C49	0.008790	0.598590	0.278620
C501	C50	0.135770	0.431500	0.655270
C511	C51	0.175900	0.548000	0.548900
C521	C52	0.137400	0.474400	0.664000
C531	C53	0.147700	0.471400	0.597300
C541	C54	0.171200	0.537000	0.473400
C551	C55	0.141100	0.408100	0.616400
C561	C56	0.142700	0.494500	0.635600
C571	C57	0.145500	0.428400	0.587100
C581	C58	0.208200	0.616900	0.539100
C591	C59	0.160600	0.519100	0.502300
C601	C60	0.196400	0.595600	0.564800
C611	C61	0.805690	0.758030	0.204220
C621	C62	0.791290	0.705310	0.127440
C631	C63	0.647030	0.743370	0.040860
C641	C64	0.595330	0.702460	0.009290
C651	C65	0.791370	0.746170	0.156860
C661	C66	0.223460	0.444140	0.812940
C671	C67	0.805970	0.679590	0.146820
C681	C68	0.774390	0.774620	0.136770
C691	C69	0.819970	0.730170	0.221380
C701	C70	0.276230	0.480500	0.844730
C711	C71	0.499100	0.627000	0.951100
C721	C72	0.310400	0.473400	0.836000
C731	C73	0.374100	0.550400	0.902700
C741	C74	0.563600	0.697800	0.026600
C751	C75	0.291700	0.524700	0.883600
C761	C76	0.358900	0.507100	0.864400
C771	C77	0.341300	0.558400	0.912900
C781	C78	0.577800	0.669100	0.960900
C791	C79	0.516800	0.658300	0.997700
C801	C80	0.530800	0.631600	0.935200
C811	C81	0.795780	0.053810	0.101470
C821	C82	0.872560	0.077870	0.163850
C831	C83	0.959140	0.202510	0.106170
C841	C84	0.990710	0.193170	0.086040
C851	C85	0.843140	0.089310	0.134510
C861	C86	0.187060	0.131200	0.910520
C871	C87	0.853180	0.032770	0.159150
C881	C88	0.863230	0.137850	0.137620
C891	C89	0.778620	0.008790	0.098590
C901	C90	0.155270	0.135770	0.931500
C911	C91	0.048900	0.175900	0.048000
C921	C92	0.164000	0.137400	0.974400
C931	C93	0.097300	0.147700	0.971400
C941	C94	0.973400	0.171200	0.037000
C951	C95	0.116400	0.141100	0.908100
C961	C96	0.135600	0.142700	0.994500
C971	C97	0.087100	0.145500	0.928400
C981	C98	0.039100	0.208200	0.116900
C991	C99	0.002300	0.160600	0.019100
C1001	C100	0.064800	0.196400	0.095600
C1011	C101	0.704220	0.805690	0.258030
C1021	C102	0.627440	0.791290	0.205310
C1031	C103	0.540860	0.647030	0.243370
C1041	C104	0.509290	0.595330	0.202460
C1051	C105	0.656860	0.791370	0.246170
C1061	C106	0.312940	0.223460	0.944140
C1071	C107	0.646820	0.805970	0.179590
C1081	C108	0.636770	0.774390	0.274620
C1091	C109	0.721380	0.819970	0.230170
C1101	C110	0.344730	0.276230	0.980500
C1111	C111	0.451100	0.499100	0.127000
C1121	C112	0.336000	0.310400	0.973400
C1131	C113	0.402700	0.374100	0.050400
C1141	C114	0.526600	0.563600	0.197800
C1151	C115	0.383600	0.291700	0.024700
C1161	C116	0.364400	0.358900	0.007100
C1171	C117	0.412900	0.341300	0.058400
C1181	C118	0.460900	0.577800	0.169100
C1191	C119	0.497700	0.516800	0.158300
C1201	C120	0.435200	0.530800	0.131600
C1211	C121	0.452340	0.694310	0.398530
C1221	C122	0.414020	0.708710	0.336150
C1231	C123	0.596340	0.852970	0.393830
C1241	C124	0.607130	0.904670	0.413960
C1251	C125	0.454800	0.708630	0.365490
C1261	C126	0.720680	0.276540	0.589480
C1271	C127	0.373620	0.694030	0.340850
C1281	C128	0.500230	0.725610	0.362380
C1291	C129	0.410200	0.680030	0.401410
C1301	C130	0.704270	0.223770	0.568500
C1311	C131	0.627900	0.000900	0.452000
C1321	C132	0.663000	0.189600	0.525600
C1331	C133	0.676300	0.125900	0.528600
C1341	C134	0.634200	0.936400	0.463000
C1351	C135	0.733000	0.208300	0.591900
C1361	C136	0.648200	0.141100	0.505500
C1371	C137	0.717100	0.158700	0.571600
C1381	C138	0.591300	0.922200	0.383100
C1391	C139	0.641500	0.983200	0.480900
C1401	C140	0.600800	0.969200	0.404400
C1411	C141	0.047660	0.446190	0.241970
C1421	C142	0.085980	0.422130	0.294690
C1431	C143	0.903660	0.297490	0.256630
C1441	C144	0.892870	0.306830	0.297540
C1451	C145	0.045200	0.410690	0.253830
C1461	C146	0.779320	0.368800	0.555860
C1471	C147	0.126380	0.467230	0.320410
C1481	C148	0.999770	0.362150	0.225380
C1491	C149	0.089800	0.491210	0.269830
C1501	C150	0.795730	0.364230	0.519500
C1511	C151	0.872100	0.324100	0.373000
C1521	C152	0.837000	0.362600	0.526600
C1531	C153	0.823700	0.352300	0.449600
C1541	C154	0.865800	0.328800	0.302200
C1551	C155	0.767000	0.358900	0.475300
C1561	C156	0.851800	0.357300	0.492900
C1571	C157	0.782900	0.354500	0.441600
C1581	C158	0.908700	0.291800	0.330900
C1591	C159	0.858500	0.339400	0.341700
C1601	C160	0.899200	0.303600	0.368400
C1611	C161	0.741970	0.047660	0.946190
C1621	C162	0.794690	0.085980	0.922130
C1631	C163	0.756630	0.903660	0.797490
C1641	C164	0.797540	0.892870	0.806830
C1651	C165	0.753830	0.045200	0.910690
C1661	C166	0.055860	0.779320	0.868800
C1671	C167	0.820410	0.126380	0.967230
C1681	C168	0.725380	0.999770	0.862150
C1691	C169	0.769830	0.089800	0.991210
C1701	C170	0.019500	0.795730	0.864230
C1711	C171	0.873000	0.872100	0.824100
C1721	C172	0.026600	0.837000	0.862600
C1731	C173	0.949600	0.823700	0.852300
C1741	C174	0.802200	0.865800	0.828800
C1751	C175	0.975300	0.767000	0.858900
C1761	C176	0.992900	0.851800	0.857300
C1771	C177	0.941600	0.782900	0.854500
C1781	C178	0.830900	0.908700	0.791800
C1791	C179	0.841700	0.858500	0.839400
C1801	C180	0.868400	0.899200	0.803600
C1811	C181	0.898530	0.452340	0.194310
C1821	C182	0.836150	0.414020	0.208710
C1831	C183	0.893830	0.596340	0.352970
C1841	C184	0.913960	0.607130	0.404670
C1851	C185	0.865490	0.454800	0.208630
C1861	C186	0.089480	0.720680	0.776540
C1871	C187	0.840850	0.373620	0.194030
C1881	C188	0.862380	0.500230	0.225610
C1891	C189	0.901410	0.410200	0.180030
C1901	C190	0.068500	0.704270	0.723770
C1911	C191	0.952000	0.627900	0.500900
C1921	C192	0.025600	0.663000	0.689600
C1931	C193	0.028600	0.676300	0.625900
C1941	C194	0.963000	0.634200	0.436400
C1951	C195	0.091900	0.733000	0.708300
C1961	C196	0.005500	0.648200	0.641100
C1971	C197	0.071600	0.717100	0.658700
C1981	C198	0.883100	0.591300	0.422200
C1991	C199	0.980900	0.641500	0.483200
C2001	C200	0.904400	0.600800	0.469200
C2011	C201	0.758030	0.704220	0.305690
C2021	C202	0.705310	0.627440	0.291290
C2031	C203	0.743370	0.540860	0.147030
C2041	C204	0.702460	0.509290	0.095330
C2051	C205	0.746170	0.656860	0.291370
C2061	C206	0.444140	0.312940	0.723460
C2071	C207	0.679590	0.646820	0.305970
C2081	C208	0.774620	0.636770	0.274390
C2091	C209	0.730170	0.721380	0.319970
C2101	C210	0.480500	0.344730	0.776230
C2111	C211	0.627000	0.451100	0.999100
C2121	C212	0.473400	0.336000	0.810400
C2131	C213	0.550400	0.402700	0.874100
C2141	C214	0.697800	0.526600	0.063600
C2151	C215	0.524700	0.383600	0.791700
C2161	C216	0.507100	0.364400	0.858900
C2171	C217	0.558400	0.412900	0.841300
C2181	C218	0.669100	0.460900	0.077800
C2191	C219	0.658300	0.497700	0.016800
C2201	C220	0.631600	0.435200	0.030800
C2211	C221	0.601470	0.795780	0.553810
C2221	C222	0.663850	0.872560	0.577870
C2231	C223	0.606170	0.959140	0.702510
C2241	C224	0.586040	0.990710	0.693170
C2251	C225	0.634510	0.843140	0.589310
C2261	C226	0.410520	0.187060	0.631200
C2271	C227	0.659150	0.853180	0.532770
C2281	C228	0.637620	0.863230	0.637850
C2291	C229	0.598590	0.778620	0.508790
C2301	C230	0.431500	0.155270	0.635770
C2311	C231	0.548000	0.048900	0.675900
C2321	C232	0.474400	0.164000	0.637400
C2331	C233	0.471400	0.097300	0.647700
C2341	C234	0.537000	0.973400	0.671200
C2351	C235	0.408100	0.116400	0.641100
C2361	C236	0.494500	0.135600	0.642700
C2371	C237	0.428400	0.087100	0.645500
C2381	C238	0.616900	0.039100	0.708200
C2391	C239	0.519100	0.002300	0.660600
C2401	C240	0.595600	0.064800	0.696400
C2411	C241	0.241970	0.946190	0.047660
C2421	C242	0.294690	0.922130	0.085980
C2431	C243	0.256630	0.797490	0.903660
C2441	C244	0.297540	0.806830	0.892870
C2451	C245	0.253830	0.910690	0.045200
C2461	C246	0.555860	0.868800	0.779320
C2471	C247	0.320410	0.967230	0.126380
C2481	C248	0.225380	0.862150	0.999770
C2491	C249	0.269830	0.991210	0.089800
C2501	C250	0.519500	0.864230	0.795730
C2511	C251	0.373000	0.824100	0.872100
C2521	C252	0.526600	0.862600	0.837000
C2531	C253	0.449600	0.852300	0.823700
C2541	C254	0.302200	0.828800	0.865800
C2551	C255	0.475300	0.858900	0.767000
C2561	C256	0.492900	0.857300	0.851800
C2571	C257	0.441600	0.854500	0.782900
C2581	C258	0.330900	0.791800	0.908700
C2591	C259	0.341700	0.839400	0.858500
C2601	C260	0.368400	0.803600	0.899200
C2611	C261	0.398530	0.194310	0.452340
C2621	C262	0.336150	0.208710	0.414020
C2631	C263	0.393830	0.352970	0.596340
C2641	C264	0.413960	0.404670	0.607130
C2651	C265	0.365490	0.208630	0.454800
C2661	C266	0.589480	0.776540	0.720680
C2671	C267	0.340850	0.194030	0.373620
C2681	C268	0.362380	0.225610	0.500230
C2691	C269	0.401410	0.180030	0.410200
C2701	C270	0.568500	0.723770	0.704270
C2711	C271	0.452000	0.500900	0.627900
C2721	C272	0.525600	0.689600	0.663000
C2731	C273	0.528600	0.625900	0.676300
C2741	C274	0.463000	0.436400	0.634200
C2751	C275	0.591900	0.708300	0.733000
C2761	C276	0.505500	0.641100	0.648200
C2771	C277	0.571600	0.658700	0.717100
C2781	C278	0.383100	0.422200	0.591300
C2791	C279	0.480900	0.483200	0.641500
C2801	C280	0.404400	0.469200	0.600800
C2811	C281	0.258030	0.305690	0.704220
C2821	C282	0.205310	0.291290	0.627440
C2831	C283	0.243370	0.147030	0.540860
C2841	C284	0.202460	0.095330	0.509290
C2851	C285	0.246170	0.291370	0.656860
C2861	C286	0.944140	0.723460	0.312940
C2871	C287	0.179590	0.305970	0.646820
C2881	C288	0.274620	0.274390	0.636770
C2891	C289	0.230170	0.319970	0.721380
C2901	C290	0.980500	0.776230	0.344730
C2911	C291	0.127000	0.999100	0.451100
C2921	C292	0.973400	0.810400	0.336000
C2931	C293	0.050400	0.874100	0.402700
C2941	C294	0.197800	0.063600	0.526600
C2951	C295	0.024700	0.791700	0.383600
C2961	C296	0.007100	0.858900	0.364400
C2971	C297	0.058400	0.841300	0.412900
C2981	C298	0.169100	0.077800	0.460900
C2991	C299	0.158300	0.016800	0.497700
C3001	C300	0.131600	0.030800	0.435200
C3011	C301	0.101470	0.553810	0.795780
C3021	C302	0.163850	0.577870	0.872560
C3031	C303	0.106170	0.702510	0.959140
C3041	C304	0.086040	0.693170	0.990710
C3051	C305	0.134510	0.589310	0.843140
C3061	C306	0.910520	0.631200	0.187060
C3071	C307	0.159150	0.532770	0.853180
C3081	C308	0.137620	0.637850	0.863230
C3091	C309	0.098590	0.508790	0.778620
C3101	C310	0.931500	0.635770	0.155270
C3111	C311	0.048000	0.675900	0.048900
C3121	C312	0.974400	0.637400	0.164000
C3131	C313	0.971400	0.647700	0.097300
C3141	C314	0.037000	0.671200	0.973400
C3151	C315	0.908100	0.641100	0.116400
C3161	C316	0.994500	0.642700	0.135600
C3171	C317	0.928400	0.645500	0.087100
C3181	C318	0.116900	0.708200	0.039100
C3191	C319	0.019100	0.660600	0.002300
C3201	C320	0.095600	0.696400	0.064800
C3211	C321	0.194310	0.952340	0.898530
C3221	C322	0.208710	0.914020	0.836150
C3231	C323	0.352970	0.096340	0.893830
C3241	C324	0.404670	0.107130	0.913960
C3251	C325	0.208630	0.954800	0.865490
C3261	C326	0.776540	0.220680	0.089480
C3271	C327	0.194030	0.873620	0.840850
C3281	C328	0.225610	0.000230	0.862380
C3291	C329	0.180030	0.910200	0.901410
C3301	C330	0.723770	0.204270	0.068500
C3311	C331	0.500900	0.127900	0.952000
C3321	C332	0.689600	0.163000	0.025600
C3331	C333	0.625900	0.176300	0.028600
C3341	C334	0.436400	0.134200	0.963000
C3351	C335	0.708300	0.233000	0.091900
C3361	C336	0.641100	0.148200	0.005500
C3371	C337	0.658700	0.217100	0.071600
C3381	C338	0.422200	0.091300	0.883100
C3391	C339	0.483200	0.141500	0.980900
C3401	C340	0.469200	0.100800	0.904400
C3411	C341	0.946190	0.547660	0.741970
C3421	C342	0.922130	0.585980	0.794690
C3431	C343	0.797490	0.403660	0.756630
C3441	C344	0.806830	0.392870	0.797540
C3451	C345	0.910690	0.545200	0.753830
C3461	C346	0.868800	0.279320	0.055860
C3471	C347	0.967230	0.626380	0.820410
C3481	C348	0.862150	0.499770	0.725380
C3491	C349	0.991210	0.589800	0.769830
C3501	C350	0.864230	0.295730	0.019500
C3511	C351	0.824100	0.372100	0.873000
C3521	C352	0.862600	0.337000	0.026600
C3531	C353	0.852300	0.323700	0.949600
C3541	C354	0.828800	0.365800	0.802200
C3551	C355	0.858900	0.267000	0.975300
C3561	C356	0.857300	0.351800	0.992900
C3571	C357	0.854500	0.282900	0.941600
C3581	C358	0.791800	0.408700	0.830900
C3591	C359	0.839400	0.358500	0.841700
C3601	C360	0.803600	0.399200	0.868400
C3611	C361	0.553810	0.295780	0.601470
C3621	C362	0.577870	0.372560	0.663850
C3631	C363	0.702510	0.459140	0.606170
C3641	C364	0.693170	0.490710	0.586040
C3651	C365	0.589310	0.343140	0.634510
C3661	C366	0.631200	0.687060	0.410520
C3671	C367	0.532770	0.353180	0.659150
C3681	C368	0.637850	0.363230	0.637620
C3691	C369	0.508790	0.278620	0.598590
C3701	C370	0.635770	0.655270	0.431500
C3711	C371	0.675900	0.548900	0.548000
C3721	C372	0.637400	0.664000	0.474400
C3731	C373	0.647700	0.597300	0.471400
C3741	C374	0.671200	0.473400	0.537000
C3751	C375	0.641100	0.616400	0.408100
C3761	C376	0.642700	0.635600	0.494500
C3771	C377	0.645500	0.587100	0.428400
C3781	C378	0.708200	0.539100	0.616900
C3791	C379	0.660600	0.502300	0.519100
C3801	C380	0.696400	0.564800	0.595600
C3811	C381	0.305690	0.204220	0.758030
C3821	C382	0.291290	0.127440	0.705310
C3831	C383	0.147030	0.040860	0.743370
C3841	C384	0.095330	0.009290	0.702460
C3851	C385	0.291370	0.156860	0.746170
C3861	C386	0.723460	0.812940	0.444140
C3871	C387	0.305970	0.146820	0.679590
C3881	C388	0.274390	0.136770	0.774620
C3891	C389	0.319970	0.221380	0.730170
C3901	C390	0.776230	0.844730	0.480500
C3911	C391	0.999100	0.951100	0.627000
C3921	C392	0.810400	0.836000	0.473400
C3931	C393	0.874100	0.902700	0.550400
C3941	C394	0.063600	0.026600	0.697800
C3951	C395	0.791700	0.883600	0.524700
C3961	C396	0.858900	0.864400	0.507100
C3971	C397	0.841300	0.912900	0.558400
C3981	C398	0.077800	0.960900	0.669100
C3991	C399	0.016800	0.997700	0.658300
C4001	C400	0.030800	0.935200	0.631600
C4011	C401	0.295780	0.101470	0.053810
C4021	C402	0.372560	0.163850	0.077870
C4031	C403	0.459140	0.106170	0.202510
C4041	C404	0.490710	0.086040	0.193170
C4051	C405	0.343140	0.134510	0.089310
C4061	C406	0.687060	0.910520	0.131200
C4071	C407	0.353180	0.159150	0.032770
C4081	C408	0.363230	0.137620	0.137850
C4091	C409	0.278620	0.098590	0.008790
C4101	C410	0.655270	0.931500	0.135770
C4111	C411	0.548900	0.048000	0.175900
C4121	C412	0.664000	0.974400	0.137400
C4131	C413	0.597300	0.971400	0.147700
C4141	C414	0.473400	0.037000	0.171200
C4151	C415	0.616400	0.908100	0.141100
C4161	C416	0.635600	0.994500	0.142700
C4171	C417	0.587100	0.928400	0.145500
C4181	C418	0.539100	0.116900	0.208200
C4191	C419	0.502300	0.019100	0.160600
C4201	C420	0.564800	0.095600	0.196400
C4211	C421	0.204220	0.258030	0.805690
C4221	C422	0.127440	0.205310	0.791290
C4231	C423	0.040860	0.243370	0.647030
C4241	C424	0.009290	0.202460	0.595330
C4251	C425	0.156860	0.246170	0.791370
C4261	C426	0.812940	0.944140	0.223460
C4271	C427	0.146820	0.179590	0.805970
C4281	C428	0.136770	0.274620	0.774390
C4291	C429	0.221380	0.230170	0.819970
C4301	C430	0.844730	0.980500	0.276230
C4311	C431	0.951100	0.127000	0.499100
C4321	C432	0.836000	0.973400	0.310400
C4331	C433	0.902700	0.050400	0.374100
C4341	C434	0.026600	0.197800	0.563600
C4351	C435	0.883600	0.024700	0.291700
C4361	C436	0.864400	0.007100	0.358900
C4371	C437	0.912900	0.058400	0.341300
C4381	C438	0.960900	0.169100	0.577800
C4391	C439	0.997700	0.158300	0.516800
C4401	C440	0.935200	0.131600	0.530800
C4411	C441	0.952340	0.398530	0.694310
C4421	C442	0.914020	0.336150	0.708710
C4431	C443	0.096340	0.393830	0.852970
C4441	C444	0.107130	0.413960	0.904670
C4451	C445	0.954800	0.365490	0.708630
C4461	C446	0.220680	0.589480	0.276540
C4471	C447	0.873620	0.340850	0.694030
C4481	C448	0.000230	0.362380	0.725610
C4491	C449	0.910200	0.401410	0.680030
C4501	C450	0.204270	0.568500	0.223770
C4511	C451	0.127900	0.452000	0.000900
C4521	C452	0.163000	0.525600	0.189600
C4531	C453	0.176300	0.528600	0.125900
C4541	C454	0.134200	0.463000	0.936400
C4551	C455	0.233000	0.591900	0.208300
C4561	C456	0.148200	0.505500	0.141100
C4571	C457	0.217100	0.571600	0.158700
C4581	C458	0.091300	0.383100	0.922200
C4591	C459	0.141500	0.480900	0.983200
C4601	C460	0.100800	0.404400	0.969200
C4611	C461	0.547660	0.241970	0.446190
C4621	C462	0.585980	0.294690	0.422130
C4631	C463	0.403660	0.256630	0.297490
C4641	C464	0.392870	0.297540	0.306830
C4651	C465	0.545200	0.253830	0.410690
C4661	C466	0.279320	0.555860	0.368800
C4671	C467	0.626380	0.320410	0.467230
C4681	C468	0.499770	0.225380	0.362150
C4691	C469	0.589800	0.269830	0.491210
C4701	C470	0.295730	0.519500	0.364230
C4711	C471	0.372100	0.373000	0.324100
C4721	C472	0.337000	0.526600	0.362600
C4731	C473	0.323700	0.449600	0.352300
C4741	C474	0.365800	0.302200	0.328800
C4751	C475	0.267000	0.475300	0.358900
C4761	C476	0.351800	0.492900	0.357300
C4771	C477	0.282900	0.441600	0.354500
C4781	C478	0.408700	0.330900	0.291800
C4791	C479	0.358500	0.341700	0.339400
C4801	C480	0.399200	0.368400	0.303600
N11	N1	0.680710	0.873360	0.871310
N21	N2	0.076700	0.011500	0.168600
N31	N3	0.049000	0.967800	0.137800
N41	N4	0.502050	0.809400	0.628690
N51	N5	0.342900	0.908100	0.331400
N61	N6	0.330000	0.911200	0.362200
N71	N7	0.997950	0.626640	0.307350
N81	N8	0.157100	0.488500	0.565200
N91	N9	0.170000	0.532200	0.581200
N101	N10	0.819290	0.690600	0.192650
N111	N11	0.423300	0.591900	0.934800
N121	N12	0.451000	0.588800	0.918800
N131	N13	0.807350	0.997950	0.126640
N141	N14	0.065200	0.157100	0.988500
N151	N15	0.081200	0.170000	0.032200
N161	N16	0.692650	0.819290	0.190600
N171	N17	0.434800	0.423300	0.091900
N181	N18	0.418800	0.451000	0.088800
N191	N19	0.371310	0.680710	0.373360
N201	N20	0.668600	0.076700	0.511500
N211	N21	0.637800	0.049000	0.467800
N221	N22	0.128690	0.502050	0.309400
N231	N23	0.831400	0.342900	0.408100
N241	N24	0.862200	0.330000	0.411200
N251	N25	0.809400	0.128690	0.002050
N261	N26	0.908100	0.831400	0.842900
N271	N27	0.911200	0.862200	0.830000
N281	N28	0.873360	0.371310	0.180710
N291	N29	0.011500	0.668600	0.576700
N301	N30	0.967800	0.637800	0.549000
N311	N31	0.690600	0.692650	0.319290
N321	N32	0.591900	0.434800	0.923300
N331	N33	0.588800	0.418800	0.951000
N341	N34	0.626640	0.807350	0.497950
N351	N35	0.488500	0.065200	0.657100
N361	N36	0.532200	0.081200	0.670000
N371	N37	0.309400	0.002050	0.128690
N381	N38	0.408100	0.842900	0.831400
N391	N39	0.411200	0.830000	0.862200
N401	N40	0.373360	0.180710	0.371310
N411	N41	0.511500	0.576700	0.668600
N421	N42	0.467800	0.549000	0.637800
N431	N43	0.190600	0.319290	0.692650
N441	N44	0.091900	0.923300	0.434800
N451	N45	0.088800	0.951000	0.418800
N461	N46	0.126640	0.497950	0.807350
N471	N47	0.988500	0.657100	0.065200
N481	N48	0.032200	0.670000	0.081200
N491	N49	0.180710	0.871310	0.873360
N501	N50	0.576700	0.168600	0.011500
N511	N51	0.549000	0.137800	0.967800
N521	N52	0.002050	0.628690	0.809400
N531	N53	0.842900	0.331400	0.908100
N541	N54	0.830000	0.362200	0.911200
N551	N55	0.497950	0.307350	0.626640
N561	N56	0.657100	0.565200	0.488500
N571	N57	0.670000	0.581200	0.532200
N581	N58	0.319290	0.192650	0.690600
N591	N59	0.923300	0.934800	0.591900
N601	N60	0.951000	0.918800	0.588800
N611	N61	0.307350	0.126640	0.997950
N621	N62	0.565200	0.988500	0.157100
N631	N63	0.581200	0.032200	0.170000
N641	N64	0.192650	0.190600	0.819290
N651	N65	0.934800	0.091900	0.423300
N661	N66	0.918800	0.088800	0.451000
N671	N67	0.871310	0.373360	0.680710
N681	N68	0.168600	0.511500	0.076700
N691	N69	0.137800	0.467800	0.049000
N701	N70	0.628690	0.309400	0.502050
N711	N71	0.331400	0.408100	0.342900
N721	N72	0.362200	0.411200	0.330000
O11	O1	0.728480	0.825320	0.997800
O21	O2	0.839940	0.924590	0.109010
O31	O3	0.736790	0.898830	0.037840
O41	O4	0.305980	0.126400	0.261980
O51	O5	0.826280	0.848070	0.074750
O61	O6	0.287440	0.067780	0.190840
O71	O7	0.327520	0.730680	0.502200
O81	O8	0.315580	0.730930	0.390990
O91	O9	0.360990	0.698950	0.462160
O101	O10	0.364420	0.044000	0.238020
O111	O11	0.273320	0.751530	0.425250
O121	O12	0.376940	0.096600	0.309160
O131	O13	0.172480	0.674680	0.403160
O141	O14	0.184420	0.575410	0.415350
O151	O15	0.139010	0.601170	0.337960
O161	O16	0.135580	0.373600	0.679580
O171	O17	0.226680	0.651930	0.478210
O181	O18	0.123060	0.432220	0.719660
O191	O19	0.771520	0.769320	0.096840
O201	O20	0.660060	0.769070	0.084650
O211	O21	0.763210	0.801050	0.162040
O221	O22	0.194020	0.456000	0.820420
O231	O23	0.673720	0.748470	0.021790
O241	O24	0.212560	0.403400	0.780340
O251	O25	0.903160	0.172480	0.174680
O261	O26	0.915350	0.184420	0.075410
O271	O27	0.837960	0.139010	0.101170
O281	O28	0.179580	0.135580	0.873600
O291	O29	0.978210	0.226680	0.151930
O301	O30	0.219660	0.123060	0.932220
O311	O31	0.596840	0.771520	0.269320
O321	O32	0.584650	0.660060	0.269070
O331	O33	0.662040	0.763210	0.301050
O341	O34	0.320420	0.194020	0.956000
O351	O35	0.521790	0.673720	0.248470
O361	O36	0.280340	0.212560	0.903400
O371	O37	0.497800	0.728480	0.325320
O381	O38	0.609010	0.839940	0.424590
O391	O39	0.537840	0.736790	0.398830
O401	O40	0.761980	0.305980	0.626400
O411	O41	0.574750	0.826280	0.348070
O421	O42	0.690840	0.287440	0.567780
O431	O43	0.002200	0.327520	0.230680
O441	O44	0.890990	0.315580	0.230930
O451	O45	0.962160	0.360990	0.198950
O461	O46	0.738020	0.364420	0.544000
O471	O47	0.925250	0.273320	0.251530
O481	O48	0.809160	0.376940	0.596600
O491	O49	0.730680	0.002200	0.827520
O501	O50	0.730930	0.890990	0.815580
O511	O51	0.698950	0.962160	0.860990
O521	O52	0.044000	0.738020	0.864420
O531	O53	0.751530	0.925250	0.773320
O541	O54	0.096600	0.809160	0.876940
O551	O55	0.825320	0.497800	0.228480
O561	O56	0.924590	0.609010	0.339940
O571	O57	0.898830	0.537840	0.236790
O581	O58	0.126400	0.761980	0.805980
O591	O59	0.848070	0.574750	0.326280
O601	O60	0.067780	0.690840	0.787440
O611	O61	0.769320	0.596840	0.271520
O621	O62	0.769070	0.584650	0.160060
O631	O63	0.801050	0.662040	0.263210
O641	O64	0.456000	0.320420	0.694020
O651	O65	0.748470	0.521790	0.173720
O661	O66	0.403400	0.280340	0.712560
O671	O67	0.674680	0.903160	0.672480
O681	O68	0.575410	0.915350	0.684420
O691	O69	0.601170	0.837960	0.639010
O701	O70	0.373600	0.179580	0.635580
O711	O71	0.651930	0.978210	0.726680
O721	O72	0.432220	0.219660	0.623060
O731	O73	0.230680	0.827520	0.002200
O741	O74	0.230930	0.815580	0.890990
O751	O75	0.198950	0.860990	0.962160
O761	O76	0.544000	0.864420	0.738020
O771	O77	0.251530	0.773320	0.925250
O781	O78	0.596600	0.876940	0.809160
O791	O79	0.325320	0.228480	0.497800
O801	O80	0.424590	0.339940	0.609010
O811	O81	0.398830	0.236790	0.537840
O821	O82	0.626400	0.805980	0.761980
O831	O83	0.348070	0.326280	0.574750
O841	O84	0.567780	0.787440	0.690840
O851	O85	0.269320	0.271520	0.596840
O861	O86	0.269070	0.160060	0.584650
O871	O87	0.301050	0.263210	0.662040
O881	O88	0.956000	0.694020	0.320420
O891	O89	0.248470	0.173720	0.521790
O901	O90	0.903400	0.712560	0.280340
O911	O91	0.174680	0.672480	0.903160
O921	O92	0.075410	0.684420	0.915350
O931	O93	0.101170	0.639010	0.837960
O941	O94	0.873600	0.635580	0.179580
O951	O95	0.151930	0.726680	0.978210
O961	O96	0.932220	0.623060	0.219660
O971	O97	0.228480	0.997800	0.825320
O981	O98	0.339940	0.109010	0.924590
O991	O99	0.236790	0.037840	0.898830
O1001	O100	0.805980	0.261980	0.126400
O1011	O101	0.326280	0.074750	0.848070
O1021	O102	0.787440	0.190840	0.067780
O1031	O103	0.827520	0.502200	0.730680
O1041	O104	0.815580	0.390990	0.730930
O1051	O105	0.860990	0.462160	0.698950
O1061	O106	0.864420	0.238020	0.044000
O1071	O107	0.773320	0.425250	0.751530
O1081	O108	0.876940	0.309160	0.096600
O1091	O109	0.672480	0.403160	0.674680
O1101	O110	0.684420	0.415350	0.575410
O1111	O111	0.639010	0.337960	0.601170
O1121	O112	0.635580	0.679580	0.373600
O1131	O113	0.726680	0.478210	0.651930
O1141	O114	0.623060	0.719660	0.432220
O1151	O115	0.271520	0.096840	0.769320
O1161	O116	0.160060	0.084650	0.769070
O1171	O117	0.263210	0.162040	0.801050
O1181	O118	0.694020	0.820420	0.456000
O1191	O119	0.173720	0.021790	0.748470
O1201	O120	0.712560	0.780340	0.403400
O1211	O121	0.403160	0.174680	0.172480
O1221	O122	0.415350	0.075410	0.184420
O1231	O123	0.337960	0.101170	0.139010
O1241	O124	0.679580	0.873600	0.135580
O1251	O125	0.478210	0.151930	0.226680
O1261	O126	0.719660	0.932220	0.123060
O1271	O127	0.096840	0.269320	0.771520
O1281	O128	0.084650	0.269070	0.660060
O1291	O129	0.162040	0.301050	0.763210
O1301	O130	0.820420	0.956000	0.194020
O1311	O131	0.021790	0.248470	0.673720
O1321	O132	0.780340	0.903400	0.212560
O1331	O133	0.997800	0.325320	0.728480
O1341	O134	0.109010	0.424590	0.839940
O1351	O135	0.037840	0.398830	0.736790
O1361	O136	0.261980	0.626400	0.305980
O1371	O137	0.074750	0.348070	0.826280
O1381	O138	0.190840	0.567780	0.287440
O1391	O139	0.502200	0.230680	0.327520
O1401	O140	0.390990	0.230930	0.315580
O1411	O141	0.462160	0.198950	0.360990
O1421	O142	0.238020	0.544000	0.364420
O1431	O143	0.425250	0.251530	0.273320
O1441	O144	0.309160	0.596600	0.376940
O1451	O145	0.750000	0.852740	0.102740
O1461	O146	0.750000	0.746760	0.996760
O1471	O147	0.250000	0.647260	0.397260
O1481	O148	0.250000	0.753240	0.503240
O1491	O149	0.897260	0.250000	0.147260
O1501	O150	0.003240	0.250000	0.253240
O1511	O151	0.602740	0.750000	0.352740
O1521	O152	0.496760	0.750000	0.246760
O1531	O153	0.647260	0.897260	0.750000
O1541	O154	0.753240	0.003240	0.750000
O1551	O155	0.852740	0.602740	0.250000
O1561	O156	0.746760	0.496760	0.250000
O1571	O157	0.147260	0.750000	0.897260
O1581	O158	0.253240	0.750000	0.003240
O1591	O159	0.352740	0.250000	0.602740
O1601	O160	0.246760	0.250000	0.496760
O1611	O161	0.250000	0.102740	0.852740
O1621	O162	0.250000	0.996760	0.746760
O1631	O163	0.750000	0.397260	0.647260
O1641	O164	0.750000	0.503240	0.753240
O1651	O165	0.397260	0.147260	0.250000
O1661	O166	0.503240	0.253240	0.250000
O1671	O167	0.102740	0.352740	0.750000
O1681	O168	0.996760	0.246760	0.750000
