data_KADLOT_freeONLY_PM
_symmetry_space_group_name_H-M	'P1'
_cell_length_a	34.018000
_cell_length_b	34.018000
_cell_length_c	15.308000
_cell_angle_alpha	90.000000
_cell_angle_beta	90.000000
_cell_angle_gamma	90.000000
_symmetry_Int_Tables_number 1

loop_
_symmetry_equiv_pos_as_xyz
'x,y,z'

loop_
_atom_site_label
_atom_site_type_symbol
_atom_site_fract_x
_atom_site_fract_y
_atom_site_fract_z
Cu11	Cu1	0.236160	0.238490	0.674800
Cu21	Cu2	0.998550	0.034310	0.967660
I11	I1	0.060200	0.989760	0.934680
O11	O1	0.198840	0.209540	0.749500
O21	O2	0.222700	0.228630	0.877700
C11	C1	0.198410	0.210880	0.830900
C21	C2	0.165440	0.189800	0.876700
C31	C3	0.136300	0.171890	0.827050
H11	H1	0.138500	0.171200	0.765200
C41	C4	0.103930	0.155030	0.867900
H21	H2	0.084000	0.142800	0.833900
C51	C5	0.100680	0.156090	0.958300
C61	C6	0.129820	0.174010	0.008010
H31	H3	0.127600	0.174700	0.069900
C71	C7	0.162200	0.190860	0.967200
H41	H4	0.182100	0.203100	0.001200
C81	C8	0.065450	0.139460	0.001300
C91	C9	0.050950	0.103540	0.972300
H51	H5	0.064400	0.089500	0.927700
N11	N1	0.016810	0.088150	0.008700
C101	C10	0.997170	0.108670	0.073900
H61	H6	0.973800	0.098100	0.098700
N21	N2	0.011660	0.144580	0.102900
C111	C11	0.045800	0.159970	0.066600
H71	H7	0.055700	0.184500	0.086400
O31	O3	0.274210	0.195580	0.685800
O41	O4	0.297620	0.215970	0.813400
C121	C12	0.297750	0.193740	0.748000
C131	C13	0.328400	0.162300	0.745100
C141	C14	0.330430	0.136850	0.674200
H81	H8	0.311300	0.138300	0.629100
C151	C15	0.360500	0.109270	0.669100
H91	H9	0.361900	0.091900	0.620700
C161	C16	0.388530	0.107140	0.735000
C171	C17	0.386500	0.132590	0.805900
H101	H10	0.405700	0.131100	0.851000
C181	C18	0.356430	0.160160	0.810900
H111	H11	0.355000	0.177600	0.859400
C191	C19	0.420830	0.078440	0.730300
C201	C20	0.439530	0.070620	0.651430
H121	H12	0.429900	0.081900	0.598900
N31	N3	0.472330	0.046270	0.649480
C211	C21	0.486430	0.029740	0.726400
H131	H13	0.508900	0.013100	0.725000
N41	N4	0.467740	0.037560	0.805220
C221	C22	0.434940	0.061910	0.807180
H141	H14	0.422200	0.067300	0.861100
Cu31	Cu3	0.736160	0.738490	0.174800
Cu41	Cu4	0.498550	0.534310	0.467660
I21	I2	0.560200	0.489760	0.434680
O51	O5	0.698840	0.709540	0.249500
O61	O6	0.722700	0.728630	0.377700
C231	C23	0.698410	0.710880	0.330900
C241	C24	0.665440	0.689800	0.376700
C251	C25	0.636300	0.671890	0.327050
H151	H15	0.638500	0.671200	0.265200
C261	C26	0.603930	0.655030	0.367900
H161	H16	0.584000	0.642800	0.333900
C271	C27	0.600680	0.656090	0.458300
C281	C28	0.629820	0.674010	0.508010
H171	H17	0.627600	0.674700	0.569900
C291	C29	0.662200	0.690860	0.467200
H181	H18	0.682100	0.703100	0.501200
C301	C30	0.565450	0.639460	0.501300
C311	C31	0.550950	0.603540	0.472300
H191	H19	0.564400	0.589500	0.427700
N51	N5	0.516810	0.588150	0.508700
C321	C32	0.497170	0.608670	0.573900
H201	H20	0.473800	0.598100	0.598700
N61	N6	0.511660	0.644580	0.602900
C331	C33	0.545800	0.659970	0.566600
H211	H21	0.555700	0.684500	0.586400
O71	O7	0.774210	0.695580	0.185800
O81	O8	0.797620	0.715970	0.313400
C341	C34	0.797750	0.693740	0.248000
C351	C35	0.828400	0.662300	0.245100
C361	C36	0.830430	0.636850	0.174200
H221	H22	0.811300	0.638300	0.129100
C371	C37	0.860500	0.609270	0.169100
H231	H23	0.861900	0.591900	0.120700
C381	C38	0.888530	0.607140	0.235000
C391	C39	0.886500	0.632590	0.305900
H241	H24	0.905700	0.631100	0.351000
C401	C40	0.856430	0.660160	0.310900
H251	H25	0.855000	0.677600	0.359400
C411	C41	0.920830	0.578440	0.230300
C421	C42	0.939530	0.570620	0.151430
H261	H26	0.929900	0.581900	0.098900
N71	N7	0.972330	0.546270	0.149480
C431	C43	0.986430	0.529740	0.226400
H271	H27	0.008900	0.513100	0.225000
N81	N8	0.967740	0.537560	0.305220
C441	C44	0.934940	0.561910	0.307180
H281	H28	0.922200	0.567300	0.361100
Cu51	Cu5	0.263840	0.761510	0.174800
Cu61	Cu6	0.501450	0.965690	0.467660
I31	I3	0.439800	0.010240	0.434680
O91	O9	0.301160	0.790460	0.249500
O101	O10	0.277300	0.771370	0.377700
C451	C45	0.301590	0.789120	0.330900
C461	C46	0.334560	0.810200	0.376700
C471	C47	0.363700	0.828110	0.327050
H291	H29	0.361500	0.828800	0.265200
C481	C48	0.396070	0.844970	0.367900
H301	H30	0.416000	0.857200	0.333900
C491	C49	0.399320	0.843910	0.458300
C501	C50	0.370180	0.825990	0.508010
H311	H31	0.372400	0.825300	0.569900
C511	C51	0.337800	0.809140	0.467200
H321	H32	0.317900	0.796900	0.501200
C521	C52	0.434550	0.860540	0.501300
C531	C53	0.449050	0.896460	0.472300
H331	H33	0.435600	0.910500	0.427700
N91	N9	0.483190	0.911850	0.508700
C541	C54	0.502830	0.891330	0.573900
H341	H34	0.526200	0.901900	0.598700
N101	N10	0.488340	0.855420	0.602900
C551	C55	0.454200	0.840030	0.566600
H351	H35	0.444300	0.815500	0.586400
O111	O11	0.225790	0.804420	0.185800
O121	O12	0.202380	0.784030	0.313400
C561	C56	0.202250	0.806260	0.248000
C571	C57	0.171600	0.837700	0.245100
C581	C58	0.169570	0.863150	0.174200
H361	H36	0.188700	0.861700	0.129100
C591	C59	0.139500	0.890730	0.169100
H371	H37	0.138100	0.908100	0.120700
C601	C60	0.111470	0.892860	0.235000
C611	C61	0.113500	0.867410	0.305900
H381	H38	0.094300	0.868900	0.351000
C621	C62	0.143570	0.839840	0.310900
H391	H39	0.145000	0.822400	0.359400
C631	C63	0.079170	0.921560	0.230300
C641	C64	0.060470	0.929380	0.151430
H401	H40	0.070100	0.918100	0.098900
N111	N11	0.027670	0.953730	0.149480
C651	C65	0.013570	0.970260	0.226400
H411	H41	0.991100	0.986900	0.225000
N121	N12	0.032260	0.962440	0.305220
C661	C66	0.065060	0.938090	0.307180
H421	H42	0.077800	0.932700	0.361100
Cu71	Cu7	0.763840	0.261510	0.674800
Cu81	Cu8	0.001450	0.465690	0.967660
I41	I4	0.939800	0.510240	0.934680
O131	O13	0.801160	0.290460	0.749500
O141	O14	0.777300	0.271370	0.877700
C671	C67	0.801590	0.289120	0.830900
C681	C68	0.834560	0.310200	0.876700
C691	C69	0.863700	0.328110	0.827050
H431	H43	0.861500	0.328800	0.765200
C701	C70	0.896070	0.344970	0.867900
H441	H44	0.916000	0.357200	0.833900
C711	C71	0.899320	0.343910	0.958300
C721	C72	0.870180	0.325990	0.008010
H451	H45	0.872400	0.325300	0.069900
C731	C73	0.837800	0.309140	0.967200
H461	H46	0.817900	0.296900	0.001200
C741	C74	0.934550	0.360540	0.001300
C751	C75	0.949050	0.396460	0.972300
H471	H47	0.935600	0.410500	0.927700
N131	N13	0.983190	0.411850	0.008700
C761	C76	0.002830	0.391330	0.073900
H481	H48	0.026200	0.401900	0.098700
N141	N14	0.988340	0.355420	0.102900
C771	C77	0.954200	0.340030	0.066600
H491	H49	0.944300	0.315500	0.086400
O151	O15	0.725790	0.304420	0.685800
O161	O16	0.702380	0.284030	0.813400
C781	C78	0.702250	0.306260	0.748000
C791	C79	0.671600	0.337700	0.745100
C801	C80	0.669570	0.363150	0.674200
H501	H50	0.688700	0.361700	0.629100
C811	C81	0.639500	0.390730	0.669100
H511	H51	0.638100	0.408100	0.620700
C821	C82	0.611470	0.392860	0.735000
C831	C83	0.613500	0.367410	0.805900
H521	H52	0.594300	0.368900	0.851000
C841	C84	0.643570	0.339840	0.810900
H531	H53	0.645000	0.322400	0.859400
C851	C85	0.579170	0.421560	0.730300
C861	C86	0.560470	0.429380	0.651430
H541	H54	0.570100	0.418100	0.598900
N151	N15	0.527670	0.453730	0.649480
C871	C87	0.513570	0.470260	0.726400
H551	H55	0.491100	0.486900	0.725000
N161	N16	0.532260	0.462440	0.805220
C881	C88	0.565060	0.438090	0.807180
H561	H56	0.577800	0.432700	0.861100
Cu91	Cu9	0.511510	0.486160	0.924800
Cu101	Cu10	0.715690	0.248550	0.217660
I51	I5	0.760240	0.310200	0.184680
O171	O17	0.540460	0.448840	0.999500
O181	O18	0.521370	0.472700	0.127700
C891	C89	0.539120	0.448410	0.080900
C901	C90	0.560200	0.415440	0.126700
C911	C91	0.578110	0.386300	0.077050
H571	H57	0.578800	0.388500	0.015200
C921	C92	0.594970	0.353930	0.117900
H581	H58	0.607200	0.334000	0.083900
C931	C93	0.593910	0.350680	0.208300
C941	C94	0.575990	0.379820	0.258010
H591	H59	0.575300	0.377600	0.319900
C951	C95	0.559140	0.412200	0.217200
H601	H60	0.546900	0.432100	0.251200
C961	C96	0.610540	0.315450	0.251300
C971	C97	0.646460	0.300950	0.222300
H611	H61	0.660500	0.314400	0.177700
N171	N17	0.661850	0.266810	0.258700
C981	C98	0.641330	0.247170	0.323900
H621	H62	0.651900	0.223800	0.348700
N181	N18	0.605420	0.261660	0.352900
C991	C99	0.590030	0.295800	0.316600
H631	H63	0.565500	0.305700	0.336400
O191	O19	0.554420	0.524210	0.935800
O201	O20	0.534030	0.547620	0.063400
C1001	C100	0.556260	0.547750	0.998000
C1011	C101	0.587700	0.578400	0.995100
C1021	C102	0.613150	0.580430	0.924200
H641	H64	0.611700	0.561300	0.879100
C1031	C103	0.640730	0.610500	0.919100
H651	H65	0.658100	0.611900	0.870700
C1041	C104	0.642860	0.638530	0.985000
C1051	C105	0.617410	0.636500	0.055900
H661	H66	0.618900	0.655700	0.101000
C1061	C106	0.589840	0.606430	0.060900
H671	H67	0.572400	0.605000	0.109400
C1071	C107	0.671560	0.670830	0.980300
C1081	C108	0.679380	0.689530	0.901430
H681	H68	0.668100	0.679900	0.848900
N191	N19	0.703730	0.722330	0.899480
C1091	C109	0.720260	0.736430	0.976400
H691	H69	0.736900	0.758900	0.975000
N201	N20	0.712440	0.717740	0.055220
C1101	C110	0.688090	0.684940	0.057180
H701	H70	0.682700	0.672200	0.111100
Cu111	Cu11	0.011510	0.986160	0.424800
Cu121	Cu12	0.215690	0.748550	0.717660
I61	I6	0.260240	0.810200	0.684680
O211	O21	0.040460	0.948840	0.499500
O221	O22	0.021370	0.972700	0.627700
C1111	C111	0.039120	0.948410	0.580900
C1121	C112	0.060200	0.915440	0.626700
C1131	C113	0.078110	0.886300	0.577050
H711	H71	0.078800	0.888500	0.515200
C1141	C114	0.094970	0.853930	0.617900
H721	H72	0.107200	0.834000	0.583900
C1151	C115	0.093910	0.850680	0.708300
C1161	C116	0.075990	0.879820	0.758010
H731	H73	0.075300	0.877600	0.819900
C1171	C117	0.059140	0.912200	0.717200
H741	H74	0.046900	0.932100	0.751200
C1181	C118	0.110540	0.815450	0.751300
C1191	C119	0.146460	0.800950	0.722300
H751	H75	0.160500	0.814400	0.677700
N211	N21	0.161850	0.766810	0.758700
C1201	C120	0.141330	0.747170	0.823900
H761	H76	0.151900	0.723800	0.848700
N221	N22	0.105420	0.761660	0.852900
C1211	C121	0.090030	0.795800	0.816600
H771	H77	0.065500	0.805700	0.836400
O231	O23	0.054420	0.024210	0.435800
O241	O24	0.034030	0.047620	0.563400
C1221	C122	0.056260	0.047750	0.498000
C1231	C123	0.087700	0.078400	0.495100
C1241	C124	0.113150	0.080430	0.424200
H781	H78	0.111700	0.061300	0.379100
C1251	C125	0.140730	0.110500	0.419100
H791	H79	0.158100	0.111900	0.370700
C1261	C126	0.142860	0.138530	0.485000
C1271	C127	0.117410	0.136500	0.555900
H801	H80	0.118900	0.155700	0.601000
C1281	C128	0.089840	0.106430	0.560900
H811	H81	0.072400	0.105000	0.609400
C1291	C129	0.171560	0.170830	0.480300
C1301	C130	0.179380	0.189530	0.401430
H821	H82	0.168100	0.179900	0.348900
N231	N23	0.203730	0.222330	0.399480
C1311	C131	0.220260	0.236430	0.476400
H831	H83	0.236900	0.258900	0.475000
N241	N24	0.212440	0.217740	0.555220
C1321	C132	0.188090	0.184940	0.557180
H841	H84	0.182700	0.172200	0.611100
Cu131	Cu13	0.988490	0.513840	0.424800
Cu141	Cu14	0.784310	0.751450	0.717660
I71	I7	0.739760	0.689800	0.684680
O251	O25	0.959540	0.551160	0.499500
O261	O26	0.978630	0.527300	0.627700
C1331	C133	0.960880	0.551590	0.580900
C1341	C134	0.939800	0.584560	0.626700
C1351	C135	0.921890	0.613700	0.577050
H851	H85	0.921200	0.611500	0.515200
C1361	C136	0.905030	0.646070	0.617900
H861	H86	0.892800	0.666000	0.583900
C1371	C137	0.906090	0.649320	0.708300
C1381	C138	0.924010	0.620180	0.758010
H871	H87	0.924700	0.622400	0.819900
C1391	C139	0.940860	0.587800	0.717200
H881	H88	0.953100	0.567900	0.751200
C1401	C140	0.889460	0.684550	0.751300
C1411	C141	0.853540	0.699050	0.722300
H891	H89	0.839500	0.685600	0.677700
N251	N25	0.838150	0.733190	0.758700
C1421	C142	0.858670	0.752830	0.823900
H901	H90	0.848100	0.776200	0.848700
N261	N26	0.894580	0.738340	0.852900
C1431	C143	0.909970	0.704200	0.816600
H911	H91	0.934500	0.694300	0.836400
O271	O27	0.945580	0.475790	0.435800
O281	O28	0.965970	0.452380	0.563400
C1441	C144	0.943740	0.452250	0.498000
C1451	C145	0.912300	0.421600	0.495100
C1461	C146	0.886850	0.419570	0.424200
H921	H92	0.888300	0.438700	0.379100
C1471	C147	0.859270	0.389500	0.419100
H931	H93	0.841900	0.388100	0.370700
C1481	C148	0.857140	0.361470	0.485000
C1491	C149	0.882590	0.363500	0.555900
H941	H94	0.881100	0.344300	0.601000
C1501	C150	0.910160	0.393570	0.560900
H951	H95	0.927600	0.395000	0.609400
C1511	C151	0.828440	0.329170	0.480300
C1521	C152	0.820620	0.310470	0.401430
H961	H96	0.831900	0.320100	0.348900
N271	N27	0.796270	0.277670	0.399480
C1531	C153	0.779740	0.263570	0.476400
H971	H97	0.763100	0.241100	0.475000
N281	N28	0.787560	0.282260	0.555220
C1541	C154	0.811910	0.315060	0.557180
H981	H98	0.817300	0.327800	0.611100
Cu151	Cu15	0.488490	0.013840	0.924800
Cu161	Cu16	0.284310	0.251450	0.217660
I81	I8	0.239760	0.189800	0.184680
O291	O29	0.459540	0.051160	0.999500
O301	O30	0.478630	0.027300	0.127700
C1551	C155	0.460880	0.051590	0.080900
C1561	C156	0.439800	0.084560	0.126700
C1571	C157	0.421890	0.113700	0.077050
H991	H99	0.421200	0.111500	0.015200
C1581	C158	0.405030	0.146070	0.117900
H1001	H100	0.392800	0.166000	0.083900
C1591	C159	0.406090	0.149320	0.208300
C1601	C160	0.424010	0.120180	0.258010
H1011	H101	0.424700	0.122400	0.319900
C1611	C161	0.440860	0.087800	0.217200
H1021	H102	0.453100	0.067900	0.251200
C1621	C162	0.389460	0.184550	0.251300
C1631	C163	0.353540	0.199050	0.222300
H1031	H103	0.339500	0.185600	0.177700
N291	N29	0.338150	0.233190	0.258700
C1641	C164	0.358670	0.252830	0.323900
H1041	H104	0.348100	0.276200	0.348700
N301	N30	0.394580	0.238340	0.352900
C1651	C165	0.409970	0.204200	0.316600
H1051	H105	0.434500	0.194300	0.336400
O311	O31	0.445580	0.975790	0.935800
O321	O32	0.465970	0.952380	0.063400
C1661	C166	0.443740	0.952250	0.998000
C1671	C167	0.412300	0.921600	0.995100
C1681	C168	0.386850	0.919570	0.924200
H1061	H106	0.388300	0.938700	0.879100
C1691	C169	0.359270	0.889500	0.919100
H1071	H107	0.341900	0.888100	0.870700
C1701	C170	0.357140	0.861470	0.985000
C1711	C171	0.382590	0.863500	0.055900
H1081	H108	0.381100	0.844300	0.101000
C1721	C172	0.410160	0.893570	0.060900
H1091	H109	0.427600	0.895000	0.109400
C1731	C173	0.328440	0.829170	0.980300
C1741	C174	0.320620	0.810470	0.901430
H1101	H110	0.331900	0.820100	0.848900
N311	N31	0.296270	0.777670	0.899480
C1751	C175	0.279740	0.763570	0.976400
H1111	H111	0.263100	0.741100	0.975000
N321	N32	0.287560	0.782260	0.055220
C1761	C176	0.311910	0.815060	0.057180
H1121	H112	0.317300	0.827800	0.111100
Cu171	Cu17	0.763840	0.761510	0.325200
Cu181	Cu18	0.001450	0.965690	0.032340
I91	I9	0.939800	0.010240	0.065320
O331	O33	0.801160	0.790460	0.250500
O341	O34	0.777300	0.771370	0.122300
C1771	C177	0.801590	0.789120	0.169100
C1781	C178	0.834560	0.810200	0.123300
C1791	C179	0.863700	0.828110	0.172950
H1131	H113	0.861500	0.828800	0.234800
C1801	C180	0.896070	0.844970	0.132100
H1141	H114	0.916000	0.857200	0.166100
C1811	C181	0.899320	0.843910	0.041700
C1821	C182	0.870180	0.825990	0.991990
H1151	H115	0.872400	0.825300	0.930100
C1831	C183	0.837800	0.809140	0.032800
H1161	H116	0.817900	0.796900	0.998800
C1841	C184	0.934550	0.860540	0.998700
C1851	C185	0.949050	0.896460	0.027700
H1171	H117	0.935600	0.910500	0.072300
N331	N33	0.983190	0.911850	0.991300
C1861	C186	0.002830	0.891330	0.926100
H1181	H118	0.026200	0.901900	0.901300
N341	N34	0.988340	0.855420	0.897100
C1871	C187	0.954200	0.840030	0.933400
H1191	H119	0.944300	0.815500	0.913600
O351	O35	0.725790	0.804420	0.314200
O361	O36	0.702380	0.784030	0.186600
C1881	C188	0.702250	0.806260	0.252000
C1891	C189	0.671600	0.837700	0.254900
C1901	C190	0.669570	0.863150	0.325800
H1201	H120	0.688700	0.861700	0.370900
C1911	C191	0.639500	0.890730	0.330900
H1211	H121	0.638100	0.908100	0.379300
C1921	C192	0.611470	0.892860	0.265000
C1931	C193	0.613500	0.867410	0.194100
H1221	H122	0.594300	0.868900	0.149000
C1941	C194	0.643570	0.839840	0.189100
H1231	H123	0.645000	0.822400	0.140600
C1951	C195	0.579170	0.921560	0.269700
C1961	C196	0.560470	0.929380	0.348570
H1241	H124	0.570100	0.918100	0.401100
N351	N35	0.527670	0.953730	0.350520
C1971	C197	0.513570	0.970260	0.273600
H1251	H125	0.491100	0.986900	0.275000
N361	N36	0.532260	0.962440	0.194780
C1981	C198	0.565060	0.938090	0.192820
H1261	H126	0.577800	0.932700	0.138900
Cu191	Cu19	0.263840	0.261510	0.825200
Cu201	Cu20	0.501450	0.465690	0.532340
I101	I10	0.439800	0.510240	0.565320
O371	O37	0.301160	0.290460	0.750500
O381	O38	0.277300	0.271370	0.622300
C1991	C199	0.301590	0.289120	0.669100
C2001	C200	0.334560	0.310200	0.623300
C2011	C201	0.363700	0.328110	0.672950
H1271	H127	0.361500	0.328800	0.734800
C2021	C202	0.396070	0.344970	0.632100
H1281	H128	0.416000	0.357200	0.666100
C2031	C203	0.399320	0.343910	0.541700
C2041	C204	0.370180	0.325990	0.491990
H1291	H129	0.372400	0.325300	0.430100
C2051	C205	0.337800	0.309140	0.532800
H1301	H130	0.317900	0.296900	0.498800
C2061	C206	0.434550	0.360540	0.498700
C2071	C207	0.449050	0.396460	0.527700
H1311	H131	0.435600	0.410500	0.572300
N371	N37	0.483190	0.411850	0.491300
C2081	C208	0.502830	0.391330	0.426100
H1321	H132	0.526200	0.401900	0.401300
N381	N38	0.488340	0.355420	0.397100
C2091	C209	0.454200	0.340030	0.433400
H1331	H133	0.444300	0.315500	0.413600
O391	O39	0.225790	0.304420	0.814200
O401	O40	0.202380	0.284030	0.686600
C2101	C210	0.202250	0.306260	0.752000
C2111	C211	0.171600	0.337700	0.754900
C2121	C212	0.169570	0.363150	0.825800
H1341	H134	0.188700	0.361700	0.870900
C2131	C213	0.139500	0.390730	0.830900
H1351	H135	0.138100	0.408100	0.879300
C2141	C214	0.111470	0.392860	0.765000
C2151	C215	0.113500	0.367410	0.694100
H1361	H136	0.094300	0.368900	0.649000
C2161	C216	0.143570	0.339840	0.689100
H1371	H137	0.145000	0.322400	0.640600
C2171	C217	0.079170	0.421560	0.769700
C2181	C218	0.060470	0.429380	0.848570
H1381	H138	0.070100	0.418100	0.901100
N391	N39	0.027670	0.453730	0.850520
C2191	C219	0.013570	0.470260	0.773600
H1391	H139	0.991100	0.486900	0.775000
N401	N40	0.032260	0.462440	0.694780
C2201	C220	0.065060	0.438090	0.692820
H1401	H140	0.077800	0.432700	0.638900
Cu211	Cu21	0.736160	0.238490	0.825200
Cu221	Cu22	0.498550	0.034310	0.532340
I111	I11	0.560200	0.989760	0.565320
O411	O41	0.698840	0.209540	0.750500
O421	O42	0.722700	0.228630	0.622300
C2211	C221	0.698410	0.210880	0.669100
C2221	C222	0.665440	0.189800	0.623300
C2231	C223	0.636300	0.171890	0.672950
H1411	H141	0.638500	0.171200	0.734800
C2241	C224	0.603930	0.155030	0.632100
H1421	H142	0.584000	0.142800	0.666100
C2251	C225	0.600680	0.156090	0.541700
C2261	C226	0.629820	0.174010	0.491990
H1431	H143	0.627600	0.174700	0.430100
C2271	C227	0.662200	0.190860	0.532800
H1441	H144	0.682100	0.203100	0.498800
C2281	C228	0.565450	0.139460	0.498700
C2291	C229	0.550950	0.103540	0.527700
H1451	H145	0.564400	0.089500	0.572300
N411	N41	0.516810	0.088150	0.491300
C2301	C230	0.497170	0.108670	0.426100
H1461	H146	0.473800	0.098100	0.401300
N421	N42	0.511660	0.144580	0.397100
C2311	C231	0.545800	0.159970	0.433400
H1471	H147	0.555700	0.184500	0.413600
O431	O43	0.774210	0.195580	0.814200
O441	O44	0.797620	0.215970	0.686600
C2321	C232	0.797750	0.193740	0.752000
C2331	C233	0.828400	0.162300	0.754900
C2341	C234	0.830430	0.136850	0.825800
H1481	H148	0.811300	0.138300	0.870900
C2351	C235	0.860500	0.109270	0.830900
H1491	H149	0.861900	0.091900	0.879300
C2361	C236	0.888530	0.107140	0.765000
C2371	C237	0.886500	0.132590	0.694100
H1501	H150	0.905700	0.131100	0.649000
C2381	C238	0.856430	0.160160	0.689100
H1511	H151	0.855000	0.177600	0.640600
C2391	C239	0.920830	0.078440	0.769700
C2401	C240	0.939530	0.070620	0.848570
H1521	H152	0.929900	0.081900	0.901100
N431	N43	0.972330	0.046270	0.850520
C2411	C241	0.986430	0.029740	0.773600
H1531	H153	0.008900	0.013100	0.775000
N441	N44	0.967740	0.037560	0.694780
C2421	C242	0.934940	0.061910	0.692820
H1541	H154	0.922200	0.067300	0.638900
Cu231	Cu23	0.236160	0.738490	0.325200
Cu241	Cu24	0.998550	0.534310	0.032340
I121	I12	0.060200	0.489760	0.065320
O451	O45	0.198840	0.709540	0.250500
O461	O46	0.222700	0.728630	0.122300
C2431	C243	0.198410	0.710880	0.169100
C2441	C244	0.165440	0.689800	0.123300
C2451	C245	0.136300	0.671890	0.172950
H1551	H155	0.138500	0.671200	0.234800
C2461	C246	0.103930	0.655030	0.132100
H1561	H156	0.084000	0.642800	0.166100
C2471	C247	0.100680	0.656090	0.041700
C2481	C248	0.129820	0.674010	0.991990
H1571	H157	0.127600	0.674700	0.930100
C2491	C249	0.162200	0.690860	0.032800
H1581	H158	0.182100	0.703100	0.998800
C2501	C250	0.065450	0.639460	0.998700
C2511	C251	0.050950	0.603540	0.027700
H1591	H159	0.064400	0.589500	0.072300
N451	N45	0.016810	0.588150	0.991300
C2521	C252	0.997170	0.608670	0.926100
H1601	H160	0.973800	0.598100	0.901300
N461	N46	0.011660	0.644580	0.897100
C2531	C253	0.045800	0.659970	0.933400
H1611	H161	0.055700	0.684500	0.913600
O471	O47	0.274210	0.695580	0.314200
O481	O48	0.297620	0.715970	0.186600
C2541	C254	0.297750	0.693740	0.252000
C2551	C255	0.328400	0.662300	0.254900
C2561	C256	0.330430	0.636850	0.325800
H1621	H162	0.311300	0.638300	0.370900
C2571	C257	0.360500	0.609270	0.330900
H1631	H163	0.361900	0.591900	0.379300
C2581	C258	0.388530	0.607140	0.265000
C2591	C259	0.386500	0.632590	0.194100
H1641	H164	0.405700	0.631100	0.149000
C2601	C260	0.356430	0.660160	0.189100
H1651	H165	0.355000	0.677600	0.140600
C2611	C261	0.420830	0.578440	0.269700
C2621	C262	0.439530	0.570620	0.348570
H1661	H166	0.429900	0.581900	0.401100
N471	N47	0.472330	0.546270	0.350520
C2631	C263	0.486430	0.529740	0.273600
H1671	H167	0.508900	0.513100	0.275000
N481	N48	0.467740	0.537560	0.194780
C2641	C264	0.434940	0.561910	0.192820
H1681	H168	0.422200	0.567300	0.138900
Cu251	Cu25	0.488490	0.513840	0.075200
Cu261	Cu26	0.284310	0.751450	0.782340
I131	I13	0.239760	0.689800	0.815320
O491	O49	0.459540	0.551160	0.000500
O501	O50	0.478630	0.527300	0.872300
C2651	C265	0.460880	0.551590	0.919100
C2661	C266	0.439800	0.584560	0.873300
C2671	C267	0.421890	0.613700	0.922950
H1691	H169	0.421200	0.611500	0.984800
C2681	C268	0.405030	0.646070	0.882100
H1701	H170	0.392800	0.666000	0.916100
C2691	C269	0.406090	0.649320	0.791700
C2701	C270	0.424010	0.620180	0.741990
H1711	H171	0.424700	0.622400	0.680100
C2711	C271	0.440860	0.587800	0.782800
H1721	H172	0.453100	0.567900	0.748800
C2721	C272	0.389460	0.684550	0.748700
C2731	C273	0.353540	0.699050	0.777700
H1731	H173	0.339500	0.685600	0.822300
N491	N49	0.338150	0.733190	0.741300
C2741	C274	0.358670	0.752830	0.676100
H1741	H174	0.348100	0.776200	0.651300
N501	N50	0.394580	0.738340	0.647100
C2751	C275	0.409970	0.704200	0.683400
H1751	H175	0.434500	0.694300	0.663600
O511	O51	0.445580	0.475790	0.064200
O521	O52	0.465970	0.452380	0.936600
C2761	C276	0.443740	0.452250	0.002000
C2771	C277	0.412300	0.421600	0.004900
C2781	C278	0.386850	0.419570	0.075800
H1761	H176	0.388300	0.438700	0.120900
C2791	C279	0.359270	0.389500	0.080900
H1771	H177	0.341900	0.388100	0.129300
C2801	C280	0.357140	0.361470	0.015000
C2811	C281	0.382590	0.363500	0.944100
H1781	H178	0.381100	0.344300	0.899000
C2821	C282	0.410160	0.393570	0.939100
H1791	H179	0.427600	0.395000	0.890600
C2831	C283	0.328440	0.329170	0.019700
C2841	C284	0.320620	0.310470	0.098570
H1801	H180	0.331900	0.320100	0.151100
N511	N51	0.296270	0.277670	0.100520
C2851	C285	0.279740	0.263570	0.023600
H1811	H181	0.263100	0.241100	0.025000
N521	N52	0.287560	0.282260	0.944780
C2861	C286	0.311910	0.315060	0.942820
H1821	H182	0.317300	0.327800	0.888900
Cu271	Cu27	0.988490	0.013840	0.575200
Cu281	Cu28	0.784310	0.251450	0.282340
I141	I14	0.739760	0.189800	0.315320
O531	O53	0.959540	0.051160	0.500500
O541	O54	0.978630	0.027300	0.372300
C2871	C287	0.960880	0.051590	0.419100
C2881	C288	0.939800	0.084560	0.373300
C2891	C289	0.921890	0.113700	0.422950
H1831	H183	0.921200	0.111500	0.484800
C2901	C290	0.905030	0.146070	0.382100
H1841	H184	0.892800	0.166000	0.416100
C2911	C291	0.906090	0.149320	0.291700
C2921	C292	0.924010	0.120180	0.241990
H1851	H185	0.924700	0.122400	0.180100
C2931	C293	0.940860	0.087800	0.282800
H1861	H186	0.953100	0.067900	0.248800
C2941	C294	0.889460	0.184550	0.248700
C2951	C295	0.853540	0.199050	0.277700
H1871	H187	0.839500	0.185600	0.322300
N531	N53	0.838150	0.233190	0.241300
C2961	C296	0.858670	0.252830	0.176100
H1881	H188	0.848100	0.276200	0.151300
N541	N54	0.894580	0.238340	0.147100
C2971	C297	0.909970	0.204200	0.183400
H1891	H189	0.934500	0.194300	0.163600
O551	O55	0.945580	0.975790	0.564200
O561	O56	0.965970	0.952380	0.436600
C2981	C298	0.943740	0.952250	0.502000
C2991	C299	0.912300	0.921600	0.504900
C3001	C300	0.886850	0.919570	0.575800
H1901	H190	0.888300	0.938700	0.620900
C3011	C301	0.859270	0.889500	0.580900
H1911	H191	0.841900	0.888100	0.629300
C3021	C302	0.857140	0.861470	0.515000
C3031	C303	0.882590	0.863500	0.444100
H1921	H192	0.881100	0.844300	0.399000
C3041	C304	0.910160	0.893570	0.439100
H1931	H193	0.927600	0.895000	0.390600
C3051	C305	0.828440	0.829170	0.519700
C3061	C306	0.820620	0.810470	0.598570
H1941	H194	0.831900	0.820100	0.651100
N551	N55	0.796270	0.777670	0.600520
C3071	C307	0.779740	0.763570	0.523600
H1951	H195	0.763100	0.741100	0.525000
N561	N56	0.787560	0.782260	0.444780
C3081	C308	0.811910	0.815060	0.442820
H1961	H196	0.817300	0.827800	0.388900
Cu291	Cu29	0.011510	0.486160	0.575200
Cu301	Cu30	0.215690	0.248550	0.282340
I151	I15	0.260240	0.310200	0.315320
O571	O57	0.040460	0.448840	0.500500
O581	O58	0.021370	0.472700	0.372300
C3091	C309	0.039120	0.448410	0.419100
C3101	C310	0.060200	0.415440	0.373300
C3111	C311	0.078110	0.386300	0.422950
H1971	H197	0.078800	0.388500	0.484800
C3121	C312	0.094970	0.353930	0.382100
H1981	H198	0.107200	0.334000	0.416100
C3131	C313	0.093910	0.350680	0.291700
C3141	C314	0.075990	0.379820	0.241990
H1991	H199	0.075300	0.377600	0.180100
C3151	C315	0.059140	0.412200	0.282800
H2001	H200	0.046900	0.432100	0.248800
C3161	C316	0.110540	0.315450	0.248700
C3171	C317	0.146460	0.300950	0.277700
H2011	H201	0.160500	0.314400	0.322300
N571	N57	0.161850	0.266810	0.241300
C3181	C318	0.141330	0.247170	0.176100
H2021	H202	0.151900	0.223800	0.151300
N581	N58	0.105420	0.261660	0.147100
C3191	C319	0.090030	0.295800	0.183400
H2031	H203	0.065500	0.305700	0.163600
O591	O59	0.054420	0.524210	0.564200
O601	O60	0.034030	0.547620	0.436600
C3201	C320	0.056260	0.547750	0.502000
C3211	C321	0.087700	0.578400	0.504900
C3221	C322	0.113150	0.580430	0.575800
H2041	H204	0.111700	0.561300	0.620900
C3231	C323	0.140730	0.610500	0.580900
H2051	H205	0.158100	0.611900	0.629300
C3241	C324	0.142860	0.638530	0.515000
C3251	C325	0.117410	0.636500	0.444100
H2061	H206	0.118900	0.655700	0.399000
C3261	C326	0.089840	0.606430	0.439100
H2071	H207	0.072400	0.605000	0.390600
C3271	C327	0.171560	0.670830	0.519700
C3281	C328	0.179380	0.689530	0.598570
H2081	H208	0.168100	0.679900	0.651100
N591	N59	0.203730	0.722330	0.600520
C3291	C329	0.220260	0.736430	0.523600
H2091	H209	0.236900	0.758900	0.525000
N601	N60	0.212440	0.717740	0.444780
C3301	C330	0.188090	0.684940	0.442820
H2101	H210	0.182700	0.672200	0.388900
Cu311	Cu31	0.511510	0.986160	0.075200
Cu321	Cu32	0.715690	0.748550	0.782340
I161	I16	0.760240	0.810200	0.815320
O611	O61	0.540460	0.948840	0.000500
O621	O62	0.521370	0.972700	0.872300
C3311	C331	0.539120	0.948410	0.919100
C3321	C332	0.560200	0.915440	0.873300
C3331	C333	0.578110	0.886300	0.922950
H2111	H211	0.578800	0.888500	0.984800
C3341	C334	0.594970	0.853930	0.882100
H2121	H212	0.607200	0.834000	0.916100
C3351	C335	0.593910	0.850680	0.791700
C3361	C336	0.575990	0.879820	0.741990
H2131	H213	0.575300	0.877600	0.680100
C3371	C337	0.559140	0.912200	0.782800
H2141	H214	0.546900	0.932100	0.748800
C3381	C338	0.610540	0.815450	0.748700
C3391	C339	0.646460	0.800950	0.777700
H2151	H215	0.660500	0.814400	0.822300
N611	N61	0.661850	0.766810	0.741300
C3401	C340	0.641330	0.747170	0.676100
H2161	H216	0.651900	0.723800	0.651300
N621	N62	0.605420	0.761660	0.647100
C3411	C341	0.590030	0.795800	0.683400
H2171	H217	0.565500	0.805700	0.663600
O631	O63	0.554420	0.024210	0.064200
O641	O64	0.534030	0.047620	0.936600
C3421	C342	0.556260	0.047750	0.002000
C3431	C343	0.587700	0.078400	0.004900
C3441	C344	0.613150	0.080430	0.075800
H2181	H218	0.611700	0.061300	0.120900
C3451	C345	0.640730	0.110500	0.080900
H2191	H219	0.658100	0.111900	0.129300
C3461	C346	0.642860	0.138530	0.015000
C3471	C347	0.617410	0.136500	0.944100
H2201	H220	0.618900	0.155700	0.899000
C3481	C348	0.589840	0.106430	0.939100
H2211	H221	0.572400	0.105000	0.890600
C3491	C349	0.671560	0.170830	0.019700
C3501	C350	0.679380	0.189530	0.098570
H2221	H222	0.668100	0.179900	0.151100
N631	N63	0.703730	0.222330	0.100520
C3511	C351	0.720260	0.236430	0.023600
H2231	H223	0.736900	0.258900	0.025000
N641	N64	0.712440	0.217740	0.944780
C3521	C352	0.688090	0.184940	0.942820
H2241	H224	0.682700	0.172200	0.888900
