data_KAFYAT_freeONLY_PM
_symmetry_space_group_name_H-M	'P1'
_cell_length_a	8.629000
_cell_length_b	9.839700
_cell_length_c	24.950000
_cell_angle_alpha	90.512000
_cell_angle_beta	90.000000
_cell_angle_gamma	90.000000
_symmetry_Int_Tables_number 1

loop_
_symmetry_equiv_pos_as_xyz
'x,y,z'

loop_
_atom_site_label
_atom_site_type_symbol
_atom_site_fract_x
_atom_site_fract_y
_atom_site_fract_z
Zn11	Zn1	0.200580	0.687310	0.398750
Zn21	Zn2	0.314870	0.767060	0.078620
Zn31	Zn3	0.700580	0.812690	0.101250
Zn41	Zn4	0.814870	0.732940	0.421380
Zn51	Zn5	0.799420	0.312690	0.601250
Zn61	Zn6	0.685130	0.232940	0.921380
Zn71	Zn7	0.299420	0.187310	0.898750
Zn81	Zn8	0.185130	0.267060	0.578620
Zn91	Zn9	0.500000	0.000000	0.000000
Zn101	Zn10	0.000000	0.500000	0.500000
H11	H1	0.265500	0.310400	0.070900
H21	H2	0.972400	0.458300	0.182300
H31	H3	0.021900	0.053400	0.164700
H41	H4	0.794500	0.145900	0.215100
H51	H5	0.788200	0.302700	0.227000
H61	H6	0.958000	0.396100	0.298900
H71	H7	0.142900	0.147000	0.406800
H81	H8	0.932200	0.996000	0.274100
H91	H9	0.530300	0.757800	0.019700
H101	H10	0.165400	0.855400	0.996500
H111	H11	0.196300	0.719700	0.985700
H121	H12	0.365300	0.736100	0.330200
H131	H13	0.450600	0.681500	0.372100
H141	H14	0.356900	0.719200	0.480800
H151	H15	0.344900	0.579800	0.473500
H161	H16	0.765500	0.189600	0.429100
H171	H17	0.472400	0.041700	0.317700
H181	H18	0.521900	0.446600	0.335300
H191	H19	0.294500	0.354100	0.284900
H201	H20	0.288200	0.197300	0.273000
H211	H21	0.458000	0.103900	0.201100
H221	H22	0.642900	0.353000	0.093200
H231	H23	0.432200	0.504000	0.225900
H241	H24	0.030300	0.742200	0.480300
H251	H25	0.665400	0.644600	0.503500
H261	H26	0.696300	0.780300	0.514300
H271	H27	0.865300	0.763900	0.169800
H281	H28	0.950600	0.818500	0.127900
H291	H29	0.856900	0.780800	0.019200
H301	H30	0.844900	0.920200	0.026500
H311	H31	0.734500	0.689600	0.929100
H321	H32	0.027600	0.541700	0.817700
H331	H33	0.978100	0.946600	0.835300
H341	H34	0.205500	0.854100	0.784900
H351	H35	0.211800	0.697300	0.773000
H361	H36	0.042000	0.603900	0.701100
H371	H37	0.857100	0.853000	0.593200
H381	H38	0.067800	0.004000	0.725900
H391	H39	0.469700	0.242200	0.980300
H401	H40	0.834600	0.144600	0.003500
H411	H41	0.803700	0.280300	0.014300
H421	H42	0.634700	0.263900	0.669800
H431	H43	0.549400	0.318500	0.627900
H441	H44	0.643100	0.280800	0.519200
H451	H45	0.655100	0.420200	0.526500
H461	H46	0.234500	0.810400	0.570900
H471	H47	0.527600	0.958300	0.682300
H481	H48	0.478100	0.553400	0.664700
H491	H49	0.705500	0.645900	0.715100
H501	H50	0.711800	0.802700	0.727000
H511	H51	0.542000	0.896100	0.798900
H521	H52	0.357100	0.647000	0.906800
H531	H53	0.567800	0.496000	0.774100
H541	H54	0.969700	0.257800	0.519700
H551	H55	0.334600	0.355400	0.496500
H561	H56	0.303700	0.219700	0.485700
H571	H57	0.134700	0.236100	0.830200
H581	H58	0.049400	0.181500	0.872100
H591	H59	0.143100	0.219200	0.980800
H601	H60	0.155100	0.079800	0.973500
C11	C1	0.155500	0.160400	0.114560
C21	C2	0.196200	0.295600	0.098800
C31	C3	0.128800	0.404400	0.126660
C41	C4	0.018400	0.384000	0.165370
C51	C5	0.973700	0.249200	0.179860
C61	C6	0.046700	0.141500	0.154530
C71	C7	0.856900	0.224900	0.224080
C81	C8	0.937500	0.202300	0.277850
C91	C9	0.980600	0.308300	0.309910
C101	C10	0.056300	0.291100	0.358000
C111	C11	0.090600	0.160500	0.374670
C121	C12	0.046100	0.049200	0.343050
C131	C13	0.965800	0.069700	0.294560
C141	C14	0.237600	0.040700	0.089180
C151	C15	0.175500	0.547000	0.112550
C161	C16	0.105700	0.412200	0.391470
C171	C17	0.083100	0.909200	0.361960
C181	C18	0.655500	0.339600	0.385440
C191	C19	0.696200	0.204400	0.401200
C201	C20	0.628800	0.095600	0.373340
C211	C21	0.518400	0.116000	0.334630
C221	C22	0.473700	0.250800	0.320140
C231	C23	0.546700	0.358500	0.345470
C241	C24	0.356900	0.275100	0.275920
C251	C25	0.437500	0.297700	0.222150
C261	C26	0.480600	0.191700	0.190090
C271	C27	0.556300	0.208900	0.142000
C281	C28	0.590600	0.339500	0.125330
C291	C29	0.546100	0.450800	0.156950
C301	C30	0.465800	0.430300	0.205440
C311	C31	0.737600	0.459300	0.410820
C321	C32	0.675500	0.953000	0.387450
C331	C33	0.605700	0.087800	0.108530
C341	C34	0.583100	0.590800	0.138040
C351	C35	0.844500	0.839600	0.885440
C361	C36	0.803800	0.704400	0.901200
C371	C37	0.871200	0.595600	0.873340
C381	C38	0.981600	0.616000	0.834630
C391	C39	0.026300	0.750800	0.820140
C401	C40	0.953300	0.858500	0.845470
C411	C41	0.143100	0.775100	0.775920
C421	C42	0.062500	0.797700	0.722150
C431	C43	0.019400	0.691700	0.690090
C441	C44	0.943700	0.708900	0.642000
C451	C45	0.909400	0.839500	0.625330
C461	C46	0.953900	0.950800	0.656950
C471	C47	0.034200	0.930300	0.705440
C481	C48	0.762400	0.959300	0.910820
C491	C49	0.824500	0.453000	0.887450
C501	C50	0.894300	0.587800	0.608530
C511	C51	0.916900	0.090800	0.638040
C521	C52	0.344500	0.660400	0.614560
C531	C53	0.303800	0.795600	0.598800
C541	C54	0.371200	0.904400	0.626660
C551	C55	0.481600	0.884000	0.665370
C561	C56	0.526300	0.749200	0.679860
C571	C57	0.453300	0.641500	0.654530
C581	C58	0.643100	0.724900	0.724080
C591	C59	0.562500	0.702300	0.777850
C601	C60	0.519400	0.808300	0.809910
C611	C61	0.443700	0.791100	0.858000
C621	C62	0.409400	0.660500	0.874670
C631	C63	0.453900	0.549200	0.843050
C641	C64	0.534200	0.569700	0.794560
C651	C65	0.262400	0.540700	0.589180
C661	C66	0.324500	0.047000	0.612550
C671	C67	0.394300	0.912200	0.891470
C681	C68	0.416900	0.409200	0.861960
O11	O1	0.237800	0.933300	0.113450
O21	O2	0.292500	0.060400	0.041990
O31	O3	0.290800	0.565500	0.080470
O41	O4	0.116600	0.645100	0.134180
O51	O5	0.123000	0.521600	0.365200
O61	O6	0.131000	0.397800	0.439340
O71	O7	0.185600	0.895700	0.398160
O81	O8	0.011000	0.809800	0.344840
O91	O9	0.511200	0.819800	0.042520
O101	O10	0.164500	0.775400	0.009320
O111	O11	0.368200	0.673700	0.353690
O121	O12	0.362600	0.655200	0.458060
O131	O13	0.737800	0.566700	0.386550
O141	O14	0.792500	0.439600	0.458010
O151	O15	0.790800	0.934500	0.419530
O161	O16	0.616600	0.854900	0.365820
O171	O17	0.623000	0.978400	0.134800
O181	O18	0.631000	0.102200	0.060660
O191	O19	0.685600	0.604300	0.101840
O201	O20	0.511000	0.690200	0.155160
O211	O21	0.011200	0.680200	0.457480
O221	O22	0.664500	0.724600	0.490680
O231	O23	0.868200	0.826300	0.146310
O241	O24	0.862600	0.844800	0.041940
O251	O25	0.762200	0.066700	0.886550
O261	O26	0.707500	0.939600	0.958010
O271	O27	0.709200	0.434500	0.919530
O281	O28	0.883400	0.354900	0.865820
O291	O29	0.877000	0.478400	0.634800
O301	O30	0.869000	0.602200	0.560660
O311	O31	0.814400	0.104300	0.601840
O321	O32	0.989000	0.190200	0.655160
O331	O33	0.488800	0.180200	0.957480
O341	O34	0.835500	0.224600	0.990680
O351	O35	0.631800	0.326300	0.646310
O361	O36	0.637400	0.344800	0.541940
O371	O37	0.262200	0.433300	0.613450
O381	O38	0.207500	0.560400	0.541990
O391	O39	0.209200	0.065500	0.580470
O401	O40	0.383400	0.145100	0.634180
O411	O41	0.377000	0.021600	0.865200
O421	O42	0.369000	0.897800	0.939340
O431	O43	0.314400	0.395700	0.898160
O441	O44	0.489000	0.309800	0.844840
O451	O45	0.988800	0.319800	0.542520
O461	O46	0.335500	0.275400	0.509320
O471	O47	0.131800	0.173700	0.853690
O481	O48	0.137400	0.155200	0.958060
