data_KAGWEW_freeONLY_PM
_symmetry_space_group_name_H-M	'P1'
_cell_length_a	9.458600
_cell_length_b	26.769000
_cell_length_c	32.377000
_cell_angle_alpha	90.000000
_cell_angle_beta	90.000000
_cell_angle_gamma	90.000000
_symmetry_Int_Tables_number 1

loop_
_symmetry_equiv_pos_as_xyz
'x,y,z'

loop_
_atom_site_label
_atom_site_type_symbol
_atom_site_fract_x
_atom_site_fract_y
_atom_site_fract_z
U11	U1	0.238520	0.725610	0.851420
U21	U2	0.736790	0.608660	0.902150
U31	U3	0.723990	0.945870	0.654600
U41	U4	0.754300	0.803580	0.545720
U51	U5	0.774110	0.761950	0.708470
S11	S1	0.474600	0.712780	0.767080
S21	S2	0.014100	0.715230	0.761070
S31	S3	0.957400	0.840240	0.633850
S41	S4	0.540600	0.828880	0.640970
S51	S5	0.013600	0.701950	0.919230
S61	S6	0.512200	0.526310	0.841420
S71	S7	0.511200	0.689110	0.925310
S81	S8	0.957500	0.776650	0.474410
S91	S9	0.974400	0.531720	0.843890
O11	O1	0.095100	0.740300	0.794600
O21	O2	0.744800	0.635400	0.852700
O31	O3	0.240800	0.662000	0.840400
O41	O4	0.416800	0.738500	0.804100
O51	O5	0.733800	0.583900	0.951800
O61	O6	0.591600	0.543200	0.878300
O71	O7	0.488000	0.636100	0.915000
O81	O8	0.903700	0.885900	0.657300
O91	O9	0.990900	0.721300	0.876500
O101	O10	0.758300	0.702500	0.685500
O111	O11	0.388900	0.827500	0.636600
O121	O12	0.701400	0.940600	0.601900
O131	O13	0.789400	0.819700	0.732200
O141	O14	0.921100	0.843300	0.590200
O151	O15	0.584100	0.873900	0.663000
O161	O16	0.895100	0.794100	0.651600
O171	O17	0.744100	0.952400	0.708000
O181	O18	0.234200	0.788900	0.863200
O191	O19	0.458600	0.702900	0.965200
O201	O20	0.172800	0.697400	0.922200
O211	O21	0.791300	0.747200	0.569300
O221	O22	0.591700	0.784300	0.664500
O231	O23	0.716800	0.860200	0.521200
O241	O24	0.452200	0.722000	0.892700
O251	O25	0.804700	0.764800	0.478900
O261	O26	0.857800	0.718700	0.770900
O271	O27	0.358300	0.533800	0.849100
O281	O28	0.058800	0.663000	0.756200
O291	O29	0.078500	0.495300	0.859400
O301	O30	0.026400	0.744700	0.721900
O311	O31	0.667500	0.694200	0.924000
O321	O32	0.989700	0.804500	0.512100
O331	O33	0.961800	0.734400	0.951400
O341	O34	0.579100	0.748800	0.750200
O351	O35	0.362800	0.704300	0.737500
O361	O36	0.912100	0.554900	0.883100
O371	O37	0.611300	0.829200	0.600300
O381	O38	0.554600	0.552700	0.804700
O391	O39	0.036100	0.728200	0.475300
O401	O40	0.949200	0.651000	0.923600
O411	O41	0.859700	0.506000	0.821900
O421	O42	0.044900	0.569800	0.820200
O431	O43	0.992200	0.804800	0.438400
O441	O44	0.542000	0.667700	0.778900
O451	O45	0.527300	0.471300	0.838800
O461	O46	0.109100	0.838100	0.637600
U61	U6	0.261480	0.274390	0.351420
U71	U7	0.763210	0.391340	0.402150
U81	U8	0.776010	0.054130	0.154600
U91	U9	0.745700	0.196420	0.045720
U101	U10	0.725890	0.238050	0.208470
S101	S10	0.025400	0.287220	0.267080
S111	S11	0.485900	0.284770	0.261070
S121	S12	0.542600	0.159760	0.133850
S131	S13	0.959400	0.171120	0.140970
S141	S14	0.486400	0.298050	0.419230
S151	S15	0.987800	0.473690	0.341420
S161	S16	0.988800	0.310890	0.425310
S171	S17	0.542500	0.223350	0.974410
S181	S18	0.525600	0.468280	0.343890
O471	O47	0.404900	0.259700	0.294600
O481	O48	0.755200	0.364600	0.352700
O491	O49	0.259200	0.338000	0.340400
O501	O50	0.083200	0.261500	0.304100
O511	O51	0.766200	0.416100	0.451800
O521	O52	0.908400	0.456800	0.378300
O531	O53	0.012000	0.363900	0.415000
O541	O54	0.596300	0.114100	0.157300
O551	O55	0.509100	0.278700	0.376500
O561	O56	0.741700	0.297500	0.185500
O571	O57	0.111100	0.172500	0.136600
O581	O58	0.798600	0.059400	0.101900
O591	O59	0.710600	0.180300	0.232200
O601	O60	0.578900	0.156700	0.090200
O611	O61	0.915900	0.126100	0.163000
O621	O62	0.604900	0.205900	0.151600
O631	O63	0.755900	0.047600	0.208000
O641	O64	0.265800	0.211100	0.363200
O651	O65	0.041400	0.297100	0.465200
O661	O66	0.327200	0.302600	0.422200
O671	O67	0.708700	0.252800	0.069300
O681	O68	0.908300	0.215700	0.164500
O691	O69	0.783200	0.139800	0.021200
O701	O70	0.047800	0.278000	0.392700
O711	O71	0.695300	0.235200	0.978900
O721	O72	0.642200	0.281300	0.270900
O731	O73	0.141700	0.466200	0.349100
O741	O74	0.441200	0.337000	0.256200
O751	O75	0.421500	0.504700	0.359400
O761	O76	0.473600	0.255300	0.221900
O771	O77	0.832500	0.305800	0.424000
O781	O78	0.510300	0.195500	0.012100
O791	O79	0.538200	0.265600	0.451400
O801	O80	0.920900	0.251200	0.250200
O811	O81	0.137200	0.295700	0.237500
O821	O82	0.587900	0.445100	0.383100
O831	O83	0.888700	0.170800	0.100300
O841	O84	0.945400	0.447300	0.304700
O851	O85	0.463900	0.271800	0.975300
O861	O86	0.550800	0.349000	0.423600
O871	O87	0.640300	0.494000	0.321900
O881	O88	0.455100	0.430200	0.320200
O891	O89	0.507800	0.195200	0.938400
O901	O90	0.958000	0.332300	0.278900
O911	O91	0.972700	0.528700	0.338800
O921	O92	0.390900	0.161900	0.137600
U111	U11	0.761480	0.225610	0.648580
U121	U12	0.263210	0.108660	0.597850
U131	U13	0.276010	0.445870	0.845400
U141	U14	0.245700	0.303580	0.954280
U151	U15	0.225890	0.261950	0.791530
S191	S19	0.525400	0.212780	0.732920
S201	S20	0.985900	0.215230	0.738930
S211	S21	0.042600	0.340240	0.866150
S221	S22	0.459400	0.328880	0.859030
S231	S23	0.986400	0.201950	0.580770
S241	S24	0.487800	0.026310	0.658580
S251	S25	0.488800	0.189110	0.574690
S261	S26	0.042500	0.276650	0.025590
S271	S27	0.025600	0.031720	0.656110
O931	O93	0.904900	0.240300	0.705400
O941	O94	0.255200	0.135400	0.647300
O951	O95	0.759200	0.162000	0.659600
O961	O96	0.583200	0.238500	0.695900
O971	O97	0.266200	0.083900	0.548200
O981	O98	0.408400	0.043200	0.621700
O991	O99	0.512000	0.136100	0.585000
O1001	O100	0.096300	0.385900	0.842700
O1011	O101	0.009100	0.221300	0.623500
O1021	O102	0.241700	0.202500	0.814500
O1031	O103	0.611100	0.327500	0.863400
O1041	O104	0.298600	0.440600	0.898100
O1051	O105	0.210600	0.319700	0.767800
O1061	O106	0.078900	0.343300	0.909800
O1071	O107	0.415900	0.373900	0.837000
O1081	O108	0.104900	0.294100	0.848400
O1091	O109	0.255900	0.452400	0.792000
O1101	O110	0.765800	0.288900	0.636800
O1111	O111	0.541400	0.202900	0.534800
O1121	O112	0.827200	0.197400	0.577800
O1131	O113	0.208700	0.247200	0.930700
O1141	O114	0.408300	0.284300	0.835500
O1151	O115	0.283200	0.360200	0.978800
O1161	O116	0.547800	0.222000	0.607300
O1171	O117	0.195300	0.264800	0.021100
O1181	O118	0.142200	0.218700	0.729100
O1191	O119	0.641700	0.033800	0.650900
O1201	O120	0.941200	0.163000	0.743800
O1211	O121	0.921500	0.995300	0.640600
O1221	O122	0.973600	0.244700	0.778100
O1231	O123	0.332500	0.194200	0.576000
O1241	O124	0.010300	0.304500	0.987900
O1251	O125	0.038200	0.234400	0.548600
O1261	O126	0.420900	0.248800	0.749800
O1271	O127	0.637200	0.204300	0.762500
O1281	O128	0.087900	0.054900	0.616900
O1291	O129	0.388700	0.329200	0.899700
O1301	O130	0.445400	0.052700	0.695300
O1311	O131	0.963900	0.228200	0.024700
O1321	O132	0.050800	0.151000	0.576400
O1331	O133	0.140300	0.006000	0.678100
O1341	O134	0.955100	0.069800	0.679800
O1351	O135	0.007800	0.304800	0.061600
O1361	O136	0.458000	0.167700	0.721100
O1371	O137	0.472700	0.971300	0.661200
O1381	O138	0.890900	0.338100	0.862400
U161	U16	0.738520	0.774390	0.148580
U171	U17	0.236790	0.891340	0.097850
U181	U18	0.223990	0.554130	0.345400
U191	U19	0.254300	0.696420	0.454280
U201	U20	0.274110	0.738050	0.291530
S281	S28	0.974600	0.787220	0.232920
S291	S29	0.514100	0.784770	0.238930
S301	S30	0.457400	0.659760	0.366150
S311	S31	0.040600	0.671120	0.359030
S321	S32	0.513600	0.798050	0.080770
S331	S33	0.012200	0.973690	0.158580
S341	S34	0.011200	0.810890	0.074690
S351	S35	0.457500	0.723350	0.525590
S361	S36	0.474400	0.968280	0.156110
O1391	O139	0.595100	0.759700	0.205400
O1401	O140	0.244800	0.864600	0.147300
O1411	O141	0.740800	0.838000	0.159600
O1421	O142	0.916800	0.761500	0.195900
O1431	O143	0.233800	0.916100	0.048200
O1441	O144	0.091600	0.956800	0.121700
O1451	O145	0.988000	0.863900	0.085000
O1461	O146	0.403700	0.614100	0.342700
O1471	O147	0.490900	0.778700	0.123500
O1481	O148	0.258300	0.797500	0.314500
O1491	O149	0.888900	0.672500	0.363400
O1501	O150	0.201400	0.559400	0.398100
O1511	O151	0.289400	0.680300	0.267800
O1521	O152	0.421100	0.656700	0.409800
O1531	O153	0.084100	0.626100	0.337000
O1541	O154	0.395100	0.705900	0.348400
O1551	O155	0.244100	0.547600	0.292000
O1561	O156	0.734200	0.711100	0.136800
O1571	O157	0.958600	0.797100	0.034800
O1581	O158	0.672800	0.802600	0.077800
O1591	O159	0.291300	0.752800	0.430700
O1601	O160	0.091700	0.715700	0.335500
O1611	O161	0.216800	0.639800	0.478800
O1621	O162	0.952200	0.778000	0.107300
O1631	O163	0.304700	0.735200	0.521100
O1641	O164	0.357800	0.781300	0.229100
O1651	O165	0.858300	0.966200	0.150900
O1661	O166	0.558800	0.837000	0.243800
O1671	O167	0.578500	0.004700	0.140600
O1681	O168	0.526400	0.755300	0.278100
O1691	O169	0.167500	0.805800	0.076000
O1701	O170	0.489700	0.695500	0.487900
O1711	O171	0.461800	0.765600	0.048600
O1721	O172	0.079100	0.751200	0.249800
O1731	O173	0.862800	0.795700	0.262500
O1741	O174	0.412100	0.945100	0.116900
O1751	O175	0.111300	0.670800	0.399700
O1761	O176	0.054600	0.947300	0.195300
O1771	O177	0.536100	0.771800	0.524700
O1781	O178	0.449200	0.849000	0.076400
O1791	O179	0.359700	0.994000	0.178100
O1801	O180	0.544900	0.930200	0.179800
O1811	O181	0.492200	0.695200	0.561600
O1821	O182	0.042000	0.832300	0.221100
O1831	O183	0.027300	0.028700	0.161200
O1841	O184	0.609100	0.661900	0.362400
