data_KAHKUB01_freeONLY_PM
_symmetry_space_group_name_H-M	'P1'
_cell_length_a	8.763200
_cell_length_b	8.763200
_cell_length_c	18.819700
_cell_angle_alpha	90.000000
_cell_angle_beta	90.000000
_cell_angle_gamma	120.000000
_symmetry_Int_Tables_number 1

loop_
_symmetry_equiv_pos_as_xyz
'x,y,z'

loop_
_atom_site_label
_atom_site_type_symbol
_atom_site_fract_x
_atom_site_fract_y
_atom_site_fract_z
Fe11	Fe1	0.666670	0.333330	0.333330
Fe21	Fe2	0.333330	0.666670	0.666670
Fe31	Fe3	0.000000	0.000000	0.000000
K11	K1	0.000000	0.000000	0.500000
K21	K2	0.666670	0.333330	0.833330
K31	K3	0.333330	0.666670	0.166670
N11	N1	0.836600	0.163400	0.423600
C11	C1	0.773200	0.226800	0.391200
N21	N2	0.503270	0.496730	0.756930
C21	C2	0.439870	0.560130	0.724530
N31	N3	0.169930	0.830070	0.090270
C31	C3	0.106530	0.893470	0.057870
N41	N4	0.836600	0.673200	0.423600
C41	C4	0.773200	0.546400	0.391200
N51	N5	0.503270	0.006530	0.756930
C51	C5	0.439870	0.879730	0.724530
N61	N6	0.169930	0.339870	0.090270
C61	C6	0.106530	0.213070	0.057870
N71	N7	0.326800	0.163400	0.423600
C71	C7	0.453600	0.226800	0.391200
N81	N8	0.993470	0.496730	0.756930
C81	C8	0.120270	0.560130	0.724530
N91	N9	0.660130	0.830070	0.090270
C91	C9	0.786930	0.893470	0.057870
N101	N10	0.163400	0.836600	0.576400
C101	C10	0.226800	0.773200	0.608800
N111	N11	0.830070	0.169930	0.909730
C111	C11	0.893470	0.106530	0.942130
N121	N12	0.496730	0.503270	0.243070
C121	C12	0.560130	0.439870	0.275470
N131	N13	0.673200	0.836600	0.576400
C131	C13	0.546400	0.773200	0.608800
N141	N14	0.339870	0.169930	0.909730
C141	C14	0.213070	0.106530	0.942130
N151	N15	0.006530	0.503270	0.243070
C151	C15	0.879730	0.439870	0.275470
N161	N16	0.163400	0.326800	0.576400
C161	C16	0.226800	0.453600	0.608800
N171	N17	0.830070	0.660130	0.909730
C171	C17	0.893470	0.786930	0.942130
N181	N18	0.496730	0.993470	0.243070
C181	C18	0.560130	0.120270	0.275470
