data_KAHNOX_freeONLY_PM
_symmetry_space_group_name_H-M	'P1'
_cell_length_a	9.420400
_cell_length_b	9.420400
_cell_length_c	16.449000
_cell_angle_alpha	88.512100
_cell_angle_beta	88.512100
_cell_angle_gamma	83.722200
_symmetry_Int_Tables_number 1

loop_
_symmetry_equiv_pos_as_xyz
'x,y,z'

loop_
_atom_site_label
_atom_site_type_symbol
_atom_site_fract_x
_atom_site_fract_y
_atom_site_fract_z
Cu11	Cu1	0.494090	0.135070	0.002070
Cu21	Cu2	0.864930	0.505910	0.497930
Cu31	Cu3	0.505910	0.864930	0.997930
Cu41	Cu4	0.135070	0.494090	0.502070
Cu51	Cu5	0.000000	0.000000	0.000000
Cu61	Cu6	0.000000	0.000000	0.500000
Cu71	Cu7	0.634600	0.365400	0.250000
Cu81	Cu8	0.365400	0.634600	0.750000
Cu91	Cu9	0.598400	0.401600	0.750000
Cu101	Cu10	0.401600	0.598400	0.250000
C11	C1	0.681800	0.962000	0.988600
C21	C2	0.570500	0.284500	0.160700
C31	C3	0.513400	0.241200	0.901700
C41	C4	0.109700	0.086500	0.840100
C51	C5	0.006800	0.263600	0.743400
C61	C6	0.248100	0.141700	0.719000
C71	C7	0.038000	0.318200	0.511400
C81	C8	0.715500	0.429500	0.339300
C91	C9	0.758800	0.486600	0.598300
C101	C10	0.913500	0.890300	0.659900
C111	C11	0.736400	0.993200	0.756600
C121	C12	0.858300	0.751900	0.781000
C131	C13	0.318200	0.038000	0.011400
C141	C14	0.429500	0.715500	0.839300
C151	C15	0.486600	0.758800	0.098300
C161	C16	0.890300	0.913500	0.159900
C171	C17	0.993200	0.736400	0.256600
C181	C18	0.751900	0.858300	0.281000
C191	C19	0.962000	0.681800	0.488600
C201	C20	0.284500	0.570500	0.660700
C211	C21	0.241200	0.513400	0.401700
C221	C22	0.086500	0.109700	0.340100
C231	C23	0.263600	0.006800	0.243400
C241	C24	0.141700	0.248100	0.219000
N11	N1	0.801400	0.975800	0.986500
N21	N2	0.541600	0.229800	0.101100
N31	N3	0.533900	0.305500	0.842700
N41	N4	0.120500	0.160300	0.771500
N51	N5	0.024200	0.198600	0.513500
N61	N6	0.770200	0.458400	0.398900
N71	N7	0.694500	0.466100	0.657300
N81	N8	0.839700	0.879500	0.728500
N91	N9	0.198600	0.024200	0.013500
N101	N10	0.458400	0.770200	0.898900
N111	N11	0.466100	0.694500	0.157300
N121	N12	0.879500	0.839700	0.228500
N131	N13	0.975800	0.801400	0.486500
N141	N14	0.229800	0.541600	0.601100
N151	N15	0.305500	0.533900	0.342700
N161	N16	0.160300	0.120500	0.271500
O11	O1	0.002200	0.099000	0.886400
O21	O2	0.901000	0.997800	0.613600
O31	O3	0.997800	0.901000	0.113600
O41	O4	0.099000	0.002200	0.386400
