data_KAJZIH_freeONLY_PM
_symmetry_space_group_name_H-M	'P1'
_cell_length_a	19.210000
_cell_length_b	19.210000
_cell_length_c	6.915800
_cell_angle_alpha	90.000000
_cell_angle_beta	90.000000
_cell_angle_gamma	90.000000
_symmetry_Int_Tables_number 1

loop_
_symmetry_equiv_pos_as_xyz
'x,y,z'

loop_
_atom_site_label
_atom_site_type_symbol
_atom_site_fract_x
_atom_site_fract_y
_atom_site_fract_z
O11	O1	0.631980	0.191970	0.733500
O21	O2	0.532270	0.433860	0.261500
O31	O3	0.484100	0.381770	0.512400
C11	C1	0.556500	0.312410	0.072400
H11	H1	0.565900	0.355100	0.008300
C21	C2	0.524720	0.312700	0.254600
C31	C3	0.512030	0.381110	0.350800
O41	O4	0.868020	0.308030	0.733500
O51	O5	0.967730	0.066140	0.261500
O61	O6	0.015900	0.118230	0.512400
C41	C4	0.943500	0.187590	0.072400
H21	H2	0.934100	0.144900	0.008300
C51	C5	0.975280	0.187300	0.254600
C61	C6	0.987970	0.118890	0.350800
O71	O7	0.308030	0.631980	0.733500
O81	O8	0.066140	0.532270	0.261500
O91	O9	0.118230	0.484100	0.512400
C71	C7	0.187590	0.556500	0.072400
H31	H3	0.144900	0.565900	0.008300
C81	C8	0.187300	0.524720	0.254600
C91	C9	0.118890	0.512030	0.350800
O101	O10	0.191970	0.868020	0.733500
O111	O11	0.433860	0.967730	0.261500
O121	O12	0.381770	0.015900	0.512400
C101	C10	0.312410	0.943500	0.072400
H41	H4	0.355100	0.934100	0.008300
C111	C11	0.312700	0.975280	0.254600
C121	C12	0.381110	0.987970	0.350800
O131	O13	0.368020	0.691970	0.266500
O141	O14	0.467730	0.933860	0.738500
O151	O15	0.515900	0.881770	0.487600
C131	C13	0.443500	0.812410	0.927600
H51	H5	0.434100	0.855100	0.991700
C141	C14	0.475280	0.812700	0.745400
C151	C15	0.487970	0.881110	0.649200
O161	O16	0.131980	0.808030	0.266500
O171	O17	0.032270	0.566140	0.738500
O181	O18	0.984100	0.618230	0.487600
C161	C16	0.056500	0.687590	0.927600
H61	H6	0.065900	0.644900	0.991700
C171	C17	0.024720	0.687300	0.745400
C181	C18	0.012030	0.618890	0.649200
O191	O19	0.691970	0.131980	0.266500
O201	O20	0.933860	0.032270	0.738500
O211	O21	0.881770	0.984100	0.487600
C191	C19	0.812410	0.056500	0.927600
H71	H7	0.855100	0.065900	0.991700
C201	C20	0.812700	0.024720	0.745400
C211	C21	0.881110	0.012030	0.649200
O221	O22	0.808030	0.368020	0.266500
O231	O23	0.566140	0.467730	0.738500
O241	O24	0.618230	0.515900	0.487600
C221	C22	0.687590	0.443500	0.927600
H81	H8	0.644900	0.434100	0.991700
C231	C23	0.687300	0.475280	0.745400
C241	C24	0.618890	0.487970	0.649200
O251	O25	0.368020	0.808030	0.266500
O261	O26	0.467730	0.566140	0.738500
O271	O27	0.515900	0.618230	0.487600
C251	C25	0.443500	0.687590	0.927600
H91	H9	0.434100	0.644900	0.991700
C261	C26	0.475280	0.687300	0.745400
C271	C27	0.487970	0.618890	0.649200
O281	O28	0.131980	0.691970	0.266500
O291	O29	0.032270	0.933860	0.738500
O301	O30	0.984100	0.881770	0.487600
C281	C28	0.056500	0.812410	0.927600
H101	H10	0.065900	0.855100	0.991700
C291	C29	0.024720	0.812700	0.745400
C301	C30	0.012030	0.881110	0.649200
O311	O31	0.691970	0.368020	0.266500
O321	O32	0.933860	0.467730	0.738500
O331	O33	0.881770	0.515900	0.487600
C311	C31	0.812410	0.443500	0.927600
H111	H11	0.855100	0.434100	0.991700
C321	C32	0.812700	0.475280	0.745400
C331	C33	0.881110	0.487970	0.649200
O341	O34	0.808030	0.131980	0.266500
O351	O35	0.566140	0.032270	0.738500
O361	O36	0.618230	0.984100	0.487600
C341	C34	0.687590	0.056500	0.927600
H121	H12	0.644900	0.065900	0.991700
C351	C35	0.687300	0.024720	0.745400
C361	C36	0.618890	0.012030	0.649200
O371	O37	0.631980	0.308030	0.733500
O381	O38	0.532270	0.066140	0.261500
O391	O39	0.484100	0.118230	0.512400
C371	C37	0.556500	0.187590	0.072400
H131	H13	0.565900	0.144900	0.008300
C381	C38	0.524720	0.187300	0.254600
C391	C39	0.512030	0.118890	0.350800
O401	O40	0.868020	0.191970	0.733500
O411	O41	0.967730	0.433860	0.261500
O421	O42	0.015900	0.381770	0.512400
C401	C40	0.943500	0.312410	0.072400
H141	H14	0.934100	0.355100	0.008300
C411	C41	0.975280	0.312700	0.254600
C421	C42	0.987970	0.381110	0.350800
O431	O43	0.308030	0.868020	0.733500
O441	O44	0.066140	0.967730	0.261500
O451	O45	0.118230	0.015900	0.512400
C431	C43	0.187590	0.943500	0.072400
H151	H15	0.144900	0.934100	0.008300
C441	C44	0.187300	0.975280	0.254600
C451	C45	0.118890	0.987970	0.350800
O461	O46	0.191970	0.631980	0.733500
O471	O47	0.433860	0.532270	0.261500
O481	O48	0.381770	0.484100	0.512400
C461	C46	0.312410	0.556500	0.072400
H161	H16	0.355100	0.565900	0.008300
C471	C47	0.312700	0.524720	0.254600
C481	C48	0.381110	0.512030	0.350800
Cu11	Cu1	0.672640	0.172640	0.500000
Cu21	Cu2	0.827360	0.327360	0.500000
Cu31	Cu3	0.327360	0.672640	0.500000
Cu41	Cu4	0.172640	0.827360	0.500000
Cu51	Cu5	0.327360	0.827360	0.500000
Cu61	Cu6	0.172640	0.672640	0.500000
Cu71	Cu7	0.672640	0.327360	0.500000
Cu81	Cu8	0.827360	0.172640	0.500000
Cu91	Cu9	0.530030	0.530030	0.351890
O491	O49	0.570980	0.570980	0.086000
H171	H17	0.602500	0.602500	0.055000
H181	H18	0.559000	0.559000	0.970000
Cu101	Cu10	0.969970	0.969970	0.351890
O501	O50	0.929020	0.929020	0.086000
H191	H19	0.897500	0.897500	0.055000
H201	H20	0.941000	0.941000	0.970000
Cu111	Cu11	0.969970	0.530030	0.351890
O511	O51	0.929020	0.570980	0.086000
H211	H21	0.897500	0.602500	0.055000
H221	H22	0.941000	0.559000	0.970000
Cu121	Cu12	0.530030	0.969970	0.351890
O521	O52	0.570980	0.929020	0.086000
H231	H23	0.602500	0.897500	0.055000
H241	H24	0.559000	0.941000	0.970000
Cu131	Cu13	0.469970	0.030030	0.648110
O531	O53	0.429020	0.070980	0.914000
H251	H25	0.397500	0.102500	0.945000
H261	H26	0.441000	0.059000	0.030000
Cu141	Cu14	0.030030	0.469970	0.648110
O541	O54	0.070980	0.429020	0.914000
H271	H27	0.102500	0.397500	0.945000
H281	H28	0.059000	0.441000	0.030000
Cu151	Cu15	0.030030	0.030030	0.648110
O551	O55	0.070980	0.070980	0.914000
H291	H29	0.102500	0.102500	0.945000
H301	H30	0.059000	0.059000	0.030000
Cu161	Cu16	0.469970	0.469970	0.648110
O561	O56	0.429020	0.429020	0.914000
H311	H31	0.397500	0.397500	0.945000
H321	H32	0.441000	0.441000	0.030000
C491	C49	0.615300	0.250000	0.801800
C501	C50	0.574200	0.250000	0.985500
C511	C51	0.509200	0.250000	0.346800
H331	H33	0.488400	0.250000	0.471400
C521	C52	0.884700	0.250000	0.801800
C531	C53	0.925800	0.250000	0.985500
C541	C54	0.990800	0.250000	0.346800
H341	H34	0.011600	0.250000	0.471400
C551	C55	0.250000	0.615300	0.801800
C561	C56	0.250000	0.574200	0.985500
C571	C57	0.250000	0.509200	0.346800
H351	H35	0.250000	0.488400	0.471400
C581	C58	0.250000	0.884700	0.801800
C591	C59	0.250000	0.925800	0.985500
C601	C60	0.250000	0.990800	0.346800
H361	H36	0.250000	0.011600	0.471400
C611	C61	0.384700	0.750000	0.198200
C621	C62	0.425800	0.750000	0.014500
C631	C63	0.490800	0.750000	0.653200
H371	H37	0.511600	0.750000	0.528600
C641	C64	0.115300	0.750000	0.198200
C651	C65	0.074200	0.750000	0.014500
C661	C66	0.009200	0.750000	0.653200
H381	H38	0.988400	0.750000	0.528600
C671	C67	0.750000	0.115300	0.198200
C681	C68	0.750000	0.074200	0.014500
C691	C69	0.750000	0.009200	0.653200
H391	H39	0.750000	0.988400	0.528600
C701	C70	0.750000	0.384700	0.198200
C711	C71	0.750000	0.425800	0.014500
C721	C72	0.750000	0.490800	0.653200
H401	H40	0.750000	0.511600	0.528600
