data_KALFEK_freeONLY_PM
_symmetry_space_group_name_H-M	'P1'
_cell_length_a	15.571000
_cell_length_b	23.296000
_cell_length_c	32.328000
_cell_angle_alpha	90.000000
_cell_angle_beta	90.000000
_cell_angle_gamma	90.000000
_symmetry_Int_Tables_number 1

loop_
_symmetry_equiv_pos_as_xyz
'x,y,z'

loop_
_atom_site_label
_atom_site_type_symbol
_atom_site_fract_x
_atom_site_fract_y
_atom_site_fract_z
Ni11	Ni1	0.138020	0.760460	0.913890
N11	N1	0.107100	0.836100	0.882680
N21	N2	0.272000	0.986000	0.696520
O11	O1	0.192800	0.805040	0.961580
O21	O2	0.329500	0.816650	0.942290
O31	O3	0.078500	0.931400	0.077090
O41	O4	0.177700	0.964820	0.119770
H11	H1	0.270000	0.776000	0.865200
C11	C1	0.029400	0.843700	0.865800
H21	H2	0.988100	0.814600	0.869400
C21	C2	0.006800	0.891200	0.843600
H31	H3	0.951100	0.894200	0.832600
C31	C3	0.065300	0.934700	0.837260
C41	C4	0.146100	0.928200	0.854500
H41	H4	0.188100	0.956800	0.851200
C51	C5	0.164400	0.878200	0.876800
H51	H5	0.219500	0.874000	0.888300
C61	C6	0.045500	0.986900	0.810900
H61	H6	0.088800	0.017200	0.815800
C71	C7	0.034800	0.976400	0.763220
H71	H7	0.007400	0.938600	0.758600
C81	C8	0.114400	0.980400	0.737900
C91	C9	0.140200	0.029000	0.716900
H81	H8	0.104600	0.061600	0.716500
C101	C10	0.218100	0.030000	0.696700
H91	H9	0.233700	0.063400	0.682300
C111	C11	0.247500	0.938900	0.716200
H101	H10	0.284800	0.907200	0.716100
C121	C12	0.170800	0.933700	0.736500
H111	H11	0.156100	0.899000	0.749500
C131	C13	0.280500	0.867400	0.000900
C141	C14	0.362600	0.886700	0.010600
H121	H12	0.409500	0.873500	0.994900
C151	C15	0.376800	0.924400	0.042000
H131	H13	0.432000	0.939700	0.046300
C161	C16	0.309100	0.940000	0.067700
H141	H14	0.319500	0.963400	0.090800
C171	C17	0.226400	0.921200	0.059500
C181	C18	0.212100	0.885600	0.025600
H151	H15	0.156000	0.873700	0.019300
C191	C19	0.266900	0.826000	0.966100
C201	C20	0.155200	0.940100	0.087500
Ni21	Ni2	0.138020	0.260460	0.413890
N31	N3	0.107100	0.336100	0.382680
N41	N4	0.272000	0.486000	0.196520
O51	O5	0.192800	0.305040	0.461580
O61	O6	0.329500	0.316650	0.442290
O71	O7	0.078500	0.431400	0.577090
O81	O8	0.177700	0.464820	0.619770
H161	H16	0.270000	0.276000	0.365200
C211	C21	0.029400	0.343700	0.365800
H171	H17	0.988100	0.314600	0.369400
C221	C22	0.006800	0.391200	0.343600
H181	H18	0.951100	0.394200	0.332600
C231	C23	0.065300	0.434700	0.337260
C241	C24	0.146100	0.428200	0.354500
H191	H19	0.188100	0.456800	0.351200
C251	C25	0.164400	0.378200	0.376800
H201	H20	0.219500	0.374000	0.388300
C261	C26	0.045500	0.486900	0.310900
H211	H21	0.088800	0.517200	0.315800
C271	C27	0.034800	0.476400	0.263220
H221	H22	0.007400	0.438600	0.258600
C281	C28	0.114400	0.480400	0.237900
C291	C29	0.140200	0.529000	0.216900
H231	H23	0.104600	0.561600	0.216500
C301	C30	0.218100	0.530000	0.196700
H241	H24	0.233700	0.563400	0.182300
C311	C31	0.247500	0.438900	0.216200
H251	H25	0.284800	0.407200	0.216100
C321	C32	0.170800	0.433700	0.236500
H261	H26	0.156100	0.399000	0.249500
C331	C33	0.280500	0.367400	0.500900
C341	C34	0.362600	0.386700	0.510600
H271	H27	0.409500	0.373500	0.494900
C351	C35	0.376800	0.424400	0.542000
H281	H28	0.432000	0.439700	0.546300
C361	C36	0.309100	0.440000	0.567700
H291	H29	0.319500	0.463400	0.590800
C371	C37	0.226400	0.421200	0.559500
C381	C38	0.212100	0.385600	0.525600
H301	H30	0.156000	0.373700	0.519300
C391	C39	0.266900	0.326000	0.466100
C401	C40	0.155200	0.440100	0.587500
Ni31	Ni3	0.638020	0.760460	0.413890
N51	N5	0.607100	0.836100	0.382680
N61	N6	0.772000	0.986000	0.196520
O91	O9	0.692800	0.805040	0.461580
O101	O10	0.829500	0.816650	0.442290
O111	O11	0.578500	0.931400	0.577090
O121	O12	0.677700	0.964820	0.619770
H311	H31	0.770000	0.776000	0.365200
C411	C41	0.529400	0.843700	0.365800
H321	H32	0.488100	0.814600	0.369400
C421	C42	0.506800	0.891200	0.343600
H331	H33	0.451100	0.894200	0.332600
C431	C43	0.565300	0.934700	0.337260
C441	C44	0.646100	0.928200	0.354500
H341	H34	0.688100	0.956800	0.351200
C451	C45	0.664400	0.878200	0.376800
H351	H35	0.719500	0.874000	0.388300
C461	C46	0.545500	0.986900	0.310900
H361	H36	0.588800	0.017200	0.315800
C471	C47	0.534800	0.976400	0.263220
H371	H37	0.507400	0.938600	0.258600
C481	C48	0.614400	0.980400	0.237900
C491	C49	0.640200	0.029000	0.216900
H381	H38	0.604600	0.061600	0.216500
C501	C50	0.718100	0.030000	0.196700
H391	H39	0.733700	0.063400	0.182300
C511	C51	0.747500	0.938900	0.216200
H401	H40	0.784800	0.907200	0.216100
C521	C52	0.670800	0.933700	0.236500
H411	H41	0.656100	0.899000	0.249500
C531	C53	0.780500	0.867400	0.500900
C541	C54	0.862600	0.886700	0.510600
H421	H42	0.909500	0.873500	0.494900
C551	C55	0.876800	0.924400	0.542000
H431	H43	0.932000	0.939700	0.546300
C561	C56	0.809100	0.940000	0.567700
H441	H44	0.819500	0.963400	0.590800
C571	C57	0.726400	0.921200	0.559500
C581	C58	0.712100	0.885600	0.525600
H451	H45	0.656000	0.873700	0.519300
C591	C59	0.766900	0.826000	0.466100
C601	C60	0.655200	0.940100	0.587500
Ni41	Ni4	0.638020	0.260460	0.913890
N71	N7	0.607100	0.336100	0.882680
N81	N8	0.772000	0.486000	0.696520
O131	O13	0.692800	0.305040	0.961580
O141	O14	0.829500	0.316650	0.942290
O151	O15	0.578500	0.431400	0.077090
O161	O16	0.677700	0.464820	0.119770
H461	H46	0.770000	0.276000	0.865200
C611	C61	0.529400	0.343700	0.865800
H471	H47	0.488100	0.314600	0.869400
C621	C62	0.506800	0.391200	0.843600
H481	H48	0.451100	0.394200	0.832600
C631	C63	0.565300	0.434700	0.837260
C641	C64	0.646100	0.428200	0.854500
H491	H49	0.688100	0.456800	0.851200
C651	C65	0.664400	0.378200	0.876800
H501	H50	0.719500	0.374000	0.888300
C661	C66	0.545500	0.486900	0.810900
H511	H51	0.588800	0.517200	0.815800
C671	C67	0.534800	0.476400	0.763220
H521	H52	0.507400	0.438600	0.758600
C681	C68	0.614400	0.480400	0.737900
C691	C69	0.640200	0.529000	0.716900
H531	H53	0.604600	0.561600	0.716500
C701	C70	0.718100	0.530000	0.696700
H541	H54	0.733700	0.563400	0.682300
C711	C71	0.747500	0.438900	0.716200
H551	H55	0.784800	0.407200	0.716100
C721	C72	0.670800	0.433700	0.736500
H561	H56	0.656100	0.399000	0.749500
C731	C73	0.780500	0.367400	0.000900
C741	C74	0.862600	0.386700	0.010600
H571	H57	0.909500	0.373500	0.994900
C751	C75	0.876800	0.424400	0.042000
H581	H58	0.932000	0.439700	0.046300
C761	C76	0.809100	0.440000	0.067700
H591	H59	0.819500	0.463400	0.090800
C771	C77	0.726400	0.421200	0.059500
C781	C78	0.712100	0.385600	0.025600
H601	H60	0.656000	0.373700	0.019300
C791	C79	0.766900	0.326000	0.966100
C801	C80	0.655200	0.440100	0.087500
Ni51	Ni5	0.861980	0.239540	0.913890
N91	N9	0.892900	0.163900	0.882680
N101	N10	0.728000	0.014000	0.696520
O171	O17	0.807200	0.194960	0.961580
O181	O18	0.670500	0.183350	0.942290
O191	O19	0.921500	0.068600	0.077090
O201	O20	0.822300	0.035180	0.119770
H611	H61	0.730000	0.224000	0.865200
C811	C81	0.970600	0.156300	0.865800
H621	H62	0.011900	0.185400	0.869400
C821	C82	0.993200	0.108800	0.843600
H631	H63	0.048900	0.105800	0.832600
C831	C83	0.934700	0.065300	0.837260
C841	C84	0.853900	0.071800	0.854500
H641	H64	0.811900	0.043200	0.851200
C851	C85	0.835600	0.121800	0.876800
H651	H65	0.780500	0.126000	0.888300
C861	C86	0.954500	0.013100	0.810900
H661	H66	0.911200	0.982800	0.815800
C871	C87	0.965200	0.023600	0.763220
H671	H67	0.992600	0.061400	0.758600
C881	C88	0.885600	0.019600	0.737900
C891	C89	0.859800	0.971000	0.716900
H681	H68	0.895400	0.938400	0.716500
C901	C90	0.781900	0.970000	0.696700
H691	H69	0.766300	0.936600	0.682300
C911	C91	0.752500	0.061100	0.716200
H701	H70	0.715200	0.092800	0.716100
C921	C92	0.829200	0.066300	0.736500
H711	H71	0.843900	0.101000	0.749500
C931	C93	0.719500	0.132600	0.000900
C941	C94	0.637400	0.113300	0.010600
H721	H72	0.590500	0.126500	0.994900
C951	C95	0.623200	0.075600	0.042000
H731	H73	0.568000	0.060300	0.046300
C961	C96	0.690900	0.060000	0.067700
H741	H74	0.680500	0.036600	0.090800
C971	C97	0.773600	0.078800	0.059500
C981	C98	0.787900	0.114400	0.025600
H751	H75	0.844000	0.126300	0.019300
C991	C99	0.733100	0.174000	0.966100
C1001	C100	0.844800	0.059900	0.087500
Ni61	Ni6	0.861980	0.739540	0.413890
N111	N11	0.892900	0.663900	0.382680
N121	N12	0.728000	0.514000	0.196520
O211	O21	0.807200	0.694960	0.461580
O221	O22	0.670500	0.683350	0.442290
O231	O23	0.921500	0.568600	0.577090
O241	O24	0.822300	0.535180	0.619770
H761	H76	0.730000	0.724000	0.365200
C1011	C101	0.970600	0.656300	0.365800
H771	H77	0.011900	0.685400	0.369400
C1021	C102	0.993200	0.608800	0.343600
H781	H78	0.048900	0.605800	0.332600
C1031	C103	0.934700	0.565300	0.337260
C1041	C104	0.853900	0.571800	0.354500
H791	H79	0.811900	0.543200	0.351200
C1051	C105	0.835600	0.621800	0.376800
H801	H80	0.780500	0.626000	0.388300
C1061	C106	0.954500	0.513100	0.310900
H811	H81	0.911200	0.482800	0.315800
C1071	C107	0.965200	0.523600	0.263220
H821	H82	0.992600	0.561400	0.258600
C1081	C108	0.885600	0.519600	0.237900
C1091	C109	0.859800	0.471000	0.216900
H831	H83	0.895400	0.438400	0.216500
C1101	C110	0.781900	0.470000	0.196700
H841	H84	0.766300	0.436600	0.182300
C1111	C111	0.752500	0.561100	0.216200
H851	H85	0.715200	0.592800	0.216100
C1121	C112	0.829200	0.566300	0.236500
H861	H86	0.843900	0.601000	0.249500
C1131	C113	0.719500	0.632600	0.500900
C1141	C114	0.637400	0.613300	0.510600
H871	H87	0.590500	0.626500	0.494900
C1151	C115	0.623200	0.575600	0.542000
H881	H88	0.568000	0.560300	0.546300
C1161	C116	0.690900	0.560000	0.567700
H891	H89	0.680500	0.536600	0.590800
C1171	C117	0.773600	0.578800	0.559500
C1181	C118	0.787900	0.614400	0.525600
H901	H90	0.844000	0.626300	0.519300
C1191	C119	0.733100	0.674000	0.466100
C1201	C120	0.844800	0.559900	0.587500
Ni71	Ni7	0.361980	0.239540	0.413890
N131	N13	0.392900	0.163900	0.382680
N141	N14	0.228000	0.014000	0.196520
O251	O25	0.307200	0.194960	0.461580
O261	O26	0.170500	0.183350	0.442290
O271	O27	0.421500	0.068600	0.577090
O281	O28	0.322300	0.035180	0.619770
H911	H91	0.230000	0.224000	0.365200
C1211	C121	0.470600	0.156300	0.365800
H921	H92	0.511900	0.185400	0.369400
C1221	C122	0.493200	0.108800	0.343600
H931	H93	0.548900	0.105800	0.332600
C1231	C123	0.434700	0.065300	0.337260
C1241	C124	0.353900	0.071800	0.354500
H941	H94	0.311900	0.043200	0.351200
C1251	C125	0.335600	0.121800	0.376800
H951	H95	0.280500	0.126000	0.388300
C1261	C126	0.454500	0.013100	0.310900
H961	H96	0.411200	0.982800	0.315800
C1271	C127	0.465200	0.023600	0.263220
H971	H97	0.492600	0.061400	0.258600
C1281	C128	0.385600	0.019600	0.237900
C1291	C129	0.359800	0.971000	0.216900
H981	H98	0.395400	0.938400	0.216500
C1301	C130	0.281900	0.970000	0.196700
H991	H99	0.266300	0.936600	0.182300
C1311	C131	0.252500	0.061100	0.216200
H1001	H100	0.215200	0.092800	0.216100
C1321	C132	0.329200	0.066300	0.236500
H1011	H101	0.343900	0.101000	0.249500
C1331	C133	0.219500	0.132600	0.500900
C1341	C134	0.137400	0.113300	0.510600
H1021	H102	0.090500	0.126500	0.494900
C1351	C135	0.123200	0.075600	0.542000
H1031	H103	0.068000	0.060300	0.546300
C1361	C136	0.190900	0.060000	0.567700
H1041	H104	0.180500	0.036600	0.590800
C1371	C137	0.273600	0.078800	0.559500
C1381	C138	0.287900	0.114400	0.525600
H1051	H105	0.344000	0.126300	0.519300
C1391	C139	0.233100	0.174000	0.466100
C1401	C140	0.344800	0.059900	0.587500
Ni81	Ni8	0.361980	0.739540	0.913890
N151	N15	0.392900	0.663900	0.882680
N161	N16	0.228000	0.514000	0.696520
O291	O29	0.307200	0.694960	0.961580
O301	O30	0.170500	0.683350	0.942290
O311	O31	0.421500	0.568600	0.077090
O321	O32	0.322300	0.535180	0.119770
H1061	H106	0.230000	0.724000	0.865200
C1411	C141	0.470600	0.656300	0.865800
H1071	H107	0.511900	0.685400	0.869400
C1421	C142	0.493200	0.608800	0.843600
H1081	H108	0.548900	0.605800	0.832600
C1431	C143	0.434700	0.565300	0.837260
C1441	C144	0.353900	0.571800	0.854500
H1091	H109	0.311900	0.543200	0.851200
C1451	C145	0.335600	0.621800	0.876800
H1101	H110	0.280500	0.626000	0.888300
C1461	C146	0.454500	0.513100	0.810900
H1111	H111	0.411200	0.482800	0.815800
C1471	C147	0.465200	0.523600	0.763220
H1121	H112	0.492600	0.561400	0.758600
C1481	C148	0.385600	0.519600	0.737900
C1491	C149	0.359800	0.471000	0.716900
H1131	H113	0.395400	0.438400	0.716500
C1501	C150	0.281900	0.470000	0.696700
H1141	H114	0.266300	0.436600	0.682300
C1511	C151	0.252500	0.561100	0.716200
H1151	H115	0.215200	0.592800	0.716100
C1521	C152	0.329200	0.566300	0.736500
H1161	H116	0.343900	0.601000	0.749500
C1531	C153	0.219500	0.632600	0.000900
C1541	C154	0.137400	0.613300	0.010600
H1171	H117	0.090500	0.626500	0.994900
C1551	C155	0.123200	0.575600	0.042000
H1181	H118	0.068000	0.560300	0.046300
C1561	C156	0.190900	0.560000	0.067700
H1191	H119	0.180500	0.536600	0.090800
C1571	C157	0.273600	0.578800	0.059500
C1581	C158	0.287900	0.614400	0.025600
H1201	H120	0.344000	0.626300	0.019300
C1591	C159	0.233100	0.674000	0.966100
C1601	C160	0.344800	0.559900	0.087500
Ni91	Ni9	0.388020	0.489540	0.163890
N171	N17	0.357100	0.413900	0.132680
N181	N18	0.522000	0.264000	0.946520
O331	O33	0.442800	0.444960	0.211580
O341	O34	0.579500	0.433350	0.192290
O351	O35	0.328500	0.318600	0.327090
O361	O36	0.427700	0.285180	0.369770
H1211	H121	0.520000	0.474000	0.115200
C1611	C161	0.279400	0.406300	0.115800
H1221	H122	0.238100	0.435400	0.119400
C1621	C162	0.256800	0.358800	0.093600
H1231	H123	0.201100	0.355800	0.082600
C1631	C163	0.315300	0.315300	0.087260
C1641	C164	0.396100	0.321800	0.104500
H1241	H124	0.438100	0.293200	0.101200
C1651	C165	0.414400	0.371800	0.126800
H1251	H125	0.469500	0.376000	0.138300
C1661	C166	0.295500	0.263100	0.060900
H1261	H126	0.338800	0.232800	0.065800
C1671	C167	0.284800	0.273600	0.013220
H1271	H127	0.257400	0.311400	0.008600
C1681	C168	0.364400	0.269600	0.987900
C1691	C169	0.390200	0.221000	0.966900
H1281	H128	0.354600	0.188400	0.966500
C1701	C170	0.468100	0.220000	0.946700
H1291	H129	0.483700	0.186600	0.932300
C1711	C171	0.497500	0.311100	0.966200
H1301	H130	0.534800	0.342800	0.966100
C1721	C172	0.420800	0.316300	0.986500
H1311	H131	0.406100	0.351000	0.999500
C1731	C173	0.530500	0.382600	0.250900
C1741	C174	0.612600	0.363300	0.260600
H1321	H132	0.659500	0.376500	0.244900
C1751	C175	0.626800	0.325600	0.292000
H1331	H133	0.682000	0.310300	0.296300
C1761	C176	0.559100	0.310000	0.317700
H1341	H134	0.569500	0.286600	0.340800
C1771	C177	0.476400	0.328800	0.309500
C1781	C178	0.462100	0.364400	0.275600
H1351	H135	0.406000	0.376300	0.269300
C1791	C179	0.516900	0.424000	0.216100
C1801	C180	0.405200	0.309900	0.337500
Ni101	Ni10	0.388020	0.989540	0.663890
N191	N19	0.357100	0.913900	0.632680
N201	N20	0.522000	0.764000	0.446520
O371	O37	0.442800	0.944960	0.711580
O381	O38	0.579500	0.933350	0.692290
O391	O39	0.328500	0.818600	0.827090
O401	O40	0.427700	0.785180	0.869770
H1361	H136	0.520000	0.974000	0.615200
C1811	C181	0.279400	0.906300	0.615800
H1371	H137	0.238100	0.935400	0.619400
C1821	C182	0.256800	0.858800	0.593600
H1381	H138	0.201100	0.855800	0.582600
C1831	C183	0.315300	0.815300	0.587260
C1841	C184	0.396100	0.821800	0.604500
H1391	H139	0.438100	0.793200	0.601200
C1851	C185	0.414400	0.871800	0.626800
H1401	H140	0.469500	0.876000	0.638300
C1861	C186	0.295500	0.763100	0.560900
H1411	H141	0.338800	0.732800	0.565800
C1871	C187	0.284800	0.773600	0.513220
H1421	H142	0.257400	0.811400	0.508600
C1881	C188	0.364400	0.769600	0.487900
C1891	C189	0.390200	0.721000	0.466900
H1431	H143	0.354600	0.688400	0.466500
C1901	C190	0.468100	0.720000	0.446700
H1441	H144	0.483700	0.686600	0.432300
C1911	C191	0.497500	0.811100	0.466200
H1451	H145	0.534800	0.842800	0.466100
C1921	C192	0.420800	0.816300	0.486500
H1461	H146	0.406100	0.851000	0.499500
C1931	C193	0.530500	0.882600	0.750900
C1941	C194	0.612600	0.863300	0.760600
H1471	H147	0.659500	0.876500	0.744900
C1951	C195	0.626800	0.825600	0.792000
H1481	H148	0.682000	0.810300	0.796300
C1961	C196	0.559100	0.810000	0.817700
H1491	H149	0.569500	0.786600	0.840800
C1971	C197	0.476400	0.828800	0.809500
C1981	C198	0.462100	0.864400	0.775600
H1501	H150	0.406000	0.876300	0.769300
C1991	C199	0.516900	0.924000	0.716100
C2001	C200	0.405200	0.809900	0.837500
Ni111	Ni11	0.888020	0.489540	0.663890
N211	N21	0.857100	0.413900	0.632680
N221	N22	0.022000	0.264000	0.446520
O411	O41	0.942800	0.444960	0.711580
O421	O42	0.079500	0.433350	0.692290
O431	O43	0.828500	0.318600	0.827090
O441	O44	0.927700	0.285180	0.869770
H1511	H151	0.020000	0.474000	0.615200
C2011	C201	0.779400	0.406300	0.615800
H1521	H152	0.738100	0.435400	0.619400
C2021	C202	0.756800	0.358800	0.593600
H1531	H153	0.701100	0.355800	0.582600
C2031	C203	0.815300	0.315300	0.587260
C2041	C204	0.896100	0.321800	0.604500
H1541	H154	0.938100	0.293200	0.601200
C2051	C205	0.914400	0.371800	0.626800
H1551	H155	0.969500	0.376000	0.638300
C2061	C206	0.795500	0.263100	0.560900
H1561	H156	0.838800	0.232800	0.565800
C2071	C207	0.784800	0.273600	0.513220
H1571	H157	0.757400	0.311400	0.508600
C2081	C208	0.864400	0.269600	0.487900
C2091	C209	0.890200	0.221000	0.466900
H1581	H158	0.854600	0.188400	0.466500
C2101	C210	0.968100	0.220000	0.446700
H1591	H159	0.983700	0.186600	0.432300
C2111	C211	0.997500	0.311100	0.466200
H1601	H160	0.034800	0.342800	0.466100
C2121	C212	0.920800	0.316300	0.486500
H1611	H161	0.906100	0.351000	0.499500
C2131	C213	0.030500	0.382600	0.750900
C2141	C214	0.112600	0.363300	0.760600
H1621	H162	0.159500	0.376500	0.744900
C2151	C215	0.126800	0.325600	0.792000
H1631	H163	0.182000	0.310300	0.796300
C2161	C216	0.059100	0.310000	0.817700
H1641	H164	0.069500	0.286600	0.840800
C2171	C217	0.976400	0.328800	0.809500
C2181	C218	0.962100	0.364400	0.775600
H1651	H165	0.906000	0.376300	0.769300
C2191	C219	0.016900	0.424000	0.716100
C2201	C220	0.905200	0.309900	0.837500
Ni121	Ni12	0.888020	0.989540	0.163890
N231	N23	0.857100	0.913900	0.132680
N241	N24	0.022000	0.764000	0.946520
O451	O45	0.942800	0.944960	0.211580
O461	O46	0.079500	0.933350	0.192290
O471	O47	0.828500	0.818600	0.327090
O481	O48	0.927700	0.785180	0.369770
H1661	H166	0.020000	0.974000	0.115200
C2211	C221	0.779400	0.906300	0.115800
H1671	H167	0.738100	0.935400	0.119400
C2221	C222	0.756800	0.858800	0.093600
H1681	H168	0.701100	0.855800	0.082600
C2231	C223	0.815300	0.815300	0.087260
C2241	C224	0.896100	0.821800	0.104500
H1691	H169	0.938100	0.793200	0.101200
C2251	C225	0.914400	0.871800	0.126800
H1701	H170	0.969500	0.876000	0.138300
C2261	C226	0.795500	0.763100	0.060900
H1711	H171	0.838800	0.732800	0.065800
C2271	C227	0.784800	0.773600	0.013220
H1721	H172	0.757400	0.811400	0.008600
C2281	C228	0.864400	0.769600	0.987900
C2291	C229	0.890200	0.721000	0.966900
H1731	H173	0.854600	0.688400	0.966500
C2301	C230	0.968100	0.720000	0.946700
H1741	H174	0.983700	0.686600	0.932300
C2311	C231	0.997500	0.811100	0.966200
H1751	H175	0.034800	0.842800	0.966100
C2321	C232	0.920800	0.816300	0.986500
H1761	H176	0.906100	0.851000	0.999500
C2331	C233	0.030500	0.882600	0.250900
C2341	C234	0.112600	0.863300	0.260600
H1771	H177	0.159500	0.876500	0.244900
C2351	C235	0.126800	0.825600	0.292000
H1781	H178	0.182000	0.810300	0.296300
C2361	C236	0.059100	0.810000	0.317700
H1791	H179	0.069500	0.786600	0.340800
C2371	C237	0.976400	0.828800	0.309500
C2381	C238	0.962100	0.864400	0.275600
H1801	H180	0.906000	0.876300	0.269300
C2391	C239	0.016900	0.924000	0.216100
C2401	C240	0.905200	0.809900	0.337500
Ni131	Ni13	0.111980	0.010460	0.163890
N251	N25	0.142900	0.086100	0.132680
N261	N26	0.978000	0.236000	0.946520
O491	O49	0.057200	0.055040	0.211580
O501	O50	0.920500	0.066650	0.192290
O511	O51	0.171500	0.181400	0.327090
O521	O52	0.072300	0.214820	0.369770
H1811	H181	0.980000	0.026000	0.115200
C2411	C241	0.220600	0.093700	0.115800
H1821	H182	0.261900	0.064600	0.119400
C2421	C242	0.243200	0.141200	0.093600
H1831	H183	0.298900	0.144200	0.082600
C2431	C243	0.184700	0.184700	0.087260
C2441	C244	0.103900	0.178200	0.104500
H1841	H184	0.061900	0.206800	0.101200
C2451	C245	0.085600	0.128200	0.126800
H1851	H185	0.030500	0.124000	0.138300
C2461	C246	0.204500	0.236900	0.060900
H1861	H186	0.161200	0.267200	0.065800
C2471	C247	0.215200	0.226400	0.013220
H1871	H187	0.242600	0.188600	0.008600
C2481	C248	0.135600	0.230400	0.987900
C2491	C249	0.109800	0.279000	0.966900
H1881	H188	0.145400	0.311600	0.966500
C2501	C250	0.031900	0.280000	0.946700
H1891	H189	0.016300	0.313400	0.932300
C2511	C251	0.002500	0.188900	0.966200
H1901	H190	0.965200	0.157200	0.966100
C2521	C252	0.079200	0.183700	0.986500
H1911	H191	0.093900	0.149000	0.999500
C2531	C253	0.969500	0.117400	0.250900
C2541	C254	0.887400	0.136700	0.260600
H1921	H192	0.840500	0.123500	0.244900
C2551	C255	0.873200	0.174400	0.292000
H1931	H193	0.818000	0.189700	0.296300
C2561	C256	0.940900	0.190000	0.317700
H1941	H194	0.930500	0.213400	0.340800
C2571	C257	0.023600	0.171200	0.309500
C2581	C258	0.037900	0.135600	0.275600
H1951	H195	0.094000	0.123700	0.269300
C2591	C259	0.983100	0.076000	0.216100
C2601	C260	0.094800	0.190100	0.337500
Ni141	Ni14	0.111980	0.510460	0.663890
N271	N27	0.142900	0.586100	0.632680
N281	N28	0.978000	0.736000	0.446520
O531	O53	0.057200	0.555040	0.711580
O541	O54	0.920500	0.566650	0.692290
O551	O55	0.171500	0.681400	0.827090
O561	O56	0.072300	0.714820	0.869770
H1961	H196	0.980000	0.526000	0.615200
C2611	C261	0.220600	0.593700	0.615800
H1971	H197	0.261900	0.564600	0.619400
C2621	C262	0.243200	0.641200	0.593600
H1981	H198	0.298900	0.644200	0.582600
C2631	C263	0.184700	0.684700	0.587260
C2641	C264	0.103900	0.678200	0.604500
H1991	H199	0.061900	0.706800	0.601200
C2651	C265	0.085600	0.628200	0.626800
H2001	H200	0.030500	0.624000	0.638300
C2661	C266	0.204500	0.736900	0.560900
H2011	H201	0.161200	0.767200	0.565800
C2671	C267	0.215200	0.726400	0.513220
H2021	H202	0.242600	0.688600	0.508600
C2681	C268	0.135600	0.730400	0.487900
C2691	C269	0.109800	0.779000	0.466900
H2031	H203	0.145400	0.811600	0.466500
C2701	C270	0.031900	0.780000	0.446700
H2041	H204	0.016300	0.813400	0.432300
C2711	C271	0.002500	0.688900	0.466200
H2051	H205	0.965200	0.657200	0.466100
C2721	C272	0.079200	0.683700	0.486500
H2061	H206	0.093900	0.649000	0.499500
C2731	C273	0.969500	0.617400	0.750900
C2741	C274	0.887400	0.636700	0.760600
H2071	H207	0.840500	0.623500	0.744900
C2751	C275	0.873200	0.674400	0.792000
H2081	H208	0.818000	0.689700	0.796300
C2761	C276	0.940900	0.690000	0.817700
H2091	H209	0.930500	0.713400	0.840800
C2771	C277	0.023600	0.671200	0.809500
C2781	C278	0.037900	0.635600	0.775600
H2101	H210	0.094000	0.623700	0.769300
C2791	C279	0.983100	0.576000	0.716100
C2801	C280	0.094800	0.690100	0.837500
Ni151	Ni15	0.611980	0.010460	0.663890
N291	N29	0.642900	0.086100	0.632680
N301	N30	0.478000	0.236000	0.446520
O571	O57	0.557200	0.055040	0.711580
O581	O58	0.420500	0.066650	0.692290
O591	O59	0.671500	0.181400	0.827090
O601	O60	0.572300	0.214820	0.869770
H2111	H211	0.480000	0.026000	0.615200
C2811	C281	0.720600	0.093700	0.615800
H2121	H212	0.761900	0.064600	0.619400
C2821	C282	0.743200	0.141200	0.593600
H2131	H213	0.798900	0.144200	0.582600
C2831	C283	0.684700	0.184700	0.587260
C2841	C284	0.603900	0.178200	0.604500
H2141	H214	0.561900	0.206800	0.601200
C2851	C285	0.585600	0.128200	0.626800
H2151	H215	0.530500	0.124000	0.638300
C2861	C286	0.704500	0.236900	0.560900
H2161	H216	0.661200	0.267200	0.565800
C2871	C287	0.715200	0.226400	0.513220
H2171	H217	0.742600	0.188600	0.508600
C2881	C288	0.635600	0.230400	0.487900
C2891	C289	0.609800	0.279000	0.466900
H2181	H218	0.645400	0.311600	0.466500
C2901	C290	0.531900	0.280000	0.446700
H2191	H219	0.516300	0.313400	0.432300
C2911	C291	0.502500	0.188900	0.466200
H2201	H220	0.465200	0.157200	0.466100
C2921	C292	0.579200	0.183700	0.486500
H2211	H221	0.593900	0.149000	0.499500
C2931	C293	0.469500	0.117400	0.750900
C2941	C294	0.387400	0.136700	0.760600
H2221	H222	0.340500	0.123500	0.744900
C2951	C295	0.373200	0.174400	0.792000
H2231	H223	0.318000	0.189700	0.796300
C2961	C296	0.440900	0.190000	0.817700
H2241	H224	0.430500	0.213400	0.840800
C2971	C297	0.523600	0.171200	0.809500
C2981	C298	0.537900	0.135600	0.775600
H2251	H225	0.594000	0.123700	0.769300
C2991	C299	0.483100	0.076000	0.716100
C3001	C300	0.594800	0.190100	0.837500
Ni161	Ni16	0.611980	0.510460	0.163890
N311	N31	0.642900	0.586100	0.132680
N321	N32	0.478000	0.736000	0.946520
O611	O61	0.557200	0.555040	0.211580
O621	O62	0.420500	0.566650	0.192290
O631	O63	0.671500	0.681400	0.327090
O641	O64	0.572300	0.714820	0.369770
H2261	H226	0.480000	0.526000	0.115200
C3011	C301	0.720600	0.593700	0.115800
H2271	H227	0.761900	0.564600	0.119400
C3021	C302	0.743200	0.641200	0.093600
H2281	H228	0.798900	0.644200	0.082600
C3031	C303	0.684700	0.684700	0.087260
C3041	C304	0.603900	0.678200	0.104500
H2291	H229	0.561900	0.706800	0.101200
C3051	C305	0.585600	0.628200	0.126800
H2301	H230	0.530500	0.624000	0.138300
C3061	C306	0.704500	0.736900	0.060900
H2311	H231	0.661200	0.767200	0.065800
C3071	C307	0.715200	0.726400	0.013220
H2321	H232	0.742600	0.688600	0.008600
C3081	C308	0.635600	0.730400	0.987900
C3091	C309	0.609800	0.779000	0.966900
H2331	H233	0.645400	0.811600	0.966500
C3101	C310	0.531900	0.780000	0.946700
H2341	H234	0.516300	0.813400	0.932300
C3111	C311	0.502500	0.688900	0.966200
H2351	H235	0.465200	0.657200	0.966100
C3121	C312	0.579200	0.683700	0.986500
H2361	H236	0.593900	0.649000	0.999500
C3131	C313	0.469500	0.617400	0.250900
C3141	C314	0.387400	0.636700	0.260600
H2371	H237	0.340500	0.623500	0.244900
C3151	C315	0.373200	0.674400	0.292000
H2381	H238	0.318000	0.689700	0.296300
C3161	C316	0.440900	0.690000	0.317700
H2391	H239	0.430500	0.713400	0.340800
C3171	C317	0.523600	0.671200	0.309500
C3181	C318	0.537900	0.635600	0.275600
H2401	H240	0.594000	0.623700	0.269300
C3191	C319	0.483100	0.576000	0.216100
C3201	C320	0.594800	0.690100	0.337500
O651	O65	0.250000	0.750000	0.878000
O661	O66	0.250000	0.250000	0.378000
O671	O67	0.750000	0.250000	0.878000
O681	O68	0.750000	0.750000	0.378000
O691	O69	0.500000	0.500000	0.128000
O701	O70	0.500000	0.000000	0.628000
O711	O71	0.000000	0.000000	0.128000
O721	O72	0.000000	0.500000	0.628000
