data_KALGEL_freeONLY_PM
_symmetry_space_group_name_H-M	'P1'
_cell_length_a	14.049500
_cell_length_b	14.049500
_cell_length_c	18.052500
_cell_angle_alpha	103.549000
_cell_angle_beta	103.549000
_cell_angle_gamma	113.449000
_symmetry_Int_Tables_number 1

loop_
_symmetry_equiv_pos_as_xyz
'x,y,z'

loop_
_atom_site_label
_atom_site_type_symbol
_atom_site_fract_x
_atom_site_fract_y
_atom_site_fract_z
Ni11	Ni1	0.608490	0.089090	0.974060
Ni21	Ni2	0.365570	0.884970	0.974060
Ni31	Ni3	0.839090	0.858490	0.474060
Ni41	Ni4	0.634970	0.615570	0.474060
H11	H1	0.529000	0.979000	0.066000
H21	H2	0.855700	0.229300	0.065400
H31	H3	0.010800	0.224000	0.137400
H41	H4	0.813300	0.896100	0.088400
H51	H5	0.663900	0.914900	0.017800
H61	H6	0.009500	0.976100	0.164800
H71	H7	0.070800	0.193400	0.276800
H81	H8	0.889500	0.089100	0.296600
H91	H9	0.798700	0.979700	0.362400
H101	H10	0.054600	0.932400	0.442800
H111	H11	0.144800	0.028000	0.369000
H121	H12	0.374100	0.618900	0.821600
H131	H13	0.347000	0.479000	0.709200
H141	H14	0.447900	0.516900	0.625200
H151	H15	0.594400	0.847600	0.760400
H161	H16	0.537000	0.087000	0.066000
H171	H17	0.209700	0.836100	0.065400
H181	H18	0.126600	0.913400	0.137400
H191	H19	0.275100	0.192300	0.088400
H201	H20	0.353900	0.102900	0.017800
H211	H21	0.155300	0.188700	0.164800
H221	H22	0.206000	0.083400	0.276800
H231	H23	0.407100	0.207500	0.296600
H241	H24	0.563700	0.382700	0.362400
H251	H25	0.388200	0.510400	0.442800
H261	H26	0.224200	0.341000	0.369000
H271	H27	0.447500	0.202700	0.821600
H281	H28	0.362200	0.230200	0.709200
H291	H29	0.177300	0.108300	0.625200
H301	H30	0.166000	0.912800	0.760400
H311	H31	0.729000	0.779000	0.566000
H321	H32	0.979300	0.105700	0.565400
H331	H33	0.974000	0.260800	0.637400
H341	H34	0.646100	0.063300	0.588400
H351	H35	0.664900	0.913900	0.517800
H361	H36	0.726100	0.259500	0.664800
H371	H37	0.943400	0.320800	0.776800
H381	H38	0.839100	0.139500	0.796600
H391	H39	0.729700	0.048700	0.862400
H401	H40	0.682400	0.304600	0.942800
H411	H41	0.778000	0.394800	0.869000
H421	H42	0.368900	0.624100	0.321600
H431	H43	0.229000	0.597000	0.209200
H441	H44	0.266900	0.697900	0.125200
H451	H45	0.597600	0.844400	0.260400
H461	H46	0.837000	0.787000	0.566000
H471	H47	0.586100	0.459700	0.565400
H481	H48	0.663400	0.376600	0.637400
H491	H49	0.942300	0.525100	0.588400
H501	H50	0.852900	0.603900	0.517800
H511	H51	0.938700	0.405300	0.664800
H521	H52	0.833400	0.456000	0.776800
H531	H53	0.957500	0.657100	0.796600
H541	H54	0.132700	0.813700	0.862400
H551	H55	0.260400	0.638200	0.942800
H561	H56	0.091000	0.474200	0.869000
H571	H57	0.952700	0.697500	0.321600
H581	H58	0.980200	0.612200	0.209200
H591	H59	0.858300	0.427300	0.125200
H601	H60	0.662800	0.416000	0.260400
C11	C1	0.847200	0.161600	0.070600
C21	C2	0.940700	0.159500	0.113800
C31	C3	0.928700	0.058900	0.121800
C41	C4	0.824100	0.965100	0.085000
C51	C5	0.735000	0.978000	0.042600
C61	C6	0.028100	0.054700	0.173800
C71	C7	0.075300	0.123300	0.267200
C81	C8	0.025300	0.061900	0.320400
C91	C9	0.922000	0.052800	0.322600
C101	C10	0.869300	0.989700	0.363600
C111	C11	0.018500	0.959700	0.409800
C121	C12	0.073900	0.018700	0.366200
C131	C13	0.481200	0.748200	0.800200
C141	C14	0.411600	0.637000	0.786000
C151	C15	0.397600	0.553200	0.719800
C161	C16	0.455900	0.575300	0.668600
C171	C17	0.529100	0.689300	0.683200
C181	C18	0.543300	0.773100	0.749000
C191	C19	0.493000	0.841600	0.871200
C201	C20	0.594700	0.715100	0.626800
C211	C21	0.223400	0.909000	0.070600
C221	C22	0.173100	0.954300	0.113800
C231	C23	0.193100	0.062900	0.121800
C241	C24	0.260900	0.119900	0.085000
C251	C25	0.307600	0.064600	0.042600
C261	C26	0.145700	0.119100	0.173800
C271	C27	0.191900	0.143900	0.267200
C281	C28	0.295100	0.258500	0.320400
C291	C29	0.400600	0.269800	0.322600
C301	C30	0.494300	0.373900	0.363600
C311	C31	0.391300	0.450100	0.409800
C321	C32	0.292300	0.347500	0.366200
C331	C33	0.319000	0.052000	0.800200
C341	C34	0.374400	0.149000	0.786000
C351	C35	0.322200	0.166600	0.719800
C361	C36	0.212700	0.093300	0.668600
C371	C37	0.154100	0.993900	0.683200
C381	C38	0.205700	0.975900	0.749000
C391	C39	0.378200	0.029600	0.871200
C401	C40	0.032100	0.911700	0.626800
C411	C41	0.911600	0.097200	0.570600
C421	C42	0.909500	0.190700	0.613800
C431	C43	0.808900	0.178700	0.621800
C441	C44	0.715100	0.074100	0.585000
C451	C45	0.728000	0.985000	0.542600
C461	C46	0.804700	0.278100	0.673800
C471	C47	0.873300	0.325300	0.767200
C481	C48	0.811900	0.275300	0.820400
C491	C49	0.802800	0.172000	0.822600
C501	C50	0.739700	0.119300	0.863600
C511	C51	0.709700	0.268500	0.909800
C521	C52	0.768700	0.323900	0.866200
C531	C53	0.498200	0.731200	0.300200
C541	C54	0.387000	0.661600	0.286000
C551	C55	0.303200	0.647600	0.219800
C561	C56	0.325300	0.705900	0.168600
C571	C57	0.439300	0.779100	0.183200
C581	C58	0.523100	0.793300	0.249000
C591	C59	0.591600	0.743000	0.371200
C601	C60	0.465100	0.844700	0.126800
C611	C61	0.659000	0.473400	0.570600
C621	C62	0.704300	0.423100	0.613800
C631	C63	0.812900	0.443100	0.621800
C641	C64	0.869900	0.510900	0.585000
C651	C65	0.814600	0.557600	0.542600
C661	C66	0.869100	0.395700	0.673800
C671	C67	0.893900	0.441900	0.767200
C681	C68	0.008500	0.545100	0.820400
C691	C69	0.019800	0.650600	0.822600
C701	C70	0.123900	0.744300	0.863600
C711	C71	0.200100	0.641300	0.909800
C721	C72	0.097500	0.542300	0.866200
C731	C73	0.802000	0.569000	0.300200
C741	C74	0.899000	0.624400	0.286000
C751	C75	0.916600	0.572200	0.219800
C761	C76	0.843300	0.462700	0.168600
C771	C77	0.743900	0.404100	0.183200
C781	C78	0.725900	0.455700	0.249000
C791	C79	0.779600	0.628200	0.371200
C801	C80	0.661700	0.282100	0.126800
N11	N1	0.744300	0.073300	0.035000
N21	N2	0.918000	0.941800	0.405400
N31	N3	0.290700	0.961700	0.035000
N41	N4	0.487400	0.463600	0.405400
N51	N5	0.823300	0.994300	0.535000
N61	N6	0.691800	0.168000	0.905400
N71	N7	0.711700	0.540700	0.535000
N81	N8	0.213600	0.737400	0.905400
O11	O1	0.552860	0.940460	0.880520
O21	O2	0.441930	0.809530	0.918060
O31	O3	0.669400	0.811400	0.644600
O41	O4	0.564590	0.630990	0.561380
O51	O5	0.327660	0.940060	0.880520
O61	O6	0.476130	0.108530	0.918060
O71	O7	0.975200	0.833200	0.644600
O81	O8	0.996790	0.930390	0.561380
O91	O9	0.690460	0.802860	0.380520
O101	O10	0.559530	0.691930	0.418060
O111	O11	0.561400	0.919400	0.144600
O121	O12	0.380990	0.814590	0.061380
O131	O13	0.690060	0.577660	0.380520
O141	O14	0.858530	0.726130	0.418060
O151	O15	0.583200	0.225200	0.144600
O161	O16	0.680390	0.246790	0.061380
O171	O17	0.523300	0.023300	0.046600
O181	O18	0.773300	0.773300	0.546600
