data_KAPHOB_freeONLY_PM
_symmetry_space_group_name_H-M	'P1'
_cell_length_a	16.207900
_cell_length_b	17.833000
_cell_length_c	11.650800
_cell_angle_alpha	90.000000
_cell_angle_beta	90.000000
_cell_angle_gamma	90.000000
_symmetry_Int_Tables_number 1

loop_
_symmetry_equiv_pos_as_xyz
'x,y,z'

loop_
_atom_site_label
_atom_site_type_symbol
_atom_site_fract_x
_atom_site_fract_y
_atom_site_fract_z
C11	C1	0.198900	0.399900	0.835700
C21	C2	0.459300	0.449500	0.744600
H11	H1	0.429640	0.413050	0.784160
C31	C3	0.458200	0.447500	0.626600
H21	H2	0.428700	0.410130	0.589030
C41	C4	0.433900	0.130000	0.745700
H31	H3	0.460550	0.091980	0.785860
C51	C5	0.438800	0.130000	0.626900
H41	H4	0.468210	0.092490	0.589510
C61	C6	0.400160	0.185450	0.563700
C71	C7	0.359200	0.239570	0.625600
H51	H5	0.333110	0.278840	0.587710
C81	C8	0.356700	0.235760	0.744400
H61	H6	0.328280	0.272980	0.783830
N11	N1	0.200290	0.400810	0.736700
N21	N2	0.392880	0.181720	0.805010
H71	H7	0.400490	0.620750	0.929510
C91	C9	0.801100	0.600100	0.835700
C101	C10	0.540700	0.550500	0.744600
H81	H8	0.570360	0.586950	0.784160
C111	C11	0.541800	0.552500	0.626600
H91	H9	0.571300	0.589870	0.589030
C121	C12	0.566100	0.870000	0.745700
H101	H10	0.539450	0.908020	0.785860
C131	C13	0.561200	0.870000	0.626900
H111	H11	0.531790	0.907510	0.589510
C141	C14	0.599840	0.814550	0.563700
C151	C15	0.640800	0.760430	0.625600
H121	H12	0.666890	0.721160	0.587710
C161	C16	0.643300	0.764240	0.744400
H131	H13	0.671720	0.727020	0.783830
N31	N3	0.799710	0.599190	0.736700
N41	N4	0.607120	0.818280	0.805010
H141	H14	0.599510	0.379250	0.929510
C171	C17	0.301100	0.899900	0.164300
C181	C18	0.040700	0.949500	0.255400
H151	H15	0.070360	0.913050	0.215840
C191	C19	0.041800	0.947500	0.373400
H161	H16	0.071300	0.910130	0.410970
C201	C20	0.066100	0.630000	0.254300
H171	H17	0.039450	0.591980	0.214140
C211	C21	0.061200	0.630000	0.373100
H181	H18	0.031790	0.592490	0.410490
C221	C22	0.099840	0.685450	0.436300
C231	C23	0.140800	0.739570	0.374400
H191	H19	0.166890	0.778840	0.412290
C241	C24	0.143300	0.735760	0.255600
H201	H20	0.171720	0.772980	0.216170
N51	N5	0.299710	0.900810	0.263300
N61	N6	0.107120	0.681720	0.194990
H211	H21	0.099510	0.120750	0.070490
C251	C25	0.698900	0.100100	0.164300
C261	C26	0.959300	0.050500	0.255400
H221	H22	0.929640	0.086950	0.215840
C271	C27	0.958200	0.052500	0.373400
H231	H23	0.928700	0.089870	0.410970
C281	C28	0.933900	0.370000	0.254300
H241	H24	0.960550	0.408020	0.214140
C291	C29	0.938800	0.370000	0.373100
H251	H25	0.968210	0.407510	0.410490
C301	C30	0.900160	0.314550	0.436300
C311	C31	0.859200	0.260430	0.374400
H261	H26	0.833110	0.221160	0.412290
C321	C32	0.856700	0.264240	0.255600
H271	H27	0.828280	0.227020	0.216170
N71	N7	0.700290	0.099190	0.263300
N81	N8	0.892880	0.318280	0.194990
H281	H28	0.900490	0.879250	0.070490
C331	C33	0.801100	0.600100	0.164300
C341	C34	0.540700	0.550500	0.255400
H291	H29	0.570360	0.586950	0.215840
C351	C35	0.541800	0.552500	0.373400
H301	H30	0.571300	0.589870	0.410970
C361	C36	0.566100	0.870000	0.254300
H311	H31	0.539450	0.908020	0.214140
C371	C37	0.561200	0.870000	0.373100
H321	H32	0.531790	0.907510	0.410490
C381	C38	0.599840	0.814550	0.436300
C391	C39	0.640800	0.760430	0.374400
H331	H33	0.666890	0.721160	0.412290
C401	C40	0.643300	0.764240	0.255600
H341	H34	0.671720	0.727020	0.216170
N91	N9	0.799710	0.599190	0.263300
N101	N10	0.607120	0.818280	0.194990
H351	H35	0.599510	0.379250	0.070490
C411	C41	0.198900	0.399900	0.164300
C421	C42	0.459300	0.449500	0.255400
H361	H36	0.429640	0.413050	0.215840
C431	C43	0.458200	0.447500	0.373400
H371	H37	0.428700	0.410130	0.410970
C441	C44	0.433900	0.130000	0.254300
H381	H38	0.460550	0.091980	0.214140
C451	C45	0.438800	0.130000	0.373100
H391	H39	0.468210	0.092490	0.410490
C461	C46	0.400160	0.185450	0.436300
C471	C47	0.359200	0.239570	0.374400
H401	H40	0.333110	0.278840	0.412290
C481	C48	0.356700	0.235760	0.255600
H411	H41	0.328280	0.272980	0.216170
N111	N11	0.200290	0.400810	0.263300
N121	N12	0.392880	0.181720	0.194990
H421	H42	0.400490	0.620750	0.070490
C491	C49	0.698900	0.100100	0.835700
C501	C50	0.959300	0.050500	0.744600
H431	H43	0.929640	0.086950	0.784160
C511	C51	0.958200	0.052500	0.626600
H441	H44	0.928700	0.089870	0.589030
C521	C52	0.933900	0.370000	0.745700
H451	H45	0.960550	0.408020	0.785860
C531	C53	0.938800	0.370000	0.626900
H461	H46	0.968210	0.407510	0.589510
C541	C54	0.900160	0.314550	0.563700
C551	C55	0.859200	0.260430	0.625600
H471	H47	0.833110	0.221160	0.587710
C561	C56	0.856700	0.264240	0.744400
H481	H48	0.828280	0.227020	0.783830
N131	N13	0.700290	0.099190	0.736700
N141	N14	0.892880	0.318280	0.805010
H491	H49	0.900490	0.879250	0.929510
C571	C57	0.301100	0.899900	0.835700
C581	C58	0.040700	0.949500	0.744600
H501	H50	0.070360	0.913050	0.784160
C591	C59	0.041800	0.947500	0.626600
H511	H51	0.071300	0.910130	0.589030
C601	C60	0.066100	0.630000	0.745700
H521	H52	0.039450	0.591980	0.785860
C611	C61	0.061200	0.630000	0.626900
H531	H53	0.031790	0.592490	0.589510
C621	C62	0.099840	0.685450	0.563700
C631	C63	0.140800	0.739570	0.625600
H541	H54	0.166890	0.778840	0.587710
C641	C64	0.143300	0.735760	0.744400
H551	H55	0.171720	0.772980	0.783830
N151	N15	0.299710	0.900810	0.736700
N161	N16	0.107120	0.681720	0.805010
H561	H56	0.099510	0.120750	0.929510
C651	C65	0.088400	0.368890	0.000000
C661	C66	0.166700	0.501200	0.000000
C671	C67	0.238500	0.299800	0.000000
C681	C68	0.309800	0.431460	0.000000
N171	N17	0.020510	0.350990	0.000000
N181	N18	0.150600	0.563650	0.000000
N191	N19	0.271240	0.242510	0.000000
N201	N20	0.377880	0.448240	0.000000
O11	O1	0.439600	0.293120	0.000000
H571	H57	0.499050	0.304480	0.000000
H581	H58	0.410910	0.331920	0.000000
O21	O2	0.430630	0.610000	0.000000
Mn11	Mn1	0.199400	0.399710	0.000000
Mn21	Mn2	0.389220	0.178370	0.000000
C691	C69	0.911600	0.631110	0.000000
C701	C70	0.833300	0.498800	0.000000
C711	C71	0.761500	0.700200	0.000000
C721	C72	0.690200	0.568540	0.000000
N211	N21	0.979490	0.649010	0.000000
N221	N22	0.849400	0.436350	0.000000
N231	N23	0.728760	0.757490	0.000000
N241	N24	0.622120	0.551760	0.000000
O31	O3	0.560400	0.706880	0.000000
H591	H59	0.500950	0.695520	0.000000
H601	H60	0.589090	0.668080	0.000000
O41	O4	0.569370	0.390000	0.000000
Mn31	Mn3	0.800600	0.600290	0.000000
Mn41	Mn4	0.610780	0.821630	0.000000
C731	C73	0.411600	0.868890	0.000000
C741	C74	0.333300	0.001200	0.000000
C751	C75	0.261500	0.799800	0.000000
C761	C76	0.190200	0.931460	0.000000
N251	N25	0.479490	0.850990	0.000000
N261	N26	0.349400	0.063650	0.000000
N271	N27	0.228760	0.742510	0.000000
N281	N28	0.122120	0.948240	0.000000
O51	O5	0.060400	0.793120	0.000000
H611	H61	0.000950	0.804480	0.000000
H621	H62	0.089090	0.831920	0.000000
O61	O6	0.069370	0.110000	0.000000
Mn51	Mn5	0.300600	0.899710	0.000000
Mn61	Mn6	0.110780	0.678370	0.000000
C771	C77	0.588400	0.131110	0.000000
C781	C78	0.666700	0.998800	0.000000
C791	C79	0.738500	0.200200	0.000000
C801	C80	0.809800	0.068540	0.000000
N291	N29	0.520510	0.149010	0.000000
N301	N30	0.650600	0.936350	0.000000
N311	N31	0.771240	0.257490	0.000000
N321	N32	0.877880	0.051760	0.000000
O71	O7	0.939600	0.206880	0.000000
H631	H63	0.999050	0.195520	0.000000
H641	H64	0.910910	0.168080	0.000000
O81	O8	0.930630	0.890000	0.000000
Mn71	Mn7	0.699400	0.100290	0.000000
Mn81	Mn8	0.889220	0.321630	0.000000
C811	C81	0.500000	0.500000	0.564000
N331	N33	0.500000	0.500000	0.805100
C821	C82	0.000000	0.000000	0.436000
N341	N34	0.000000	0.000000	0.194900
C831	C83	0.500000	0.500000	0.436000
N351	N35	0.500000	0.500000	0.194900
C841	C84	0.000000	0.000000	0.564000
N361	N36	0.000000	0.000000	0.805100
Mn91	Mn9	0.500000	0.500000	0.000000
Mn101	Mn10	0.000000	0.000000	0.000000
