data_KARNAU_freeONLY_PM
_symmetry_space_group_name_H-M	'P1'
_cell_length_a	29.269800
_cell_length_b	29.269800
_cell_length_c	29.269800
_cell_angle_alpha	109.471000
_cell_angle_beta	109.471000
_cell_angle_gamma	109.471000
_symmetry_Int_Tables_number 1

loop_
_symmetry_equiv_pos_as_xyz
'x,y,z'

loop_
_atom_site_label
_atom_site_type_symbol
_atom_site_fract_x
_atom_site_fract_y
_atom_site_fract_z
Ni11	Ni1	0.732920	0.075460	0.008140
Ni21	Ni2	0.067320	0.724780	0.991860
Ni31	Ni3	0.932680	0.924540	0.657460
Ni41	Ni4	0.267080	0.275220	0.342540
Ni51	Ni5	0.657460	0.932680	0.924540
Ni61	Ni6	0.342540	0.267080	0.275220
Ni71	Ni7	0.008140	0.732920	0.075460
Ni81	Ni8	0.991860	0.067320	0.724780
Ni91	Ni9	0.724780	0.991860	0.067320
Ni101	Ni10	0.075460	0.008140	0.732920
Ni111	Ni11	0.275220	0.342540	0.267080
Ni121	Ni12	0.924540	0.657460	0.932680
H11	H1	0.156900	0.015400	0.689300
H21	H2	0.243400	0.019300	0.713700
H31	H3	0.257400	0.026800	0.858800
H41	H4	0.171000	0.022900	0.834500
H51	H5	0.314600	0.018800	0.731400
H61	H6	0.399200	0.018600	0.756400
H71	H7	0.410900	0.030600	0.902300
H81	H8	0.326300	0.030800	0.877300
H91	H9	0.428300	0.936500	0.796800
H101	H10	0.510800	0.932500	0.828100
H111	H11	0.598600	0.099500	0.936700
H121	H12	0.516100	0.103500	0.905400
H131	H13	0.734600	0.931900	0.823500
H141	H14	0.759600	0.889300	0.755500
H151	H15	0.816500	0.104100	0.918200
H161	H16	0.326100	0.467600	0.310700
H171	H17	0.305600	0.529700	0.286300
H181	H18	0.168000	0.398600	0.141200
H191	H19	0.188400	0.336500	0.165500
H201	H20	0.287400	0.583200	0.268600
H211	H21	0.262200	0.642800	0.243600
H221	H22	0.128300	0.508600	0.097700
H231	H23	0.153500	0.449000	0.122700
H241	H24	0.139700	0.631500	0.203200
H251	H25	0.104400	0.682700	0.171900
H261	H26	0.162800	0.661900	0.063300
H271	H27	0.198100	0.610700	0.094600
H281	H28	0.108400	0.911100	0.176500
H291	H29	0.133800	0.004100	0.244500
H301	H30	0.185900	0.898300	0.081800
H311	H31	0.673900	0.984600	0.141500
H321	H32	0.694400	0.980700	0.224100
H331	H33	0.832000	0.973200	0.230600
H341	H34	0.811600	0.977100	0.148100
H351	H35	0.712600	0.981200	0.295800
H361	H36	0.737800	0.981400	0.380600
H371	H37	0.871700	0.969400	0.380300
H381	H38	0.846500	0.969200	0.295500
H391	H39	0.860300	0.063500	0.491800
H401	H40	0.895600	0.067500	0.578300
H411	H41	0.837200	0.900500	0.499100
H421	H42	0.801900	0.896500	0.412600
H431	H43	0.891600	0.068100	0.802700
H441	H44	0.866200	0.110700	0.870300
H451	H45	0.814100	0.895900	0.712400
H461	H46	0.843100	0.532400	0.858500
H471	H47	0.756600	0.470300	0.775900
H481	H48	0.742600	0.601400	0.769400
H491	H49	0.829000	0.663500	0.851900
H501	H50	0.685400	0.416800	0.704200
H511	H51	0.600800	0.357200	0.619400
H521	H52	0.589100	0.491400	0.619700
H531	H53	0.673700	0.551000	0.704500
H541	H54	0.571700	0.368500	0.508200
H551	H55	0.489200	0.317300	0.421700
H561	H56	0.401400	0.338100	0.500900
H571	H57	0.483900	0.389300	0.587400
H581	H58	0.265400	0.088900	0.197300
H591	H59	0.240400	0.995900	0.129700
H601	H60	0.183500	0.101700	0.287600
H611	H61	0.141500	0.673900	0.984600
H621	H62	0.224100	0.694400	0.980700
H631	H63	0.230600	0.832000	0.973200
H641	H64	0.148100	0.811600	0.977100
H651	H65	0.295800	0.712600	0.981200
H661	H66	0.380600	0.737800	0.981400
H671	H67	0.380300	0.871700	0.969400
H681	H68	0.295500	0.846500	0.969200
H691	H69	0.491800	0.860300	0.063500
H701	H70	0.578300	0.895600	0.067500
H711	H71	0.499100	0.837200	0.900500
H721	H72	0.412600	0.801900	0.896500
H731	H73	0.802700	0.891600	0.068100
H741	H74	0.870300	0.866200	0.110700
H751	H75	0.712400	0.814100	0.895900
H761	H76	0.858500	0.843100	0.532400
H771	H77	0.775900	0.756600	0.470300
H781	H78	0.769400	0.742600	0.601400
H791	H79	0.851900	0.829000	0.663500
H801	H80	0.704200	0.685400	0.416800
H811	H81	0.619400	0.600800	0.357200
H821	H82	0.619700	0.589100	0.491400
H831	H83	0.704500	0.673700	0.551000
H841	H84	0.508200	0.571700	0.368500
H851	H85	0.421700	0.489200	0.317300
H861	H86	0.500900	0.401400	0.338100
H871	H87	0.587400	0.483900	0.389300
H881	H88	0.197300	0.265400	0.088900
H891	H89	0.129700	0.240400	0.995900
H901	H90	0.287600	0.183500	0.101700
H911	H91	0.689300	0.156900	0.015400
H921	H92	0.713700	0.243400	0.019300
H931	H93	0.858800	0.257400	0.026800
H941	H94	0.834500	0.171000	0.022900
H951	H95	0.731400	0.314600	0.018800
H961	H96	0.756400	0.399200	0.018600
H971	H97	0.902300	0.410900	0.030600
H981	H98	0.877300	0.326300	0.030800
H991	H99	0.796800	0.428300	0.936500
H1001	H100	0.828100	0.510800	0.932500
H1011	H101	0.936700	0.598600	0.099500
H1021	H102	0.905400	0.516100	0.103500
H1031	H103	0.823500	0.734600	0.931900
H1041	H104	0.755500	0.759600	0.889300
H1051	H105	0.918200	0.816500	0.104100
H1061	H106	0.310700	0.326100	0.467600
H1071	H107	0.286300	0.305600	0.529700
H1081	H108	0.141200	0.168000	0.398600
H1091	H109	0.165500	0.188400	0.336500
H1101	H110	0.268600	0.287400	0.583200
H1111	H111	0.243600	0.262200	0.642800
H1121	H112	0.097700	0.128300	0.508600
H1131	H113	0.122700	0.153500	0.449000
H1141	H114	0.203200	0.139700	0.631500
H1151	H115	0.171900	0.104400	0.682700
H1161	H116	0.063300	0.162800	0.661900
H1171	H117	0.094600	0.198100	0.610700
H1181	H118	0.176500	0.108400	0.911100
H1191	H119	0.244500	0.133800	0.004100
H1201	H120	0.081800	0.185900	0.898300
H1211	H121	0.467600	0.310700	0.326100
H1221	H122	0.529700	0.286300	0.305600
H1231	H123	0.398600	0.141200	0.168000
H1241	H124	0.336500	0.165500	0.188400
H1251	H125	0.583200	0.268600	0.287400
H1261	H126	0.642800	0.243600	0.262200
H1271	H127	0.508600	0.097700	0.128300
H1281	H128	0.449000	0.122700	0.153500
H1291	H129	0.631500	0.203200	0.139700
H1301	H130	0.682700	0.171900	0.104400
H1311	H131	0.661900	0.063300	0.162800
H1321	H132	0.610700	0.094600	0.198100
H1331	H133	0.911100	0.176500	0.108400
H1341	H134	0.004100	0.244500	0.133800
H1351	H135	0.898300	0.081800	0.185900
H1361	H136	0.015400	0.689300	0.156900
H1371	H137	0.019300	0.713700	0.243400
H1381	H138	0.026800	0.858800	0.257400
H1391	H139	0.022900	0.834500	0.171000
H1401	H140	0.018800	0.731400	0.314600
H1411	H141	0.018600	0.756400	0.399200
H1421	H142	0.030600	0.902300	0.410900
H1431	H143	0.030800	0.877300	0.326300
H1441	H144	0.936500	0.796800	0.428300
H1451	H145	0.932500	0.828100	0.510800
H1461	H146	0.099500	0.936700	0.598600
H1471	H147	0.103500	0.905400	0.516100
H1481	H148	0.931900	0.823500	0.734600
H1491	H149	0.889300	0.755500	0.759600
H1501	H150	0.104100	0.918200	0.816500
H1511	H151	0.532400	0.858500	0.843100
H1521	H152	0.470300	0.775900	0.756600
H1531	H153	0.601400	0.769400	0.742600
H1541	H154	0.663500	0.851900	0.829000
H1551	H155	0.416800	0.704200	0.685400
H1561	H156	0.357200	0.619400	0.600800
H1571	H157	0.491400	0.619700	0.589100
H1581	H158	0.551000	0.704500	0.673700
H1591	H159	0.368500	0.508200	0.571700
H1601	H160	0.317300	0.421700	0.489200
H1611	H161	0.338100	0.500900	0.401400
H1621	H162	0.389300	0.587400	0.483900
H1631	H163	0.088900	0.197300	0.265400
H1641	H164	0.995900	0.129700	0.240400
H1651	H165	0.101700	0.287600	0.183500
H1661	H166	0.984600	0.141500	0.673900
H1671	H167	0.980700	0.224100	0.694400
H1681	H168	0.973200	0.230600	0.832000
H1691	H169	0.977100	0.148100	0.811600
H1701	H170	0.981200	0.295800	0.712600
H1711	H171	0.981400	0.380600	0.737800
H1721	H172	0.969400	0.380300	0.871700
H1731	H173	0.969200	0.295500	0.846500
H1741	H174	0.063500	0.491800	0.860300
H1751	H175	0.067500	0.578300	0.895600
H1761	H176	0.900500	0.499100	0.837200
H1771	H177	0.896500	0.412600	0.801900
H1781	H178	0.068100	0.802700	0.891600
H1791	H179	0.110700	0.870300	0.866200
H1801	H180	0.895900	0.712400	0.814100
C11	C1	0.177310	0.017720	0.723730
C21	C2	0.228660	0.020020	0.738200
C31	C3	0.258510	0.023390	0.788540
C41	C4	0.237010	0.024460	0.824430
C51	C5	0.185660	0.022160	0.809960
C61	C6	0.312500	0.024840	0.802000
C71	C7	0.334140	0.021220	0.766080
C81	C8	0.384430	0.021120	0.780950
C91	C9	0.413060	0.024630	0.831730
C101	C10	0.391410	0.028240	0.867630
C111	C11	0.341130	0.028340	0.852770
C121	C12	0.464400	0.020350	0.848090
C131	C13	0.462860	0.969570	0.825170
C141	C14	0.511900	0.967200	0.843820
C151	C15	0.562480	0.015620	0.885420
C161	C16	0.564020	0.066410	0.908350
C171	C17	0.514980	0.068770	0.889690
C181	C18	0.611670	0.011370	0.914260
C191	C19	0.742010	0.011430	0.909020
C201	C20	0.769960	0.016490	0.875870
C211	C21	0.761110	0.967910	0.833280
C221	C22	0.792460	0.973620	0.805160
C231	C23	0.786320	0.925090	0.765010
C241	C24	0.810290	0.071160	0.889810
C251	C25	0.293990	0.453580	0.276270
C261	C26	0.281820	0.490460	0.261800
C271	C27	0.234850	0.469970	0.211460
C281	C28	0.200030	0.412580	0.175570
C291	C29	0.212200	0.375700	0.190040
C301	C30	0.222840	0.510500	0.198000
C311	C31	0.255140	0.568060	0.233920
C321	C32	0.240170	0.603480	0.219050
C331	C33	0.192900	0.581330	0.168270
C341	C34	0.160610	0.523780	0.132370
C351	C35	0.175570	0.488360	0.147230
C361	C36	0.172260	0.616310	0.151910
C371	C37	0.144400	0.637690	0.174830
C381	C38	0.123380	0.668080	0.156180
C391	C39	0.130200	0.677060	0.114580
C401	C40	0.158060	0.655670	0.091650
C411	C41	0.179080	0.625290	0.110310
C421	C42	0.097110	0.697410	0.085740
C431	C43	0.102410	0.832990	0.090980
C441	C44	0.140620	0.894090	0.124130
C451	C45	0.134630	0.927830	0.166720
C461	C46	0.168460	0.987300	0.194840
C471	C47	0.160080	0.021310	0.234990
C481	C48	0.181350	0.920480	0.110190
C491	C49	0.706010	0.982280	0.159590
C501	C50	0.718180	0.979980	0.208640
C511	C51	0.765150	0.976610	0.235120
C521	C52	0.799970	0.975540	0.212550
C531	C53	0.787800	0.977840	0.163500
C541	C54	0.777160	0.975160	0.287660
C551	C55	0.744860	0.978780	0.312920
C561	C56	0.759830	0.978880	0.363310
C571	C57	0.807100	0.975370	0.388430
C581	C58	0.839390	0.971760	0.363170
C591	C59	0.824430	0.971660	0.312790
C601	C60	0.827740	0.979650	0.444050
C611	C61	0.855600	0.030430	0.493290
C621	C62	0.876620	0.032800	0.544700
C631	C63	0.869800	0.984380	0.546860
C641	C64	0.841940	0.933590	0.497610
C651	C65	0.820920	0.931230	0.446210
C661	C66	0.902890	0.988630	0.600300
C671	C67	0.897590	0.988570	0.730580
C681	C68	0.859380	0.983510	0.753470
C691	C69	0.865370	0.032090	0.793200
C701	C70	0.831540	0.026380	0.818840
C711	C71	0.839920	0.074910	0.861230
C721	C72	0.818650	0.928840	0.739130
C731	C73	0.822690	0.546420	0.840410
C741	C74	0.771340	0.509540	0.791360
C751	C75	0.741490	0.530030	0.764880
C761	C76	0.762990	0.587420	0.787450
C771	C77	0.814340	0.624300	0.836500
C781	C78	0.687500	0.489500	0.712340
C791	C79	0.665860	0.431940	0.687080
C801	C80	0.615570	0.396520	0.636690
C811	C81	0.586940	0.418670	0.611570
C821	C82	0.608590	0.476220	0.636830
C831	C83	0.658870	0.511640	0.687210
C841	C84	0.535600	0.383690	0.555950
C851	C85	0.537140	0.362310	0.506710
C861	C86	0.488100	0.331920	0.455300
C871	C87	0.437520	0.322940	0.453140
C881	C88	0.435980	0.344330	0.502390
C891	C89	0.485020	0.374710	0.553790
C901	C90	0.388330	0.302590	0.399700
C911	C91	0.257990	0.167010	0.269420
C921	C92	0.230040	0.105910	0.246530
C931	C93	0.238890	0.072170	0.206800
C941	C94	0.207540	0.012700	0.181160
C951	C95	0.213680	0.978690	0.138770
C961	C96	0.189710	0.079520	0.260870
C971	C97	0.159590	0.706010	0.982280
C981	C98	0.208640	0.718180	0.979980
C991	C99	0.235120	0.765150	0.976610
C1001	C100	0.212550	0.799970	0.975540
C1011	C101	0.163500	0.787800	0.977840
C1021	C102	0.287660	0.777160	0.975160
C1031	C103	0.312920	0.744860	0.978780
C1041	C104	0.363310	0.759830	0.978880
C1051	C105	0.388430	0.807100	0.975370
C1061	C106	0.363170	0.839390	0.971760
C1071	C107	0.312790	0.824430	0.971660
C1081	C108	0.444050	0.827740	0.979650
C1091	C109	0.493290	0.855600	0.030430
C1101	C110	0.544700	0.876620	0.032800
C1111	C111	0.546860	0.869800	0.984380
C1121	C112	0.497610	0.841940	0.933590
C1131	C113	0.446210	0.820920	0.931230
C1141	C114	0.600300	0.902890	0.988630
C1151	C115	0.730580	0.897590	0.988570
C1161	C116	0.753470	0.859380	0.983510
C1171	C117	0.793200	0.865370	0.032090
C1181	C118	0.818840	0.831540	0.026380
C1191	C119	0.861230	0.839920	0.074910
C1201	C120	0.739130	0.818650	0.928840
C1211	C121	0.840410	0.822690	0.546420
C1221	C122	0.791360	0.771340	0.509540
C1231	C123	0.764880	0.741490	0.530030
C1241	C124	0.787450	0.762990	0.587420
C1251	C125	0.836500	0.814340	0.624300
C1261	C126	0.712340	0.687500	0.489500
C1271	C127	0.687080	0.665860	0.431940
C1281	C128	0.636690	0.615570	0.396520
C1291	C129	0.611570	0.586940	0.418670
C1301	C130	0.636830	0.608590	0.476220
C1311	C131	0.687210	0.658870	0.511640
C1321	C132	0.555950	0.535600	0.383690
C1331	C133	0.506710	0.537140	0.362310
C1341	C134	0.455300	0.488100	0.331920
C1351	C135	0.453140	0.437520	0.322940
C1361	C136	0.502390	0.435980	0.344330
C1371	C137	0.553790	0.485020	0.374710
C1381	C138	0.399700	0.388330	0.302590
C1391	C139	0.269420	0.257990	0.167010
C1401	C140	0.246530	0.230040	0.105910
C1411	C141	0.206800	0.238890	0.072170
C1421	C142	0.181160	0.207540	0.012700
C1431	C143	0.138770	0.213680	0.978690
C1441	C144	0.260870	0.189710	0.079520
C1451	C145	0.723730	0.177310	0.017720
C1461	C146	0.738200	0.228660	0.020020
C1471	C147	0.788540	0.258510	0.023390
C1481	C148	0.824430	0.237010	0.024460
C1491	C149	0.809960	0.185660	0.022160
C1501	C150	0.802000	0.312500	0.024840
C1511	C151	0.766080	0.334140	0.021220
C1521	C152	0.780950	0.384430	0.021120
C1531	C153	0.831730	0.413060	0.024630
C1541	C154	0.867630	0.391410	0.028240
C1551	C155	0.852770	0.341130	0.028340
C1561	C156	0.848090	0.464400	0.020350
C1571	C157	0.825170	0.462860	0.969570
C1581	C158	0.843820	0.511900	0.967200
C1591	C159	0.885420	0.562480	0.015620
C1601	C160	0.908350	0.564020	0.066410
C1611	C161	0.889690	0.514980	0.068770
C1621	C162	0.914260	0.611670	0.011370
C1631	C163	0.909020	0.742010	0.011430
C1641	C164	0.875870	0.769960	0.016490
C1651	C165	0.833280	0.761110	0.967910
C1661	C166	0.805160	0.792460	0.973620
C1671	C167	0.765010	0.786320	0.925090
C1681	C168	0.889810	0.810290	0.071160
C1691	C169	0.276270	0.293990	0.453580
C1701	C170	0.261800	0.281820	0.490460
C1711	C171	0.211460	0.234850	0.469970
C1721	C172	0.175570	0.200030	0.412580
C1731	C173	0.190040	0.212200	0.375700
C1741	C174	0.198000	0.222840	0.510500
C1751	C175	0.233920	0.255140	0.568060
C1761	C176	0.219050	0.240170	0.603480
C1771	C177	0.168270	0.192900	0.581330
C1781	C178	0.132370	0.160610	0.523780
C1791	C179	0.147230	0.175570	0.488360
C1801	C180	0.151910	0.172260	0.616310
C1811	C181	0.174830	0.144400	0.637690
C1821	C182	0.156180	0.123380	0.668080
C1831	C183	0.114580	0.130200	0.677060
C1841	C184	0.091650	0.158060	0.655670
C1851	C185	0.110310	0.179080	0.625290
C1861	C186	0.085740	0.097110	0.697410
C1871	C187	0.090980	0.102410	0.832990
C1881	C188	0.124130	0.140620	0.894090
C1891	C189	0.166720	0.134630	0.927830
C1901	C190	0.194840	0.168460	0.987300
C1911	C191	0.234990	0.160080	0.021310
C1921	C192	0.110190	0.181350	0.920480
C1931	C193	0.453580	0.276270	0.293990
C1941	C194	0.490460	0.261800	0.281820
C1951	C195	0.469970	0.211460	0.234850
C1961	C196	0.412580	0.175570	0.200030
C1971	C197	0.375700	0.190040	0.212200
C1981	C198	0.510500	0.198000	0.222840
C1991	C199	0.568060	0.233920	0.255140
C2001	C200	0.603480	0.219050	0.240170
C2011	C201	0.581330	0.168270	0.192900
C2021	C202	0.523780	0.132370	0.160610
C2031	C203	0.488360	0.147230	0.175570
C2041	C204	0.616310	0.151910	0.172260
C2051	C205	0.637690	0.174830	0.144400
C2061	C206	0.668080	0.156180	0.123380
C2071	C207	0.677060	0.114580	0.130200
C2081	C208	0.655670	0.091650	0.158060
C2091	C209	0.625290	0.110310	0.179080
C2101	C210	0.697410	0.085740	0.097110
C2111	C211	0.832990	0.090980	0.102410
C2121	C212	0.894090	0.124130	0.140620
C2131	C213	0.927830	0.166720	0.134630
C2141	C214	0.987300	0.194840	0.168460
C2151	C215	0.021310	0.234990	0.160080
C2161	C216	0.920480	0.110190	0.181350
C2171	C217	0.017720	0.723730	0.177310
C2181	C218	0.020020	0.738200	0.228660
C2191	C219	0.023390	0.788540	0.258510
C2201	C220	0.024460	0.824430	0.237010
C2211	C221	0.022160	0.809960	0.185660
C2221	C222	0.024840	0.802000	0.312500
C2231	C223	0.021220	0.766080	0.334140
C2241	C224	0.021120	0.780950	0.384430
C2251	C225	0.024630	0.831730	0.413060
C2261	C226	0.028240	0.867630	0.391410
C2271	C227	0.028340	0.852770	0.341130
C2281	C228	0.020350	0.848090	0.464400
C2291	C229	0.969570	0.825170	0.462860
C2301	C230	0.967200	0.843820	0.511900
C2311	C231	0.015620	0.885420	0.562480
C2321	C232	0.066410	0.908350	0.564020
C2331	C233	0.068770	0.889690	0.514980
C2341	C234	0.011370	0.914260	0.611670
C2351	C235	0.011430	0.909020	0.742010
C2361	C236	0.016490	0.875870	0.769960
C2371	C237	0.967910	0.833280	0.761110
C2381	C238	0.973620	0.805160	0.792460
C2391	C239	0.925090	0.765010	0.786320
C2401	C240	0.071160	0.889810	0.810290
C2411	C241	0.546420	0.840410	0.822690
C2421	C242	0.509540	0.791360	0.771340
C2431	C243	0.530030	0.764880	0.741490
C2441	C244	0.587420	0.787450	0.762990
C2451	C245	0.624300	0.836500	0.814340
C2461	C246	0.489500	0.712340	0.687500
C2471	C247	0.431940	0.687080	0.665860
C2481	C248	0.396520	0.636690	0.615570
C2491	C249	0.418670	0.611570	0.586940
C2501	C250	0.476220	0.636830	0.608590
C2511	C251	0.511640	0.687210	0.658870
C2521	C252	0.383690	0.555950	0.535600
C2531	C253	0.362310	0.506710	0.537140
C2541	C254	0.331920	0.455300	0.488100
C2551	C255	0.322940	0.453140	0.437520
C2561	C256	0.344330	0.502390	0.435980
C2571	C257	0.374710	0.553790	0.485020
C2581	C258	0.302590	0.399700	0.388330
C2591	C259	0.167010	0.269420	0.257990
C2601	C260	0.105910	0.246530	0.230040
C2611	C261	0.072170	0.206800	0.238890
C2621	C262	0.012700	0.181160	0.207540
C2631	C263	0.978690	0.138770	0.213680
C2641	C264	0.079520	0.260870	0.189710
C2651	C265	0.982280	0.159590	0.706010
C2661	C266	0.979980	0.208640	0.718180
C2671	C267	0.976610	0.235120	0.765150
C2681	C268	0.975540	0.212550	0.799970
C2691	C269	0.977840	0.163500	0.787800
C2701	C270	0.975160	0.287660	0.777160
C2711	C271	0.978780	0.312920	0.744860
C2721	C272	0.978880	0.363310	0.759830
C2731	C273	0.975370	0.388430	0.807100
C2741	C274	0.971760	0.363170	0.839390
C2751	C275	0.971660	0.312790	0.824430
C2761	C276	0.979650	0.444050	0.827740
C2771	C277	0.030430	0.493290	0.855600
C2781	C278	0.032800	0.544700	0.876620
C2791	C279	0.984380	0.546860	0.869800
C2801	C280	0.933590	0.497610	0.841940
C2811	C281	0.931230	0.446210	0.820920
C2821	C282	0.988630	0.600300	0.902890
C2831	C283	0.988570	0.730580	0.897590
C2841	C284	0.983510	0.753470	0.859380
C2851	C285	0.032090	0.793200	0.865370
C2861	C286	0.026380	0.818840	0.831540
C2871	C287	0.074910	0.861230	0.839920
C2881	C288	0.928840	0.739130	0.818650
N11	N1	0.155820	0.018800	0.759620
N21	N2	0.259180	0.396200	0.240380
N31	N3	0.740820	0.981200	0.137020
N41	N4	0.844180	0.603800	0.862980
N51	N5	0.137020	0.740820	0.981200
N61	N6	0.862980	0.844180	0.603800
N71	N7	0.759620	0.155820	0.018800
N81	N8	0.240380	0.259180	0.396200
N91	N9	0.396200	0.240380	0.259180
N101	N10	0.018800	0.759620	0.155820
N111	N11	0.603800	0.862980	0.844180
N121	N12	0.981200	0.137020	0.740820
O11	O1	0.655340	0.054280	0.953240
O21	O2	0.608530	0.964730	0.894540
O31	O3	0.753930	0.054800	0.946270
O41	O4	0.709270	0.961880	0.895490
O51	O5	0.101040	0.702100	0.046760
O61	O6	0.070190	0.713990	0.105460
O71	O7	0.108530	0.807660	0.053730
O81	O8	0.066390	0.813780	0.104510
O91	O9	0.898960	0.945720	0.601060
O101	O10	0.929810	0.035270	0.643800
O111	O11	0.891470	0.945200	0.699130
O121	O12	0.933610	0.038120	0.747390
O131	O13	0.344660	0.297900	0.398940
O141	O14	0.391470	0.286010	0.356200
O151	O15	0.246070	0.192340	0.300870
O161	O16	0.290730	0.186220	0.252610
O171	O17	0.601060	0.898960	0.945720
O181	O18	0.643800	0.929810	0.035270
O191	O19	0.699130	0.891470	0.945200
O201	O20	0.747390	0.933610	0.038120
O211	O21	0.398940	0.344660	0.297900
O221	O22	0.356200	0.391470	0.286010
O231	O23	0.300870	0.246070	0.192340
O241	O24	0.252610	0.290730	0.186220
O251	O25	0.953240	0.655340	0.054280
O261	O26	0.894540	0.608530	0.964730
O271	O27	0.946270	0.753930	0.054800
O281	O28	0.895490	0.709270	0.961880
O291	O29	0.046760	0.101040	0.702100
O301	O30	0.105460	0.070190	0.713990
O311	O31	0.053730	0.108530	0.807660
O321	O32	0.104510	0.066390	0.813780
O331	O33	0.702100	0.046760	0.101040
O341	O34	0.713990	0.105460	0.070190
O351	O35	0.807660	0.053730	0.108530
O361	O36	0.813780	0.104510	0.066390
O371	O37	0.054280	0.953240	0.655340
O381	O38	0.964730	0.894540	0.608530
O391	O39	0.054800	0.946270	0.753930
O401	O40	0.961880	0.895490	0.709270
O411	O41	0.297900	0.398940	0.344660
O421	O42	0.286010	0.356200	0.391470
O431	O43	0.192340	0.300870	0.246070
O441	O44	0.186220	0.252610	0.290730
O451	O45	0.945720	0.601060	0.898960
O461	O46	0.035270	0.643800	0.929810
O471	O47	0.945200	0.699130	0.891470
O481	O48	0.038120	0.747390	0.933610
O491	O49	0.711760	0.000000	0.000000
O501	O50	0.000000	0.711760	0.000000
O511	O51	0.000000	0.000000	0.711760
O521	O52	0.288240	0.288240	0.288240
