data_KASPOL_freeONLY_PM
_symmetry_space_group_name_H-M	'P1'
_cell_length_a	7.023580
_cell_length_b	9.858900
_cell_length_c	10.066500
_cell_angle_alpha	90.828500
_cell_angle_beta	110.418000
_cell_angle_gamma	90.000000
_symmetry_Int_Tables_number 1

loop_
_symmetry_equiv_pos_as_xyz
'x,y,z'

loop_
_atom_site_label
_atom_site_type_symbol
_atom_site_fract_x
_atom_site_fract_y
_atom_site_fract_z
Cu11	Cu1	0.063780	0.250000	0.000000
Cu21	Cu2	0.936220	0.750000	0.000000
P11	P1	0.913080	0.993090	0.791160
P21	P2	0.121920	0.506910	0.208840
P31	P3	0.086920	0.006910	0.208840
P41	P4	0.878080	0.493090	0.791160
H11	H1	0.000000	0.793300	0.607000
H21	H2	0.939700	0.197900	0.605000
H31	H3	0.503700	0.969200	0.596000
H41	H4	0.409000	0.035400	0.701000
H51	H5	0.533600	0.900900	0.741400
H61	H6	0.393000	0.706700	0.393000
H71	H7	0.334700	0.302100	0.395000
H81	H8	0.907700	0.530800	0.404000
H91	H9	0.708000	0.464600	0.299000
H101	H10	0.792200	0.599100	0.258600
H111	H11	0.000000	0.206700	0.393000
H121	H12	0.060300	0.802100	0.395000
H131	H13	0.496300	0.030800	0.404000
H141	H14	0.591000	0.964600	0.299000
H151	H15	0.466400	0.099100	0.258600
H161	H16	0.607000	0.293300	0.607000
H171	H17	0.665300	0.697900	0.605000
H181	H18	0.092300	0.469200	0.596000
H191	H19	0.292000	0.535400	0.701000
H201	H20	0.207800	0.400900	0.741400
C11	C1	0.962800	0.994800	0.626200
C21	C2	0.999800	0.876200	0.564000
C31	C3	0.963700	0.118400	0.562600
C41	C4	0.522800	0.985800	0.694000
C51	C5	0.336600	0.505200	0.373800
C61	C6	0.435800	0.623800	0.436000
C71	C7	0.401100	0.381600	0.437400
C81	C8	0.828800	0.514200	0.306000
C91	C9	0.037200	0.005200	0.373800
C101	C10	0.000200	0.123800	0.436000
C111	C11	0.036300	0.881600	0.437400
C121	C12	0.477200	0.014200	0.306000
C131	C13	0.663400	0.494800	0.626200
C141	C14	0.564200	0.376200	0.564000
C151	C15	0.598900	0.618400	0.562600
C161	C16	0.171200	0.485800	0.694000
O11	O1	0.062100	0.085500	0.894800
O21	O2	0.698000	0.060300	0.756400
O31	O3	0.907700	0.847000	0.829000
O41	O4	0.167300	0.414500	0.105200
O51	O5	0.941600	0.439700	0.243600
O61	O6	0.078700	0.653000	0.171000
O71	O7	0.937900	0.914500	0.105200
O81	O8	0.302000	0.939700	0.243600
O91	O9	0.092300	0.153000	0.171000
O101	O10	0.832700	0.585500	0.894800
O111	O11	0.058400	0.560300	0.756400
O121	O12	0.921300	0.347000	0.829000
