data_KAVGAQ_freeONLY_PM
_symmetry_space_group_name_H-M	'P1'
_cell_length_a	11.493200
_cell_length_b	11.613200
_cell_length_c	11.818200
_cell_angle_alpha	65.275000
_cell_angle_beta	81.174000
_cell_angle_gamma	72.752000
_symmetry_Int_Tables_number 1

loop_
_symmetry_equiv_pos_as_xyz
'x,y,z'

loop_
_atom_site_label
_atom_site_type_symbol
_atom_site_fract_x
_atom_site_fract_y
_atom_site_fract_z
Co11	Co1	0.000000	0.000000	0.500000
Co21	Co2	0.000000	0.500000	0.500000
Co31	Co3	0.000000	0.000000	0.000000
H11	H1	0.044000	0.662300	0.179500
H21	H2	0.835100	0.275600	0.368200
H31	H3	0.637300	0.401300	0.370800
H41	H4	0.578800	0.118200	0.702500
H51	H5	0.779900	0.001300	0.691500
H61	H6	0.204600	0.368800	0.704600
H71	H7	0.412800	0.274600	0.718600
H81	H8	0.443700	0.444700	0.344300
H91	H9	0.234700	0.531900	0.341200
H101	H10	0.841700	0.817800	0.019900
H111	H11	0.643600	0.809300	0.024900
H121	H12	0.536500	0.194500	0.960100
H131	H13	0.740300	0.190700	0.954300
H141	H14	0.956000	0.337700	0.820500
H151	H15	0.164900	0.724400	0.631800
H161	H16	0.362700	0.598700	0.629200
H171	H17	0.421200	0.881800	0.297500
H181	H18	0.220100	0.998700	0.308500
H191	H19	0.795400	0.631200	0.295400
H201	H20	0.587200	0.725400	0.281400
H211	H21	0.556300	0.555300	0.655700
H221	H22	0.765300	0.468100	0.658800
H231	H23	0.158300	0.182200	0.980100
H241	H24	0.356400	0.190700	0.975100
H251	H25	0.463500	0.805500	0.039900
H261	H26	0.259700	0.809300	0.045700
C11	C1	0.023600	0.716600	0.225200
C21	C2	0.981500	0.887400	0.268500
C31	C3	0.978400	0.778000	0.378100
C41	C4	0.948700	0.755500	0.510900
C51	C5	0.961900	0.029200	0.235200
C61	C6	0.781900	0.242600	0.436700
C71	C7	0.663600	0.318500	0.437400
C81	C8	0.584200	0.272900	0.535600
C91	C9	0.629700	0.152400	0.632200
C101	C10	0.750100	0.082700	0.624600
C111	C11	0.253400	0.382200	0.629900
C121	C12	0.378300	0.325400	0.639000
C131	C13	0.452300	0.342800	0.532600
C141	C14	0.396400	0.424700	0.420100
C151	C15	0.271200	0.476800	0.419300
C161	C16	0.778500	0.895800	0.008200
C171	C17	0.660200	0.889400	0.012100
C181	C18	0.564700	0.001500	0.997000
C191	C19	0.597500	0.114600	0.973800
C201	C20	0.720000	0.111600	0.970600
C211	C21	0.976400	0.283400	0.774800
C221	C22	0.018500	0.112600	0.731500
C231	C23	0.021600	0.222000	0.621900
C241	C24	0.051300	0.244500	0.489100
C251	C25	0.038100	0.970800	0.764800
C261	C26	0.218100	0.757400	0.563300
C271	C27	0.336400	0.681500	0.562600
C281	C28	0.415800	0.727100	0.464400
C291	C29	0.370300	0.847600	0.367800
C301	C30	0.249900	0.917300	0.375400
C311	C31	0.746600	0.617800	0.370100
C321	C32	0.621700	0.674600	0.361000
C331	C33	0.547700	0.657200	0.467400
C341	C34	0.603600	0.575300	0.579900
C351	C35	0.728800	0.523200	0.580700
C361	C36	0.221500	0.104200	0.991800
C371	C37	0.339800	0.110600	0.987900
C381	C38	0.435300	0.998500	0.003000
C391	C39	0.402500	0.885400	0.026200
C401	C40	0.280000	0.888400	0.029400
N11	N1	0.005700	0.669800	0.348000
N21	N2	0.010400	0.845700	0.171200
N31	N3	0.825800	0.125000	0.527600
N41	N4	0.199000	0.454300	0.521500
N51	N5	0.810200	0.002500	0.989400
N61	N6	0.994300	0.330200	0.652000
N71	N7	0.989600	0.154300	0.828800
N81	N8	0.174200	0.875000	0.472400
N91	N9	0.801000	0.545700	0.478500
N101	N10	0.189800	0.997500	0.010600
O11	O1	0.958200	0.075300	0.313800
O21	O2	0.951700	0.101700	0.119000
O31	O3	0.918600	0.849000	0.545800
O41	O4	0.954500	0.637700	0.584700
O51	O5	0.041800	0.924700	0.686200
O61	O6	0.048300	0.898300	0.881000
O71	O7	0.081400	0.151000	0.454200
O81	O8	0.045500	0.362300	0.415300
