data_KAVJEX_freeONLY_PM
_symmetry_space_group_name_H-M	'P1'
_cell_length_a	26.865000
_cell_length_b	26.865000
_cell_length_c	26.865000
_cell_angle_alpha	90.000000
_cell_angle_beta	90.000000
_cell_angle_gamma	90.000000
_symmetry_Int_Tables_number 1

loop_
_symmetry_equiv_pos_as_xyz
'x,y,z'

loop_
_atom_site_label
_atom_site_type_symbol
_atom_site_fract_x
_atom_site_fract_y
_atom_site_fract_z
O11	O1	0.946900	0.501100	0.083400
O21	O2	0.021600	0.530200	0.089700
O31	O3	0.971500	0.583400	0.340900
O41	O4	0.892300	0.580200	0.325700
C11	C1	0.980700	0.523200	0.108400
C21	C2	0.969000	0.540300	0.159500
C31	C3	0.007600	0.551400	0.191700
C41	C4	0.997100	0.564800	0.241400
C51	C5	0.947800	0.568000	0.257200
C61	C6	0.909800	0.557600	0.223900
C71	C7	0.921400	0.543900	0.176100
H11	H1	0.895600	0.536700	0.154100
C81	C8	0.936000	0.577800	0.311200
N11	N1	0.037500	0.578600	0.268400
H21	H2	0.033700	0.590500	0.297900
H31	H3	0.066900	0.575500	0.256100
N21	N2	0.059000	0.544200	0.182700
H41	H4	0.068800	0.531800	0.154800
H51	H5	0.080500	0.552200	0.205000
N31	N3	0.861400	0.561100	0.234300
H61	H6	0.839700	0.554800	0.211700
H71	H7	0.852000	0.569600	0.263700
O51	O5	0.446900	0.001100	0.583400
O61	O6	0.521600	0.030200	0.589700
O71	O7	0.471500	0.083400	0.840900
O81	O8	0.392300	0.080200	0.825700
C91	C9	0.480700	0.023200	0.608400
C101	C10	0.469000	0.040300	0.659500
C111	C11	0.507600	0.051400	0.691700
C121	C12	0.497100	0.064800	0.741400
C131	C13	0.447800	0.068000	0.757200
C141	C14	0.409800	0.057600	0.723900
C151	C15	0.421400	0.043900	0.676100
H81	H8	0.395600	0.036700	0.654100
C161	C16	0.436000	0.077800	0.811200
N41	N4	0.537500	0.078600	0.768400
H91	H9	0.533700	0.090500	0.797900
H101	H10	0.566900	0.075500	0.756100
N51	N5	0.559000	0.044200	0.682700
H111	H11	0.568800	0.031800	0.654800
H121	H12	0.580500	0.052200	0.705000
N61	N6	0.361400	0.061100	0.734300
H131	H13	0.339700	0.054800	0.711700
H141	H14	0.352000	0.069600	0.763700
O91	O9	0.553100	0.498900	0.583400
O101	O10	0.478400	0.469800	0.589700
O111	O11	0.528500	0.416600	0.840900
O121	O12	0.607700	0.419800	0.825700
C171	C17	0.519300	0.476800	0.608400
C181	C18	0.531000	0.459700	0.659500
C191	C19	0.492400	0.448600	0.691700
C201	C20	0.502900	0.435200	0.741400
C211	C21	0.552200	0.432000	0.757200
C221	C22	0.590200	0.442400	0.723900
C231	C23	0.578600	0.456100	0.676100
H151	H15	0.604400	0.463300	0.654100
C241	C24	0.564000	0.422200	0.811200
N71	N7	0.462500	0.421400	0.768400
H161	H16	0.466300	0.409500	0.797900
H171	H17	0.433100	0.424500	0.756100
N81	N8	0.441000	0.455800	0.682700
H181	H18	0.431200	0.468200	0.654800
H191	H19	0.419500	0.447800	0.705000
N91	N9	0.638600	0.438900	0.734300
H201	H20	0.660300	0.445200	0.711700
H211	H21	0.648000	0.430400	0.763700
O131	O13	0.053100	0.998900	0.083400
O141	O14	0.978400	0.969800	0.089700
O151	O15	0.028500	0.916600	0.340900
O161	O16	0.107700	0.919800	0.325700
C251	C25	0.019300	0.976800	0.108400
C261	C26	0.031000	0.959700	0.159500
C271	C27	0.992400	0.948600	0.191700
C281	C28	0.002900	0.935200	0.241400
C291	C29	0.052200	0.932000	0.257200
C301	C30	0.090200	0.942400	0.223900
C311	C31	0.078600	0.956100	0.176100
H221	H22	0.104400	0.963300	0.154100
C321	C32	0.064000	0.922200	0.311200
N101	N10	0.962500	0.921400	0.268400
H231	H23	0.966300	0.909500	0.297900
H241	H24	0.933100	0.924500	0.256100
N111	N11	0.941000	0.955800	0.182700
H251	H25	0.931200	0.968200	0.154800
H261	H26	0.919500	0.947800	0.205000
N121	N12	0.138600	0.938900	0.234300
H271	H27	0.160300	0.945200	0.211700
H281	H28	0.148000	0.930400	0.263700
O171	O17	0.053100	0.001100	0.416600
O181	O18	0.978400	0.030200	0.410300
O191	O19	0.028500	0.083400	0.159100
O201	O20	0.107700	0.080200	0.174300
C331	C33	0.019300	0.023200	0.391600
C341	C34	0.031000	0.040300	0.340500
C351	C35	0.992400	0.051400	0.308300
C361	C36	0.002900	0.064800	0.258600
C371	C37	0.052200	0.068000	0.242800
C381	C38	0.090200	0.057600	0.276100
C391	C39	0.078600	0.043900	0.323900
H291	H29	0.104400	0.036700	0.345900
C401	C40	0.064000	0.077800	0.188800
N131	N13	0.962500	0.078600	0.231600
H301	H30	0.966300	0.090500	0.202100
H311	H31	0.933100	0.075500	0.243900
N141	N14	0.941000	0.044200	0.317300
H321	H32	0.931200	0.031800	0.345200
H331	H33	0.919500	0.052200	0.295000
N151	N15	0.138600	0.061100	0.265700
H341	H34	0.160300	0.054800	0.288300
H351	H35	0.148000	0.069600	0.236300
O211	O21	0.553100	0.501100	0.916600
O221	O22	0.478400	0.530200	0.910300
O231	O23	0.528500	0.583400	0.659100
O241	O24	0.607700	0.580200	0.674300
C411	C41	0.519300	0.523200	0.891600
C421	C42	0.531000	0.540300	0.840500
C431	C43	0.492400	0.551400	0.808300
C441	C44	0.502900	0.564800	0.758600
C451	C45	0.552200	0.568000	0.742800
C461	C46	0.590200	0.557600	0.776100
C471	C47	0.578600	0.543900	0.823900
H361	H36	0.604400	0.536700	0.845900
C481	C48	0.564000	0.577800	0.688800
N161	N16	0.462500	0.578600	0.731600
H371	H37	0.466300	0.590500	0.702100
H381	H38	0.433100	0.575500	0.743900
N171	N17	0.441000	0.544200	0.817300
H391	H39	0.431200	0.531800	0.845200
H401	H40	0.419500	0.552200	0.795000
N181	N18	0.638600	0.561100	0.765700
H411	H41	0.660300	0.554800	0.788300
H421	H42	0.648000	0.569600	0.736300
O251	O25	0.446900	0.998900	0.916600
O261	O26	0.521600	0.969800	0.910300
O271	O27	0.471500	0.916600	0.659100
O281	O28	0.392300	0.919800	0.674300
C491	C49	0.480700	0.976800	0.891600
C501	C50	0.469000	0.959700	0.840500
C511	C51	0.507600	0.948600	0.808300
C521	C52	0.497100	0.935200	0.758600
C531	C53	0.447800	0.932000	0.742800
C541	C54	0.409800	0.942400	0.776100
C551	C55	0.421400	0.956100	0.823900
H431	H43	0.395600	0.963300	0.845900
C561	C56	0.436000	0.922200	0.688800
N191	N19	0.537500	0.921400	0.731600
H441	H44	0.533700	0.909500	0.702100
H451	H45	0.566900	0.924500	0.743900
N201	N20	0.559000	0.955800	0.817300
H461	H46	0.568800	0.968200	0.845200
H471	H47	0.580500	0.947800	0.795000
N211	N21	0.361400	0.938900	0.765700
H481	H48	0.339700	0.945200	0.788300
H491	H49	0.352000	0.930400	0.736300
O291	O29	0.946900	0.498900	0.416600
O301	O30	0.021600	0.469800	0.410300
O311	O31	0.971500	0.416600	0.159100
O321	O32	0.892300	0.419800	0.174300
C571	C57	0.980700	0.476800	0.391600
C581	C58	0.969000	0.459700	0.340500
C591	C59	0.007600	0.448600	0.308300
C601	C60	0.997100	0.435200	0.258600
C611	C61	0.947800	0.432000	0.242800
C621	C62	0.909800	0.442400	0.276100
C631	C63	0.921400	0.456100	0.323900
H501	H50	0.895600	0.463300	0.345900
C641	C64	0.936000	0.422200	0.188800
N221	N22	0.037500	0.421400	0.231600
H511	H51	0.033700	0.409500	0.202100
H521	H52	0.066900	0.424500	0.243900
N231	N23	0.059000	0.455800	0.317300
H531	H53	0.068800	0.468200	0.345200
H541	H54	0.080500	0.447800	0.295000
N241	N24	0.861400	0.438900	0.265700
H551	H55	0.839700	0.445200	0.288300
H561	H56	0.852000	0.430400	0.236300
O331	O33	0.083400	0.946900	0.501100
O341	O34	0.089700	0.021600	0.530200
O351	O35	0.340900	0.971500	0.583400
O361	O36	0.325700	0.892300	0.580200
C651	C65	0.108400	0.980700	0.523200
C661	C66	0.159500	0.969000	0.540300
C671	C67	0.191700	0.007600	0.551400
C681	C68	0.241400	0.997100	0.564800
C691	C69	0.257200	0.947800	0.568000
C701	C70	0.223900	0.909800	0.557600
C711	C71	0.176100	0.921400	0.543900
H571	H57	0.154100	0.895600	0.536700
C721	C72	0.311200	0.936000	0.577800
N251	N25	0.268400	0.037500	0.578600
H581	H58	0.297900	0.033700	0.590500
H591	H59	0.256100	0.066900	0.575500
N261	N26	0.182700	0.059000	0.544200
H601	H60	0.154800	0.068800	0.531800
H611	H61	0.205000	0.080500	0.552200
N271	N27	0.234300	0.861400	0.561100
H621	H62	0.211700	0.839700	0.554800
H631	H63	0.263700	0.852000	0.569600
O371	O37	0.583400	0.446900	0.001100
O381	O38	0.589700	0.521600	0.030200
O391	O39	0.840900	0.471500	0.083400
O401	O40	0.825700	0.392300	0.080200
C731	C73	0.608400	0.480700	0.023200
C741	C74	0.659500	0.469000	0.040300
C751	C75	0.691700	0.507600	0.051400
C761	C76	0.741400	0.497100	0.064800
C771	C77	0.757200	0.447800	0.068000
C781	C78	0.723900	0.409800	0.057600
C791	C79	0.676100	0.421400	0.043900
H641	H64	0.654100	0.395600	0.036700
C801	C80	0.811200	0.436000	0.077800
N281	N28	0.768400	0.537500	0.078600
H651	H65	0.797900	0.533700	0.090500
H661	H66	0.756100	0.566900	0.075500
N291	N29	0.682700	0.559000	0.044200
H671	H67	0.654800	0.568800	0.031800
H681	H68	0.705000	0.580500	0.052200
N301	N30	0.734300	0.361400	0.061100
H691	H69	0.711700	0.339700	0.054800
H701	H70	0.763700	0.352000	0.069600
O411	O41	0.583400	0.553100	0.498900
O421	O42	0.589700	0.478400	0.469800
O431	O43	0.840900	0.528500	0.416600
O441	O44	0.825700	0.607700	0.419800
C811	C81	0.608400	0.519300	0.476800
C821	C82	0.659500	0.531000	0.459700
C831	C83	0.691700	0.492400	0.448600
C841	C84	0.741400	0.502900	0.435200
C851	C85	0.757200	0.552200	0.432000
C861	C86	0.723900	0.590200	0.442400
C871	C87	0.676100	0.578600	0.456100
H711	H71	0.654100	0.604400	0.463300
C881	C88	0.811200	0.564000	0.422200
N311	N31	0.768400	0.462500	0.421400
H721	H72	0.797900	0.466300	0.409500
H731	H73	0.756100	0.433100	0.424500
N321	N32	0.682700	0.441000	0.455800
H741	H74	0.654800	0.431200	0.468200
H751	H75	0.705000	0.419500	0.447800
N331	N33	0.734300	0.638600	0.438900
H761	H76	0.711700	0.660300	0.445200
H771	H77	0.763700	0.648000	0.430400
O451	O45	0.083400	0.053100	0.998900
O461	O46	0.089700	0.978400	0.969800
O471	O47	0.340900	0.028500	0.916600
O481	O48	0.325700	0.107700	0.919800
C891	C89	0.108400	0.019300	0.976800
C901	C90	0.159500	0.031000	0.959700
C911	C91	0.191700	0.992400	0.948600
C921	C92	0.241400	0.002900	0.935200
C931	C93	0.257200	0.052200	0.932000
C941	C94	0.223900	0.090200	0.942400
C951	C95	0.176100	0.078600	0.956100
H781	H78	0.154100	0.104400	0.963300
C961	C96	0.311200	0.064000	0.922200
N341	N34	0.268400	0.962500	0.921400
H791	H79	0.297900	0.966300	0.909500
H801	H80	0.256100	0.933100	0.924500
N351	N35	0.182700	0.941000	0.955800
H811	H81	0.154800	0.931200	0.968200
H821	H82	0.205000	0.919500	0.947800
N361	N36	0.234300	0.138600	0.938900
H831	H83	0.211700	0.160300	0.945200
H841	H84	0.263700	0.148000	0.930400
O491	O49	0.416600	0.053100	0.001100
O501	O50	0.410300	0.978400	0.030200
O511	O51	0.159100	0.028500	0.083400
O521	O52	0.174300	0.107700	0.080200
C971	C97	0.391600	0.019300	0.023200
C981	C98	0.340500	0.031000	0.040300
C991	C99	0.308300	0.992400	0.051400
C1001	C100	0.258600	0.002900	0.064800
C1011	C101	0.242800	0.052200	0.068000
C1021	C102	0.276100	0.090200	0.057600
C1031	C103	0.323900	0.078600	0.043900
H851	H85	0.345900	0.104400	0.036700
C1041	C104	0.188800	0.064000	0.077800
N371	N37	0.231600	0.962500	0.078600
H861	H86	0.202100	0.966300	0.090500
H871	H87	0.243900	0.933100	0.075500
N381	N38	0.317300	0.941000	0.044200
H881	H88	0.345200	0.931200	0.031800
H891	H89	0.295000	0.919500	0.052200
N391	N39	0.265700	0.138600	0.061100
H901	H90	0.288300	0.160300	0.054800
H911	H91	0.236300	0.148000	0.069600
O531	O53	0.916600	0.553100	0.501100
O541	O54	0.910300	0.478400	0.530200
O551	O55	0.659100	0.528500	0.583400
O561	O56	0.674300	0.607700	0.580200
C1051	C105	0.891600	0.519300	0.523200
C1061	C106	0.840500	0.531000	0.540300
C1071	C107	0.808300	0.492400	0.551400
C1081	C108	0.758600	0.502900	0.564800
C1091	C109	0.742800	0.552200	0.568000
C1101	C110	0.776100	0.590200	0.557600
C1111	C111	0.823900	0.578600	0.543900
H921	H92	0.845900	0.604400	0.536700
C1121	C112	0.688800	0.564000	0.577800
N401	N40	0.731600	0.462500	0.578600
H931	H93	0.702100	0.466300	0.590500
H941	H94	0.743900	0.433100	0.575500
N411	N41	0.817300	0.441000	0.544200
H951	H95	0.845200	0.431200	0.531800
H961	H96	0.795000	0.419500	0.552200
N421	N42	0.765700	0.638600	0.561100
H971	H97	0.788300	0.660300	0.554800
H981	H98	0.736300	0.648000	0.569600
O571	O57	0.916600	0.446900	0.998900
O581	O58	0.910300	0.521600	0.969800
O591	O59	0.659100	0.471500	0.916600
O601	O60	0.674300	0.392300	0.919800
C1131	C113	0.891600	0.480700	0.976800
C1141	C114	0.840500	0.469000	0.959700
C1151	C115	0.808300	0.507600	0.948600
C1161	C116	0.758600	0.497100	0.935200
C1171	C117	0.742800	0.447800	0.932000
C1181	C118	0.776100	0.409800	0.942400
C1191	C119	0.823900	0.421400	0.956100
H991	H99	0.845900	0.395600	0.963300
C1201	C120	0.688800	0.436000	0.922200
N431	N43	0.731600	0.537500	0.921400
H1001	H100	0.702100	0.533700	0.909500
H1011	H101	0.743900	0.566900	0.924500
N441	N44	0.817300	0.559000	0.955800
H1021	H102	0.845200	0.568800	0.968200
H1031	H103	0.795000	0.580500	0.947800
N451	N45	0.765700	0.361400	0.938900
H1041	H104	0.788300	0.339700	0.945200
H1051	H105	0.736300	0.352000	0.930400
O611	O61	0.416600	0.946900	0.498900
O621	O62	0.410300	0.021600	0.469800
O631	O63	0.159100	0.971500	0.416600
O641	O64	0.174300	0.892300	0.419800
C1211	C121	0.391600	0.980700	0.476800
C1221	C122	0.340500	0.969000	0.459700
C1231	C123	0.308300	0.007600	0.448600
C1241	C124	0.258600	0.997100	0.435200
C1251	C125	0.242800	0.947800	0.432000
C1261	C126	0.276100	0.909800	0.442400
C1271	C127	0.323900	0.921400	0.456100
H1061	H106	0.345900	0.895600	0.463300
C1281	C128	0.188800	0.936000	0.422200
N461	N46	0.231600	0.037500	0.421400
H1071	H107	0.202100	0.033700	0.409500
H1081	H108	0.243900	0.066900	0.424500
N471	N47	0.317300	0.059000	0.455800
H1091	H109	0.345200	0.068800	0.468200
H1101	H110	0.295000	0.080500	0.447800
N481	N48	0.265700	0.861400	0.438900
H1111	H111	0.288300	0.839700	0.445200
H1121	H112	0.236300	0.852000	0.430400
O651	O65	0.501100	0.083400	0.946900
O661	O66	0.530200	0.089700	0.021600
O671	O67	0.583400	0.340900	0.971500
O681	O68	0.580200	0.325700	0.892300
C1291	C129	0.523200	0.108400	0.980700
C1301	C130	0.540300	0.159500	0.969000
C1311	C131	0.551400	0.191700	0.007600
C1321	C132	0.564800	0.241400	0.997100
C1331	C133	0.568000	0.257200	0.947800
C1341	C134	0.557600	0.223900	0.909800
C1351	C135	0.543900	0.176100	0.921400
H1131	H113	0.536700	0.154100	0.895600
C1361	C136	0.577800	0.311200	0.936000
N491	N49	0.578600	0.268400	0.037500
H1141	H114	0.590500	0.297900	0.033700
H1151	H115	0.575500	0.256100	0.066900
N501	N50	0.544200	0.182700	0.059000
H1161	H116	0.531800	0.154800	0.068800
H1171	H117	0.552200	0.205000	0.080500
N511	N51	0.561100	0.234300	0.861400
H1181	H118	0.554800	0.211700	0.839700
H1191	H119	0.569600	0.263700	0.852000
O691	O69	0.001100	0.583400	0.446900
O701	O70	0.030200	0.589700	0.521600
O711	O71	0.083400	0.840900	0.471500
O721	O72	0.080200	0.825700	0.392300
C1371	C137	0.023200	0.608400	0.480700
C1381	C138	0.040300	0.659500	0.469000
C1391	C139	0.051400	0.691700	0.507600
C1401	C140	0.064800	0.741400	0.497100
C1411	C141	0.068000	0.757200	0.447800
C1421	C142	0.057600	0.723900	0.409800
C1431	C143	0.043900	0.676100	0.421400
H1201	H120	0.036700	0.654100	0.395600
C1441	C144	0.077800	0.811200	0.436000
N521	N52	0.078600	0.768400	0.537500
H1211	H121	0.090500	0.797900	0.533700
H1221	H122	0.075500	0.756100	0.566900
N531	N53	0.044200	0.682700	0.559000
H1231	H123	0.031800	0.654800	0.568800
H1241	H124	0.052200	0.705000	0.580500
N541	N54	0.061100	0.734300	0.361400
H1251	H125	0.054800	0.711700	0.339700
H1261	H126	0.069600	0.763700	0.352000
O731	O73	0.498900	0.583400	0.553100
O741	O74	0.469800	0.589700	0.478400
O751	O75	0.416600	0.840900	0.528500
O761	O76	0.419800	0.825700	0.607700
C1451	C145	0.476800	0.608400	0.519300
C1461	C146	0.459700	0.659500	0.531000
C1471	C147	0.448600	0.691700	0.492400
C1481	C148	0.435200	0.741400	0.502900
C1491	C149	0.432000	0.757200	0.552200
C1501	C150	0.442400	0.723900	0.590200
C1511	C151	0.456100	0.676100	0.578600
H1271	H127	0.463300	0.654100	0.604400
C1521	C152	0.422200	0.811200	0.564000
N551	N55	0.421400	0.768400	0.462500
H1281	H128	0.409500	0.797900	0.466300
H1291	H129	0.424500	0.756100	0.433100
N561	N56	0.455800	0.682700	0.441000
H1301	H130	0.468200	0.654800	0.431200
H1311	H131	0.447800	0.705000	0.419500
N571	N57	0.438900	0.734300	0.638600
H1321	H132	0.445200	0.711700	0.660300
H1331	H133	0.430400	0.763700	0.648000
O771	O77	0.998900	0.083400	0.053100
O781	O78	0.969800	0.089700	0.978400
O791	O79	0.916600	0.340900	0.028500
O801	O80	0.919800	0.325700	0.107700
C1531	C153	0.976800	0.108400	0.019300
C1541	C154	0.959700	0.159500	0.031000
C1551	C155	0.948600	0.191700	0.992400
C1561	C156	0.935200	0.241400	0.002900
C1571	C157	0.932000	0.257200	0.052200
C1581	C158	0.942400	0.223900	0.090200
C1591	C159	0.956100	0.176100	0.078600
H1341	H134	0.963300	0.154100	0.104400
C1601	C160	0.922200	0.311200	0.064000
N581	N58	0.921400	0.268400	0.962500
H1351	H135	0.909500	0.297900	0.966300
H1361	H136	0.924500	0.256100	0.933100
N591	N59	0.955800	0.182700	0.941000
H1371	H137	0.968200	0.154800	0.931200
H1381	H138	0.947800	0.205000	0.919500
N601	N60	0.938900	0.234300	0.138600
H1391	H139	0.945200	0.211700	0.160300
H1401	H140	0.930400	0.263700	0.148000
O811	O81	0.001100	0.416600	0.053100
O821	O82	0.030200	0.410300	0.978400
O831	O83	0.083400	0.159100	0.028500
O841	O84	0.080200	0.174300	0.107700
C1611	C161	0.023200	0.391600	0.019300
C1621	C162	0.040300	0.340500	0.031000
C1631	C163	0.051400	0.308300	0.992400
C1641	C164	0.064800	0.258600	0.002900
C1651	C165	0.068000	0.242800	0.052200
C1661	C166	0.057600	0.276100	0.090200
C1671	C167	0.043900	0.323900	0.078600
H1411	H141	0.036700	0.345900	0.104400
C1681	C168	0.077800	0.188800	0.064000
N611	N61	0.078600	0.231600	0.962500
H1421	H142	0.090500	0.202100	0.966300
H1431	H143	0.075500	0.243900	0.933100
N621	N62	0.044200	0.317300	0.941000
H1441	H144	0.031800	0.345200	0.931200
H1451	H145	0.052200	0.295000	0.919500
N631	N63	0.061100	0.265700	0.138600
H1461	H146	0.054800	0.288300	0.160300
H1471	H147	0.069600	0.236300	0.148000
O851	O85	0.501100	0.916600	0.553100
O861	O86	0.530200	0.910300	0.478400
O871	O87	0.583400	0.659100	0.528500
O881	O88	0.580200	0.674300	0.607700
C1691	C169	0.523200	0.891600	0.519300
C1701	C170	0.540300	0.840500	0.531000
C1711	C171	0.551400	0.808300	0.492400
C1721	C172	0.564800	0.758600	0.502900
C1731	C173	0.568000	0.742800	0.552200
C1741	C174	0.557600	0.776100	0.590200
C1751	C175	0.543900	0.823900	0.578600
H1481	H148	0.536700	0.845900	0.604400
C1761	C176	0.577800	0.688800	0.564000
N641	N64	0.578600	0.731600	0.462500
H1491	H149	0.590500	0.702100	0.466300
H1501	H150	0.575500	0.743900	0.433100
N651	N65	0.544200	0.817300	0.441000
H1511	H151	0.531800	0.845200	0.431200
H1521	H152	0.552200	0.795000	0.419500
N661	N66	0.561100	0.765700	0.638600
H1531	H153	0.554800	0.788300	0.660300
H1541	H154	0.569600	0.736300	0.648000
O891	O89	0.998900	0.916600	0.446900
O901	O90	0.969800	0.910300	0.521600
O911	O91	0.916600	0.659100	0.471500
O921	O92	0.919800	0.674300	0.392300
C1771	C177	0.976800	0.891600	0.480700
C1781	C178	0.959700	0.840500	0.469000
C1791	C179	0.948600	0.808300	0.507600
C1801	C180	0.935200	0.758600	0.497100
C1811	C181	0.932000	0.742800	0.447800
C1821	C182	0.942400	0.776100	0.409800
C1831	C183	0.956100	0.823900	0.421400
H1551	H155	0.963300	0.845900	0.395600
C1841	C184	0.922200	0.688800	0.436000
N671	N67	0.921400	0.731600	0.537500
H1561	H156	0.909500	0.702100	0.533700
H1571	H157	0.924500	0.743900	0.566900
N681	N68	0.955800	0.817300	0.559000
H1581	H158	0.968200	0.845200	0.568800
H1591	H159	0.947800	0.795000	0.580500
N691	N69	0.938900	0.765700	0.361400
H1601	H160	0.945200	0.788300	0.339700
H1611	H161	0.930400	0.736300	0.352000
O931	O93	0.498900	0.416600	0.946900
O941	O94	0.469800	0.410300	0.021600
O951	O95	0.416600	0.159100	0.971500
O961	O96	0.419800	0.174300	0.892300
C1851	C185	0.476800	0.391600	0.980700
C1861	C186	0.459700	0.340500	0.969000
C1871	C187	0.448600	0.308300	0.007600
C1881	C188	0.435200	0.258600	0.997100
C1891	C189	0.432000	0.242800	0.947800
C1901	C190	0.442400	0.276100	0.909800
C1911	C191	0.456100	0.323900	0.921400
H1621	H162	0.463300	0.345900	0.895600
C1921	C192	0.422200	0.188800	0.936000
N701	N70	0.421400	0.231600	0.037500
H1631	H163	0.409500	0.202100	0.033700
H1641	H164	0.424500	0.243900	0.066900
N711	N71	0.455800	0.317300	0.059000
H1651	H165	0.468200	0.345200	0.068800
H1661	H166	0.447800	0.295000	0.080500
N721	N72	0.438900	0.265700	0.861400
H1671	H167	0.445200	0.288300	0.839700
H1681	H168	0.430400	0.236300	0.852000
O971	O97	0.053100	0.498900	0.916600
O981	O98	0.978400	0.469800	0.910300
O991	O99	0.028500	0.416600	0.659100
O1001	O100	0.107700	0.419800	0.674300
C1931	C193	0.019300	0.476800	0.891600
C1941	C194	0.031000	0.459700	0.840500
C1951	C195	0.992400	0.448600	0.808300
C1961	C196	0.002900	0.435200	0.758600
C1971	C197	0.052200	0.432000	0.742800
C1981	C198	0.090200	0.442400	0.776100
C1991	C199	0.078600	0.456100	0.823900
H1691	H169	0.104400	0.463300	0.845900
C2001	C200	0.064000	0.422200	0.688800
N731	N73	0.962500	0.421400	0.731600
H1701	H170	0.966300	0.409500	0.702100
H1711	H171	0.933100	0.424500	0.743900
N741	N74	0.941000	0.455800	0.817300
H1721	H172	0.931200	0.468200	0.845200
H1731	H173	0.919500	0.447800	0.795000
N751	N75	0.138600	0.438900	0.765700
H1741	H174	0.160300	0.445200	0.788300
H1751	H175	0.148000	0.430400	0.736300
O1011	O101	0.553100	0.998900	0.416600
O1021	O102	0.478400	0.969800	0.410300
O1031	O103	0.528500	0.916600	0.159100
O1041	O104	0.607700	0.919800	0.174300
C2011	C201	0.519300	0.976800	0.391600
C2021	C202	0.531000	0.959700	0.340500
C2031	C203	0.492400	0.948600	0.308300
C2041	C204	0.502900	0.935200	0.258600
C2051	C205	0.552200	0.932000	0.242800
C2061	C206	0.590200	0.942400	0.276100
C2071	C207	0.578600	0.956100	0.323900
H1761	H176	0.604400	0.963300	0.345900
C2081	C208	0.564000	0.922200	0.188800
N761	N76	0.462500	0.921400	0.231600
H1771	H177	0.466300	0.909500	0.202100
H1781	H178	0.433100	0.924500	0.243900
N771	N77	0.441000	0.955800	0.317300
H1791	H179	0.431200	0.968200	0.345200
H1801	H180	0.419500	0.947800	0.295000
N781	N78	0.638600	0.938900	0.265700
H1811	H181	0.660300	0.945200	0.288300
H1821	H182	0.648000	0.930400	0.236300
O1051	O105	0.446900	0.501100	0.416600
O1061	O106	0.521600	0.530200	0.410300
O1071	O107	0.471500	0.583400	0.159100
O1081	O108	0.392300	0.580200	0.174300
C2091	C209	0.480700	0.523200	0.391600
C2101	C210	0.469000	0.540300	0.340500
C2111	C211	0.507600	0.551400	0.308300
C2121	C212	0.497100	0.564800	0.258600
C2131	C213	0.447800	0.568000	0.242800
C2141	C214	0.409800	0.557600	0.276100
C2151	C215	0.421400	0.543900	0.323900
H1831	H183	0.395600	0.536700	0.345900
C2161	C216	0.436000	0.577800	0.188800
N791	N79	0.537500	0.578600	0.231600
H1841	H184	0.533700	0.590500	0.202100
H1851	H185	0.566900	0.575500	0.243900
N801	N80	0.559000	0.544200	0.317300
H1861	H186	0.568800	0.531800	0.345200
H1871	H187	0.580500	0.552200	0.295000
N811	N81	0.361400	0.561100	0.265700
H1881	H188	0.339700	0.554800	0.288300
H1891	H189	0.352000	0.569600	0.236300
O1091	O109	0.946900	0.001100	0.916600
O1101	O110	0.021600	0.030200	0.910300
O1111	O111	0.971500	0.083400	0.659100
O1121	O112	0.892300	0.080200	0.674300
C2171	C217	0.980700	0.023200	0.891600
C2181	C218	0.969000	0.040300	0.840500
C2191	C219	0.007600	0.051400	0.808300
C2201	C220	0.997100	0.064800	0.758600
C2211	C221	0.947800	0.068000	0.742800
C2221	C222	0.909800	0.057600	0.776100
C2231	C223	0.921400	0.043900	0.823900
H1901	H190	0.895600	0.036700	0.845900
C2241	C224	0.936000	0.077800	0.688800
N821	N82	0.037500	0.078600	0.731600
H1911	H191	0.033700	0.090500	0.702100
H1921	H192	0.066900	0.075500	0.743900
N831	N83	0.059000	0.044200	0.817300
H1931	H193	0.068800	0.031800	0.845200
H1941	H194	0.080500	0.052200	0.795000
N841	N84	0.861400	0.061100	0.765700
H1951	H195	0.839700	0.054800	0.788300
H1961	H196	0.852000	0.069600	0.736300
O1131	O113	0.946900	0.998900	0.583400
O1141	O114	0.021600	0.969800	0.589700
O1151	O115	0.971500	0.916600	0.840900
O1161	O116	0.892300	0.919800	0.825700
C2251	C225	0.980700	0.976800	0.608400
C2261	C226	0.969000	0.959700	0.659500
C2271	C227	0.007600	0.948600	0.691700
C2281	C228	0.997100	0.935200	0.741400
C2291	C229	0.947800	0.932000	0.757200
C2301	C230	0.909800	0.942400	0.723900
C2311	C231	0.921400	0.956100	0.676100
H1971	H197	0.895600	0.963300	0.654100
C2321	C232	0.936000	0.922200	0.811200
N851	N85	0.037500	0.921400	0.768400
H1981	H198	0.033700	0.909500	0.797900
H1991	H199	0.066900	0.924500	0.756100
N861	N86	0.059000	0.955800	0.682700
H2001	H200	0.068800	0.968200	0.654800
H2011	H201	0.080500	0.947800	0.705000
N871	N87	0.861400	0.938900	0.734300
H2021	H202	0.839700	0.945200	0.711700
H2031	H203	0.852000	0.930400	0.763700
O1171	O117	0.446900	0.498900	0.083400
O1181	O118	0.521600	0.469800	0.089700
O1191	O119	0.471500	0.416600	0.340900
O1201	O120	0.392300	0.419800	0.325700
C2331	C233	0.480700	0.476800	0.108400
C2341	C234	0.469000	0.459700	0.159500
C2351	C235	0.507600	0.448600	0.191700
C2361	C236	0.497100	0.435200	0.241400
C2371	C237	0.447800	0.432000	0.257200
C2381	C238	0.409800	0.442400	0.223900
C2391	C239	0.421400	0.456100	0.176100
H2041	H204	0.395600	0.463300	0.154100
C2401	C240	0.436000	0.422200	0.311200
N881	N88	0.537500	0.421400	0.268400
H2051	H205	0.533700	0.409500	0.297900
H2061	H206	0.566900	0.424500	0.256100
N891	N89	0.559000	0.455800	0.182700
H2071	H207	0.568800	0.468200	0.154800
H2081	H208	0.580500	0.447800	0.205000
N901	N90	0.361400	0.438900	0.234300
H2091	H209	0.339700	0.445200	0.211700
H2101	H210	0.352000	0.430400	0.263700
O1211	O121	0.553100	0.001100	0.083400
O1221	O122	0.478400	0.030200	0.089700
O1231	O123	0.528500	0.083400	0.340900
O1241	O124	0.607700	0.080200	0.325700
C2411	C241	0.519300	0.023200	0.108400
C2421	C242	0.531000	0.040300	0.159500
C2431	C243	0.492400	0.051400	0.191700
C2441	C244	0.502900	0.064800	0.241400
C2451	C245	0.552200	0.068000	0.257200
C2461	C246	0.590200	0.057600	0.223900
C2471	C247	0.578600	0.043900	0.176100
H2111	H211	0.604400	0.036700	0.154100
C2481	C248	0.564000	0.077800	0.311200
N911	N91	0.462500	0.078600	0.268400
H2121	H212	0.466300	0.090500	0.297900
H2131	H213	0.433100	0.075500	0.256100
N921	N92	0.441000	0.044200	0.182700
H2141	H214	0.431200	0.031800	0.154800
H2151	H215	0.419500	0.052200	0.205000
N931	N93	0.638600	0.061100	0.234300
H2161	H216	0.660300	0.054800	0.211700
H2171	H217	0.648000	0.069600	0.263700
O1251	O125	0.053100	0.501100	0.583400
O1261	O126	0.978400	0.530200	0.589700
O1271	O127	0.028500	0.583400	0.840900
O1281	O128	0.107700	0.580200	0.825700
C2491	C249	0.019300	0.523200	0.608400
C2501	C250	0.031000	0.540300	0.659500
C2511	C251	0.992400	0.551400	0.691700
C2521	C252	0.002900	0.564800	0.741400
C2531	C253	0.052200	0.568000	0.757200
C2541	C254	0.090200	0.557600	0.723900
C2551	C255	0.078600	0.543900	0.676100
H2181	H218	0.104400	0.536700	0.654100
C2561	C256	0.064000	0.577800	0.811200
N941	N94	0.962500	0.578600	0.768400
H2191	H219	0.966300	0.590500	0.797900
H2201	H220	0.933100	0.575500	0.756100
N951	N95	0.941000	0.544200	0.682700
H2211	H221	0.931200	0.531800	0.654800
H2221	H222	0.919500	0.552200	0.705000
N961	N96	0.138600	0.561100	0.734300
H2231	H223	0.160300	0.554800	0.711700
H2241	H224	0.148000	0.569600	0.763700
O1291	O129	0.916600	0.053100	0.498900
O1301	O130	0.910300	0.978400	0.469800
O1311	O131	0.659100	0.028500	0.416600
O1321	O132	0.674300	0.107700	0.419800
C2571	C257	0.891600	0.019300	0.476800
C2581	C258	0.840500	0.031000	0.459700
C2591	C259	0.808300	0.992400	0.448600
C2601	C260	0.758600	0.002900	0.435200
C2611	C261	0.742800	0.052200	0.432000
C2621	C262	0.776100	0.090200	0.442400
C2631	C263	0.823900	0.078600	0.456100
H2251	H225	0.845900	0.104400	0.463300
C2641	C264	0.688800	0.064000	0.422200
N971	N97	0.731600	0.962500	0.421400
H2261	H226	0.702100	0.966300	0.409500
H2271	H227	0.743900	0.933100	0.424500
N981	N98	0.817300	0.941000	0.455800
H2281	H228	0.845200	0.931200	0.468200
H2291	H229	0.795000	0.919500	0.447800
N991	N99	0.765700	0.138600	0.438900
H2301	H230	0.788300	0.160300	0.445200
H2311	H231	0.736300	0.148000	0.430400
O1331	O133	0.416600	0.553100	0.998900
O1341	O134	0.410300	0.478400	0.969800
O1351	O135	0.159100	0.528500	0.916600
O1361	O136	0.174300	0.607700	0.919800
C2651	C265	0.391600	0.519300	0.976800
C2661	C266	0.340500	0.531000	0.959700
C2671	C267	0.308300	0.492400	0.948600
C2681	C268	0.258600	0.502900	0.935200
C2691	C269	0.242800	0.552200	0.932000
C2701	C270	0.276100	0.590200	0.942400
C2711	C271	0.323900	0.578600	0.956100
H2321	H232	0.345900	0.604400	0.963300
C2721	C272	0.188800	0.564000	0.922200
N1001	N100	0.231600	0.462500	0.921400
H2331	H233	0.202100	0.466300	0.909500
H2341	H234	0.243900	0.433100	0.924500
N1011	N101	0.317300	0.441000	0.955800
H2351	H235	0.345200	0.431200	0.968200
H2361	H236	0.295000	0.419500	0.947800
N1021	N102	0.265700	0.638600	0.938900
H2371	H237	0.288300	0.660300	0.945200
H2381	H238	0.236300	0.648000	0.930400
O1371	O137	0.416600	0.446900	0.501100
O1381	O138	0.410300	0.521600	0.530200
O1391	O139	0.159100	0.471500	0.583400
O1401	O140	0.174300	0.392300	0.580200
C2731	C273	0.391600	0.480700	0.523200
C2741	C274	0.340500	0.469000	0.540300
C2751	C275	0.308300	0.507600	0.551400
C2761	C276	0.258600	0.497100	0.564800
C2771	C277	0.242800	0.447800	0.568000
C2781	C278	0.276100	0.409800	0.557600
C2791	C279	0.323900	0.421400	0.543900
H2391	H239	0.345900	0.395600	0.536700
C2801	C280	0.188800	0.436000	0.577800
N1031	N103	0.231600	0.537500	0.578600
H2401	H240	0.202100	0.533700	0.590500
H2411	H241	0.243900	0.566900	0.575500
N1041	N104	0.317300	0.559000	0.544200
H2421	H242	0.345200	0.568800	0.531800
H2431	H243	0.295000	0.580500	0.552200
N1051	N105	0.265700	0.361400	0.561100
H2441	H244	0.288300	0.339700	0.554800
H2451	H245	0.236300	0.352000	0.569600
O1411	O141	0.916600	0.946900	0.001100
O1421	O142	0.910300	0.021600	0.030200
O1431	O143	0.659100	0.971500	0.083400
O1441	O144	0.674300	0.892300	0.080200
C2811	C281	0.891600	0.980700	0.023200
C2821	C282	0.840500	0.969000	0.040300
C2831	C283	0.808300	0.007600	0.051400
C2841	C284	0.758600	0.997100	0.064800
C2851	C285	0.742800	0.947800	0.068000
C2861	C286	0.776100	0.909800	0.057600
C2871	C287	0.823900	0.921400	0.043900
H2461	H246	0.845900	0.895600	0.036700
C2881	C288	0.688800	0.936000	0.077800
N1061	N106	0.731600	0.037500	0.078600
H2471	H247	0.702100	0.033700	0.090500
H2481	H248	0.743900	0.066900	0.075500
N1071	N107	0.817300	0.059000	0.044200
H2491	H249	0.845200	0.068800	0.031800
H2501	H250	0.795000	0.080500	0.052200
N1081	N108	0.765700	0.861400	0.061100
H2511	H251	0.788300	0.839700	0.054800
H2521	H252	0.736300	0.852000	0.069600
O1451	O145	0.583400	0.946900	0.998900
O1461	O146	0.589700	0.021600	0.969800
O1471	O147	0.840900	0.971500	0.916600
O1481	O148	0.825700	0.892300	0.919800
C2891	C289	0.608400	0.980700	0.976800
C2901	C290	0.659500	0.969000	0.959700
C2911	C291	0.691700	0.007600	0.948600
C2921	C292	0.741400	0.997100	0.935200
C2931	C293	0.757200	0.947800	0.932000
C2941	C294	0.723900	0.909800	0.942400
C2951	C295	0.676100	0.921400	0.956100
H2531	H253	0.654100	0.895600	0.963300
C2961	C296	0.811200	0.936000	0.922200
N1091	N109	0.768400	0.037500	0.921400
H2541	H254	0.797900	0.033700	0.909500
H2551	H255	0.756100	0.066900	0.924500
N1101	N110	0.682700	0.059000	0.955800
H2561	H256	0.654800	0.068800	0.968200
H2571	H257	0.705000	0.080500	0.947800
N1111	N111	0.734300	0.861400	0.938900
H2581	H258	0.711700	0.839700	0.945200
H2591	H259	0.763700	0.852000	0.930400
O1491	O149	0.083400	0.446900	0.498900
O1501	O150	0.089700	0.521600	0.469800
O1511	O151	0.340900	0.471500	0.416600
O1521	O152	0.325700	0.392300	0.419800
C2971	C297	0.108400	0.480700	0.476800
C2981	C298	0.159500	0.469000	0.459700
C2991	C299	0.191700	0.507600	0.448600
C3001	C300	0.241400	0.497100	0.435200
C3011	C301	0.257200	0.447800	0.432000
C3021	C302	0.223900	0.409800	0.442400
C3031	C303	0.176100	0.421400	0.456100
H2601	H260	0.154100	0.395600	0.463300
C3041	C304	0.311200	0.436000	0.422200
N1121	N112	0.268400	0.537500	0.421400
H2611	H261	0.297900	0.533700	0.409500
H2621	H262	0.256100	0.566900	0.424500
N1131	N113	0.182700	0.559000	0.455800
H2631	H263	0.154800	0.568800	0.468200
H2641	H264	0.205000	0.580500	0.447800
N1141	N114	0.234300	0.361400	0.438900
H2651	H265	0.211700	0.339700	0.445200
H2661	H266	0.263700	0.352000	0.430400
O1531	O153	0.083400	0.553100	0.001100
O1541	O154	0.089700	0.478400	0.030200
O1551	O155	0.340900	0.528500	0.083400
O1561	O156	0.325700	0.607700	0.080200
C3051	C305	0.108400	0.519300	0.023200
C3061	C306	0.159500	0.531000	0.040300
C3071	C307	0.191700	0.492400	0.051400
C3081	C308	0.241400	0.502900	0.064800
C3091	C309	0.257200	0.552200	0.068000
C3101	C310	0.223900	0.590200	0.057600
C3111	C311	0.176100	0.578600	0.043900
H2671	H267	0.154100	0.604400	0.036700
C3121	C312	0.311200	0.564000	0.077800
N1151	N115	0.268400	0.462500	0.078600
H2681	H268	0.297900	0.466300	0.090500
H2691	H269	0.256100	0.433100	0.075500
N1161	N116	0.182700	0.441000	0.044200
H2701	H270	0.154800	0.431200	0.031800
H2711	H271	0.205000	0.419500	0.052200
N1171	N117	0.234300	0.638600	0.061100
H2721	H272	0.211700	0.660300	0.054800
H2731	H273	0.263700	0.648000	0.069600
O1571	O157	0.583400	0.053100	0.501100
O1581	O158	0.589700	0.978400	0.530200
O1591	O159	0.840900	0.028500	0.583400
O1601	O160	0.825700	0.107700	0.580200
C3131	C313	0.608400	0.019300	0.523200
C3141	C314	0.659500	0.031000	0.540300
C3151	C315	0.691700	0.992400	0.551400
C3161	C316	0.741400	0.002900	0.564800
C3171	C317	0.757200	0.052200	0.568000
C3181	C318	0.723900	0.090200	0.557600
C3191	C319	0.676100	0.078600	0.543900
H2741	H274	0.654100	0.104400	0.536700
C3201	C320	0.811200	0.064000	0.577800
N1181	N118	0.768400	0.962500	0.578600
H2751	H275	0.797900	0.966300	0.590500
H2761	H276	0.756100	0.933100	0.575500
N1191	N119	0.682700	0.941000	0.544200
H2771	H277	0.654800	0.931200	0.531800
H2781	H278	0.705000	0.919500	0.552200
N1201	N120	0.734300	0.138600	0.561100
H2791	H279	0.711700	0.160300	0.554800
H2801	H280	0.763700	0.148000	0.569600
O1611	O161	0.498900	0.916600	0.053100
O1621	O162	0.469800	0.910300	0.978400
O1631	O163	0.416600	0.659100	0.028500
O1641	O164	0.419800	0.674300	0.107700
C3211	C321	0.476800	0.891600	0.019300
C3221	C322	0.459700	0.840500	0.031000
C3231	C323	0.448600	0.808300	0.992400
C3241	C324	0.435200	0.758600	0.002900
C3251	C325	0.432000	0.742800	0.052200
C3261	C326	0.442400	0.776100	0.090200
C3271	C327	0.456100	0.823900	0.078600
H2811	H281	0.463300	0.845900	0.104400
C3281	C328	0.422200	0.688800	0.064000
N1211	N121	0.421400	0.731600	0.962500
H2821	H282	0.409500	0.702100	0.966300
H2831	H283	0.424500	0.743900	0.933100
N1221	N122	0.455800	0.817300	0.941000
H2841	H284	0.468200	0.845200	0.931200
H2851	H285	0.447800	0.795000	0.919500
N1231	N123	0.438900	0.765700	0.138600
H2861	H286	0.445200	0.788300	0.160300
H2871	H287	0.430400	0.736300	0.148000
O1651	O165	0.998900	0.416600	0.553100
O1661	O166	0.969800	0.410300	0.478400
O1671	O167	0.916600	0.159100	0.528500
O1681	O168	0.919800	0.174300	0.607700
C3291	C329	0.976800	0.391600	0.519300
C3301	C330	0.959700	0.340500	0.531000
C3311	C331	0.948600	0.308300	0.492400
C3321	C332	0.935200	0.258600	0.502900
C3331	C333	0.932000	0.242800	0.552200
C3341	C334	0.942400	0.276100	0.590200
C3351	C335	0.956100	0.323900	0.578600
H2881	H288	0.963300	0.345900	0.604400
C3361	C336	0.922200	0.188800	0.564000
N1241	N124	0.921400	0.231600	0.462500
H2891	H289	0.909500	0.202100	0.466300
H2901	H290	0.924500	0.243900	0.433100
N1251	N125	0.955800	0.317300	0.441000
H2911	H291	0.968200	0.345200	0.431200
H2921	H292	0.947800	0.295000	0.419500
N1261	N126	0.938900	0.265700	0.638600
H2931	H293	0.945200	0.288300	0.660300
H2941	H294	0.930400	0.236300	0.648000
O1691	O169	0.501100	0.416600	0.446900
O1701	O170	0.530200	0.410300	0.521600
O1711	O171	0.583400	0.159100	0.471500
O1721	O172	0.580200	0.174300	0.392300
C3371	C337	0.523200	0.391600	0.480700
C3381	C338	0.540300	0.340500	0.469000
C3391	C339	0.551400	0.308300	0.507600
C3401	C340	0.564800	0.258600	0.497100
C3411	C341	0.568000	0.242800	0.447800
C3421	C342	0.557600	0.276100	0.409800
C3431	C343	0.543900	0.323900	0.421400
H2951	H295	0.536700	0.345900	0.395600
C3441	C344	0.577800	0.188800	0.436000
N1271	N127	0.578600	0.231600	0.537500
H2961	H296	0.590500	0.202100	0.533700
H2971	H297	0.575500	0.243900	0.566900
N1281	N128	0.544200	0.317300	0.559000
H2981	H298	0.531800	0.345200	0.568800
H2991	H299	0.552200	0.295000	0.580500
N1291	N129	0.561100	0.265700	0.361400
H3001	H300	0.554800	0.288300	0.339700
H3011	H301	0.569600	0.236300	0.352000
O1731	O173	0.001100	0.916600	0.946900
O1741	O174	0.030200	0.910300	0.021600
O1751	O175	0.083400	0.659100	0.971500
O1761	O176	0.080200	0.674300	0.892300
C3451	C345	0.023200	0.891600	0.980700
C3461	C346	0.040300	0.840500	0.969000
C3471	C347	0.051400	0.808300	0.007600
C3481	C348	0.064800	0.758600	0.997100
C3491	C349	0.068000	0.742800	0.947800
C3501	C350	0.057600	0.776100	0.909800
C3511	C351	0.043900	0.823900	0.921400
H3021	H302	0.036700	0.845900	0.895600
C3521	C352	0.077800	0.688800	0.936000
N1301	N130	0.078600	0.731600	0.037500
H3031	H303	0.090500	0.702100	0.033700
H3041	H304	0.075500	0.743900	0.066900
N1311	N131	0.044200	0.817300	0.059000
H3051	H305	0.031800	0.845200	0.068800
H3061	H306	0.052200	0.795000	0.080500
N1321	N132	0.061100	0.765700	0.861400
H3071	H307	0.054800	0.788300	0.839700
H3081	H308	0.069600	0.736300	0.852000
O1771	O177	0.998900	0.583400	0.946900
O1781	O178	0.969800	0.589700	0.021600
O1791	O179	0.916600	0.840900	0.971500
O1801	O180	0.919800	0.825700	0.892300
C3531	C353	0.976800	0.608400	0.980700
C3541	C354	0.959700	0.659500	0.969000
C3551	C355	0.948600	0.691700	0.007600
C3561	C356	0.935200	0.741400	0.997100
C3571	C357	0.932000	0.757200	0.947800
C3581	C358	0.942400	0.723900	0.909800
C3591	C359	0.956100	0.676100	0.921400
H3091	H309	0.963300	0.654100	0.895600
C3601	C360	0.922200	0.811200	0.936000
N1331	N133	0.921400	0.768400	0.037500
H3101	H310	0.909500	0.797900	0.033700
H3111	H311	0.924500	0.756100	0.066900
N1341	N134	0.955800	0.682700	0.059000
H3121	H312	0.968200	0.654800	0.068800
H3131	H313	0.947800	0.705000	0.080500
N1351	N135	0.938900	0.734300	0.861400
H3141	H314	0.945200	0.711700	0.839700
H3151	H315	0.930400	0.763700	0.852000
O1811	O181	0.498900	0.083400	0.446900
O1821	O182	0.469800	0.089700	0.521600
O1831	O183	0.416600	0.340900	0.471500
O1841	O184	0.419800	0.325700	0.392300
C3611	C361	0.476800	0.108400	0.480700
C3621	C362	0.459700	0.159500	0.469000
C3631	C363	0.448600	0.191700	0.507600
C3641	C364	0.435200	0.241400	0.497100
C3651	C365	0.432000	0.257200	0.447800
C3661	C366	0.442400	0.223900	0.409800
C3671	C367	0.456100	0.176100	0.421400
H3161	H316	0.463300	0.154100	0.395600
C3681	C368	0.422200	0.311200	0.436000
N1361	N136	0.421400	0.268400	0.537500
H3171	H317	0.409500	0.297900	0.533700
H3181	H318	0.424500	0.256100	0.566900
N1371	N137	0.455800	0.182700	0.559000
H3191	H319	0.468200	0.154800	0.568800
H3201	H320	0.447800	0.205000	0.580500
N1381	N138	0.438900	0.234300	0.361400
H3211	H321	0.445200	0.211700	0.339700
H3221	H322	0.430400	0.263700	0.352000
O1851	O185	0.001100	0.083400	0.553100
O1861	O186	0.030200	0.089700	0.478400
O1871	O187	0.083400	0.340900	0.528500
O1881	O188	0.080200	0.325700	0.607700
C3691	C369	0.023200	0.108400	0.519300
C3701	C370	0.040300	0.159500	0.531000
C3711	C371	0.051400	0.191700	0.492400
C3721	C372	0.064800	0.241400	0.502900
C3731	C373	0.068000	0.257200	0.552200
C3741	C374	0.057600	0.223900	0.590200
C3751	C375	0.043900	0.176100	0.578600
H3231	H323	0.036700	0.154100	0.604400
C3761	C376	0.077800	0.311200	0.564000
N1391	N139	0.078600	0.268400	0.462500
H3241	H324	0.090500	0.297900	0.466300
H3251	H325	0.075500	0.256100	0.433100
N1401	N140	0.044200	0.182700	0.441000
H3261	H326	0.031800	0.154800	0.431200
H3271	H327	0.052200	0.205000	0.419500
N1411	N141	0.061100	0.234300	0.638600
H3281	H328	0.054800	0.211700	0.660300
H3291	H329	0.069600	0.263700	0.648000
O1891	O189	0.501100	0.583400	0.053100
O1901	O190	0.530200	0.589700	0.978400
O1911	O191	0.583400	0.840900	0.028500
O1921	O192	0.580200	0.825700	0.107700
C3771	C377	0.523200	0.608400	0.019300
C3781	C378	0.540300	0.659500	0.031000
C3791	C379	0.551400	0.691700	0.992400
C3801	C380	0.564800	0.741400	0.002900
C3811	C381	0.568000	0.757200	0.052200
C3821	C382	0.557600	0.723900	0.090200
C3831	C383	0.543900	0.676100	0.078600
H3301	H330	0.536700	0.654100	0.104400
C3841	C384	0.577800	0.811200	0.064000
N1421	N142	0.578600	0.768400	0.962500
H3311	H331	0.590500	0.797900	0.966300
H3321	H332	0.575500	0.756100	0.933100
N1431	N143	0.544200	0.682700	0.941000
H3331	H333	0.531800	0.654800	0.931200
H3341	H334	0.552200	0.705000	0.919500
N1441	N144	0.561100	0.734300	0.138600
H3351	H335	0.554800	0.711700	0.160300
H3361	H336	0.569600	0.763700	0.148000
Nd11	Nd1	0.915250	0.415250	0.084750
Nd21	Nd2	0.415250	0.915250	0.584750
Nd31	Nd3	0.584750	0.584750	0.584750
Nd41	Nd4	0.084750	0.084750	0.084750
Nd51	Nd5	0.084750	0.915250	0.415250
Nd61	Nd6	0.584750	0.415250	0.915250
Nd71	Nd7	0.415250	0.084750	0.915250
Nd81	Nd8	0.915250	0.584750	0.415250
Nd91	Nd9	0.084750	0.584750	0.915250
Nd101	Nd10	0.584750	0.084750	0.415250
Nd111	Nd11	0.415250	0.415250	0.415250
Nd121	Nd12	0.915250	0.915250	0.915250
Nd131	Nd13	0.915250	0.084750	0.584750
Nd141	Nd14	0.415250	0.584750	0.084750
Nd151	Nd15	0.584750	0.915250	0.084750
Nd161	Nd16	0.084750	0.415250	0.584750
Nd171	Nd17	0.000000	0.500000	0.000000
Nd181	Nd18	0.500000	0.000000	0.500000
Nd191	Nd19	0.500000	0.500000	0.500000
Nd201	Nd20	0.000000	0.000000	0.000000
Nd211	Nd21	0.000000	0.000000	0.500000
Nd221	Nd22	0.500000	0.500000	0.000000
Nd231	Nd23	0.500000	0.000000	0.000000
Nd241	Nd24	0.000000	0.500000	0.500000
