data_KAVNIH_freeONLY_PM
_symmetry_space_group_name_H-M	'P1'
_cell_length_a	32.614000
_cell_length_b	18.976000
_cell_length_c	17.570000
_cell_angle_alpha	90.000000
_cell_angle_beta	103.206000
_cell_angle_gamma	90.000000
_symmetry_Int_Tables_number 1

loop_
_symmetry_equiv_pos_as_xyz
'x,y,z'

loop_
_atom_site_label
_atom_site_type_symbol
_atom_site_fract_x
_atom_site_fract_y
_atom_site_fract_z
Co11	Co1	0.901000	0.353510	0.959370
O11	O1	0.932090	0.410330	0.060670
O21	O2	0.948630	0.299150	0.050320
O31	O3	0.856240	0.319290	0.019080
O41	O4	0.818990	0.404830	0.058900
N11	N1	0.860580	0.430390	0.897540
N21	N2	0.822080	0.525250	0.864950
N31	N3	0.849920	0.166690	0.848100
N41	N4	0.880970	0.268780	0.881800
N51	N5	0.511790	0.899040	0.876490
N61	N6	0.448780	0.884120	0.900880
C11	C1	0.951010	0.355380	0.089100
C21	C2	0.976410	0.356950	0.172100
C31	C3	0.955530	0.358210	0.233400
C41	C4	0.910510	0.360660	0.219400
H11	H1	0.894100	0.361900	0.167300
C51	C5	0.891240	0.361300	0.280200
H21	H2	0.861400	0.362200	0.270200
C61	C6	0.915030	0.360600	0.358300
H31	H3	0.901000	0.361100	0.400100
C71	C7	0.042350	0.359100	0.125900
H41	H4	0.026800	0.359200	0.073100
C81	C8	0.020530	0.357410	0.187600
C91	C9	0.823100	0.345310	0.033280
C101	C10	0.785110	0.296130	0.016470
C111	C11	0.756890	0.298290	0.943700
C121	C12	0.762960	0.344860	0.883200
H51	H5	0.786400	0.375900	0.893300
C131	C13	0.736260	0.345800	0.812400
H61	H6	0.741400	0.376600	0.773000
C141	C14	0.700440	0.300800	0.796100
H71	H7	0.681700	0.301900	0.746000
C151	C15	0.807050	0.243400	0.148500
H81	H8	0.831500	0.272100	0.159700
C161	C16	0.778890	0.247880	0.073100
C171	C17	0.844340	0.430130	0.818100
H91	H9	0.849100	0.394400	0.783100
C181	C18	0.820680	0.488170	0.797300
H101	H10	0.806000	0.500900	0.746000
C191	C19	0.846660	0.488420	0.923680
H111	H11	0.853100	0.502600	0.977000
C201	C20	0.802750	0.592260	0.869800
C211	C21	0.766650	0.610340	0.813700
H121	H12	0.754300	0.577900	0.773900
C221	C22	0.749250	0.676310	0.817100
H131	H13	0.724800	0.689100	0.778700
C231	C23	0.766440	0.724180	0.874900
C241	C24	0.802390	0.704970	0.930670
H141	H14	0.814600	0.737100	0.970900
C251	C25	0.820370	0.639250	0.927670
H151	H15	0.845000	0.626600	0.965700
C261	C26	0.747330	0.794860	0.877600
C271	C27	0.704320	0.801530	0.872640
H161	H16	0.687100	0.760600	0.866200
C281	C28	0.686210	0.867500	0.876940
C291	C29	0.711910	0.926730	0.882710
H171	H17	0.700100	0.971900	0.886700
C301	C30	0.754630	0.921580	0.882850
C311	C31	0.772240	0.854620	0.883700
H181	H18	0.801700	0.849900	0.888500
C321	C32	0.779790	0.985270	0.875610
C331	C33	0.814480	0.981330	0.841200
H191	H19	0.822300	0.936800	0.824300
C341	C34	0.837740	0.040550	0.831000
H201	H20	0.861300	0.036600	0.808000
C351	C35	0.825970	0.105290	0.855000
C361	C36	0.791360	0.111040	0.888000
H211	H21	0.783200	0.155900	0.903300
C371	C37	0.768670	0.051660	0.898600
H221	H22	0.745200	0.056100	0.922000
C381	C38	0.873540	0.181650	0.793800
H231	H23	0.876200	0.153500	0.750400
C391	C39	0.892030	0.244290	0.815200
H241	H24	0.910100	0.268200	0.788300
C401	C40	0.855670	0.220810	0.899100
H251	H25	0.842900	0.223800	0.942500
C411	C41	0.640510	0.874630	0.874680
C421	C42	0.620340	0.939330	0.862200
H261	H26	0.636000	0.979500	0.853200
C431	C43	0.578420	0.947190	0.862300
H271	H27	0.565600	0.992300	0.853600
C441	C44	0.555020	0.889380	0.875100
C451	C45	0.574010	0.823950	0.887300
H281	H28	0.558100	0.783900	0.895700
C461	C46	0.616040	0.816800	0.887300
H291	H29	0.628800	0.771600	0.896000
C471	C47	0.488530	0.958400	0.851100
H301	H30	0.497600	0.998800	0.827500
C481	C48	0.450410	0.948100	0.866000
H311	H31	0.427700	0.980700	0.854100
C491	C49	0.486290	0.855860	0.905100
H321	H32	0.494300	0.810400	0.925900
Co21	Co2	0.401000	0.853510	0.959370
O51	O5	0.432090	0.910330	0.060670
O61	O6	0.448630	0.799150	0.050320
O71	O7	0.356240	0.819290	0.019080
O81	O8	0.318990	0.904830	0.058900
N71	N7	0.360580	0.930390	0.897540
N81	N8	0.322080	0.025250	0.864950
N91	N9	0.349920	0.666690	0.848100
N101	N10	0.380970	0.768780	0.881800
N111	N11	0.011790	0.399040	0.876490
N121	N12	0.948780	0.384120	0.900880
C501	C50	0.451010	0.855380	0.089100
C511	C51	0.476410	0.856950	0.172100
C521	C52	0.455530	0.858210	0.233400
C531	C53	0.410510	0.860660	0.219400
H331	H33	0.394100	0.861900	0.167300
C541	C54	0.391240	0.861300	0.280200
H341	H34	0.361400	0.862200	0.270200
C551	C55	0.415030	0.860600	0.358300
H351	H35	0.401000	0.861100	0.400100
C561	C56	0.542350	0.859100	0.125900
H361	H36	0.526800	0.859200	0.073100
C571	C57	0.520530	0.857410	0.187600
C581	C58	0.323100	0.845310	0.033280
C591	C59	0.285110	0.796130	0.016470
C601	C60	0.256890	0.798290	0.943700
C611	C61	0.262960	0.844860	0.883200
H371	H37	0.286400	0.875900	0.893300
C621	C62	0.236260	0.845800	0.812400
H381	H38	0.241400	0.876600	0.773000
C631	C63	0.200440	0.800800	0.796100
H391	H39	0.181700	0.801900	0.746000
C641	C64	0.307050	0.743400	0.148500
H401	H40	0.331500	0.772100	0.159700
C651	C65	0.278890	0.747880	0.073100
C661	C66	0.344340	0.930130	0.818100
H411	H41	0.349100	0.894400	0.783100
C671	C67	0.320680	0.988170	0.797300
H421	H42	0.306000	0.000900	0.746000
C681	C68	0.346660	0.988420	0.923680
H431	H43	0.353100	0.002600	0.977000
C691	C69	0.302750	0.092260	0.869800
C701	C70	0.266650	0.110340	0.813700
H441	H44	0.254300	0.077900	0.773900
C711	C71	0.249250	0.176310	0.817100
H451	H45	0.224800	0.189100	0.778700
C721	C72	0.266440	0.224180	0.874900
C731	C73	0.302390	0.204970	0.930670
H461	H46	0.314600	0.237100	0.970900
C741	C74	0.320370	0.139250	0.927670
H471	H47	0.345000	0.126600	0.965700
C751	C75	0.247330	0.294860	0.877600
C761	C76	0.204320	0.301530	0.872640
H481	H48	0.187100	0.260600	0.866200
C771	C77	0.186210	0.367500	0.876940
C781	C78	0.211910	0.426730	0.882710
H491	H49	0.200100	0.471900	0.886700
C791	C79	0.254630	0.421580	0.882850
C801	C80	0.272240	0.354620	0.883700
H501	H50	0.301700	0.349900	0.888500
C811	C81	0.279790	0.485270	0.875610
C821	C82	0.314480	0.481330	0.841200
H511	H51	0.322300	0.436800	0.824300
C831	C83	0.337740	0.540550	0.831000
H521	H52	0.361300	0.536600	0.808000
C841	C84	0.325970	0.605290	0.855000
C851	C85	0.291360	0.611040	0.888000
H531	H53	0.283200	0.655900	0.903300
C861	C86	0.268670	0.551660	0.898600
H541	H54	0.245200	0.556100	0.922000
C871	C87	0.373540	0.681650	0.793800
H551	H55	0.376200	0.653500	0.750400
C881	C88	0.392030	0.744290	0.815200
H561	H56	0.410100	0.768200	0.788300
C891	C89	0.355670	0.720810	0.899100
H571	H57	0.342900	0.723800	0.942500
C901	C90	0.140510	0.374630	0.874680
C911	C91	0.120340	0.439330	0.862200
H581	H58	0.136000	0.479500	0.853200
C921	C92	0.078420	0.447190	0.862300
H591	H59	0.065600	0.492300	0.853600
C931	C93	0.055020	0.389380	0.875100
C941	C94	0.074010	0.323950	0.887300
H601	H60	0.058100	0.283900	0.895700
C951	C95	0.116040	0.316800	0.887300
H611	H61	0.128800	0.271600	0.896000
C961	C96	0.988530	0.458400	0.851100
H621	H62	0.997600	0.498800	0.827500
C971	C97	0.950410	0.448100	0.866000
H631	H63	0.927700	0.480700	0.854100
C981	C98	0.986290	0.355860	0.905100
H641	H64	0.994300	0.310400	0.925900
Co31	Co3	0.099000	0.353510	0.540630
O91	O9	0.067910	0.410330	0.439330
O101	O10	0.051370	0.299150	0.449680
O111	O11	0.143760	0.319290	0.480920
O121	O12	0.181010	0.404830	0.441100
N131	N13	0.139420	0.430390	0.602460
N141	N14	0.177920	0.525250	0.635050
N151	N15	0.150080	0.166690	0.651900
N161	N16	0.119030	0.268780	0.618200
N171	N17	0.488210	0.899040	0.623510
N181	N18	0.551220	0.884120	0.599120
C991	C99	0.048990	0.355380	0.410900
C1001	C100	0.023590	0.356950	0.327900
C1011	C101	0.044470	0.358210	0.266600
C1021	C102	0.089490	0.360660	0.280600
H651	H65	0.105900	0.361900	0.332700
C1031	C103	0.108760	0.361300	0.219800
H661	H66	0.138600	0.362200	0.229800
C1041	C104	0.084970	0.360600	0.141700
H671	H67	0.099000	0.361100	0.099900
C1051	C105	0.957650	0.359100	0.374100
H681	H68	0.973200	0.359200	0.426900
C1061	C106	0.979470	0.357410	0.312400
C1071	C107	0.176900	0.345310	0.466720
C1081	C108	0.214890	0.296130	0.483530
C1091	C109	0.243110	0.298290	0.556300
C1101	C110	0.237040	0.344860	0.616800
H691	H69	0.213600	0.375900	0.606700
C1111	C111	0.263740	0.345800	0.687600
H701	H70	0.258600	0.376600	0.727000
C1121	C112	0.299560	0.300800	0.703900
H711	H71	0.318300	0.301900	0.754000
C1131	C113	0.192950	0.243400	0.351500
H721	H72	0.168500	0.272100	0.340300
C1141	C114	0.221110	0.247880	0.426900
C1151	C115	0.155660	0.430130	0.681900
H731	H73	0.150900	0.394400	0.716900
C1161	C116	0.179320	0.488170	0.702700
H741	H74	0.194000	0.500900	0.754000
C1171	C117	0.153340	0.488420	0.576320
H751	H75	0.146900	0.502600	0.523000
C1181	C118	0.197250	0.592260	0.630200
C1191	C119	0.233350	0.610340	0.686300
H761	H76	0.245700	0.577900	0.726100
C1201	C120	0.250750	0.676310	0.682900
H771	H77	0.275200	0.689100	0.721300
C1211	C121	0.233560	0.724180	0.625100
C1221	C122	0.197610	0.704970	0.569330
H781	H78	0.185400	0.737100	0.529100
C1231	C123	0.179630	0.639250	0.572330
H791	H79	0.155000	0.626600	0.534300
C1241	C124	0.252670	0.794860	0.622400
C1251	C125	0.295680	0.801530	0.627360
H801	H80	0.312900	0.760600	0.633800
C1261	C126	0.313790	0.867500	0.623060
C1271	C127	0.288090	0.926730	0.617290
H811	H81	0.299900	0.971900	0.613300
C1281	C128	0.245370	0.921580	0.617150
C1291	C129	0.227760	0.854620	0.616300
H821	H82	0.198300	0.849900	0.611500
C1301	C130	0.220210	0.985270	0.624390
C1311	C131	0.185520	0.981330	0.658800
H831	H83	0.177700	0.936800	0.675700
C1321	C132	0.162260	0.040550	0.669000
H841	H84	0.138700	0.036600	0.692000
C1331	C133	0.174030	0.105290	0.645000
C1341	C134	0.208640	0.111040	0.612000
H851	H85	0.216800	0.155900	0.596700
C1351	C135	0.231330	0.051660	0.601400
H861	H86	0.254800	0.056100	0.578000
C1361	C136	0.126460	0.181650	0.706200
H871	H87	0.123800	0.153500	0.749600
C1371	C137	0.107970	0.244290	0.684800
H881	H88	0.089900	0.268200	0.711700
C1381	C138	0.144330	0.220810	0.600900
H891	H89	0.157100	0.223800	0.557500
C1391	C139	0.359490	0.874630	0.625320
C1401	C140	0.379660	0.939330	0.637800
H901	H90	0.364000	0.979500	0.646800
C1411	C141	0.421580	0.947190	0.637700
H911	H91	0.434400	0.992300	0.646400
C1421	C142	0.444980	0.889380	0.624900
C1431	C143	0.425990	0.823950	0.612700
H921	H92	0.441900	0.783900	0.604300
C1441	C144	0.383960	0.816800	0.612700
H931	H93	0.371200	0.771600	0.604000
C1451	C145	0.511470	0.958400	0.648900
H941	H94	0.502400	0.998800	0.672500
C1461	C146	0.549590	0.948100	0.634000
H951	H95	0.572300	0.980700	0.645900
C1471	C147	0.513710	0.855860	0.594900
H961	H96	0.505700	0.810400	0.574100
Co41	Co4	0.599000	0.853510	0.540630
O131	O13	0.567910	0.910330	0.439330
O141	O14	0.551370	0.799150	0.449680
O151	O15	0.643760	0.819290	0.480920
O161	O16	0.681010	0.904830	0.441100
N191	N19	0.639420	0.930390	0.602460
N201	N20	0.677920	0.025250	0.635050
N211	N21	0.650080	0.666690	0.651900
N221	N22	0.619030	0.768780	0.618200
N231	N23	0.988210	0.399040	0.623510
N241	N24	0.051220	0.384120	0.599120
C1481	C148	0.548990	0.855380	0.410900
C1491	C149	0.523590	0.856950	0.327900
C1501	C150	0.544470	0.858210	0.266600
C1511	C151	0.589490	0.860660	0.280600
H971	H97	0.605900	0.861900	0.332700
C1521	C152	0.608760	0.861300	0.219800
H981	H98	0.638600	0.862200	0.229800
C1531	C153	0.584970	0.860600	0.141700
H991	H99	0.599000	0.861100	0.099900
C1541	C154	0.457650	0.859100	0.374100
H1001	H100	0.473200	0.859200	0.426900
C1551	C155	0.479470	0.857410	0.312400
C1561	C156	0.676900	0.845310	0.466720
C1571	C157	0.714890	0.796130	0.483530
C1581	C158	0.743110	0.798290	0.556300
C1591	C159	0.737040	0.844860	0.616800
H1011	H101	0.713600	0.875900	0.606700
C1601	C160	0.763740	0.845800	0.687600
H1021	H102	0.758600	0.876600	0.727000
C1611	C161	0.799560	0.800800	0.703900
H1031	H103	0.818300	0.801900	0.754000
C1621	C162	0.692950	0.743400	0.351500
H1041	H104	0.668500	0.772100	0.340300
C1631	C163	0.721110	0.747880	0.426900
C1641	C164	0.655660	0.930130	0.681900
H1051	H105	0.650900	0.894400	0.716900
C1651	C165	0.679320	0.988170	0.702700
H1061	H106	0.694000	0.000900	0.754000
C1661	C166	0.653340	0.988420	0.576320
H1071	H107	0.646900	0.002600	0.523000
C1671	C167	0.697250	0.092260	0.630200
C1681	C168	0.733350	0.110340	0.686300
H1081	H108	0.745700	0.077900	0.726100
C1691	C169	0.750750	0.176310	0.682900
H1091	H109	0.775200	0.189100	0.721300
C1701	C170	0.733560	0.224180	0.625100
C1711	C171	0.697610	0.204970	0.569330
H1101	H110	0.685400	0.237100	0.529100
C1721	C172	0.679630	0.139250	0.572330
H1111	H111	0.655000	0.126600	0.534300
C1731	C173	0.752670	0.294860	0.622400
C1741	C174	0.795680	0.301530	0.627360
H1121	H112	0.812900	0.260600	0.633800
C1751	C175	0.813790	0.367500	0.623060
C1761	C176	0.788090	0.426730	0.617290
H1131	H113	0.799900	0.471900	0.613300
C1771	C177	0.745370	0.421580	0.617150
C1781	C178	0.727760	0.354620	0.616300
H1141	H114	0.698300	0.349900	0.611500
C1791	C179	0.720210	0.485270	0.624390
C1801	C180	0.685520	0.481330	0.658800
H1151	H115	0.677700	0.436800	0.675700
C1811	C181	0.662260	0.540550	0.669000
H1161	H116	0.638700	0.536600	0.692000
C1821	C182	0.674030	0.605290	0.645000
C1831	C183	0.708640	0.611040	0.612000
H1171	H117	0.716800	0.655900	0.596700
C1841	C184	0.731330	0.551660	0.601400
H1181	H118	0.754800	0.556100	0.578000
C1851	C185	0.626460	0.681650	0.706200
H1191	H119	0.623800	0.653500	0.749600
C1861	C186	0.607970	0.744290	0.684800
H1201	H120	0.589900	0.768200	0.711700
C1871	C187	0.644330	0.720810	0.600900
H1211	H121	0.657100	0.723800	0.557500
C1881	C188	0.859490	0.374630	0.625320
C1891	C189	0.879660	0.439330	0.637800
H1221	H122	0.864000	0.479500	0.646800
C1901	C190	0.921580	0.447190	0.637700
H1231	H123	0.934400	0.492300	0.646400
C1911	C191	0.944980	0.389380	0.624900
C1921	C192	0.925990	0.323950	0.612700
H1241	H124	0.941900	0.283900	0.604300
C1931	C193	0.883960	0.316800	0.612700
H1251	H125	0.871200	0.271600	0.604000
C1941	C194	0.011470	0.458400	0.648900
H1261	H126	0.002400	0.498800	0.672500
C1951	C195	0.049590	0.448100	0.634000
H1271	H127	0.072300	0.480700	0.645900
C1961	C196	0.013710	0.355860	0.594900
H1281	H128	0.005700	0.310400	0.574100
Co51	Co5	0.099000	0.646490	0.040630
O171	O17	0.067910	0.589670	0.939330
O181	O18	0.051370	0.700850	0.949680
O191	O19	0.143760	0.680710	0.980920
O201	O20	0.181010	0.595170	0.941100
N251	N25	0.139420	0.569610	0.102460
N261	N26	0.177920	0.474750	0.135050
N271	N27	0.150080	0.833310	0.151900
N281	N28	0.119030	0.731220	0.118200
N291	N29	0.488210	0.100960	0.123510
N301	N30	0.551220	0.115880	0.099120
C1971	C197	0.048990	0.644620	0.910900
C1981	C198	0.023590	0.643050	0.827900
C1991	C199	0.044470	0.641790	0.766600
C2001	C200	0.089490	0.639340	0.780600
H1291	H129	0.105900	0.638100	0.832700
C2011	C201	0.108760	0.638700	0.719800
H1301	H130	0.138600	0.637800	0.729800
C2021	C202	0.084970	0.639400	0.641700
H1311	H131	0.099000	0.638900	0.599900
C2031	C203	0.957650	0.640900	0.874100
H1321	H132	0.973200	0.640800	0.926900
C2041	C204	0.979470	0.642590	0.812400
C2051	C205	0.176900	0.654690	0.966720
C2061	C206	0.214890	0.703870	0.983530
C2071	C207	0.243110	0.701710	0.056300
C2081	C208	0.237040	0.655140	0.116800
H1331	H133	0.213600	0.624100	0.106700
C2091	C209	0.263740	0.654200	0.187600
H1341	H134	0.258600	0.623400	0.227000
C2101	C210	0.299560	0.699200	0.203900
H1351	H135	0.318300	0.698100	0.254000
C2111	C211	0.192950	0.756600	0.851500
H1361	H136	0.168500	0.727900	0.840300
C2121	C212	0.221110	0.752120	0.926900
C2131	C213	0.155660	0.569870	0.181900
H1371	H137	0.150900	0.605600	0.216900
C2141	C214	0.179320	0.511830	0.202700
H1381	H138	0.194000	0.499100	0.254000
C2151	C215	0.153340	0.511580	0.076320
H1391	H139	0.146900	0.497400	0.023000
C2161	C216	0.197250	0.407740	0.130200
C2171	C217	0.233350	0.389660	0.186300
H1401	H140	0.245700	0.422100	0.226100
C2181	C218	0.250750	0.323690	0.182900
H1411	H141	0.275200	0.310900	0.221300
C2191	C219	0.233560	0.275820	0.125100
C2201	C220	0.197610	0.295030	0.069330
H1421	H142	0.185400	0.262900	0.029100
C2211	C221	0.179630	0.360750	0.072330
H1431	H143	0.155000	0.373400	0.034300
C2221	C222	0.252670	0.205140	0.122400
C2231	C223	0.295680	0.198470	0.127360
H1441	H144	0.312900	0.239400	0.133800
C2241	C224	0.313790	0.132500	0.123060
C2251	C225	0.288090	0.073270	0.117290
H1451	H145	0.299900	0.028100	0.113300
C2261	C226	0.245370	0.078420	0.117150
C2271	C227	0.227760	0.145380	0.116300
H1461	H146	0.198300	0.150100	0.111500
C2281	C228	0.220210	0.014730	0.124390
C2291	C229	0.185520	0.018670	0.158800
H1471	H147	0.177700	0.063200	0.175700
C2301	C230	0.162260	0.959450	0.169000
H1481	H148	0.138700	0.963400	0.192000
C2311	C231	0.174030	0.894710	0.145000
C2321	C232	0.208640	0.888960	0.112000
H1491	H149	0.216800	0.844100	0.096700
C2331	C233	0.231330	0.948340	0.101400
H1501	H150	0.254800	0.943900	0.078000
C2341	C234	0.126460	0.818350	0.206200
H1511	H151	0.123800	0.846500	0.249600
C2351	C235	0.107970	0.755710	0.184800
H1521	H152	0.089900	0.731800	0.211700
C2361	C236	0.144330	0.779190	0.100900
H1531	H153	0.157100	0.776200	0.057500
C2371	C237	0.359490	0.125370	0.125320
C2381	C238	0.379660	0.060670	0.137800
H1541	H154	0.364000	0.020500	0.146800
C2391	C239	0.421580	0.052810	0.137700
H1551	H155	0.434400	0.007700	0.146400
C2401	C240	0.444980	0.110620	0.124900
C2411	C241	0.425990	0.176050	0.112700
H1561	H156	0.441900	0.216100	0.104300
C2421	C242	0.383960	0.183200	0.112700
H1571	H157	0.371200	0.228400	0.104000
C2431	C243	0.511470	0.041600	0.148900
H1581	H158	0.502400	0.001200	0.172500
C2441	C244	0.549590	0.051900	0.134000
H1591	H159	0.572300	0.019300	0.145900
C2451	C245	0.513710	0.144140	0.094900
H1601	H160	0.505700	0.189600	0.074100
Co61	Co6	0.599000	0.146490	0.040630
O211	O21	0.567910	0.089670	0.939330
O221	O22	0.551370	0.200850	0.949680
O231	O23	0.643760	0.180710	0.980920
O241	O24	0.681010	0.095170	0.941100
N311	N31	0.639420	0.069610	0.102460
N321	N32	0.677920	0.974750	0.135050
N331	N33	0.650080	0.333310	0.151900
N341	N34	0.619030	0.231220	0.118200
N351	N35	0.988210	0.600960	0.123510
N361	N36	0.051220	0.615880	0.099120
C2461	C246	0.548990	0.144620	0.910900
C2471	C247	0.523590	0.143050	0.827900
C2481	C248	0.544470	0.141790	0.766600
C2491	C249	0.589490	0.139340	0.780600
H1611	H161	0.605900	0.138100	0.832700
C2501	C250	0.608760	0.138700	0.719800
H1621	H162	0.638600	0.137800	0.729800
C2511	C251	0.584970	0.139400	0.641700
H1631	H163	0.599000	0.138900	0.599900
C2521	C252	0.457650	0.140900	0.874100
H1641	H164	0.473200	0.140800	0.926900
C2531	C253	0.479470	0.142590	0.812400
C2541	C254	0.676900	0.154690	0.966720
C2551	C255	0.714890	0.203870	0.983530
C2561	C256	0.743110	0.201710	0.056300
C2571	C257	0.737040	0.155140	0.116800
H1651	H165	0.713600	0.124100	0.106700
C2581	C258	0.763740	0.154200	0.187600
H1661	H166	0.758600	0.123400	0.227000
C2591	C259	0.799560	0.199200	0.203900
H1671	H167	0.818300	0.198100	0.254000
C2601	C260	0.692950	0.256600	0.851500
H1681	H168	0.668500	0.227900	0.840300
C2611	C261	0.721110	0.252120	0.926900
C2621	C262	0.655660	0.069870	0.181900
H1691	H169	0.650900	0.105600	0.216900
C2631	C263	0.679320	0.011830	0.202700
H1701	H170	0.694000	0.999100	0.254000
C2641	C264	0.653340	0.011580	0.076320
H1711	H171	0.646900	0.997400	0.023000
C2651	C265	0.697250	0.907740	0.130200
C2661	C266	0.733350	0.889660	0.186300
H1721	H172	0.745700	0.922100	0.226100
C2671	C267	0.750750	0.823690	0.182900
H1731	H173	0.775200	0.810900	0.221300
C2681	C268	0.733560	0.775820	0.125100
C2691	C269	0.697610	0.795030	0.069330
H1741	H174	0.685400	0.762900	0.029100
C2701	C270	0.679630	0.860750	0.072330
H1751	H175	0.655000	0.873400	0.034300
C2711	C271	0.752670	0.705140	0.122400
C2721	C272	0.795680	0.698470	0.127360
H1761	H176	0.812900	0.739400	0.133800
C2731	C273	0.813790	0.632500	0.123060
C2741	C274	0.788090	0.573270	0.117290
H1771	H177	0.799900	0.528100	0.113300
C2751	C275	0.745370	0.578420	0.117150
C2761	C276	0.727760	0.645380	0.116300
H1781	H178	0.698300	0.650100	0.111500
C2771	C277	0.720210	0.514730	0.124390
C2781	C278	0.685520	0.518670	0.158800
H1791	H179	0.677700	0.563200	0.175700
C2791	C279	0.662260	0.459450	0.169000
H1801	H180	0.638700	0.463400	0.192000
C2801	C280	0.674030	0.394710	0.145000
C2811	C281	0.708640	0.388960	0.112000
H1811	H181	0.716800	0.344100	0.096700
C2821	C282	0.731330	0.448340	0.101400
H1821	H182	0.754800	0.443900	0.078000
C2831	C283	0.626460	0.318350	0.206200
H1831	H183	0.623800	0.346500	0.249600
C2841	C284	0.607970	0.255710	0.184800
H1841	H184	0.589900	0.231800	0.211700
C2851	C285	0.644330	0.279190	0.100900
H1851	H185	0.657100	0.276200	0.057500
C2861	C286	0.859490	0.625370	0.125320
C2871	C287	0.879660	0.560670	0.137800
H1861	H186	0.864000	0.520500	0.146800
C2881	C288	0.921580	0.552810	0.137700
H1871	H187	0.934400	0.507700	0.146400
C2891	C289	0.944980	0.610620	0.124900
C2901	C290	0.925990	0.676050	0.112700
H1881	H188	0.941900	0.716100	0.104300
C2911	C291	0.883960	0.683200	0.112700
H1891	H189	0.871200	0.728400	0.104000
C2921	C292	0.011470	0.541600	0.148900
H1901	H190	0.002400	0.501200	0.172500
C2931	C293	0.049590	0.551900	0.134000
H1911	H191	0.072300	0.519300	0.145900
C2941	C294	0.013710	0.644140	0.094900
H1921	H192	0.005700	0.689600	0.074100
Co71	Co7	0.901000	0.646490	0.459370
O251	O25	0.932090	0.589670	0.560670
O261	O26	0.948630	0.700850	0.550320
O271	O27	0.856240	0.680710	0.519080
O281	O28	0.818990	0.595170	0.558900
N371	N37	0.860580	0.569610	0.397540
N381	N38	0.822080	0.474750	0.364950
N391	N39	0.849920	0.833310	0.348100
N401	N40	0.880970	0.731220	0.381800
N411	N41	0.511790	0.100960	0.376490
N421	N42	0.448780	0.115880	0.400880
C2951	C295	0.951010	0.644620	0.589100
C2961	C296	0.976410	0.643050	0.672100
C2971	C297	0.955530	0.641790	0.733400
C2981	C298	0.910510	0.639340	0.719400
H1931	H193	0.894100	0.638100	0.667300
C2991	C299	0.891240	0.638700	0.780200
H1941	H194	0.861400	0.637800	0.770200
C3001	C300	0.915030	0.639400	0.858300
H1951	H195	0.901000	0.638900	0.900100
C3011	C301	0.042350	0.640900	0.625900
H1961	H196	0.026800	0.640800	0.573100
C3021	C302	0.020530	0.642590	0.687600
C3031	C303	0.823100	0.654690	0.533280
C3041	C304	0.785110	0.703870	0.516470
C3051	C305	0.756890	0.701710	0.443700
C3061	C306	0.762960	0.655140	0.383200
H1971	H197	0.786400	0.624100	0.393300
C3071	C307	0.736260	0.654200	0.312400
H1981	H198	0.741400	0.623400	0.273000
C3081	C308	0.700440	0.699200	0.296100
H1991	H199	0.681700	0.698100	0.246000
C3091	C309	0.807050	0.756600	0.648500
H2001	H200	0.831500	0.727900	0.659700
C3101	C310	0.778890	0.752120	0.573100
C3111	C311	0.844340	0.569870	0.318100
H2011	H201	0.849100	0.605600	0.283100
C3121	C312	0.820680	0.511830	0.297300
H2021	H202	0.806000	0.499100	0.246000
C3131	C313	0.846660	0.511580	0.423680
H2031	H203	0.853100	0.497400	0.477000
C3141	C314	0.802750	0.407740	0.369800
C3151	C315	0.766650	0.389660	0.313700
H2041	H204	0.754300	0.422100	0.273900
C3161	C316	0.749250	0.323690	0.317100
H2051	H205	0.724800	0.310900	0.278700
C3171	C317	0.766440	0.275820	0.374900
C3181	C318	0.802390	0.295030	0.430670
H2061	H206	0.814600	0.262900	0.470900
C3191	C319	0.820370	0.360750	0.427670
H2071	H207	0.845000	0.373400	0.465700
C3201	C320	0.747330	0.205140	0.377600
C3211	C321	0.704320	0.198470	0.372640
H2081	H208	0.687100	0.239400	0.366200
C3221	C322	0.686210	0.132500	0.376940
C3231	C323	0.711910	0.073270	0.382710
H2091	H209	0.700100	0.028100	0.386700
C3241	C324	0.754630	0.078420	0.382850
C3251	C325	0.772240	0.145380	0.383700
H2101	H210	0.801700	0.150100	0.388500
C3261	C326	0.779790	0.014730	0.375610
C3271	C327	0.814480	0.018670	0.341200
H2111	H211	0.822300	0.063200	0.324300
C3281	C328	0.837740	0.959450	0.331000
H2121	H212	0.861300	0.963400	0.308000
C3291	C329	0.825970	0.894710	0.355000
C3301	C330	0.791360	0.888960	0.388000
H2131	H213	0.783200	0.844100	0.403300
C3311	C331	0.768670	0.948340	0.398600
H2141	H214	0.745200	0.943900	0.422000
C3321	C332	0.873540	0.818350	0.293800
H2151	H215	0.876200	0.846500	0.250400
C3331	C333	0.892030	0.755710	0.315200
H2161	H216	0.910100	0.731800	0.288300
C3341	C334	0.855670	0.779190	0.399100
H2171	H217	0.842900	0.776200	0.442500
C3351	C335	0.640510	0.125370	0.374680
C3361	C336	0.620340	0.060670	0.362200
H2181	H218	0.636000	0.020500	0.353200
C3371	C337	0.578420	0.052810	0.362300
H2191	H219	0.565600	0.007700	0.353600
C3381	C338	0.555020	0.110620	0.375100
C3391	C339	0.574010	0.176050	0.387300
H2201	H220	0.558100	0.216100	0.395700
C3401	C340	0.616040	0.183200	0.387300
H2211	H221	0.628800	0.228400	0.396000
C3411	C341	0.488530	0.041600	0.351100
H2221	H222	0.497600	0.001200	0.327500
C3421	C342	0.450410	0.051900	0.366000
H2231	H223	0.427700	0.019300	0.354100
C3431	C343	0.486290	0.144140	0.405100
H2241	H224	0.494300	0.189600	0.425900
Co81	Co8	0.401000	0.146490	0.459370
O291	O29	0.432090	0.089670	0.560670
O301	O30	0.448630	0.200850	0.550320
O311	O31	0.356240	0.180710	0.519080
O321	O32	0.318990	0.095170	0.558900
N431	N43	0.360580	0.069610	0.397540
N441	N44	0.322080	0.974750	0.364950
N451	N45	0.349920	0.333310	0.348100
N461	N46	0.380970	0.231220	0.381800
N471	N47	0.011790	0.600960	0.376490
N481	N48	0.948780	0.615880	0.400880
C3441	C344	0.451010	0.144620	0.589100
C3451	C345	0.476410	0.143050	0.672100
C3461	C346	0.455530	0.141790	0.733400
C3471	C347	0.410510	0.139340	0.719400
H2251	H225	0.394100	0.138100	0.667300
C3481	C348	0.391240	0.138700	0.780200
H2261	H226	0.361400	0.137800	0.770200
C3491	C349	0.415030	0.139400	0.858300
H2271	H227	0.401000	0.138900	0.900100
C3501	C350	0.542350	0.140900	0.625900
H2281	H228	0.526800	0.140800	0.573100
C3511	C351	0.520530	0.142590	0.687600
C3521	C352	0.323100	0.154690	0.533280
C3531	C353	0.285110	0.203870	0.516470
C3541	C354	0.256890	0.201710	0.443700
C3551	C355	0.262960	0.155140	0.383200
H2291	H229	0.286400	0.124100	0.393300
C3561	C356	0.236260	0.154200	0.312400
H2301	H230	0.241400	0.123400	0.273000
C3571	C357	0.200440	0.199200	0.296100
H2311	H231	0.181700	0.198100	0.246000
C3581	C358	0.307050	0.256600	0.648500
H2321	H232	0.331500	0.227900	0.659700
C3591	C359	0.278890	0.252120	0.573100
C3601	C360	0.344340	0.069870	0.318100
H2331	H233	0.349100	0.105600	0.283100
C3611	C361	0.320680	0.011830	0.297300
H2341	H234	0.306000	0.999100	0.246000
C3621	C362	0.346660	0.011580	0.423680
H2351	H235	0.353100	0.997400	0.477000
C3631	C363	0.302750	0.907740	0.369800
C3641	C364	0.266650	0.889660	0.313700
H2361	H236	0.254300	0.922100	0.273900
C3651	C365	0.249250	0.823690	0.317100
H2371	H237	0.224800	0.810900	0.278700
C3661	C366	0.266440	0.775820	0.374900
C3671	C367	0.302390	0.795030	0.430670
H2381	H238	0.314600	0.762900	0.470900
C3681	C368	0.320370	0.860750	0.427670
H2391	H239	0.345000	0.873400	0.465700
C3691	C369	0.247330	0.705140	0.377600
C3701	C370	0.204320	0.698470	0.372640
H2401	H240	0.187100	0.739400	0.366200
C3711	C371	0.186210	0.632500	0.376940
C3721	C372	0.211910	0.573270	0.382710
H2411	H241	0.200100	0.528100	0.386700
C3731	C373	0.254630	0.578420	0.382850
C3741	C374	0.272240	0.645380	0.383700
H2421	H242	0.301700	0.650100	0.388500
C3751	C375	0.279790	0.514730	0.375610
C3761	C376	0.314480	0.518670	0.341200
H2431	H243	0.322300	0.563200	0.324300
C3771	C377	0.337740	0.459450	0.331000
H2441	H244	0.361300	0.463400	0.308000
C3781	C378	0.325970	0.394710	0.355000
C3791	C379	0.291360	0.388960	0.388000
H2451	H245	0.283200	0.344100	0.403300
C3801	C380	0.268670	0.448340	0.398600
H2461	H246	0.245200	0.443900	0.422000
C3811	C381	0.373540	0.318350	0.293800
H2471	H247	0.376200	0.346500	0.250400
C3821	C382	0.392030	0.255710	0.315200
H2481	H248	0.410100	0.231800	0.288300
C3831	C383	0.355670	0.279190	0.399100
H2491	H249	0.342900	0.276200	0.442500
C3841	C384	0.140510	0.625370	0.374680
C3851	C385	0.120340	0.560670	0.362200
H2501	H250	0.136000	0.520500	0.353200
C3861	C386	0.078420	0.552810	0.362300
H2511	H251	0.065600	0.507700	0.353600
C3871	C387	0.055020	0.610620	0.375100
C3881	C388	0.074010	0.676050	0.387300
H2521	H252	0.058100	0.716100	0.395700
C3891	C389	0.116040	0.683200	0.387300
H2531	H253	0.128800	0.728400	0.396000
C3901	C390	0.988530	0.541600	0.351100
H2541	H254	0.997600	0.501200	0.327500
C3911	C391	0.950410	0.551900	0.366000
H2551	H255	0.927700	0.519300	0.354100
C3921	C392	0.986290	0.644140	0.405100
H2561	H256	0.994300	0.689600	0.425900
