data_KAXQIL_freeONLY_PM
_symmetry_space_group_name_H-M	'P1'
_cell_length_a	5.567300
_cell_length_b	11.821400
_cell_length_c	22.760300
_cell_angle_alpha	100.356000
_cell_angle_beta	90.000000
_cell_angle_gamma	90.000000
_symmetry_Int_Tables_number 1

loop_
_symmetry_equiv_pos_as_xyz
'x,y,z'

loop_
_atom_site_label
_atom_site_type_symbol
_atom_site_fract_x
_atom_site_fract_y
_atom_site_fract_z
Ca11	Ca1	0.755850	0.636820	0.722870
Ca21	Ca2	0.255850	0.863180	0.777130
Ca31	Ca3	0.244150	0.363180	0.277130
Ca41	Ca4	0.744150	0.136820	0.222870
H11	H1	0.199600	0.194500	0.618900
H21	H2	0.124900	0.231800	0.406100
H31	H3	0.554100	0.420600	0.537200
H41	H4	0.562300	0.338800	0.672900
H51	H5	0.478300	0.183900	0.719700
H61	H6	0.118600	0.043900	0.669100
H71	H7	0.206600	0.275100	0.507800
H81	H8	0.471300	0.373100	0.435800
H91	H9	0.699600	0.305500	0.881100
H101	H10	0.624900	0.268200	0.093900
H111	H11	0.054100	0.079400	0.962800
H121	H12	0.062300	0.161200	0.827100
H131	H13	0.978300	0.316100	0.780300
H141	H14	0.618600	0.456100	0.830900
H151	H15	0.706600	0.224900	0.992200
H161	H16	0.971300	0.126900	0.064200
H171	H17	0.800400	0.805500	0.381100
H181	H18	0.875100	0.768200	0.593900
H191	H19	0.445900	0.579400	0.462800
H201	H20	0.437700	0.661200	0.327100
H211	H21	0.521700	0.816100	0.280300
H221	H22	0.881400	0.956100	0.330900
H231	H23	0.793400	0.724900	0.492200
H241	H24	0.528700	0.626900	0.564200
H251	H25	0.300400	0.694500	0.118900
H261	H26	0.375100	0.731800	0.906100
H271	H27	0.945900	0.920600	0.037200
H281	H28	0.937700	0.838800	0.172900
H291	H29	0.021700	0.683900	0.219700
H301	H30	0.381400	0.543900	0.169100
H311	H31	0.293400	0.775100	0.007800
H321	H32	0.028700	0.873100	0.935800
C11	C1	0.741400	0.004540	0.734890
C21	C2	0.739300	0.276740	0.344930
C31	C3	0.890800	0.355060	0.531360
C41	C4	0.889600	0.281060	0.642190
C51	C5	0.056700	0.192960	0.639960
C61	C6	0.011400	0.270250	0.432280
C71	C7	0.792700	0.301280	0.410690
C81	C8	0.668700	0.383440	0.510800
C91	C9	0.672800	0.279490	0.671900
C101	C10	0.624400	0.187240	0.700250
C111	C11	0.007100	0.102620	0.669600
C121	C12	0.061000	0.296550	0.493050
C131	C13	0.791700	0.099820	0.699940
C141	C14	0.620400	0.355460	0.450210
C151	C15	0.241400	0.495460	0.765110
C161	C16	0.239300	0.223260	0.155070
C171	C17	0.390800	0.144940	0.968640
C181	C18	0.389600	0.218940	0.857810
C191	C19	0.556700	0.307040	0.860040
C201	C20	0.511400	0.229750	0.067720
C211	C21	0.292700	0.198720	0.089310
C221	C22	0.168700	0.116560	0.989200
C231	C23	0.172800	0.220510	0.828100
C241	C24	0.124400	0.312760	0.799750
C251	C25	0.507100	0.397380	0.830400
C261	C26	0.561000	0.203450	0.006950
C271	C27	0.291700	0.400180	0.800060
C281	C28	0.120400	0.144540	0.049790
C291	C29	0.258600	0.995460	0.265110
C301	C30	0.260700	0.723260	0.655070
C311	C31	0.109200	0.644940	0.468640
C321	C32	0.110400	0.718940	0.357810
C331	C33	0.943300	0.807040	0.360040
C341	C34	0.988600	0.729750	0.567720
C351	C35	0.207300	0.698720	0.589310
C361	C36	0.331300	0.616560	0.489200
C371	C37	0.327200	0.720510	0.328100
C381	C38	0.375600	0.812760	0.299750
C391	C39	0.992900	0.897380	0.330400
C401	C40	0.939000	0.703450	0.506950
C411	C41	0.208300	0.900180	0.300060
C421	C42	0.379600	0.644540	0.549790
C431	C43	0.758600	0.504540	0.234890
C441	C44	0.760700	0.776740	0.844930
C451	C45	0.609200	0.855060	0.031360
C461	C46	0.610400	0.781060	0.142190
C471	C47	0.443300	0.692960	0.139960
C481	C48	0.488600	0.770250	0.932280
C491	C49	0.707300	0.801280	0.910690
C501	C50	0.831300	0.883440	0.010800
C511	C51	0.827200	0.779490	0.171900
C521	C52	0.875600	0.687240	0.200250
C531	C53	0.492900	0.602620	0.169600
C541	C54	0.439000	0.796550	0.993050
C551	C55	0.708300	0.599820	0.199940
C561	C56	0.879600	0.855460	0.950210
S11	S1	0.963630	0.398350	0.607680
S21	S2	0.463630	0.101650	0.892320
S31	S3	0.036370	0.601650	0.392320
S41	S4	0.536370	0.898350	0.107680
O11	O1	0.805000	0.493100	0.630960
O21	O2	0.915200	0.262260	0.309360
O31	O3	0.218900	0.415340	0.611760
O41	O4	0.525700	0.984230	0.743780
O51	O5	0.919100	0.956950	0.752850
O61	O6	0.525100	0.267580	0.328320
O71	O7	0.305000	0.006900	0.869040
O81	O8	0.415200	0.237740	0.190640
O91	O9	0.718900	0.084660	0.888240
O101	O10	0.025700	0.515770	0.756220
O111	O11	0.419100	0.543050	0.747150
O121	O12	0.025100	0.232420	0.171680
O131	O13	0.195000	0.506900	0.369040
O141	O14	0.084800	0.737740	0.690640
O151	O15	0.781100	0.584660	0.388240
O161	O16	0.474300	0.015770	0.256220
O171	O17	0.080900	0.043050	0.247150
O181	O18	0.474900	0.732420	0.671680
O191	O19	0.695000	0.993100	0.130960
O201	O20	0.584800	0.762260	0.809360
O211	O21	0.281100	0.915340	0.111760
O221	O22	0.974300	0.484230	0.243780
O231	O23	0.580900	0.456950	0.252850
O241	O24	0.974900	0.767580	0.828320
