data_KECRAL10_freeONLY_PM
_symmetry_space_group_name_H-M	'P1'
_cell_length_a	8.548040
_cell_length_b	8.695000
_cell_length_c	11.379200
_cell_angle_alpha	90.000000
_cell_angle_beta	112.061000
_cell_angle_gamma	90.000000
_symmetry_Int_Tables_number 1

loop_
_symmetry_equiv_pos_as_xyz
'x,y,z'

loop_
_atom_site_label
_atom_site_type_symbol
_atom_site_fract_x
_atom_site_fract_y
_atom_site_fract_z
Cd11	Cd1	0.000000	0.000000	0.000000
Cd21	Cd2	0.164800	0.500000	0.329600
Cd31	Cd3	0.832500	0.500000	0.665000
C11	C1	0.107400	0.705800	0.214800
C21	C2	0.925800	0.827100	0.851600
C31	C3	0.107400	0.294200	0.214800
C41	C4	0.925800	0.172900	0.851600
C51	C5	0.430900	0.500000	0.449800
C61	C6	0.018900	0.500000	0.449800
N11	N1	0.074800	0.810500	0.149600
N21	N2	0.891800	0.725500	0.783600
N31	N3	0.074800	0.189500	0.149600
N41	N4	0.891800	0.274500	0.783600
N51	N5	0.565600	0.500000	0.523600
N61	N6	0.958000	0.500000	0.523600
O11	O1	0.268600	0.000000	0.992400
O21	O2	0.723800	0.000000	0.992400
