data_KEDJAG01_freeONLY_PM
_symmetry_space_group_name_H-M	'P1'
_cell_length_a	8.715600
_cell_length_b	34.081300
_cell_length_c	8.636000
_cell_angle_alpha	90.000000
_cell_angle_beta	107.632000
_cell_angle_gamma	90.000000
_symmetry_Int_Tables_number 1

loop_
_symmetry_equiv_pos_as_xyz
'x,y,z'

loop_
_atom_site_label
_atom_site_type_symbol
_atom_site_fract_x
_atom_site_fract_y
_atom_site_fract_z
Cu11	Cu1	0.749520	0.203510	0.482850
Cu21	Cu2	0.738600	0.045600	0.498610
O11	O1	0.895300	0.153720	0.612270
O21	O2	0.850060	0.090010	0.628460
O31	O3	0.621650	0.160100	0.360670
O41	O4	0.612260	0.095100	0.340280
O51	O5	0.623910	0.206110	0.644380
O61	O6	0.589610	0.248300	0.827380
O71	O7	0.875280	0.246140	0.618220
O81	O8	0.860170	0.287510	0.812360
O91	O9	0.906570	0.040660	0.384050
O101	O10	0.089050	0.999780	0.344100
O111	O11	0.570420	0.041950	0.614040
O121	O12	0.379250	0.999770	0.627720
C11	C1	0.818700	0.123300	0.563400
C21	C2	0.669900	0.125980	0.407400
C31	C3	0.812300	0.258670	0.721700
C41	C4	0.662000	0.236330	0.734700
C51	C5	0.000500	0.011280	0.421300
C61	C6	0.485100	0.012080	0.569900
Cu31	Cu3	0.250480	0.703510	0.017150
Cu41	Cu4	0.261400	0.545600	0.001390
O131	O13	0.104700	0.653720	0.887730
O141	O14	0.149940	0.590010	0.871540
O151	O15	0.378350	0.660100	0.139330
O161	O16	0.387740	0.595100	0.159720
O171	O17	0.376090	0.706110	0.855620
O181	O18	0.410390	0.748300	0.672620
O191	O19	0.124720	0.746140	0.881780
O201	O20	0.139830	0.787510	0.687640
O211	O21	0.093430	0.540660	0.115950
O221	O22	0.910950	0.499780	0.155900
O231	O23	0.429580	0.541950	0.885960
O241	O24	0.620750	0.499770	0.872280
C71	C7	0.181300	0.623300	0.936600
C81	C8	0.330100	0.625980	0.092600
C91	C9	0.187700	0.758670	0.778300
C101	C10	0.338000	0.736330	0.765300
C111	C11	0.999500	0.511280	0.078700
C121	C12	0.514900	0.512080	0.930100
Cu51	Cu5	0.250480	0.796490	0.517150
Cu61	Cu6	0.261400	0.954400	0.501390
O251	O25	0.104700	0.846280	0.387730
O261	O26	0.149940	0.909990	0.371540
O271	O27	0.378350	0.839900	0.639330
O281	O28	0.387740	0.904900	0.659720
O291	O29	0.376090	0.793890	0.355620
O301	O30	0.410390	0.751700	0.172620
O311	O31	0.124720	0.753860	0.381780
O321	O32	0.139830	0.712490	0.187640
O331	O33	0.093430	0.959340	0.615950
O341	O34	0.910950	0.000220	0.655900
O351	O35	0.429580	0.958050	0.385960
O361	O36	0.620750	0.000230	0.372280
C131	C13	0.181300	0.876700	0.436600
C141	C14	0.330100	0.874020	0.592600
C151	C15	0.187700	0.741330	0.278300
C161	C16	0.338000	0.763670	0.265300
C171	C17	0.999500	0.988720	0.578700
C181	C18	0.514900	0.987920	0.430100
Cu71	Cu7	0.749520	0.296490	0.982850
Cu81	Cu8	0.738600	0.454400	0.998610
O371	O37	0.895300	0.346280	0.112270
O381	O38	0.850060	0.409990	0.128460
O391	O39	0.621650	0.339900	0.860670
O401	O40	0.612260	0.404900	0.840280
O411	O41	0.623910	0.293890	0.144380
O421	O42	0.589610	0.251700	0.327380
O431	O43	0.875280	0.253860	0.118220
O441	O44	0.860170	0.212490	0.312360
O451	O45	0.906570	0.459340	0.884050
O461	O46	0.089050	0.500220	0.844100
O471	O47	0.570420	0.458050	0.114040
O481	O48	0.379250	0.500230	0.127720
C191	C19	0.818700	0.376700	0.063400
C201	C20	0.669900	0.374020	0.907400
C211	C21	0.812300	0.241330	0.221700
C221	C22	0.662000	0.263670	0.234700
C231	C23	0.000500	0.488720	0.921300
C241	C24	0.485100	0.487920	0.069900
