data_KEDJAG08_freeONLY_PM
_symmetry_space_group_name_H-M	'P1'
_cell_length_a	8.698700
_cell_length_b	34.140800
_cell_length_c	8.608100
_cell_angle_alpha	90.000000
_cell_angle_beta	107.578000
_cell_angle_gamma	90.000000
_symmetry_Int_Tables_number 1

loop_
_symmetry_equiv_pos_as_xyz
'x,y,z'

loop_
_atom_site_label
_atom_site_type_symbol
_atom_site_fract_x
_atom_site_fract_y
_atom_site_fract_z
Cu11	Cu1	0.748640	0.203470	0.480790
Cu21	Cu2	0.737860	0.045530	0.498310
O11	O1	0.895690	0.153500	0.610580
O21	O2	0.848190	0.089940	0.628240
O31	O3	0.620750	0.160100	0.358840
O41	O4	0.611460	0.095150	0.337490
O51	O5	0.623590	0.205820	0.641870
O61	O6	0.586680	0.248110	0.824360
O71	O7	0.874110	0.246250	0.615250
O81	O8	0.857920	0.287520	0.809760
O91	O9	0.905860	0.040800	0.385040
O101	O10	0.088500	0.000160	0.342630
O111	O11	0.569700	0.042220	0.612700
O121	O12	0.378480	0.000030	0.627800
C11	C1	0.817800	0.123230	0.562200
C21	C2	0.669500	0.125950	0.405300
C31	C3	0.810400	0.258630	0.719300
C41	C4	0.659900	0.236150	0.732300
C51	C5	0.999900	0.011360	0.421200
C61	C6	0.485000	0.012260	0.569500
Cu31	Cu3	0.251360	0.703470	0.019210
Cu41	Cu4	0.262140	0.545530	0.001690
O131	O13	0.104310	0.653500	0.889420
O141	O14	0.151810	0.589940	0.871760
O151	O15	0.379250	0.660100	0.141160
O161	O16	0.388540	0.595150	0.162510
O171	O17	0.376410	0.705820	0.858130
O181	O18	0.413320	0.748110	0.675640
O191	O19	0.125890	0.746250	0.884750
O201	O20	0.142080	0.787520	0.690240
O211	O21	0.094140	0.540800	0.114960
O221	O22	0.911500	0.500160	0.157370
O231	O23	0.430300	0.542220	0.887300
O241	O24	0.621520	0.500030	0.872200
C71	C7	0.182200	0.623230	0.937800
C81	C8	0.330500	0.625950	0.094700
C91	C9	0.189600	0.758630	0.780700
C101	C10	0.340100	0.736150	0.767700
C111	C11	0.000100	0.511360	0.078800
C121	C12	0.515000	0.512260	0.930500
Cu51	Cu5	0.251360	0.796530	0.519210
Cu61	Cu6	0.262140	0.954470	0.501690
O251	O25	0.104310	0.846500	0.389420
O261	O26	0.151810	0.910060	0.371760
O271	O27	0.379250	0.839900	0.641160
O281	O28	0.388540	0.904850	0.662510
O291	O29	0.376410	0.794180	0.358130
O301	O30	0.413320	0.751890	0.175640
O311	O31	0.125890	0.753750	0.384750
O321	O32	0.142080	0.712480	0.190240
O331	O33	0.094140	0.959200	0.614960
O341	O34	0.911500	0.999840	0.657370
O351	O35	0.430300	0.957780	0.387300
O361	O36	0.621520	0.999970	0.372200
C131	C13	0.182200	0.876770	0.437800
C141	C14	0.330500	0.874050	0.594700
C151	C15	0.189600	0.741370	0.280700
C161	C16	0.340100	0.763850	0.267700
C171	C17	0.000100	0.988640	0.578800
C181	C18	0.515000	0.987740	0.430500
Cu71	Cu7	0.748640	0.296530	0.980790
Cu81	Cu8	0.737860	0.454470	0.998310
O371	O37	0.895690	0.346500	0.110580
O381	O38	0.848190	0.410060	0.128240
O391	O39	0.620750	0.339900	0.858840
O401	O40	0.611460	0.404850	0.837490
O411	O41	0.623590	0.294180	0.141870
O421	O42	0.586680	0.251890	0.324360
O431	O43	0.874110	0.253750	0.115250
O441	O44	0.857920	0.212480	0.309760
O451	O45	0.905860	0.459200	0.885040
O461	O46	0.088500	0.499840	0.842630
O471	O47	0.569700	0.457780	0.112700
O481	O48	0.378480	0.499970	0.127800
C191	C19	0.817800	0.376770	0.062200
C201	C20	0.669500	0.374050	0.905300
C211	C21	0.810400	0.241370	0.219300
C221	C22	0.659900	0.263850	0.232300
C231	C23	0.999900	0.488640	0.921200
C241	C24	0.485000	0.487740	0.069500
