data_KEDJAG18_freeONLY_PM
_symmetry_space_group_name_H-M	'P1'
_cell_length_a	8.759500
_cell_length_b	33.918100
_cell_length_c	8.706900
_cell_angle_alpha	90.000000
_cell_angle_beta	107.797000
_cell_angle_gamma	90.000000
_symmetry_Int_Tables_number 1

loop_
_symmetry_equiv_pos_as_xyz
'x,y,z'

loop_
_atom_site_label
_atom_site_type_symbol
_atom_site_fract_x
_atom_site_fract_y
_atom_site_fract_z
Cu11	Cu1	0.750700	0.203650	0.486960
Cu21	Cu2	0.740640	0.045780	0.499830
O11	O1	0.893580	0.154580	0.615450
O21	O2	0.854800	0.090300	0.629150
O31	O3	0.621990	0.159870	0.364560
O41	O4	0.614430	0.094580	0.347340
O51	O5	0.624260	0.207030	0.650060
O61	O6	0.596400	0.249280	0.834100
O71	O7	0.877830	0.246070	0.624250
O81	O8	0.864670	0.287720	0.816990
O91	O9	0.909250	0.040290	0.381510
O101	O10	0.091000	0.998600	0.347730
O111	O11	0.572040	0.041370	0.617680
O121	O12	0.380730	0.999100	0.627380
C11	C1	0.820100	0.123640	0.565900
C21	C2	0.671600	0.126000	0.411900
C31	C3	0.816400	0.258970	0.727000
C41	C4	0.665700	0.236880	0.740700
C51	C5	0.001600	0.010920	0.421400
C61	C6	0.486200	0.011780	0.571000
Cu31	Cu3	0.249300	0.703650	0.013040
Cu41	Cu4	0.259360	0.545780	0.000170
O131	O13	0.106420	0.654580	0.884550
O141	O14	0.145200	0.590300	0.870850
O151	O15	0.378010	0.659870	0.135440
O161	O16	0.385570	0.594580	0.152660
O171	O17	0.375740	0.707030	0.849940
O181	O18	0.403600	0.749280	0.665900
O191	O19	0.122170	0.746070	0.875750
O201	O20	0.135330	0.787720	0.683010
O211	O21	0.090750	0.540290	0.118490
O221	O22	0.909000	0.498600	0.152270
O231	O23	0.427960	0.541370	0.882320
O241	O24	0.619270	0.499100	0.872620
C71	C7	0.179900	0.623640	0.934100
C81	C8	0.328400	0.626000	0.088100
C91	C9	0.183600	0.758970	0.773000
C101	C10	0.334300	0.736880	0.759300
C111	C11	0.998400	0.510920	0.078600
C121	C12	0.513800	0.511780	0.929000
Cu51	Cu5	0.249300	0.796350	0.513040
Cu61	Cu6	0.259360	0.954220	0.500170
O251	O25	0.106420	0.845420	0.384550
O261	O26	0.145200	0.909700	0.370850
O271	O27	0.378010	0.840130	0.635440
O281	O28	0.385570	0.905420	0.652660
O291	O29	0.375740	0.792970	0.349940
O301	O30	0.403600	0.750720	0.165900
O311	O31	0.122170	0.753930	0.375750
O321	O32	0.135330	0.712280	0.183010
O331	O33	0.090750	0.959710	0.618490
O341	O34	0.909000	0.001400	0.652270
O351	O35	0.427960	0.958630	0.382320
O361	O36	0.619270	0.000900	0.372620
C131	C13	0.179900	0.876360	0.434100
C141	C14	0.328400	0.874000	0.588100
C151	C15	0.183600	0.741030	0.273000
C161	C16	0.334300	0.763120	0.259300
C171	C17	0.998400	0.989080	0.578600
C181	C18	0.513800	0.988220	0.429000
Cu71	Cu7	0.750700	0.296350	0.986960
Cu81	Cu8	0.740640	0.454220	0.999830
O371	O37	0.893580	0.345420	0.115450
O381	O38	0.854800	0.409700	0.129150
O391	O39	0.621990	0.340130	0.864560
O401	O40	0.614430	0.405420	0.847340
O411	O41	0.624260	0.292970	0.150060
O421	O42	0.596400	0.250720	0.334100
O431	O43	0.877830	0.253930	0.124250
O441	O44	0.864670	0.212280	0.316990
O451	O45	0.909250	0.459710	0.881510
O461	O46	0.091000	0.501400	0.847730
O471	O47	0.572040	0.458630	0.117680
O481	O48	0.380730	0.500900	0.127380
C191	C19	0.820100	0.376360	0.065900
C201	C20	0.671600	0.374000	0.911900
C211	C21	0.816400	0.241030	0.227000
C221	C22	0.665700	0.263120	0.240700
C231	C23	0.001600	0.489080	0.921400
C241	C24	0.486200	0.488220	0.071000
