data_KEDJAG14_freeONLY_PM
_symmetry_space_group_name_H-M	'P1'
_cell_length_a	8.736800
_cell_length_b	33.996800
_cell_length_c	8.670400
_cell_angle_alpha	90.000000
_cell_angle_beta	107.726000
_cell_angle_gamma	90.000000
_symmetry_Int_Tables_number 1

loop_
_symmetry_equiv_pos_as_xyz
'x,y,z'

loop_
_atom_site_label
_atom_site_type_symbol
_atom_site_fract_x
_atom_site_fract_y
_atom_site_fract_z
Cu11	Cu1	0.750340	0.203550	0.484600
Cu21	Cu2	0.739600	0.045700	0.499140
O11	O1	0.894530	0.154210	0.613470
O21	O2	0.852360	0.090160	0.628570
O31	O3	0.622000	0.159970	0.362320
O41	O4	0.613290	0.094850	0.343590
O51	O5	0.624240	0.206590	0.647010
O61	O6	0.593070	0.248840	0.830290
O71	O7	0.876690	0.246070	0.620790
O81	O8	0.862650	0.287620	0.814390
O91	O9	0.907650	0.040520	0.382900
O101	O10	0.089790	0.999180	0.345680
O111	O11	0.571130	0.041730	0.615680
O121	O12	0.379840	0.999400	0.627750
C11	C1	0.819500	0.123470	0.564300
C21	C2	0.671000	0.125960	0.409200
C31	C3	0.814400	0.258840	0.724100
C41	C4	0.663800	0.236570	0.737500
C51	C5	0.000700	0.011120	0.421500
C61	C6	0.485700	0.011910	0.570200
Cu31	Cu3	0.249660	0.703550	0.015400
Cu41	Cu4	0.260400	0.545700	0.000860
O131	O13	0.105470	0.654210	0.886530
O141	O14	0.147640	0.590160	0.871430
O151	O15	0.378000	0.659970	0.137680
O161	O16	0.386710	0.594850	0.156410
O171	O17	0.375760	0.706590	0.852990
O181	O18	0.406930	0.748840	0.669710
O191	O19	0.123310	0.746070	0.879210
O201	O20	0.137350	0.787620	0.685610
O211	O21	0.092350	0.540520	0.117100
O221	O22	0.910210	0.499180	0.154320
O231	O23	0.428870	0.541730	0.884320
O241	O24	0.620160	0.499400	0.872250
C71	C7	0.180500	0.623470	0.935700
C81	C8	0.329000	0.625960	0.090800
C91	C9	0.185600	0.758840	0.775900
C101	C10	0.336200	0.736570	0.762500
C111	C11	0.999300	0.511120	0.078500
C121	C12	0.514300	0.511910	0.929800
Cu51	Cu5	0.249660	0.796450	0.515400
Cu61	Cu6	0.260400	0.954300	0.500860
O251	O25	0.105470	0.845790	0.386530
O261	O26	0.147640	0.909840	0.371430
O271	O27	0.378000	0.840030	0.637680
O281	O28	0.386710	0.905150	0.656410
O291	O29	0.375760	0.793410	0.352990
O301	O30	0.406930	0.751160	0.169710
O311	O31	0.123310	0.753930	0.379210
O321	O32	0.137350	0.712380	0.185610
O331	O33	0.092350	0.959480	0.617100
O341	O34	0.910210	0.000820	0.654320
O351	O35	0.428870	0.958270	0.384320
O361	O36	0.620160	0.000600	0.372250
C131	C13	0.180500	0.876530	0.435700
C141	C14	0.329000	0.874040	0.590800
C151	C15	0.185600	0.741160	0.275900
C161	C16	0.336200	0.763430	0.262500
C171	C17	0.999300	0.988880	0.578500
C181	C18	0.514300	0.988090	0.429800
Cu71	Cu7	0.750340	0.296450	0.984600
Cu81	Cu8	0.739600	0.454300	0.999140
O371	O37	0.894530	0.345790	0.113470
O381	O38	0.852360	0.409840	0.128570
O391	O39	0.622000	0.340030	0.862320
O401	O40	0.613290	0.405150	0.843590
O411	O41	0.624240	0.293410	0.147010
O421	O42	0.593070	0.251160	0.330290
O431	O43	0.876690	0.253930	0.120790
O441	O44	0.862650	0.212380	0.314390
O451	O45	0.907650	0.459480	0.882900
O461	O46	0.089790	0.500820	0.845680
O471	O47	0.571130	0.458270	0.115680
O481	O48	0.379840	0.500600	0.127750
C191	C19	0.819500	0.376530	0.064300
C201	C20	0.671000	0.374040	0.909200
C211	C21	0.814400	0.241160	0.224100
C221	C22	0.663800	0.263430	0.237500
C231	C23	0.000700	0.488880	0.921500
C241	C24	0.485700	0.488090	0.070200
