data_KEFFEI_freeONLY_PM
_symmetry_space_group_name_H-M	'P1'
_cell_length_a	6.682000
_cell_length_b	18.446000
_cell_length_c	8.477000
_cell_angle_alpha	90.000000
_cell_angle_beta	90.000000
_cell_angle_gamma	90.000000
_symmetry_Int_Tables_number 1

loop_
_symmetry_equiv_pos_as_xyz
'x,y,z'

loop_
_atom_site_label
_atom_site_type_symbol
_atom_site_fract_x
_atom_site_fract_y
_atom_site_fract_z
C11	C1	0.734000	0.744000	0.026400
H11	H1	0.712600	0.782700	0.958200
O11	O1	0.335800	0.905370	0.269000
O21	O2	0.986400	0.950200	0.431700
O31	O3	0.819300	0.757500	0.152600
O41	O4	0.674200	0.683140	0.982200
C21	C2	0.234000	0.244000	0.026400
H21	H2	0.212600	0.282700	0.958200
O51	O5	0.835800	0.405370	0.269000
O61	O6	0.486400	0.450200	0.431700
O71	O7	0.319300	0.257500	0.152600
O81	O8	0.174200	0.183140	0.982200
C31	C3	0.266000	0.256000	0.526400
H31	H3	0.287400	0.217300	0.458200
O91	O9	0.664200	0.094630	0.769000
O101	O10	0.013600	0.049800	0.931700
O111	O11	0.180700	0.242500	0.652600
O121	O12	0.325800	0.316860	0.482200
C41	C4	0.766000	0.756000	0.526400
H41	H4	0.787400	0.717300	0.458200
O131	O13	0.164200	0.594630	0.769000
O141	O14	0.513600	0.549800	0.931700
O151	O15	0.680700	0.742500	0.652600
O161	O16	0.825800	0.816860	0.482200
C51	C5	0.266000	0.744000	0.473600
H51	H5	0.287400	0.782700	0.541800
O171	O17	0.664200	0.905370	0.231000
O181	O18	0.013600	0.950200	0.068300
O191	O19	0.180700	0.757500	0.347400
O201	O20	0.325800	0.683140	0.517800
C61	C6	0.766000	0.244000	0.473600
H61	H6	0.787400	0.282700	0.541800
O211	O21	0.164200	0.405370	0.231000
O221	O22	0.513600	0.450200	0.068300
O231	O23	0.680700	0.257500	0.347400
O241	O24	0.825800	0.183140	0.517800
C71	C7	0.734000	0.256000	0.973600
H71	H7	0.712600	0.217300	0.041800
O251	O25	0.335800	0.094630	0.731000
O261	O26	0.986400	0.049800	0.568300
O271	O27	0.819300	0.242500	0.847400
O281	O28	0.674200	0.316860	0.017800
C81	C8	0.234000	0.756000	0.973600
H81	H8	0.212600	0.717300	0.041800
O291	O29	0.835800	0.594630	0.731000
O301	O30	0.486400	0.549800	0.568300
O311	O31	0.319300	0.742500	0.847400
O321	O32	0.174200	0.816860	0.017800
C91	C9	0.500000	0.875200	0.250000
H91	H9	0.500000	0.824800	0.250000
C101	C10	0.000000	0.375200	0.250000
H101	H10	0.000000	0.324800	0.250000
C111	C11	0.500000	0.124800	0.750000
H111	H11	0.500000	0.175200	0.750000
C121	C12	0.000000	0.624800	0.750000
H121	H12	0.000000	0.675200	0.750000
C131	C13	0.073900	0.000000	0.500000
H131	H13	0.213100	0.000000	0.500000
C141	C14	0.573900	0.500000	0.500000
H141	H14	0.713100	0.500000	0.500000
C151	C15	0.926100	0.000000	0.000000
H151	H15	0.786900	0.000000	0.000000
C161	C16	0.426100	0.500000	0.000000
H161	H16	0.286900	0.500000	0.000000
Dy11	Dy1	0.000000	0.857360	0.250000
Dy21	Dy2	0.500000	0.357360	0.250000
Dy31	Dy3	0.000000	0.142640	0.750000
Dy41	Dy4	0.500000	0.642640	0.750000
