data_KEGYAX_freeONLY_PM
_symmetry_space_group_name_H-M	'P1'
_cell_length_a	6.363200
_cell_length_b	9.490600
_cell_length_c	15.100200
_cell_angle_alpha	96.575000
_cell_angle_beta	93.094000
_cell_angle_gamma	100.221000
_symmetry_Int_Tables_number 1

loop_
_symmetry_equiv_pos_as_xyz
'x,y,z'

loop_
_atom_site_label
_atom_site_type_symbol
_atom_site_fract_x
_atom_site_fract_y
_atom_site_fract_z
Ag11	Ag1	0.624770	0.139800	0.987490
Ag21	Ag2	0.138080	0.586850	0.573970
Ag31	Ag3	0.445100	0.590460	0.416130
Ag41	Ag4	0.375230	0.860200	0.012510
Ag51	Ag5	0.861920	0.413150	0.426030
Ag61	Ag6	0.554900	0.409540	0.583870
H11	H1	0.178000	0.601000	0.201000
H21	H2	0.549000	0.110000	0.423000
H31	H3	0.114000	0.115000	0.100000
H41	H4	0.769800	0.003200	0.265300
H51	H5	0.777600	0.769400	0.257800
H61	H6	0.867400	0.905800	0.390100
H71	H7	0.185800	0.006600	0.456500
H81	H8	0.000500	0.136700	0.380900
H91	H9	0.014300	0.189700	0.242100
H101	H10	0.822000	0.399000	0.799000
H111	H11	0.451000	0.890000	0.577000
H121	H12	0.886000	0.885000	0.900000
H131	H13	0.230200	0.996800	0.734700
H141	H14	0.222400	0.230600	0.742200
H151	H15	0.132600	0.094200	0.609900
H161	H16	0.814200	0.993400	0.543500
H171	H17	0.999500	0.863300	0.619100
H181	H18	0.985700	0.810300	0.757900
C11	C1	0.883400	0.974600	0.229800
C21	C2	0.918000	0.833300	0.264000
C31	C3	0.985600	0.864800	0.365100
C41	C4	0.181000	0.985400	0.391300
C51	C5	0.134100	0.122800	0.354700
C61	C6	0.072200	0.103900	0.253400
C71	C7	0.783800	0.952700	0.134500
C81	C8	0.061700	0.757100	0.207000
C91	C9	0.986100	0.731200	0.411900
C101	C10	0.393500	0.936800	0.371600
C111	C11	0.287700	0.263200	0.388900
C121	C12	0.268800	0.107700	0.200400
C131	C13	0.116600	0.025400	0.770200
C141	C14	0.082000	0.166700	0.736000
C151	C15	0.014400	0.135200	0.634900
C161	C16	0.819000	0.014600	0.608700
C171	C17	0.865900	0.877200	0.645300
C181	C18	0.927800	0.896100	0.746600
C191	C19	0.216200	0.047300	0.865500
C201	C20	0.938300	0.242900	0.793000
C211	C21	0.013900	0.268800	0.588100
C221	C22	0.606500	0.063200	0.628400
C231	C23	0.712300	0.736800	0.611100
C241	C24	0.731200	0.892300	0.799600
O11	O1	0.833900	0.052200	0.086000
O21	O2	0.646500	0.840200	0.110000
O31	O3	0.150500	0.809300	0.146800
O41	O4	0.069500	0.624600	0.225000
O51	O5	0.121500	0.739300	0.476400
O61	O6	0.839300	0.625000	0.386600
O71	O7	0.405800	0.820700	0.332700
O81	O8	0.569800	0.025600	0.407300
O91	O9	0.434800	0.262100	0.447900
O101	O10	0.249300	0.376300	0.360100
O111	O11	0.445200	0.115100	0.236200
O121	O12	0.245400	0.118200	0.114400
O131	O13	0.166100	0.947800	0.914000
O141	O14	0.353500	0.159800	0.890000
O151	O15	0.849500	0.190700	0.853200
O161	O16	0.930500	0.375400	0.775000
O171	O17	0.878500	0.260700	0.523600
O181	O18	0.160700	0.375000	0.613400
O191	O19	0.594200	0.179300	0.667300
O201	O20	0.430200	0.974400	0.592700
O211	O21	0.565200	0.737900	0.552100
O221	O22	0.750700	0.623700	0.639900
O231	O23	0.554800	0.884900	0.763800
O241	O24	0.754600	0.881800	0.885600
