data_KEGZOL_freeONLY_PM
_symmetry_space_group_name_H-M	'P1'
_cell_length_a	11.609000
_cell_length_b	11.609000
_cell_length_c	11.609000
_cell_angle_alpha	90.000000
_cell_angle_beta	90.000000
_cell_angle_gamma	90.000000
_symmetry_Int_Tables_number 1

loop_
_symmetry_equiv_pos_as_xyz
'x,y,z'

loop_
_atom_site_label
_atom_site_type_symbol
_atom_site_fract_x
_atom_site_fract_y
_atom_site_fract_z
Cu11	Cu1	0.000000	0.000000	0.000000
Cu21	Cu2	0.000000	0.500000	0.500000
Cu31	Cu3	0.500000	0.000000	0.500000
Cu41	Cu4	0.500000	0.500000	0.000000
Zn11	Zn1	0.250000	0.250000	0.250000
Zn21	Zn2	0.750000	0.750000	0.250000
Zn31	Zn3	0.750000	0.250000	0.750000
Zn41	Zn4	0.250000	0.750000	0.750000
C11	C1	0.093300	0.093300	0.093300
N11	N1	0.147100	0.147100	0.147100
C21	C2	0.093300	0.593300	0.593300
N21	N2	0.147100	0.647100	0.647100
C31	C3	0.593300	0.093300	0.593300
N31	N3	0.647100	0.147100	0.647100
C41	C4	0.593300	0.593300	0.093300
N41	N4	0.647100	0.647100	0.147100
C51	C5	0.906700	0.906700	0.093300
N51	N5	0.852900	0.852900	0.147100
C61	C6	0.906700	0.406700	0.593300
N61	N6	0.852900	0.352900	0.647100
C71	C7	0.406700	0.906700	0.593300
N71	N7	0.352900	0.852900	0.647100
C81	C8	0.406700	0.406700	0.093300
N81	N8	0.352900	0.352900	0.147100
C91	C9	0.906700	0.093300	0.906700
N91	N9	0.852900	0.147100	0.852900
C101	C10	0.906700	0.593300	0.406700
N101	N10	0.852900	0.647100	0.352900
C111	C11	0.406700	0.093300	0.406700
N111	N11	0.352900	0.147100	0.352900
C121	C12	0.406700	0.593300	0.906700
N121	N12	0.352900	0.647100	0.852900
C131	C13	0.093300	0.906700	0.906700
N131	N13	0.147100	0.852900	0.852900
C141	C14	0.093300	0.406700	0.406700
N141	N14	0.147100	0.352900	0.352900
C151	C15	0.593300	0.906700	0.406700
N151	N15	0.647100	0.852900	0.352900
C161	C16	0.593300	0.406700	0.906700
N161	N16	0.647100	0.352900	0.852900
