data_KEGZOL04_freeONLY_PM
_symmetry_space_group_name_H-M	'P1'
_cell_length_a	11.626900
_cell_length_b	11.626900
_cell_length_c	11.626900
_cell_angle_alpha	90.000000
_cell_angle_beta	90.000000
_cell_angle_gamma	90.000000
_symmetry_Int_Tables_number 1

loop_
_symmetry_equiv_pos_as_xyz
'x,y,z'

loop_
_atom_site_label
_atom_site_type_symbol
_atom_site_fract_x
_atom_site_fract_y
_atom_site_fract_z
Zn11	Zn1	0.000000	0.000000	0.000000
Zn21	Zn2	0.000000	0.500000	0.500000
Zn31	Zn3	0.500000	0.000000	0.500000
Zn41	Zn4	0.500000	0.500000	0.000000
Cu11	Cu1	0.750000	0.750000	0.750000
Cu21	Cu2	0.250000	0.250000	0.750000
Cu31	Cu3	0.250000	0.750000	0.250000
Cu41	Cu4	0.750000	0.250000	0.250000
C11	C1	0.847900	0.847900	0.847900
N11	N1	0.903600	0.903600	0.903600
C21	C2	0.847900	0.347900	0.347900
N21	N2	0.903600	0.403600	0.403600
C31	C3	0.347900	0.847900	0.347900
N31	N3	0.403600	0.903600	0.403600
C41	C4	0.347900	0.347900	0.847900
N41	N4	0.403600	0.403600	0.903600
C51	C5	0.152100	0.152100	0.847900
N51	N5	0.096400	0.096400	0.903600
C61	C6	0.152100	0.652100	0.347900
N61	N6	0.096400	0.596400	0.403600
C71	C7	0.652100	0.152100	0.347900
N71	N7	0.596400	0.096400	0.403600
C81	C8	0.652100	0.652100	0.847900
N81	N8	0.596400	0.596400	0.903600
C91	C9	0.152100	0.847900	0.152100
N91	N9	0.096400	0.903600	0.096400
C101	C10	0.152100	0.347900	0.652100
N101	N10	0.096400	0.403600	0.596400
C111	C11	0.652100	0.847900	0.652100
N111	N11	0.596400	0.903600	0.596400
C121	C12	0.652100	0.347900	0.152100
N121	N12	0.596400	0.403600	0.096400
C131	C13	0.847900	0.152100	0.152100
N131	N13	0.903600	0.096400	0.096400
C141	C14	0.847900	0.652100	0.652100
N141	N14	0.903600	0.596400	0.596400
C151	C15	0.347900	0.152100	0.652100
N151	N15	0.403600	0.096400	0.596400
C161	C16	0.347900	0.652100	0.152100
N161	N16	0.403600	0.596400	0.096400
