data_KEHDOS_freeONLY_PM
_symmetry_space_group_name_H-M	'P1'
_cell_length_a	6.519200
_cell_length_b	15.481800
_cell_length_c	16.991300
_cell_angle_alpha	89.230000
_cell_angle_beta	84.607000
_cell_angle_gamma	85.574000
_symmetry_Int_Tables_number 1

loop_
_symmetry_equiv_pos_as_xyz
'x,y,z'

loop_
_atom_site_label
_atom_site_type_symbol
_atom_site_fract_x
_atom_site_fract_y
_atom_site_fract_z
Ag11	Ag1	0.728800	0.020350	0.057610
Ag21	Ag2	0.747210	0.530130	0.436910
N11	N1	0.439900	0.103400	0.072800
N21	N2	0.304700	0.109700	0.014600
N31	N3	0.237100	0.221300	0.094600
N41	N4	0.483700	0.486400	0.382100
N51	N5	0.373600	0.422800	0.423400
N61	N6	0.275500	0.434000	0.303900
N71	N7	0.855100	0.395000	0.506600
N81	N8	0.976400	0.396700	0.570900
N91	N9	0.786500	0.286200	0.586000
N101	N10	0.842000	0.079700	0.924200
N111	N11	0.992500	0.022100	0.886100
N121	N12	0.784200	0.070700	0.799800
C11	C1	0.394700	0.169600	0.119500
H11	H1	0.462700	0.179900	0.164500
C21	C2	0.185700	0.181300	0.029100
H21	H2	0.079400	0.202000	0.998400
C31	C3	0.417000	0.491500	0.311000
H31	H3	0.462000	0.530000	0.271000
C41	C4	0.253800	0.393100	0.375600
H41	H4	0.163800	0.349400	0.388400
C51	C5	0.145700	0.306200	0.126900
C61	C6	0.256800	0.326000	0.200500
H51	H5	0.235300	0.280900	0.240900
H61	H6	0.405700	0.327200	0.186000
C71	C7	0.167300	0.414400	0.232900
C81	C8	0.202200	0.484900	0.170200
H71	H7	0.350300	0.486900	0.154600
H81	H8	0.149000	0.541600	0.191700
C91	C9	0.089100	0.464400	0.098100
H91	H9	0.108500	0.510300	0.057500
C101	C10	0.184500	0.376400	0.064200
H101	H10	0.120900	0.363100	0.016200
H111	H11	0.333300	0.379100	0.050500
C111	C11	0.917100	0.300300	0.150600
H121	H12	0.896800	0.255600	0.191300
H131	H13	0.846800	0.285200	0.104700
C121	C12	0.828100	0.390100	0.183000
H141	H14	0.678200	0.388400	0.198400
C131	C13	0.940200	0.410800	0.257000
H151	H15	0.883000	0.466500	0.279400
H161	H16	0.919000	0.365800	0.297500
C141	C14	0.862100	0.458900	0.121300
H171	H17	0.801600	0.515000	0.142000
H181	H18	0.792800	0.445700	0.074700
C151	C15	0.747700	0.328100	0.517600
H191	H19	0.655000	0.310900	0.482800
C161	C16	0.930000	0.330600	0.616800
H201	H20	0.988300	0.316400	0.664300
C171	C17	0.721200	0.107200	0.870500
H211	H21	0.605600	0.147100	0.879900
C181	C18	0.951900	0.017300	0.812300
H221	H22	0.028200	0.982000	0.773700
C191	C19	0.705300	0.203100	0.613800
C201	C20	0.778300	0.180200	0.695600
H231	H23	0.929500	0.177000	0.692700
H241	H24	0.723600	0.225000	0.733800
C211	C21	0.700300	0.092600	0.722000
C221	C22	0.784300	0.021800	0.662900
H251	H25	0.935600	0.017000	0.658800
H261	H26	0.735800	0.965900	0.681100
C231	C23	0.708800	0.044900	0.582300
H271	H27	0.761800	0.999300	0.543700
C241	C24	0.790100	0.132400	0.554500
H281	H28	0.941500	0.127800	0.550500
H291	H29	0.746000	0.147300	0.502100
C251	C25	0.468600	0.210800	0.621000
H301	H30	0.418800	0.226700	0.569700
H311	H31	0.415600	0.255900	0.659100
C261	C26	0.391700	0.122700	0.648800
H321	H32	0.238800	0.126600	0.653200
C271	C27	0.467400	0.097700	0.729500
H331	H33	0.412500	0.141200	0.768900
H341	H34	0.418700	0.041600	0.746700
C281	C28	0.475700	0.053000	0.588400
H351	H35	0.423000	0.997300	0.604800
H361	H36	0.428300	0.068400	0.536700
Ag31	Ag3	0.271200	0.979650	0.942390
Ag41	Ag4	0.252790	0.469870	0.563090
N131	N13	0.560100	0.896600	0.927200
N141	N14	0.695300	0.890300	0.985400
N151	N15	0.762900	0.778700	0.905400
N161	N16	0.516300	0.513600	0.617900
N171	N17	0.626400	0.577200	0.576600
N181	N18	0.724500	0.566000	0.696100
N191	N19	0.144900	0.605000	0.493400
N201	N20	0.023600	0.603300	0.429100
N211	N21	0.213500	0.713800	0.414000
N221	N22	0.158000	0.920300	0.075800
N231	N23	0.007500	0.977900	0.113900
N241	N24	0.215800	0.929300	0.200200
C291	C29	0.605300	0.830400	0.880500
H371	H37	0.537300	0.820100	0.835500
C301	C30	0.814300	0.818700	0.970900
H381	H38	0.920600	0.798000	0.001600
C311	C31	0.583000	0.508500	0.689000
H391	H39	0.538000	0.470000	0.729000
C321	C32	0.746200	0.606900	0.624400
H401	H40	0.836200	0.650600	0.611600
C331	C33	0.854300	0.693800	0.873100
C341	C34	0.743200	0.674000	0.799500
H411	H41	0.764700	0.719100	0.759100
H421	H42	0.594300	0.672800	0.814000
C351	C35	0.832700	0.585600	0.767100
C361	C36	0.797800	0.515100	0.829800
H431	H43	0.649700	0.513100	0.845400
H441	H44	0.851000	0.458400	0.808300
C371	C37	0.910900	0.535600	0.901900
H451	H45	0.891500	0.489700	0.942500
C381	C38	0.815500	0.623600	0.935800
H461	H46	0.879100	0.636900	0.983800
H471	H47	0.666700	0.620900	0.949500
C391	C39	0.082900	0.699700	0.849400
H481	H48	0.103200	0.744400	0.808700
H491	H49	0.153200	0.714800	0.895300
C401	C40	0.171900	0.609900	0.817000
H501	H50	0.321800	0.611600	0.801600
C411	C41	0.059800	0.589200	0.743000
H511	H51	0.117000	0.533500	0.720600
H521	H52	0.081000	0.634200	0.702500
C421	C42	0.137900	0.541100	0.878700
H531	H53	0.198400	0.485000	0.858000
H541	H54	0.207200	0.554300	0.925300
C431	C43	0.252300	0.671900	0.482400
H551	H55	0.345000	0.689100	0.517200
C441	C44	0.070000	0.669400	0.383200
H561	H56	0.011700	0.683600	0.335700
C451	C45	0.278800	0.892800	0.129500
H571	H57	0.394400	0.852900	0.120100
C461	C46	0.048100	0.982700	0.187700
H581	H58	0.971800	0.018000	0.226300
C471	C47	0.294700	0.796900	0.386200
C481	C48	0.221700	0.819800	0.304400
H591	H59	0.070500	0.823000	0.307300
H601	H60	0.276400	0.775000	0.266200
C491	C49	0.299700	0.907400	0.278000
C501	C50	0.215700	0.978200	0.337100
H611	H61	0.064400	0.983000	0.341200
H621	H62	0.264200	0.034100	0.318900
C511	C51	0.291200	0.955100	0.417700
H631	H63	0.238200	0.000700	0.456300
C521	C52	0.209900	0.867600	0.445500
H641	H64	0.058500	0.872200	0.449500
H651	H65	0.254000	0.852700	0.497900
C531	C53	0.531400	0.789200	0.379000
H661	H66	0.581200	0.773300	0.430300
H671	H67	0.584400	0.744100	0.340900
C541	C54	0.608300	0.877300	0.351200
H681	H68	0.761200	0.873400	0.346800
C551	C55	0.532600	0.902300	0.270500
H691	H69	0.587500	0.858800	0.231100
H701	H70	0.581300	0.958400	0.253300
C561	C56	0.524300	0.947000	0.411600
H711	H71	0.577000	0.002700	0.395200
H721	H72	0.571700	0.931600	0.463300
