data_KESBIU_charged_PM
_symmetry_space_group_name_H-M	'P1'
_cell_length_a	12.627200
_cell_length_b	26.847000
_cell_length_c	33.438000
_cell_angle_alpha	90.000000
_cell_angle_beta	90.000000
_cell_angle_gamma	90.000000
_symmetry_Int_Tables_number 1

loop_
_symmetry_equiv_pos_as_xyz
'x,y,z'

loop_
_atom_site_label
_atom_site_type_symbol
_atom_site_fract_x
_atom_site_fract_y
_atom_site_fract_z
Co11	Co1	0.025320	0.567660	0.387020
Co21	Co2	0.474680	0.067660	0.612980
Co31	Co3	0.525320	0.067660	0.112980
Co41	Co4	0.974680	0.567660	0.887020
Ag11	Ag1	0.236990	0.219420	0.358660
Ag21	Ag2	0.263010	0.719420	0.641340
Ag31	Ag3	0.736990	0.719420	0.141340
Ag41	Ag4	0.763010	0.219420	0.858660
H11	H1	0.796000	0.541800	0.356700
H21	H2	0.736500	0.457600	0.334100
H31	H3	0.891500	0.400100	0.341200
H41	H4	0.285400	0.425900	0.401800
H51	H5	0.379500	0.500400	0.428500
H61	H6	0.253300	0.572400	0.424500
H71	H7	0.200500	0.404000	0.320300
H81	H8	0.243100	0.321000	0.311000
H91	H9	0.053100	0.280600	0.397500
H101	H10	0.003900	0.362000	0.409400
H111	H11	0.636200	0.007200	0.562000
H121	H12	0.663500	0.015800	0.488000
H131	H13	0.533000	0.079100	0.464000
H141	H14	0.274900	0.205500	0.544000
H151	H15	0.246000	0.220000	0.617500
H161	H16	0.345300	0.151900	0.653600
H171	H17	0.296100	0.084700	0.468000
H181	H18	0.231000	0.120800	0.410100
H191	H19	0.373500	0.247000	0.434700
H201	H20	0.444100	0.214500	0.493200
H211	H21	0.720900	0.034600	0.165500
H221	H22	0.735200	0.047000	0.239700
H231	H23	0.568100	0.088100	0.261900
H241	H24	0.250000	0.176600	0.177900
H251	H25	0.207500	0.178000	0.105900
H261	H26	0.347100	0.127300	0.070500
H271	H27	0.251700	0.096200	0.237100
H281	H28	0.183800	0.134300	0.294300
H291	H29	0.434600	0.219000	0.305000
H301	H30	0.510100	0.183700	0.247600
H311	H31	0.704000	0.041800	0.643300
H321	H32	0.763500	0.957600	0.665900
H331	H33	0.608500	0.900100	0.658800
H341	H34	0.214600	0.925900	0.598200
H351	H35	0.120500	0.000400	0.571500
H361	H36	0.246700	0.072400	0.575500
H371	H37	0.299500	0.904000	0.679700
H381	H38	0.256900	0.821000	0.689000
H391	H39	0.446900	0.780600	0.602500
H401	H40	0.496100	0.862000	0.590600
H411	H41	0.863800	0.507200	0.438000
H421	H42	0.836500	0.515800	0.512000
H431	H43	0.967000	0.579100	0.536000
H441	H44	0.225100	0.705500	0.456000
H451	H45	0.254000	0.720000	0.382500
H461	H46	0.154700	0.651900	0.346400
H471	H47	0.203900	0.584700	0.532000
H481	H48	0.269000	0.620800	0.589900
H491	H49	0.126500	0.747000	0.565300
H501	H50	0.055900	0.714500	0.506800
H511	H51	0.779100	0.534600	0.834500
H521	H52	0.764800	0.547000	0.760300
H531	H53	0.931900	0.588100	0.738100
H541	H54	0.250000	0.676600	0.822100
H551	H55	0.292500	0.678000	0.894100
H561	H56	0.152900	0.627300	0.929500
H571	H57	0.248300	0.596200	0.762900
H581	H58	0.316200	0.634300	0.705700
H591	H59	0.065400	0.719000	0.695000
H601	H60	0.989900	0.683700	0.752400
H611	H61	0.296000	0.041800	0.143300
H621	H62	0.236500	0.957600	0.165900
H631	H63	0.391500	0.900100	0.158800
H641	H64	0.785400	0.925900	0.098200
H651	H65	0.879500	0.000400	0.071500
H661	H66	0.753300	0.072400	0.075500
H671	H67	0.700500	0.904000	0.179700
H681	H68	0.743100	0.821000	0.189000
H691	H69	0.553100	0.780600	0.102500
H701	H70	0.503900	0.862000	0.090600
H711	H71	0.136200	0.507200	0.938000
H721	H72	0.163500	0.515800	0.012000
H731	H73	0.033000	0.579100	0.036000
H741	H74	0.774900	0.705500	0.956000
H751	H75	0.746000	0.720000	0.882500
H761	H76	0.845300	0.651900	0.846400
H771	H77	0.796100	0.584700	0.032000
H781	H78	0.731000	0.620800	0.089900
H791	H79	0.873500	0.747000	0.065300
H801	H80	0.944100	0.714500	0.006800
H811	H81	0.220900	0.534600	0.334500
H821	H82	0.235200	0.547000	0.260300
H831	H83	0.068100	0.588100	0.238100
H841	H84	0.750000	0.676600	0.322100
H851	H85	0.707500	0.678000	0.394100
H861	H86	0.847100	0.627300	0.429500
H871	H87	0.751700	0.596200	0.262900
H881	H88	0.683800	0.634300	0.205700
H891	H89	0.934600	0.719000	0.195000
H901	H90	0.010100	0.683700	0.252400
H911	H91	0.204000	0.541800	0.856700
H921	H92	0.263500	0.457600	0.834100
H931	H93	0.108500	0.400100	0.841200
H941	H94	0.714600	0.425900	0.901800
H951	H95	0.620500	0.500400	0.928500
H961	H96	0.746700	0.572400	0.924500
H971	H97	0.799500	0.404000	0.820300
H981	H98	0.756900	0.321000	0.811000
H991	H99	0.946900	0.280600	0.897500
H1001	H100	0.996100	0.362000	0.909400
H1011	H101	0.363800	0.007200	0.062000
H1021	H102	0.336500	0.015800	0.988000
H1031	H103	0.467000	0.079100	0.964000
H1041	H104	0.725100	0.205500	0.044000
H1051	H105	0.754000	0.220000	0.117500
H1061	H106	0.654700	0.151900	0.153600
H1071	H107	0.703900	0.084700	0.968000
H1081	H108	0.769000	0.120800	0.910100
H1091	H109	0.626500	0.247000	0.934700
H1101	H110	0.555900	0.214500	0.993200
H1111	H111	0.279100	0.034600	0.665500
H1121	H112	0.264800	0.047000	0.739700
H1131	H113	0.431900	0.088100	0.761900
H1141	H114	0.750000	0.176600	0.677900
H1151	H115	0.792500	0.178000	0.605900
H1161	H116	0.652900	0.127300	0.570500
H1171	H117	0.748300	0.096200	0.737100
H1181	H118	0.816200	0.134300	0.794300
H1191	H119	0.565400	0.219000	0.805000
H1201	H120	0.489900	0.183700	0.747600
C11	C1	0.838900	0.512760	0.356910
C21	C2	0.804800	0.465930	0.343890
C31	C3	0.889500	0.434450	0.348070
C41	C4	0.973800	0.462820	0.364630
C51	C5	0.074400	0.445960	0.375310
C61	C6	0.153200	0.474760	0.392520
C71	C7	0.257700	0.458670	0.403980
C81	C8	0.309000	0.499330	0.418590
C91	C9	0.237500	0.539390	0.416180
C101	C10	0.099300	0.392680	0.367020
C111	C11	0.169900	0.379270	0.337040
C121	C12	0.195300	0.329640	0.331860
C131	C13	0.085000	0.306160	0.382050
C141	C14	0.054700	0.354760	0.389320
C151	C15	0.598000	0.029400	0.545240
C161	C16	0.613700	0.033570	0.503790
C171	C17	0.542600	0.068370	0.490850
C181	C18	0.485300	0.085640	0.524790
C191	C19	0.413800	0.123920	0.526520
C201	C20	0.372000	0.144790	0.561120
C211	C21	0.303900	0.186380	0.565220
C221	C22	0.286900	0.194270	0.605580
C231	C23	0.343300	0.156050	0.625340
C241	C24	0.375500	0.146230	0.487860
C251	C25	0.312800	0.118390	0.461880
C261	C26	0.275000	0.140020	0.427250
C271	C27	0.358200	0.213420	0.441620
C281	C28	0.399700	0.194530	0.476830
C291	C29	0.669200	0.050540	0.181660
C301	C30	0.677600	0.056850	0.223190
C311	C31	0.586700	0.079860	0.235220
C321	C32	0.524300	0.089440	0.200130
C331	C33	0.432400	0.116710	0.197610
C341	C34	0.378400	0.128810	0.162470
C351	C35	0.287600	0.159840	0.157310
C361	C36	0.264900	0.161020	0.118130
C371	C37	0.343000	0.131970	0.098580
C381	C38	0.387000	0.137910	0.235160
C391	C39	0.290200	0.122020	0.250050
C401	C40	0.250700	0.144760	0.284440
C411	C41	0.396300	0.194160	0.290800
C421	C42	0.442000	0.173330	0.256220
C431	C43	0.661100	0.012760	0.643090
C441	C44	0.695200	0.965930	0.656110
C451	C45	0.610500	0.934450	0.651930
C461	C46	0.526200	0.962820	0.635370
C471	C47	0.425600	0.945960	0.624690
C481	C48	0.346800	0.974760	0.607480
C491	C49	0.242300	0.958670	0.596020
C501	C50	0.191000	0.999330	0.581410
C511	C51	0.262500	0.039390	0.583820
C521	C52	0.400700	0.892680	0.632980
C531	C53	0.330100	0.879270	0.662960
C541	C54	0.304700	0.829640	0.668140
C551	C55	0.415000	0.806160	0.617950
C561	C56	0.445300	0.854760	0.610680
C571	C57	0.902000	0.529400	0.454760
C581	C58	0.886300	0.533570	0.496210
C591	C59	0.957400	0.568370	0.509150
C601	C60	0.014700	0.585640	0.475210
C611	C61	0.086200	0.623920	0.473480
C621	C62	0.128000	0.644790	0.438880
C631	C63	0.196100	0.686380	0.434780
C641	C64	0.213100	0.694270	0.394420
C651	C65	0.156700	0.656050	0.374660
C661	C66	0.124500	0.646230	0.512140
C671	C67	0.187200	0.618390	0.538120
C681	C68	0.225000	0.640020	0.572750
C691	C69	0.141800	0.713420	0.558380
C701	C70	0.100300	0.694530	0.523170
C711	C71	0.830800	0.550540	0.818340
C721	C72	0.822400	0.556850	0.776810
C731	C73	0.913300	0.579860	0.764780
C741	C74	0.975700	0.589440	0.799870
C751	C75	0.067600	0.616710	0.802390
C761	C76	0.121600	0.628810	0.837530
C771	C77	0.212400	0.659840	0.842690
C781	C78	0.235100	0.661020	0.881870
C791	C79	0.157000	0.631970	0.901420
C801	C80	0.113000	0.637910	0.764840
C811	C81	0.209800	0.622020	0.749950
C821	C82	0.249300	0.644760	0.715560
C831	C83	0.103700	0.694160	0.709200
C841	C84	0.058000	0.673330	0.743780
C851	C85	0.338900	0.012760	0.143090
C861	C86	0.304800	0.965930	0.156110
C871	C87	0.389500	0.934450	0.151930
C881	C88	0.473800	0.962820	0.135370
C891	C89	0.574400	0.945960	0.124690
C901	C90	0.653200	0.974760	0.107480
C911	C91	0.757700	0.958670	0.096020
C921	C92	0.809000	0.999330	0.081410
C931	C93	0.737500	0.039390	0.083820
C941	C94	0.599300	0.892680	0.132980
C951	C95	0.669900	0.879270	0.162960
C961	C96	0.695300	0.829640	0.168140
C971	C97	0.585000	0.806160	0.117950
C981	C98	0.554700	0.854760	0.110680
C991	C99	0.098000	0.529400	0.954760
C1001	C100	0.113700	0.533570	0.996210
C1011	C101	0.042600	0.568370	0.009150
C1021	C102	0.985300	0.585640	0.975210
C1031	C103	0.913800	0.623920	0.973480
C1041	C104	0.872000	0.644790	0.938880
C1051	C105	0.803900	0.686380	0.934780
C1061	C106	0.786900	0.694270	0.894420
C1071	C107	0.843300	0.656050	0.874660
C1081	C108	0.875500	0.646230	0.012140
C1091	C109	0.812800	0.618390	0.038120
C1101	C110	0.775000	0.640020	0.072750
C1111	C111	0.858200	0.713420	0.058380
C1121	C112	0.899700	0.694530	0.023170
C1131	C113	0.169200	0.550540	0.318340
C1141	C114	0.177600	0.556850	0.276810
C1151	C115	0.086700	0.579860	0.264780
C1161	C116	0.024300	0.589440	0.299870
C1171	C117	0.932400	0.616710	0.302390
C1181	C118	0.878400	0.628810	0.337530
C1191	C119	0.787600	0.659840	0.342690
C1201	C120	0.764900	0.661020	0.381870
C1211	C121	0.843000	0.631970	0.401420
C1221	C122	0.887000	0.637910	0.264840
C1231	C123	0.790200	0.622020	0.249950
C1241	C124	0.750700	0.644760	0.215560
C1251	C125	0.896300	0.694160	0.209200
C1261	C126	0.942000	0.673330	0.243780
C1271	C127	0.161100	0.512760	0.856910
C1281	C128	0.195200	0.465930	0.843890
C1291	C129	0.110500	0.434450	0.848070
C1301	C130	0.026200	0.462820	0.864630
C1311	C131	0.925600	0.445960	0.875310
C1321	C132	0.846800	0.474760	0.892520
C1331	C133	0.742300	0.458670	0.903980
C1341	C134	0.691000	0.499330	0.918590
C1351	C135	0.762500	0.539390	0.916180
C1361	C136	0.900700	0.392680	0.867020
C1371	C137	0.830100	0.379270	0.837040
C1381	C138	0.804700	0.329640	0.831860
C1391	C139	0.915000	0.306160	0.882050
C1401	C140	0.945300	0.354760	0.889320
C1411	C141	0.402000	0.029400	0.045240
C1421	C142	0.386300	0.033570	0.003790
C1431	C143	0.457400	0.068370	0.990850
C1441	C144	0.514700	0.085640	0.024790
C1451	C145	0.586200	0.123920	0.026520
C1461	C146	0.628000	0.144790	0.061120
C1471	C147	0.696100	0.186380	0.065220
C1481	C148	0.713100	0.194270	0.105580
C1491	C149	0.656700	0.156050	0.125340
C1501	C150	0.624500	0.146230	0.987860
C1511	C151	0.687200	0.118390	0.961880
C1521	C152	0.725000	0.140020	0.927250
C1531	C153	0.641800	0.213420	0.941620
C1541	C154	0.600300	0.194530	0.976830
C1551	C155	0.330800	0.050540	0.681660
C1561	C156	0.322400	0.056850	0.723190
C1571	C157	0.413300	0.079860	0.735220
C1581	C158	0.475700	0.089440	0.700130
C1591	C159	0.567600	0.116710	0.697610
C1601	C160	0.621600	0.128810	0.662470
C1611	C161	0.712400	0.159840	0.657310
C1621	C162	0.735100	0.161020	0.618130
C1631	C163	0.657000	0.131970	0.598580
C1641	C164	0.613000	0.137910	0.735160
C1651	C165	0.709800	0.122020	0.750050
C1661	C166	0.749300	0.144760	0.784440
C1671	C167	0.603700	0.194160	0.790800
C1681	C168	0.558000	0.173330	0.756220
N11	N1	0.939500	0.511650	0.369670
N21	N2	0.144800	0.525350	0.400730
N31	N3	0.156100	0.293110	0.354610
N41	N4	0.523900	0.059980	0.558180
N51	N5	0.393300	0.126440	0.599500
N61	N6	0.297600	0.186480	0.416860
N71	N7	0.577800	0.070190	0.167630
N81	N8	0.409400	0.112210	0.124750
N91	N9	0.302100	0.180430	0.304230
N101	N10	0.560500	0.011650	0.630330
N111	N11	0.355200	0.025350	0.599270
N121	N12	0.343900	0.793110	0.645390
N131	N13	0.976100	0.559980	0.441820
N141	N14	0.106700	0.626440	0.400500
N151	N15	0.202400	0.686480	0.583140
N161	N16	0.922200	0.570190	0.832370
N171	N17	0.090600	0.612210	0.875250
N181	N18	0.197900	0.680430	0.695770
N191	N19	0.439500	0.011650	0.130330
N201	N20	0.644800	0.025350	0.099270
N211	N21	0.656100	0.793110	0.145390
N221	N22	0.023900	0.559980	0.941820
N231	N23	0.893300	0.626440	0.900500
N241	N24	0.797600	0.686480	0.083140
N251	N25	0.077800	0.570190	0.332370
N261	N26	0.909400	0.612210	0.375250
N271	N27	0.802100	0.680430	0.195770
N281	N28	0.060500	0.511650	0.869670
N291	N29	0.855200	0.525350	0.900730
N301	N30	0.843900	0.293110	0.854610
N311	N31	0.476100	0.059980	0.058180
N321	N32	0.606700	0.126440	0.099500
N331	N33	0.702400	0.186480	0.916860
N341	N34	0.422200	0.070190	0.667630
N351	N35	0.590600	0.112210	0.624750
N361	N36	0.697900	0.180430	0.804230
Co51	Co5	0.474680	0.932340	0.887020
Co61	Co6	0.025320	0.432340	0.112980
Co71	Co7	0.974680	0.432340	0.612980
Co81	Co8	0.525320	0.932340	0.387020
Ag51	Ag5	0.263010	0.280580	0.858660
Ag61	Ag6	0.236990	0.780580	0.141340
Ag71	Ag7	0.763010	0.780580	0.641340
Ag81	Ag8	0.736990	0.280580	0.358660
H1211	H121	0.704000	0.958200	0.856700
H1221	H122	0.763500	0.042400	0.834100
H1231	H123	0.608500	0.099900	0.841200
H1241	H124	0.214600	0.074100	0.901800
H1251	H125	0.120500	0.999600	0.928500
H1261	H126	0.246700	0.927600	0.924500
H1271	H127	0.299500	0.096000	0.820300
H1281	H128	0.256900	0.179000	0.811000
H1291	H129	0.446900	0.219400	0.897500
H1301	H130	0.496100	0.138000	0.909400
H1311	H131	0.863800	0.492800	0.062000
H1321	H132	0.836500	0.484200	0.988000
H1331	H133	0.967000	0.420900	0.964000
H1341	H134	0.225100	0.294500	0.044000
H1351	H135	0.254000	0.280000	0.117500
H1361	H136	0.154700	0.348100	0.153600
H1371	H137	0.203900	0.415300	0.968000
H1381	H138	0.269000	0.379200	0.910100
H1391	H139	0.126500	0.253000	0.934700
H1401	H140	0.055900	0.285500	0.993200
H1411	H141	0.779100	0.465400	0.665500
H1421	H142	0.764800	0.453000	0.739700
H1431	H143	0.931900	0.411900	0.761900
H1441	H144	0.250000	0.323400	0.677900
H1451	H145	0.292500	0.322000	0.605900
H1461	H146	0.152900	0.372700	0.570500
H1471	H147	0.248300	0.403800	0.737100
H1481	H148	0.316200	0.365700	0.794300
H1491	H149	0.065400	0.281000	0.805000
H1501	H150	0.989900	0.316300	0.747600
H1511	H151	0.796000	0.458200	0.143300
H1521	H152	0.736500	0.542400	0.165900
H1531	H153	0.891500	0.599900	0.158800
H1541	H154	0.285400	0.574100	0.098200
H1551	H155	0.379500	0.499600	0.071500
H1561	H156	0.253300	0.427600	0.075500
H1571	H157	0.200500	0.596000	0.179700
H1581	H158	0.243100	0.679000	0.189000
H1591	H159	0.053100	0.719400	0.102500
H1601	H160	0.003900	0.638000	0.090600
H1611	H161	0.636200	0.992800	0.938000
H1621	H162	0.663500	0.984200	0.012000
H1631	H163	0.533000	0.920900	0.036000
H1641	H164	0.274900	0.794500	0.956000
H1651	H165	0.246000	0.780000	0.882500
H1661	H166	0.345300	0.848100	0.846400
H1671	H167	0.296100	0.915300	0.032000
H1681	H168	0.231000	0.879200	0.089900
H1691	H169	0.373500	0.753000	0.065300
H1701	H170	0.444100	0.785500	0.006800
H1711	H171	0.720900	0.965400	0.334500
H1721	H172	0.735200	0.953000	0.260300
H1731	H173	0.568100	0.911900	0.238100
H1741	H174	0.250000	0.823400	0.322100
H1751	H175	0.207500	0.822000	0.394100
H1761	H176	0.347100	0.872700	0.429500
H1771	H177	0.251700	0.903800	0.262900
H1781	H178	0.183800	0.865700	0.205700
H1791	H179	0.434600	0.781000	0.195000
H1801	H180	0.510100	0.816300	0.252400
H1811	H181	0.204000	0.458200	0.643300
H1821	H182	0.263500	0.542400	0.665900
H1831	H183	0.108500	0.599900	0.658800
H1841	H184	0.714600	0.574100	0.598200
H1851	H185	0.620500	0.499600	0.571500
H1861	H186	0.746700	0.427600	0.575500
H1871	H187	0.799500	0.596000	0.679700
H1881	H188	0.756900	0.679000	0.689000
H1891	H189	0.946900	0.719400	0.602500
H1901	H190	0.996100	0.638000	0.590600
H1911	H191	0.363800	0.992800	0.438000
H1921	H192	0.336500	0.984200	0.512000
H1931	H193	0.467000	0.920900	0.536000
H1941	H194	0.725100	0.794500	0.456000
H1951	H195	0.754000	0.780000	0.382500
H1961	H196	0.654700	0.848100	0.346400
H1971	H197	0.703900	0.915300	0.532000
H1981	H198	0.769000	0.879200	0.589900
H1991	H199	0.626500	0.753000	0.565300
H2001	H200	0.555900	0.785500	0.506800
H2011	H201	0.279100	0.965400	0.834500
H2021	H202	0.264800	0.953000	0.760300
H2031	H203	0.431900	0.911900	0.738100
H2041	H204	0.750000	0.823400	0.822100
H2051	H205	0.792500	0.822000	0.894100
H2061	H206	0.652900	0.872700	0.929500
H2071	H207	0.748300	0.903800	0.762900
H2081	H208	0.816200	0.865700	0.705700
H2091	H209	0.565400	0.781000	0.695000
H2101	H210	0.489900	0.816300	0.752400
H2111	H211	0.296000	0.958200	0.356700
H2121	H212	0.236500	0.042400	0.334100
H2131	H213	0.391500	0.099900	0.341200
H2141	H214	0.785400	0.074100	0.401800
H2151	H215	0.879500	0.999600	0.428500
H2161	H216	0.753300	0.927600	0.424500
H2171	H217	0.700500	0.096000	0.320300
H2181	H218	0.743100	0.179000	0.311000
H2191	H219	0.553100	0.219400	0.397500
H2201	H220	0.503900	0.138000	0.409400
H2211	H221	0.136200	0.492800	0.562000
H2221	H222	0.163500	0.484200	0.488000
H2231	H223	0.033000	0.420900	0.464000
H2241	H224	0.774900	0.294500	0.544000
H2251	H225	0.746000	0.280000	0.617500
H2261	H226	0.845300	0.348100	0.653600
H2271	H227	0.796100	0.415300	0.468000
H2281	H228	0.731000	0.379200	0.410100
H2291	H229	0.873500	0.253000	0.434700
H2301	H230	0.944100	0.285500	0.493200
H2311	H231	0.220900	0.465400	0.165500
H2321	H232	0.235200	0.453000	0.239700
H2331	H233	0.068100	0.411900	0.261900
H2341	H234	0.750000	0.323400	0.177900
H2351	H235	0.707500	0.322000	0.105900
H2361	H236	0.847100	0.372700	0.070500
H2371	H237	0.751700	0.403800	0.237100
H2381	H238	0.683800	0.365700	0.294300
H2391	H239	0.934600	0.281000	0.305000
H2401	H240	0.010100	0.316300	0.247600
C1691	C169	0.661100	0.987240	0.856910
C1701	C170	0.695200	0.034070	0.843890
C1711	C171	0.610500	0.065550	0.848070
C1721	C172	0.526200	0.037180	0.864630
C1731	C173	0.425600	0.054040	0.875310
C1741	C174	0.346800	0.025240	0.892520
C1751	C175	0.242300	0.041330	0.903980
C1761	C176	0.191000	0.000670	0.918590
C1771	C177	0.262500	0.960610	0.916180
C1781	C178	0.400700	0.107320	0.867020
C1791	C179	0.330100	0.120730	0.837040
C1801	C180	0.304700	0.170360	0.831860
C1811	C181	0.415000	0.193840	0.882050
C1821	C182	0.445300	0.145240	0.889320
C1831	C183	0.902000	0.470600	0.045240
C1841	C184	0.886300	0.466430	0.003790
C1851	C185	0.957400	0.431630	0.990850
C1861	C186	0.014700	0.414360	0.024790
C1871	C187	0.086200	0.376080	0.026520
C1881	C188	0.128000	0.355210	0.061120
C1891	C189	0.196100	0.313620	0.065220
C1901	C190	0.213100	0.305730	0.105580
C1911	C191	0.156700	0.343950	0.125340
C1921	C192	0.124500	0.353770	0.987860
C1931	C193	0.187200	0.381610	0.961880
C1941	C194	0.225000	0.359980	0.927250
C1951	C195	0.141800	0.286580	0.941620
C1961	C196	0.100300	0.305470	0.976830
C1971	C197	0.830800	0.449460	0.681660
C1981	C198	0.822400	0.443150	0.723190
C1991	C199	0.913300	0.420140	0.735220
C2001	C200	0.975700	0.410560	0.700130
C2011	C201	0.067600	0.383290	0.697610
C2021	C202	0.121600	0.371190	0.662470
C2031	C203	0.212400	0.340160	0.657310
C2041	C204	0.235100	0.338980	0.618130
C2051	C205	0.157000	0.368030	0.598580
C2061	C206	0.113000	0.362090	0.735160
C2071	C207	0.209800	0.377980	0.750050
C2081	C208	0.249300	0.355240	0.784440
C2091	C209	0.103700	0.305840	0.790800
C2101	C210	0.058000	0.326670	0.756220
C2111	C211	0.838900	0.487240	0.143090
C2121	C212	0.804800	0.534070	0.156110
C2131	C213	0.889500	0.565550	0.151930
C2141	C214	0.973800	0.537180	0.135370
C2151	C215	0.074400	0.554040	0.124690
C2161	C216	0.153200	0.525240	0.107480
C2171	C217	0.257700	0.541330	0.096020
C2181	C218	0.309000	0.500670	0.081410
C2191	C219	0.237500	0.460610	0.083820
C2201	C220	0.099300	0.607320	0.132980
C2211	C221	0.169900	0.620730	0.162960
C2221	C222	0.195300	0.670360	0.168140
C2231	C223	0.085000	0.693840	0.117950
C2241	C224	0.054700	0.645240	0.110680
C2251	C225	0.598000	0.970600	0.954760
C2261	C226	0.613700	0.966430	0.996210
C2271	C227	0.542600	0.931630	0.009150
C2281	C228	0.485300	0.914360	0.975210
C2291	C229	0.413800	0.876080	0.973480
C2301	C230	0.372000	0.855210	0.938880
C2311	C231	0.303900	0.813620	0.934780
C2321	C232	0.286900	0.805730	0.894420
C2331	C233	0.343300	0.843950	0.874660
C2341	C234	0.375500	0.853770	0.012140
C2351	C235	0.312800	0.881610	0.038120
C2361	C236	0.275000	0.859980	0.072750
C2371	C237	0.358200	0.786580	0.058380
C2381	C238	0.399700	0.805470	0.023170
C2391	C239	0.669200	0.949460	0.318340
C2401	C240	0.677600	0.943150	0.276810
C2411	C241	0.586700	0.920140	0.264780
C2421	C242	0.524300	0.910560	0.299870
C2431	C243	0.432400	0.883290	0.302390
C2441	C244	0.378400	0.871190	0.337530
C2451	C245	0.287600	0.840160	0.342690
C2461	C246	0.264900	0.838980	0.381870
C2471	C247	0.343000	0.868030	0.401420
C2481	C248	0.387000	0.862090	0.264840
C2491	C249	0.290200	0.877980	0.249950
C2501	C250	0.250700	0.855240	0.215560
C2511	C251	0.396300	0.805840	0.209200
C2521	C252	0.442000	0.826670	0.243780
C2531	C253	0.161100	0.487240	0.643090
C2541	C254	0.195200	0.534070	0.656110
C2551	C255	0.110500	0.565550	0.651930
C2561	C256	0.026200	0.537180	0.635370
C2571	C257	0.925600	0.554040	0.624690
C2581	C258	0.846800	0.525240	0.607480
C2591	C259	0.742300	0.541330	0.596020
C2601	C260	0.691000	0.500670	0.581410
C2611	C261	0.762500	0.460610	0.583820
C2621	C262	0.900700	0.607320	0.632980
C2631	C263	0.830100	0.620730	0.662960
C2641	C264	0.804700	0.670360	0.668140
C2651	C265	0.915000	0.693840	0.617950
C2661	C266	0.945300	0.645240	0.610680
C2671	C267	0.402000	0.970600	0.454760
C2681	C268	0.386300	0.966430	0.496210
C2691	C269	0.457400	0.931630	0.509150
C2701	C270	0.514700	0.914360	0.475210
C2711	C271	0.586200	0.876080	0.473480
C2721	C272	0.628000	0.855210	0.438880
C2731	C273	0.696100	0.813620	0.434780
C2741	C274	0.713100	0.805730	0.394420
C2751	C275	0.656700	0.843950	0.374660
C2761	C276	0.624500	0.853770	0.512140
C2771	C277	0.687200	0.881610	0.538120
C2781	C278	0.725000	0.859980	0.572750
C2791	C279	0.641800	0.786580	0.558380
C2801	C280	0.600300	0.805470	0.523170
C2811	C281	0.330800	0.949460	0.818340
C2821	C282	0.322400	0.943150	0.776810
C2831	C283	0.413300	0.920140	0.764780
C2841	C284	0.475700	0.910560	0.799870
C2851	C285	0.567600	0.883290	0.802390
C2861	C286	0.621600	0.871190	0.837530
C2871	C287	0.712400	0.840160	0.842690
C2881	C288	0.735100	0.838980	0.881870
C2891	C289	0.657000	0.868030	0.901420
C2901	C290	0.613000	0.862090	0.764840
C2911	C291	0.709800	0.877980	0.749950
C2921	C292	0.749300	0.855240	0.715560
C2931	C293	0.603700	0.805840	0.709200
C2941	C294	0.558000	0.826670	0.743780
C2951	C295	0.338900	0.987240	0.356910
C2961	C296	0.304800	0.034070	0.343890
C2971	C297	0.389500	0.065550	0.348070
C2981	C298	0.473800	0.037180	0.364630
C2991	C299	0.574400	0.054040	0.375310
C3001	C300	0.653200	0.025240	0.392520
C3011	C301	0.757700	0.041330	0.403980
C3021	C302	0.809000	0.000670	0.418590
C3031	C303	0.737500	0.960610	0.416180
C3041	C304	0.599300	0.107320	0.367020
C3051	C305	0.669900	0.120730	0.337040
C3061	C306	0.695300	0.170360	0.331860
C3071	C307	0.585000	0.193840	0.382050
C3081	C308	0.554700	0.145240	0.389320
C3091	C309	0.098000	0.470600	0.545240
C3101	C310	0.113700	0.466430	0.503790
C3111	C311	0.042600	0.431630	0.490850
C3121	C312	0.985300	0.414360	0.524790
C3131	C313	0.913800	0.376080	0.526520
C3141	C314	0.872000	0.355210	0.561120
C3151	C315	0.803900	0.313620	0.565220
C3161	C316	0.786900	0.305730	0.605580
C3171	C317	0.843300	0.343950	0.625340
C3181	C318	0.875500	0.353770	0.487860
C3191	C319	0.812800	0.381610	0.461880
C3201	C320	0.775000	0.359980	0.427250
C3211	C321	0.858200	0.286580	0.441620
C3221	C322	0.899700	0.305470	0.476830
C3231	C323	0.169200	0.449460	0.181660
C3241	C324	0.177600	0.443150	0.223190
C3251	C325	0.086700	0.420140	0.235220
C3261	C326	0.024300	0.410560	0.200130
C3271	C327	0.932400	0.383290	0.197610
C3281	C328	0.878400	0.371190	0.162470
C3291	C329	0.787600	0.340160	0.157310
C3301	C330	0.764900	0.338980	0.118130
C3311	C331	0.843000	0.368030	0.098580
C3321	C332	0.887000	0.362090	0.235160
C3331	C333	0.790200	0.377980	0.250050
C3341	C334	0.750700	0.355240	0.284440
C3351	C335	0.896300	0.305840	0.290800
C3361	C336	0.942000	0.326670	0.256220
N371	N37	0.560500	0.988350	0.869670
N381	N38	0.355200	0.974650	0.900730
N391	N39	0.343900	0.206890	0.854610
N401	N40	0.976100	0.440020	0.058180
N411	N41	0.106700	0.373560	0.099500
N421	N42	0.202400	0.313520	0.916860
N431	N43	0.922200	0.429810	0.667630
N441	N44	0.090600	0.387790	0.624750
N451	N45	0.197900	0.319570	0.804230
N461	N46	0.939500	0.488350	0.130330
N471	N47	0.144800	0.474650	0.099270
N481	N48	0.156100	0.706890	0.145390
N491	N49	0.523900	0.940020	0.941820
N501	N50	0.393300	0.873560	0.900500
N511	N51	0.297600	0.813520	0.083140
N521	N52	0.577800	0.929810	0.332370
N531	N53	0.409400	0.887790	0.375250
N541	N54	0.302100	0.819570	0.195770
N551	N55	0.060500	0.488350	0.630330
N561	N56	0.855200	0.474650	0.599270
N571	N57	0.843900	0.706890	0.645390
N581	N58	0.476100	0.940020	0.441820
N591	N59	0.606700	0.873560	0.400500
N601	N60	0.702400	0.813520	0.583140
N611	N61	0.422200	0.929810	0.832370
N621	N62	0.590600	0.887790	0.875250
N631	N63	0.697900	0.819570	0.695770
N641	N64	0.439500	0.988350	0.369670
N651	N65	0.644800	0.974650	0.400730
N661	N66	0.656100	0.206890	0.354610
N671	N67	0.023900	0.440020	0.558180
N681	N68	0.893300	0.373560	0.599500
N691	N69	0.797600	0.313520	0.416860
N701	N70	0.077800	0.429810	0.167630
N711	N71	0.909400	0.387790	0.124750
N721	N72	0.802100	0.319570	0.304230
P11	P1	0.475290	0.345190	0.374390
F11	F1	0.414970	0.379620	0.343460
F21	F2	0.537620	0.311170	0.405240
F31	F3	0.583700	0.352100	0.354380
F41	F4	0.450200	0.296740	0.349300
F51	F5	0.364800	0.335700	0.399120
F61	F6	0.497600	0.391500	0.403720
P21	P2	0.024710	0.154810	0.874390
F71	F7	0.085030	0.120380	0.843460
F81	F8	0.962380	0.188830	0.905240
F91	F9	0.916300	0.147900	0.854380
F101	F10	0.049800	0.203260	0.849300
F111	F11	0.135200	0.164300	0.899120
F121	F12	0.002400	0.108500	0.903720
P31	P3	0.475290	0.654810	0.125610
F131	F13	0.414970	0.620380	0.156540
F141	F14	0.537620	0.688830	0.094760
F151	F15	0.583700	0.647900	0.145620
F161	F16	0.450200	0.703260	0.150700
F171	F17	0.364800	0.664300	0.100880
F181	F18	0.497600	0.608500	0.096280
P41	P4	0.024710	0.845190	0.625610
F191	F19	0.085030	0.879620	0.656540
F201	F20	0.962380	0.811170	0.594760
F211	F21	0.916300	0.852100	0.645620
F221	F22	0.049800	0.796740	0.650700
F231	F23	0.135200	0.835700	0.600880
F241	F24	0.002400	0.891500	0.596280
P51	P5	0.524710	0.654810	0.625610
F251	F25	0.585030	0.620380	0.656540
F261	F26	0.462380	0.688830	0.594760
F271	F27	0.416300	0.647900	0.645620
F281	F28	0.549800	0.703260	0.650700
F291	F29	0.635200	0.664300	0.600880
F301	F30	0.502400	0.608500	0.596280
P61	P6	0.975290	0.845190	0.125610
F311	F31	0.914970	0.879620	0.156540
F321	F32	0.037620	0.811170	0.094760
F331	F33	0.083700	0.852100	0.145620
F341	F34	0.950200	0.796740	0.150700
F351	F35	0.864800	0.835700	0.100880
F361	F36	0.997600	0.891500	0.096280
P71	P7	0.524710	0.345190	0.874390
F371	F37	0.585030	0.379620	0.843460
F381	F38	0.462380	0.311170	0.905240
F391	F39	0.416300	0.352100	0.854380
F401	F40	0.549800	0.296740	0.849300
F411	F41	0.635200	0.335700	0.899120
F421	F42	0.502400	0.391500	0.903720
P81	P8	0.975290	0.154810	0.374390
F431	F43	0.914970	0.120380	0.343460
F441	F44	0.037620	0.188830	0.405240
F451	F45	0.083700	0.147900	0.354380
F461	F46	0.950200	0.203260	0.349300
F471	F47	0.864800	0.164300	0.399120
F481	F48	0.997600	0.108500	0.403720
