data_KEVPEH_freeONLY_PM
_symmetry_space_group_name_H-M	'P1'
_cell_length_a	10.898400
_cell_length_b	11.426000
_cell_length_c	15.059000
_cell_angle_alpha	90.000000
_cell_angle_beta	90.000000
_cell_angle_gamma	90.000000
_symmetry_Int_Tables_number 1

loop_
_symmetry_equiv_pos_as_xyz
'x,y,z'

loop_
_atom_site_label
_atom_site_type_symbol
_atom_site_fract_x
_atom_site_fract_y
_atom_site_fract_z
O11	O1	0.332800	0.251300	0.207700
O21	O2	0.375400	0.083700	0.413200
O31	O3	0.170300	0.981100	0.339400
O41	O4	0.169400	0.982300	0.139800
O51	O5	0.317000	0.295000	0.024100
C11	C1	0.316600	0.130300	0.335700
C21	C2	0.288900	0.161800	0.147500
C31	C3	0.201100	0.078800	0.195900
C41	C4	0.259600	0.033500	0.281400
C51	C5	0.229100	0.225300	0.070800
C61	C6	0.400500	0.206300	0.280300
H11	H1	0.251900	0.179000	0.356100
H21	H2	0.356600	0.118000	0.125600
H31	H3	0.127800	0.120800	0.210600
H41	H4	0.321000	0.977200	0.266700
H51	H5	0.430400	0.269500	0.315500
H61	H6	0.165100	0.274700	0.093100
H71	H7	0.193600	0.169700	0.031200
O61	O6	0.832800	0.751300	0.207700
O71	O7	0.875400	0.583700	0.413200
O81	O8	0.670300	0.481100	0.339400
O91	O9	0.669400	0.482300	0.139800
O101	O10	0.817000	0.795000	0.024100
C71	C7	0.816600	0.630300	0.335700
C81	C8	0.788900	0.661800	0.147500
C91	C9	0.701100	0.578800	0.195900
C101	C10	0.759600	0.533500	0.281400
C111	C11	0.729100	0.725300	0.070800
C121	C12	0.900500	0.706300	0.280300
H81	H8	0.751900	0.679000	0.356100
H91	H9	0.856600	0.618000	0.125600
H101	H10	0.627800	0.620800	0.210600
H111	H11	0.821000	0.477200	0.266700
H121	H12	0.930400	0.769500	0.315500
H131	H13	0.665100	0.774700	0.093100
H141	H14	0.693600	0.669700	0.031200
O111	O11	0.667200	0.748700	0.707700
O121	O12	0.624600	0.916300	0.913200
O131	O13	0.829700	0.018900	0.839400
O141	O14	0.830600	0.017700	0.639800
O151	O15	0.683000	0.705000	0.524100
C131	C13	0.683400	0.869700	0.835700
C141	C14	0.711100	0.838200	0.647500
C151	C15	0.798900	0.921200	0.695900
C161	C16	0.740400	0.966500	0.781400
C171	C17	0.770900	0.774700	0.570800
C181	C18	0.599500	0.793700	0.780300
H151	H15	0.748100	0.821000	0.856100
H161	H16	0.643400	0.882000	0.625600
H171	H17	0.872200	0.879200	0.710600
H181	H18	0.679000	0.022800	0.766700
H191	H19	0.569600	0.730500	0.815500
H201	H20	0.834900	0.725300	0.593100
H211	H21	0.806400	0.830300	0.531200
O161	O16	0.167200	0.248700	0.707700
O171	O17	0.124600	0.416300	0.913200
O181	O18	0.329700	0.518900	0.839400
O191	O19	0.330600	0.517700	0.639800
O201	O20	0.183000	0.205000	0.524100
C191	C19	0.183400	0.369700	0.835700
C201	C20	0.211100	0.338200	0.647500
C211	C21	0.298900	0.421200	0.695900
C221	C22	0.240400	0.466500	0.781400
C231	C23	0.270900	0.274700	0.570800
C241	C24	0.099500	0.293700	0.780300
H221	H22	0.248100	0.321000	0.856100
H231	H23	0.143400	0.382000	0.625600
H241	H24	0.372200	0.379200	0.710600
H251	H25	0.179000	0.522800	0.766700
H261	H26	0.069600	0.230500	0.815500
H271	H27	0.334900	0.225300	0.593100
H281	H28	0.306400	0.330300	0.531200
O211	O21	0.667200	0.251300	0.292300
O221	O22	0.624600	0.083700	0.086800
O231	O23	0.829700	0.981100	0.160600
O241	O24	0.830600	0.982300	0.360200
O251	O25	0.683000	0.295000	0.475900
C251	C25	0.683400	0.130300	0.164300
C261	C26	0.711100	0.161800	0.352500
C271	C27	0.798900	0.078800	0.304100
C281	C28	0.740400	0.033500	0.218600
C291	C29	0.770900	0.225300	0.429200
C301	C30	0.599500	0.206300	0.219700
H291	H29	0.748100	0.179000	0.143900
H301	H30	0.643400	0.118000	0.374400
H311	H31	0.872200	0.120800	0.289400
H321	H32	0.679000	0.977200	0.233300
H331	H33	0.569600	0.269500	0.184500
H341	H34	0.834900	0.274700	0.406900
H351	H35	0.806400	0.169700	0.468800
O261	O26	0.167200	0.751300	0.292300
O271	O27	0.124600	0.583700	0.086800
O281	O28	0.329700	0.481100	0.160600
O291	O29	0.330600	0.482300	0.360200
O301	O30	0.183000	0.795000	0.475900
C311	C31	0.183400	0.630300	0.164300
C321	C32	0.211100	0.661800	0.352500
C331	C33	0.298900	0.578800	0.304100
C341	C34	0.240400	0.533500	0.218600
C351	C35	0.270900	0.725300	0.429200
C361	C36	0.099500	0.706300	0.219700
H361	H36	0.248100	0.679000	0.143900
H371	H37	0.143400	0.618000	0.374400
H381	H38	0.372200	0.620800	0.289400
H391	H39	0.179000	0.477200	0.233300
H401	H40	0.069600	0.769500	0.184500
H411	H41	0.334900	0.774700	0.406900
H421	H42	0.306400	0.669700	0.468800
O311	O31	0.332800	0.748700	0.792300
O321	O32	0.375400	0.916300	0.586800
O331	O33	0.170300	0.018900	0.660600
O341	O34	0.169400	0.017700	0.860200
O351	O35	0.317000	0.705000	0.975900
C371	C37	0.316600	0.869700	0.664300
C381	C38	0.288900	0.838200	0.852500
C391	C39	0.201100	0.921200	0.804100
C401	C40	0.259600	0.966500	0.718600
C411	C41	0.229100	0.774700	0.929200
C421	C42	0.400500	0.793700	0.719700
H431	H43	0.251900	0.821000	0.643900
H441	H44	0.356600	0.882000	0.874400
H451	H45	0.127800	0.879200	0.789400
H461	H46	0.321000	0.022800	0.733300
H471	H47	0.430400	0.730500	0.684500
H481	H48	0.165100	0.725300	0.906900
H491	H49	0.193600	0.830300	0.968800
O361	O36	0.832800	0.248700	0.792300
O371	O37	0.875400	0.416300	0.586800
O381	O38	0.670300	0.518900	0.660600
O391	O39	0.669400	0.517700	0.860200
O401	O40	0.817000	0.205000	0.975900
C431	C43	0.816600	0.369700	0.664300
C441	C44	0.788900	0.338200	0.852500
C451	C45	0.701100	0.421200	0.804100
C461	C46	0.759600	0.466500	0.718600
C471	C47	0.729100	0.274700	0.929200
C481	C48	0.900500	0.293700	0.719700
H501	H50	0.751900	0.321000	0.643900
H511	H51	0.856600	0.382000	0.874400
H521	H52	0.627800	0.379200	0.789400
H531	H53	0.821000	0.522800	0.733300
H541	H54	0.930400	0.230500	0.684500
H551	H55	0.665100	0.225300	0.906900
H561	H56	0.693600	0.330300	0.968800
Ca11	Ca1	0.205850	0.000000	0.500000
O411	O41	0.993400	0.000000	0.500000
Ca21	Ca2	0.705850	0.500000	0.500000
O421	O42	0.493400	0.500000	0.500000
Ca31	Ca3	0.794150	0.000000	0.000000
O431	O43	0.006600	0.000000	0.000000
Ca41	Ca4	0.294150	0.500000	0.000000
O441	O44	0.506600	0.500000	0.000000
O451	O45	0.500000	0.138200	0.250000
O461	O46	0.000000	0.638200	0.250000
O471	O47	0.500000	0.861800	0.750000
O481	O48	0.000000	0.361800	0.750000
