data_KEXFIC_freeONLY_PM
_symmetry_space_group_name_H-M	'P1'
_cell_length_a	13.916000
_cell_length_b	26.638000
_cell_length_c	7.631000
_cell_angle_alpha	90.000000
_cell_angle_beta	90.000000
_cell_angle_gamma	90.000000
_symmetry_Int_Tables_number 1

loop_
_symmetry_equiv_pos_as_xyz
'x,y,z'

loop_
_atom_site_label
_atom_site_type_symbol
_atom_site_fract_x
_atom_site_fract_y
_atom_site_fract_z
Cd11	Cd1	0.218200	0.114770	0.133640
N11	N1	0.247400	0.172200	0.913400
N21	N2	0.234400	0.170300	0.352700
N31	N3	0.172300	0.048900	0.339100
N41	N4	0.373800	0.082900	0.127700
N51	N5	0.179000	0.057700	0.904300
N61	N6	0.053100	0.127800	0.081500
C11	C1	0.246300	0.201200	0.804000
C21	C2	0.238600	0.200600	0.458500
C31	C3	0.107400	0.029900	0.401700
C41	C4	0.423700	0.052000	0.079900
C51	C5	0.076600	0.059000	0.881400
C61	C6	0.021700	0.095000	0.944600
C71	C7	0.913900	0.097200	0.896600
Cd21	Cd2	0.281800	0.885230	0.633640
N71	N7	0.252600	0.827800	0.413400
N81	N8	0.265600	0.829700	0.852700
N91	N9	0.327700	0.951100	0.839100
N101	N10	0.126200	0.917100	0.627700
N111	N11	0.321000	0.942300	0.404300
N121	N12	0.446900	0.872200	0.581500
C81	C8	0.253700	0.798800	0.304000
C91	C9	0.261400	0.799400	0.958500
C101	C10	0.392600	0.970100	0.901700
C111	C11	0.076300	0.948000	0.579900
C121	C12	0.423400	0.941000	0.381400
C131	C13	0.478300	0.905000	0.444600
C141	C14	0.586100	0.902800	0.396600
Cd31	Cd3	0.781800	0.614770	0.866360
N131	N13	0.752600	0.672200	0.086600
N141	N14	0.765600	0.670300	0.647300
N151	N15	0.827700	0.548900	0.660900
N161	N16	0.626200	0.582900	0.872300
N171	N17	0.821000	0.557700	0.095700
N181	N18	0.946900	0.627800	0.918500
C151	C15	0.753700	0.701200	0.196000
C161	C16	0.761400	0.700600	0.541500
C171	C17	0.892600	0.529900	0.598300
C181	C18	0.576300	0.552000	0.920100
C191	C19	0.923400	0.559000	0.118600
C201	C20	0.978300	0.595000	0.055400
C211	C21	0.086100	0.597200	0.103400
Cd41	Cd4	0.718200	0.385230	0.366360
N191	N19	0.747400	0.327800	0.586600
N201	N20	0.734400	0.329700	0.147300
N211	N21	0.672300	0.451100	0.160900
N221	N22	0.873800	0.417100	0.372300
N231	N23	0.679000	0.442300	0.595700
N241	N24	0.553100	0.372200	0.418500
C221	C22	0.746300	0.298800	0.696000
C231	C23	0.738600	0.299400	0.041500
C241	C24	0.607400	0.470100	0.098300
C251	C25	0.923700	0.448000	0.420100
C261	C26	0.576600	0.441000	0.618600
C271	C27	0.521700	0.405000	0.555400
C281	C28	0.413900	0.402800	0.603400
Cd51	Cd5	0.781800	0.885230	0.866360
N251	N25	0.752600	0.827800	0.086600
N261	N26	0.765600	0.829700	0.647300
N271	N27	0.827700	0.951100	0.660900
N281	N28	0.626200	0.917100	0.872300
N291	N29	0.821000	0.942300	0.095700
N301	N30	0.946900	0.872200	0.918500
C291	C29	0.753700	0.798800	0.196000
C301	C30	0.761400	0.799400	0.541500
C311	C31	0.892600	0.970100	0.598300
C321	C32	0.576300	0.948000	0.920100
C331	C33	0.923400	0.941000	0.118600
C341	C34	0.978300	0.905000	0.055400
C351	C35	0.086100	0.902800	0.103400
Cd61	Cd6	0.718200	0.114770	0.366360
N311	N31	0.747400	0.172200	0.586600
N321	N32	0.734400	0.170300	0.147300
N331	N33	0.672300	0.048900	0.160900
N341	N34	0.873800	0.082900	0.372300
N351	N35	0.679000	0.057700	0.595700
N361	N36	0.553100	0.127800	0.418500
C361	C36	0.746300	0.201200	0.696000
C371	C37	0.738600	0.200600	0.041500
C381	C38	0.607400	0.029900	0.098300
C391	C39	0.923700	0.052000	0.420100
C401	C40	0.576600	0.059000	0.618600
C411	C41	0.521700	0.095000	0.555400
C421	C42	0.413900	0.097200	0.603400
Cd71	Cd7	0.218200	0.385230	0.133640
N371	N37	0.247400	0.327800	0.913400
N381	N38	0.234400	0.329700	0.352700
N391	N39	0.172300	0.451100	0.339100
N401	N40	0.373800	0.417100	0.127700
N411	N41	0.179000	0.442300	0.904300
N421	N42	0.053100	0.372200	0.081500
C431	C43	0.246300	0.298800	0.804000
C441	C44	0.238600	0.299400	0.458500
C451	C45	0.107400	0.470100	0.401700
C461	C46	0.423700	0.448000	0.079900
C471	C47	0.076600	0.441000	0.881400
C481	C48	0.021700	0.405000	0.944600
C491	C49	0.913900	0.402800	0.896600
Cd81	Cd8	0.281800	0.614770	0.633640
N431	N43	0.252600	0.672200	0.413400
N441	N44	0.265600	0.670300	0.852700
N451	N45	0.327700	0.548900	0.839100
N461	N46	0.126200	0.582900	0.627700
N471	N47	0.321000	0.557700	0.404300
N481	N48	0.446900	0.627800	0.581500
C501	C50	0.253700	0.701200	0.304000
C511	C51	0.261400	0.700600	0.958500
C521	C52	0.392600	0.529900	0.901700
C531	C53	0.076300	0.552000	0.579900
C541	C54	0.423400	0.559000	0.381400
C551	C55	0.478300	0.595000	0.444600
C561	C56	0.586100	0.597200	0.396600
Ni11	Ni1	0.243670	0.250000	0.629100
Ni21	Ni2	0.256330	0.750000	0.129100
Ni31	Ni3	0.756330	0.750000	0.370900
Ni41	Ni4	0.743670	0.250000	0.870900
Ni51	Ni5	0.000000	0.000000	0.500000
Ni61	Ni6	0.500000	0.000000	0.000000
Ni71	Ni7	0.000000	0.500000	0.500000
Ni81	Ni8	0.500000	0.500000	0.000000
