data_KIKDOZ_freeONLY_PM
_symmetry_space_group_name_H-M	'P1'
_cell_length_a	13.686900
_cell_length_b	15.538300
_cell_length_c	15.877000
_cell_angle_alpha	90.000000
_cell_angle_beta	90.047000
_cell_angle_gamma	90.000000
_symmetry_Int_Tables_number 1

loop_
_symmetry_equiv_pos_as_xyz
'x,y,z'

loop_
_atom_site_label
_atom_site_type_symbol
_atom_site_fract_x
_atom_site_fract_y
_atom_site_fract_z
F11	F1	0.974490	0.986780	0.895670
F21	F2	0.988700	0.106640	0.988420
F31	F3	0.119200	0.006360	0.975830
N11	N1	0.108700	0.096830	0.776000
N21	N2	0.085200	0.151230	0.839300
H11	H1	0.043700	0.139100	0.879000
N31	N3	0.380500	0.384300	0.724540
N41	N4	0.326500	0.387500	0.653200
H21	H2	0.337700	0.422600	0.611600
C11	C1	0.216700	0.098700	0.651700
H31	H3	0.221800	0.037000	0.659600
H41	H4	0.281300	0.122700	0.642500
H51	H5	0.175700	0.110700	0.603300
C21	C2	0.172600	0.138500	0.728600
C31	C3	0.190400	0.221700	0.762100
C41	C4	0.133600	0.226500	0.833500
C51	C5	0.122700	0.294500	0.899100
H61	H6	0.054000	0.303200	0.911100
H71	H7	0.151100	0.347800	0.878900
H81	H8	0.156100	0.276600	0.950100
C61	C6	0.380300	0.300300	0.856100
H91	H9	0.451100	0.302900	0.853900
H101	H10	0.360100	0.242400	0.870900
H111	H11	0.356600	0.340400	0.898200
C71	C7	0.339500	0.323500	0.772500
C81	C8	0.257500	0.288800	0.730200
C91	C9	0.253300	0.330000	0.654400
C101	C10	0.180800	0.324500	0.583900
H121	H12	0.207200	0.289000	0.539100
H131	H13	0.167600	0.381700	0.562400
H141	H14	0.120600	0.299100	0.604500
F41	F4	0.474490	0.486780	0.895670
F51	F5	0.488700	0.606640	0.988420
F61	F6	0.619200	0.506360	0.975830
N51	N5	0.608700	0.596830	0.776000
N61	N6	0.585200	0.651230	0.839300
H151	H15	0.543700	0.639100	0.879000
N71	N7	0.880500	0.884300	0.724540
N81	N8	0.826500	0.887500	0.653200
H161	H16	0.837700	0.922600	0.611600
C111	C11	0.716700	0.598700	0.651700
H171	H17	0.721800	0.537000	0.659600
H181	H18	0.781300	0.622700	0.642500
H191	H19	0.675700	0.610700	0.603300
C121	C12	0.672600	0.638500	0.728600
C131	C13	0.690400	0.721700	0.762100
C141	C14	0.633600	0.726500	0.833500
C151	C15	0.622700	0.794500	0.899100
H201	H20	0.554000	0.803200	0.911100
H211	H21	0.651100	0.847800	0.878900
H221	H22	0.656100	0.776600	0.950100
C161	C16	0.880300	0.800300	0.856100
H231	H23	0.951100	0.802900	0.853900
H241	H24	0.860100	0.742400	0.870900
H251	H25	0.856600	0.840400	0.898200
C171	C17	0.839500	0.823500	0.772500
C181	C18	0.757500	0.788800	0.730200
C191	C19	0.753300	0.830000	0.654400
C201	C20	0.680800	0.824500	0.583900
H261	H26	0.707200	0.789000	0.539100
H271	H27	0.667600	0.881700	0.562400
H281	H28	0.620600	0.799100	0.604500
F71	F7	0.025510	0.986780	0.604330
F81	F8	0.011300	0.106640	0.511580
F91	F9	0.880800	0.006360	0.524170
N91	N9	0.891300	0.096830	0.724000
N101	N10	0.914800	0.151230	0.660700
H291	H29	0.956300	0.139100	0.621000
N111	N11	0.619500	0.384300	0.775460
N121	N12	0.673500	0.387500	0.846800
H301	H30	0.662300	0.422600	0.888400
C211	C21	0.783300	0.098700	0.848300
H311	H31	0.778200	0.037000	0.840400
H321	H32	0.718700	0.122700	0.857500
H331	H33	0.824300	0.110700	0.896700
C221	C22	0.827400	0.138500	0.771400
C231	C23	0.809600	0.221700	0.737900
C241	C24	0.866400	0.226500	0.666500
C251	C25	0.877300	0.294500	0.600900
H341	H34	0.946000	0.303200	0.588900
H351	H35	0.848900	0.347800	0.621100
H361	H36	0.843900	0.276600	0.549900
C261	C26	0.619700	0.300300	0.643900
H371	H37	0.548900	0.302900	0.646100
H381	H38	0.639900	0.242400	0.629100
H391	H39	0.643400	0.340400	0.601800
C271	C27	0.660500	0.323500	0.727500
C281	C28	0.742500	0.288800	0.769800
C291	C29	0.746700	0.330000	0.845600
C301	C30	0.819200	0.324500	0.916100
H401	H40	0.792800	0.289000	0.960900
H411	H41	0.832400	0.381700	0.937600
H421	H42	0.879400	0.299100	0.895500
F101	F10	0.525510	0.486780	0.604330
F111	F11	0.511300	0.606640	0.511580
F121	F12	0.380800	0.506360	0.524170
N131	N13	0.391300	0.596830	0.724000
N141	N14	0.414800	0.651230	0.660700
H431	H43	0.456300	0.639100	0.621000
N151	N15	0.119500	0.884300	0.775460
N161	N16	0.173500	0.887500	0.846800
H441	H44	0.162300	0.922600	0.888400
C311	C31	0.283300	0.598700	0.848300
H451	H45	0.278200	0.537000	0.840400
H461	H46	0.218700	0.622700	0.857500
H471	H47	0.324300	0.610700	0.896700
C321	C32	0.327400	0.638500	0.771400
C331	C33	0.309600	0.721700	0.737900
C341	C34	0.366400	0.726500	0.666500
C351	C35	0.377300	0.794500	0.600900
H481	H48	0.446000	0.803200	0.588900
H491	H49	0.348900	0.847800	0.621100
H501	H50	0.343900	0.776600	0.549900
C361	C36	0.119700	0.800300	0.643900
H511	H51	0.048900	0.802900	0.646100
H521	H52	0.139900	0.742400	0.629100
H531	H53	0.143400	0.840400	0.601800
C371	C37	0.160500	0.823500	0.727500
C381	C38	0.242500	0.788800	0.769800
C391	C39	0.246700	0.830000	0.845600
C401	C40	0.319200	0.824500	0.916100
H541	H54	0.292800	0.789000	0.960900
H551	H55	0.332400	0.881700	0.937600
H561	H56	0.379400	0.799100	0.895500
F131	F13	0.025510	0.013220	0.104330
F141	F14	0.011300	0.893360	0.011580
F151	F15	0.880800	0.993640	0.024170
N171	N17	0.891300	0.903170	0.224000
N181	N18	0.914800	0.848770	0.160700
H571	H57	0.956300	0.860900	0.121000
N191	N19	0.619500	0.615700	0.275460
N201	N20	0.673500	0.612500	0.346800
H581	H58	0.662300	0.577400	0.388400
C411	C41	0.783300	0.901300	0.348300
H591	H59	0.778200	0.963000	0.340400
H601	H60	0.718700	0.877300	0.357500
H611	H61	0.824300	0.889300	0.396700
C421	C42	0.827400	0.861500	0.271400
C431	C43	0.809600	0.778300	0.237900
C441	C44	0.866400	0.773500	0.166500
C451	C45	0.877300	0.705500	0.100900
H621	H62	0.946000	0.696800	0.088900
H631	H63	0.848900	0.652200	0.121100
H641	H64	0.843900	0.723400	0.049900
C461	C46	0.619700	0.699700	0.143900
H651	H65	0.548900	0.697100	0.146100
H661	H66	0.639900	0.757600	0.129100
H671	H67	0.643400	0.659600	0.101800
C471	C47	0.660500	0.676500	0.227500
C481	C48	0.742500	0.711200	0.269800
C491	C49	0.746700	0.670000	0.345600
C501	C50	0.819200	0.675500	0.416100
H681	H68	0.792800	0.711000	0.460900
H691	H69	0.832400	0.618300	0.437600
H701	H70	0.879400	0.700900	0.395500
F161	F16	0.525510	0.513220	0.104330
F171	F17	0.511300	0.393360	0.011580
F181	F18	0.380800	0.493640	0.024170
N211	N21	0.391300	0.403170	0.224000
N221	N22	0.414800	0.348770	0.160700
H711	H71	0.456300	0.360900	0.121000
N231	N23	0.119500	0.115700	0.275460
N241	N24	0.173500	0.112500	0.346800
H721	H72	0.162300	0.077400	0.388400
C511	C51	0.283300	0.401300	0.348300
H731	H73	0.278200	0.463000	0.340400
H741	H74	0.218700	0.377300	0.357500
H751	H75	0.324300	0.389300	0.396700
C521	C52	0.327400	0.361500	0.271400
C531	C53	0.309600	0.278300	0.237900
C541	C54	0.366400	0.273500	0.166500
C551	C55	0.377300	0.205500	0.100900
H761	H76	0.446000	0.196800	0.088900
H771	H77	0.348900	0.152200	0.121100
H781	H78	0.343900	0.223400	0.049900
C561	C56	0.119700	0.199700	0.143900
H791	H79	0.048900	0.197100	0.146100
H801	H80	0.139900	0.257600	0.129100
H811	H81	0.143400	0.159600	0.101800
C571	C57	0.160500	0.176500	0.227500
C581	C58	0.242500	0.211200	0.269800
C591	C59	0.246700	0.170000	0.345600
C601	C60	0.319200	0.175500	0.416100
H821	H82	0.292800	0.211000	0.460900
H831	H83	0.332400	0.118300	0.437600
H841	H84	0.379400	0.200900	0.395500
F191	F19	0.974490	0.013220	0.395670
F201	F20	0.988700	0.893360	0.488420
F211	F21	0.119200	0.993640	0.475830
N251	N25	0.108700	0.903170	0.276000
N261	N26	0.085200	0.848770	0.339300
H851	H85	0.043700	0.860900	0.379000
N271	N27	0.380500	0.615700	0.224540
N281	N28	0.326500	0.612500	0.153200
H861	H86	0.337700	0.577400	0.111600
C611	C61	0.216700	0.901300	0.151700
H871	H87	0.221800	0.963000	0.159600
H881	H88	0.281300	0.877300	0.142500
H891	H89	0.175700	0.889300	0.103300
C621	C62	0.172600	0.861500	0.228600
C631	C63	0.190400	0.778300	0.262100
C641	C64	0.133600	0.773500	0.333500
C651	C65	0.122700	0.705500	0.399100
H901	H90	0.054000	0.696800	0.411100
H911	H91	0.151100	0.652200	0.378900
H921	H92	0.156100	0.723400	0.450100
C661	C66	0.380300	0.699700	0.356100
H931	H93	0.451100	0.697100	0.353900
H941	H94	0.360100	0.757600	0.370900
H951	H95	0.356600	0.659600	0.398200
C671	C67	0.339500	0.676500	0.272500
C681	C68	0.257500	0.711200	0.230200
C691	C69	0.253300	0.670000	0.154400
C701	C70	0.180800	0.675500	0.083900
H961	H96	0.207200	0.711000	0.039100
H971	H97	0.167600	0.618300	0.062400
H981	H98	0.120600	0.700900	0.104500
F221	F22	0.474490	0.513220	0.395670
F231	F23	0.488700	0.393360	0.488420
F241	F24	0.619200	0.493640	0.475830
N291	N29	0.608700	0.403170	0.276000
N301	N30	0.585200	0.348770	0.339300
H991	H99	0.543700	0.360900	0.379000
N311	N31	0.880500	0.115700	0.224540
N321	N32	0.826500	0.112500	0.153200
H1001	H100	0.837700	0.077400	0.111600
C711	C71	0.716700	0.401300	0.151700
H1011	H101	0.721800	0.463000	0.159600
H1021	H102	0.781300	0.377300	0.142500
H1031	H103	0.675700	0.389300	0.103300
C721	C72	0.672600	0.361500	0.228600
C731	C73	0.690400	0.278300	0.262100
C741	C74	0.633600	0.273500	0.333500
C751	C75	0.622700	0.205500	0.399100
H1041	H104	0.554000	0.196800	0.411100
H1051	H105	0.651100	0.152200	0.378900
H1061	H106	0.656100	0.223400	0.450100
C761	C76	0.880300	0.199700	0.356100
H1071	H107	0.951100	0.197100	0.353900
H1081	H108	0.860100	0.257600	0.370900
H1091	H109	0.856600	0.159600	0.398200
C771	C77	0.839500	0.176500	0.272500
C781	C78	0.757500	0.211200	0.230200
C791	C79	0.753300	0.170000	0.154400
C801	C80	0.680800	0.175500	0.083900
H1101	H110	0.707200	0.211000	0.039100
H1111	H111	0.667600	0.118300	0.062400
H1121	H112	0.620600	0.200900	0.104500
Cd11	Cd1	0.000000	0.983950	0.750000
Cd21	Cd2	0.500000	0.483950	0.750000
Cd31	Cd3	0.000000	0.016050	0.250000
Cd41	Cd4	0.500000	0.516050	0.250000
Si11	Si1	0.000000	0.000000	0.000000
Si21	Si2	0.500000	0.500000	0.000000
Si31	Si3	0.000000	0.000000	0.500000
Si41	Si4	0.500000	0.500000	0.500000
