data_KIKDEP_freeONLY_PM
_symmetry_space_group_name_H-M	'P1'
_cell_length_a	14.468500
_cell_length_b	22.858000
_cell_length_c	23.048000
_cell_angle_alpha	90.000000
_cell_angle_beta	90.000000
_cell_angle_gamma	90.000000
_symmetry_Int_Tables_number 1

loop_
_symmetry_equiv_pos_as_xyz
'x,y,z'

loop_
_atom_site_label
_atom_site_type_symbol
_atom_site_fract_x
_atom_site_fract_y
_atom_site_fract_z
Cd11	Cd1	0.014310	0.135160	0.384580
S11	S1	0.107860	0.274290	0.234140
F11	F1	0.002460	0.057290	0.453710
F21	F2	0.893350	0.019900	0.521710
F31	F3	0.047000	0.041890	0.552060
N11	N1	0.893800	0.084560	0.339790
N21	N2	0.896900	0.024960	0.337230
H11	H1	0.929800	0.003500	0.360600
N31	N3	0.616700	0.067410	0.159920
N41	N4	0.683700	0.041850	0.128910
H21	H2	0.679000	0.034000	0.092100
N51	N5	0.907500	0.176290	0.449040
N61	N6	0.852800	0.140930	0.481770
H31	H3	0.862600	0.103700	0.486600
N71	N7	0.635900	0.337680	0.553320
N81	N8	0.628400	0.348770	0.495580
H41	H4	0.592600	0.375600	0.480900
N91	N9	0.026900	0.207820	0.320990
C11	C1	0.815300	0.162700	0.285100
H51	H5	0.845000	0.186900	0.314200
H61	H6	0.749000	0.168700	0.286600
H71	H7	0.838100	0.173300	0.246900
C21	C2	0.836600	0.099870	0.296640
C31	C3	0.803700	0.050150	0.266920
C41	C4	0.844000	0.003100	0.294900
C51	C5	0.834300	0.939000	0.285200
H81	H8	0.850700	0.929800	0.245500
H91	H9	0.770900	0.927400	0.292400
H101	H10	0.875100	0.918200	0.311500
C61	C6	0.592100	0.093600	0.262700
H111	H11	0.607900	0.134000	0.271000
H121	H12	0.602900	0.069900	0.296900
H131	H13	0.527400	0.091200	0.251900
C71	C7	0.650300	0.071850	0.214040
C81	C8	0.740900	0.049890	0.216460
C91	C9	0.759400	0.029500	0.161000
C101	C10	0.840900	0.998000	0.137100
H141	H14	0.836100	0.956700	0.146200
H151	H15	0.897000	0.013700	0.154100
H161	H16	0.842900	0.003000	0.095300
C111	C11	0.913200	0.280900	0.423500
H171	H17	0.980000	0.277800	0.426100
H181	H18	0.893100	0.316600	0.442500
H191	H19	0.894900	0.281800	0.383100
C121	C12	0.869600	0.229300	0.452700
C131	C13	0.790200	0.228070	0.487730
C141	C14	0.782000	0.170300	0.505700
C151	C15	0.713800	0.140000	0.543400
H201	H20	0.707800	0.099600	0.531100
H211	H21	0.654400	0.159400	0.540300
H221	H22	0.734800	0.141300	0.583300
C161	C16	0.726000	0.270900	0.615700
H231	H23	0.731300	0.303100	0.642900
H241	H24	0.785300	0.251500	0.611900
H251	H25	0.680500	0.243200	0.629900
C171	C17	0.696300	0.293800	0.557710
C181	C18	0.727500	0.276600	0.502140
C191	C19	0.682600	0.313400	0.464040
C201	C20	0.687000	0.318100	0.399700
H261	H26	0.627100	0.329800	0.384900
H271	H27	0.703900	0.280400	0.383400
H281	H28	0.733000	0.347000	0.389000
C211	C21	0.059600	0.236000	0.285600
Cd21	Cd2	0.485690	0.864840	0.884580
S21	S2	0.392140	0.725710	0.734140
F41	F4	0.497540	0.942710	0.953710
F51	F5	0.606650	0.980100	0.021710
F61	F6	0.453000	0.958110	0.052060
N101	N10	0.606200	0.915440	0.839790
N111	N11	0.603100	0.975040	0.837230
H291	H29	0.570200	0.996500	0.860600
N121	N12	0.883300	0.932590	0.659920
N131	N13	0.816300	0.958150	0.628910
H301	H30	0.821000	0.966000	0.592100
N141	N14	0.592500	0.823710	0.949040
N151	N15	0.647200	0.859070	0.981770
H311	H31	0.637400	0.896300	0.986600
N161	N16	0.864100	0.662320	0.053320
N171	N17	0.871600	0.651230	0.995580
H321	H32	0.907400	0.624400	0.980900
N181	N18	0.473100	0.792180	0.820990
C221	C22	0.684700	0.837300	0.785100
H331	H33	0.655000	0.813100	0.814200
H341	H34	0.751000	0.831300	0.786600
H351	H35	0.661900	0.826700	0.746900
C231	C23	0.663400	0.900130	0.796640
C241	C24	0.696300	0.949850	0.766920
C251	C25	0.656000	0.996900	0.794900
C261	C26	0.665700	0.061000	0.785200
H361	H36	0.649300	0.070200	0.745500
H371	H37	0.729100	0.072600	0.792400
H381	H38	0.624900	0.081800	0.811500
C271	C27	0.907900	0.906400	0.762700
H391	H39	0.892100	0.866000	0.771000
H401	H40	0.897100	0.930100	0.796900
H411	H41	0.972600	0.908800	0.751900
C281	C28	0.849700	0.928150	0.714040
C291	C29	0.759100	0.950110	0.716460
C301	C30	0.740600	0.970500	0.661000
C311	C31	0.659100	0.002000	0.637100
H421	H42	0.663900	0.043300	0.646200
H431	H43	0.603000	0.986300	0.654100
H441	H44	0.657100	0.997000	0.595300
C321	C32	0.586800	0.719100	0.923500
H451	H45	0.520000	0.722200	0.926100
H461	H46	0.606900	0.683400	0.942500
H471	H47	0.605100	0.718200	0.883100
C331	C33	0.630400	0.770700	0.952700
C341	C34	0.709800	0.771930	0.987730
C351	C35	0.718000	0.829700	0.005700
C361	C36	0.786200	0.860000	0.043400
H481	H48	0.792200	0.900400	0.031100
H491	H49	0.845600	0.840600	0.040300
H501	H50	0.765200	0.858700	0.083300
C371	C37	0.774000	0.729100	0.115700
H511	H51	0.768700	0.696900	0.142900
H521	H52	0.714700	0.748500	0.111900
H531	H53	0.819500	0.756800	0.129900
C381	C38	0.803700	0.706200	0.057710
C391	C39	0.772500	0.723400	0.002140
C401	C40	0.817400	0.686600	0.964040
C411	C41	0.813000	0.681900	0.899700
H541	H54	0.872900	0.670200	0.884900
H551	H55	0.796100	0.719600	0.883400
H561	H56	0.767000	0.653000	0.889000
C421	C42	0.440400	0.764000	0.785600
Cd31	Cd3	0.985690	0.635160	0.115420
S31	S3	0.892140	0.774290	0.265860
F71	F7	0.997540	0.557290	0.046290
F81	F8	0.106650	0.519900	0.978290
F91	F9	0.953000	0.541890	0.947940
N191	N19	0.106200	0.584560	0.160210
N201	N20	0.103100	0.524960	0.162770
H571	H57	0.070200	0.503500	0.139400
N211	N21	0.383300	0.567410	0.340080
N221	N22	0.316300	0.541850	0.371090
H581	H58	0.321000	0.534000	0.407900
N231	N23	0.092500	0.676290	0.050960
N241	N24	0.147200	0.640930	0.018230
H591	H59	0.137400	0.603700	0.013400
N251	N25	0.364100	0.837680	0.946680
N261	N26	0.371600	0.848770	0.004420
H601	H60	0.407400	0.875600	0.019100
N271	N27	0.973100	0.707820	0.179010
C431	C43	0.184700	0.662700	0.214900
H611	H61	0.155000	0.686900	0.185800
H621	H62	0.251000	0.668700	0.213400
H631	H63	0.161900	0.673300	0.253100
C441	C44	0.163400	0.599870	0.203360
C451	C45	0.196300	0.550150	0.233080
C461	C46	0.156000	0.503100	0.205100
C471	C47	0.165700	0.439000	0.214800
H641	H64	0.149300	0.429800	0.254500
H651	H65	0.229100	0.427400	0.207600
H661	H66	0.124900	0.418200	0.188500
C481	C48	0.407900	0.593600	0.237300
H671	H67	0.392100	0.634000	0.229000
H681	H68	0.397100	0.569900	0.203100
H691	H69	0.472600	0.591200	0.248100
C491	C49	0.349700	0.571850	0.285960
C501	C50	0.259100	0.549890	0.283540
C511	C51	0.240600	0.529500	0.339000
C521	C52	0.159100	0.498000	0.362900
H701	H70	0.163900	0.456700	0.353800
H711	H71	0.103000	0.513700	0.345900
H721	H72	0.157100	0.503000	0.404700
C531	C53	0.086800	0.780900	0.076500
H731	H73	0.020000	0.777800	0.073900
H741	H74	0.106900	0.816600	0.057500
H751	H75	0.105100	0.781800	0.116900
C541	C54	0.130400	0.729300	0.047300
C551	C55	0.209800	0.728070	0.012270
C561	C56	0.218000	0.670300	0.994300
C571	C57	0.286200	0.640000	0.956600
H761	H76	0.292200	0.599600	0.968900
H771	H77	0.345600	0.659400	0.959700
H781	H78	0.265200	0.641300	0.916700
C581	C58	0.274000	0.770900	0.884300
H791	H79	0.268700	0.803100	0.857100
H801	H80	0.214700	0.751500	0.888100
H811	H81	0.319500	0.743200	0.870100
C591	C59	0.303700	0.793800	0.942290
C601	C60	0.272500	0.776600	0.997860
C611	C61	0.317400	0.813400	0.035960
C621	C62	0.313000	0.818100	0.100300
H821	H82	0.372900	0.829800	0.115100
H831	H83	0.296100	0.780400	0.116600
H841	H84	0.267000	0.847000	0.111000
C631	C63	0.940400	0.736000	0.214400
Cd41	Cd4	0.514310	0.364840	0.615420
S41	S4	0.607860	0.225710	0.765860
F101	F10	0.502460	0.442710	0.546290
F111	F11	0.393350	0.480100	0.478290
F121	F12	0.547000	0.458110	0.447940
N281	N28	0.393800	0.415440	0.660210
N291	N29	0.396900	0.475040	0.662770
H851	H85	0.429800	0.496500	0.639400
N301	N30	0.116700	0.432590	0.840080
N311	N31	0.183700	0.458150	0.871090
H861	H86	0.179000	0.466000	0.907900
N321	N32	0.407500	0.323710	0.550960
N331	N33	0.352800	0.359070	0.518230
H871	H87	0.362600	0.396300	0.513400
N341	N34	0.135900	0.162320	0.446680
N351	N35	0.128400	0.151230	0.504420
H881	H88	0.092600	0.124400	0.519100
N361	N36	0.526900	0.292180	0.679010
C641	C64	0.315300	0.337300	0.714900
H891	H89	0.345000	0.313100	0.685800
H901	H90	0.249000	0.331300	0.713400
H911	H91	0.338100	0.326700	0.753100
C651	C65	0.336600	0.400130	0.703360
C661	C66	0.303700	0.449850	0.733080
C671	C67	0.344000	0.496900	0.705100
C681	C68	0.334300	0.561000	0.714800
H921	H92	0.350700	0.570200	0.754500
H931	H93	0.270900	0.572600	0.707600
H941	H94	0.375100	0.581800	0.688500
C691	C69	0.092100	0.406400	0.737300
H951	H95	0.107900	0.366000	0.729000
H961	H96	0.102900	0.430100	0.703100
H971	H97	0.027400	0.408800	0.748100
C701	C70	0.150300	0.428150	0.785960
C711	C71	0.240900	0.450110	0.783540
C721	C72	0.259400	0.470500	0.839000
C731	C73	0.340900	0.502000	0.862900
H981	H98	0.336100	0.543300	0.853800
H991	H99	0.397000	0.486300	0.845900
H1001	H100	0.342900	0.497000	0.904700
C741	C74	0.413200	0.219100	0.576500
H1011	H101	0.480000	0.222200	0.573900
H1021	H102	0.393100	0.183400	0.557500
H1031	H103	0.394900	0.218200	0.616900
C751	C75	0.369600	0.270700	0.547300
C761	C76	0.290200	0.271930	0.512270
C771	C77	0.282000	0.329700	0.494300
C781	C78	0.213800	0.360000	0.456600
H1041	H104	0.207800	0.400400	0.468900
H1051	H105	0.154400	0.340600	0.459700
H1061	H106	0.234800	0.358700	0.416700
C791	C79	0.226000	0.229100	0.384300
H1071	H107	0.231300	0.196900	0.357100
H1081	H108	0.285300	0.248500	0.388100
H1091	H109	0.180500	0.256800	0.370100
C801	C80	0.196300	0.206200	0.442290
C811	C81	0.227500	0.223400	0.497860
C821	C82	0.182600	0.186600	0.535960
C831	C83	0.187000	0.181900	0.600300
H1101	H110	0.127100	0.170200	0.615100
H1111	H111	0.203900	0.219600	0.616600
H1121	H112	0.233000	0.153000	0.611000
C841	C84	0.559600	0.264000	0.714400
Cd51	Cd5	0.985690	0.864840	0.615420
S51	S5	0.892140	0.725710	0.765860
F131	F13	0.997540	0.942710	0.546290
F141	F14	0.106650	0.980100	0.478290
F151	F15	0.953000	0.958110	0.447940
N371	N37	0.106200	0.915440	0.660210
N381	N38	0.103100	0.975040	0.662770
H1131	H113	0.070200	0.996500	0.639400
N391	N39	0.383300	0.932590	0.840080
N401	N40	0.316300	0.958150	0.871090
H1141	H114	0.321000	0.966000	0.907900
N411	N41	0.092500	0.823710	0.550960
N421	N42	0.147200	0.859070	0.518230
H1151	H115	0.137400	0.896300	0.513400
N431	N43	0.364100	0.662320	0.446680
N441	N44	0.371600	0.651230	0.504420
H1161	H116	0.407400	0.624400	0.519100
N451	N45	0.973100	0.792180	0.679010
C851	C85	0.184700	0.837300	0.714900
H1171	H117	0.155000	0.813100	0.685800
H1181	H118	0.251000	0.831300	0.713400
H1191	H119	0.161900	0.826700	0.753100
C861	C86	0.163400	0.900130	0.703360
C871	C87	0.196300	0.949850	0.733080
C881	C88	0.156000	0.996900	0.705100
C891	C89	0.165700	0.061000	0.714800
H1201	H120	0.149300	0.070200	0.754500
H1211	H121	0.229100	0.072600	0.707600
H1221	H122	0.124900	0.081800	0.688500
C901	C90	0.407900	0.906400	0.737300
H1231	H123	0.392100	0.866000	0.729000
H1241	H124	0.397100	0.930100	0.703100
H1251	H125	0.472600	0.908800	0.748100
C911	C91	0.349700	0.928150	0.785960
C921	C92	0.259100	0.950110	0.783540
C931	C93	0.240600	0.970500	0.839000
C941	C94	0.159100	0.002000	0.862900
H1261	H126	0.163900	0.043300	0.853800
H1271	H127	0.103000	0.986300	0.845900
H1281	H128	0.157100	0.997000	0.904700
C951	C95	0.086800	0.719100	0.576500
H1291	H129	0.020000	0.722200	0.573900
H1301	H130	0.106900	0.683400	0.557500
H1311	H131	0.105100	0.718200	0.616900
C961	C96	0.130400	0.770700	0.547300
C971	C97	0.209800	0.771930	0.512270
C981	C98	0.218000	0.829700	0.494300
C991	C99	0.286200	0.860000	0.456600
H1321	H132	0.292200	0.900400	0.468900
H1331	H133	0.345600	0.840600	0.459700
H1341	H134	0.265200	0.858700	0.416700
C1001	C100	0.274000	0.729100	0.384300
H1351	H135	0.268700	0.696900	0.357100
H1361	H136	0.214700	0.748500	0.388100
H1371	H137	0.319500	0.756800	0.370100
C1011	C101	0.303700	0.706200	0.442290
C1021	C102	0.272500	0.723400	0.497860
C1031	C103	0.317400	0.686600	0.535960
C1041	C104	0.313000	0.681900	0.600300
H1381	H138	0.372900	0.670200	0.615100
H1391	H139	0.296100	0.719600	0.616600
H1401	H140	0.267000	0.653000	0.611000
C1051	C105	0.940400	0.764000	0.714400
Cd61	Cd6	0.514310	0.135160	0.115420
S61	S6	0.607860	0.274290	0.265860
F161	F16	0.502460	0.057290	0.046290
F171	F17	0.393350	0.019900	0.978290
F181	F18	0.547000	0.041890	0.947940
N461	N46	0.393800	0.084560	0.160210
N471	N47	0.396900	0.024960	0.162770
H1411	H141	0.429800	0.003500	0.139400
N481	N48	0.116700	0.067410	0.340080
N491	N49	0.183700	0.041850	0.371090
H1421	H142	0.179000	0.034000	0.407900
N501	N50	0.407500	0.176290	0.050960
N511	N51	0.352800	0.140930	0.018230
H1431	H143	0.362600	0.103700	0.013400
N521	N52	0.135900	0.337680	0.946680
N531	N53	0.128400	0.348770	0.004420
H1441	H144	0.092600	0.375600	0.019100
N541	N54	0.526900	0.207820	0.179010
C1061	C106	0.315300	0.162700	0.214900
H1451	H145	0.345000	0.186900	0.185800
H1461	H146	0.249000	0.168700	0.213400
H1471	H147	0.338100	0.173300	0.253100
C1071	C107	0.336600	0.099870	0.203360
C1081	C108	0.303700	0.050150	0.233080
C1091	C109	0.344000	0.003100	0.205100
C1101	C110	0.334300	0.939000	0.214800
H1481	H148	0.350700	0.929800	0.254500
H1491	H149	0.270900	0.927400	0.207600
H1501	H150	0.375100	0.918200	0.188500
C1111	C111	0.092100	0.093600	0.237300
H1511	H151	0.107900	0.134000	0.229000
H1521	H152	0.102900	0.069900	0.203100
H1531	H153	0.027400	0.091200	0.248100
C1121	C112	0.150300	0.071850	0.285960
C1131	C113	0.240900	0.049890	0.283540
C1141	C114	0.259400	0.029500	0.339000
C1151	C115	0.340900	0.998000	0.362900
H1541	H154	0.336100	0.956700	0.353800
H1551	H155	0.397000	0.013700	0.345900
H1561	H156	0.342900	0.003000	0.404700
C1161	C116	0.413200	0.280900	0.076500
H1571	H157	0.480000	0.277800	0.073900
H1581	H158	0.393100	0.316600	0.057500
H1591	H159	0.394900	0.281800	0.116900
C1171	C117	0.369600	0.229300	0.047300
C1181	C118	0.290200	0.228070	0.012270
C1191	C119	0.282000	0.170300	0.994300
C1201	C120	0.213800	0.140000	0.956600
H1601	H160	0.207800	0.099600	0.968900
H1611	H161	0.154400	0.159400	0.959700
H1621	H162	0.234800	0.141300	0.916700
C1211	C121	0.226000	0.270900	0.884300
H1631	H163	0.231300	0.303100	0.857100
H1641	H164	0.285300	0.251500	0.888100
H1651	H165	0.180500	0.243200	0.870100
C1221	C122	0.196300	0.293800	0.942290
C1231	C123	0.227500	0.276600	0.997860
C1241	C124	0.182600	0.313400	0.035960
C1251	C125	0.187000	0.318100	0.100300
H1661	H166	0.127100	0.329800	0.115100
H1671	H167	0.203900	0.280400	0.116600
H1681	H168	0.233000	0.347000	0.111000
C1261	C126	0.559600	0.236000	0.214400
Cd71	Cd7	0.014310	0.364840	0.884580
S71	S7	0.107860	0.225710	0.734140
F191	F19	0.002460	0.442710	0.953710
F201	F20	0.893350	0.480100	0.021710
F211	F21	0.047000	0.458110	0.052060
N551	N55	0.893800	0.415440	0.839790
N561	N56	0.896900	0.475040	0.837230
H1691	H169	0.929800	0.496500	0.860600
N571	N57	0.616700	0.432590	0.659920
N581	N58	0.683700	0.458150	0.628910
H1701	H170	0.679000	0.466000	0.592100
N591	N59	0.907500	0.323710	0.949040
N601	N60	0.852800	0.359070	0.981770
H1711	H171	0.862600	0.396300	0.986600
N611	N61	0.635900	0.162320	0.053320
N621	N62	0.628400	0.151230	0.995580
H1721	H172	0.592600	0.124400	0.980900
N631	N63	0.026900	0.292180	0.820990
C1271	C127	0.815300	0.337300	0.785100
H1731	H173	0.845000	0.313100	0.814200
H1741	H174	0.749000	0.331300	0.786600
H1751	H175	0.838100	0.326700	0.746900
C1281	C128	0.836600	0.400130	0.796640
C1291	C129	0.803700	0.449850	0.766920
C1301	C130	0.844000	0.496900	0.794900
C1311	C131	0.834300	0.561000	0.785200
H1761	H176	0.850700	0.570200	0.745500
H1771	H177	0.770900	0.572600	0.792400
H1781	H178	0.875100	0.581800	0.811500
C1321	C132	0.592100	0.406400	0.762700
H1791	H179	0.607900	0.366000	0.771000
H1801	H180	0.602900	0.430100	0.796900
H1811	H181	0.527400	0.408800	0.751900
C1331	C133	0.650300	0.428150	0.714040
C1341	C134	0.740900	0.450110	0.716460
C1351	C135	0.759400	0.470500	0.661000
C1361	C136	0.840900	0.502000	0.637100
H1821	H182	0.836100	0.543300	0.646200
H1831	H183	0.897000	0.486300	0.654100
H1841	H184	0.842900	0.497000	0.595300
C1371	C137	0.913200	0.219100	0.923500
H1851	H185	0.980000	0.222200	0.926100
H1861	H186	0.893100	0.183400	0.942500
H1871	H187	0.894900	0.218200	0.883100
C1381	C138	0.869600	0.270700	0.952700
C1391	C139	0.790200	0.271930	0.987730
C1401	C140	0.782000	0.329700	0.005700
C1411	C141	0.713800	0.360000	0.043400
H1881	H188	0.707800	0.400400	0.031100
H1891	H189	0.654400	0.340600	0.040300
H1901	H190	0.734800	0.358700	0.083300
C1421	C142	0.726000	0.229100	0.115700
H1911	H191	0.731300	0.196900	0.142900
H1921	H192	0.785300	0.248500	0.111900
H1931	H193	0.680500	0.256800	0.129900
C1431	C143	0.696300	0.206200	0.057710
C1441	C144	0.727500	0.223400	0.002140
C1451	C145	0.682600	0.186600	0.964040
C1461	C146	0.687000	0.181900	0.899700
H1941	H194	0.627100	0.170200	0.884900
H1951	H195	0.703900	0.219600	0.883400
H1961	H196	0.733000	0.153000	0.889000
C1471	C147	0.059600	0.264000	0.785600
Cd81	Cd8	0.485690	0.635160	0.384580
S81	S8	0.392140	0.774290	0.234140
F221	F22	0.497540	0.557290	0.453710
F231	F23	0.606650	0.519900	0.521710
F241	F24	0.453000	0.541890	0.552060
N641	N64	0.606200	0.584560	0.339790
N651	N65	0.603100	0.524960	0.337230
H1971	H197	0.570200	0.503500	0.360600
N661	N66	0.883300	0.567410	0.159920
N671	N67	0.816300	0.541850	0.128910
H1981	H198	0.821000	0.534000	0.092100
N681	N68	0.592500	0.676290	0.449040
N691	N69	0.647200	0.640930	0.481770
H1991	H199	0.637400	0.603700	0.486600
N701	N70	0.864100	0.837680	0.553320
N711	N71	0.871600	0.848770	0.495580
H2001	H200	0.907400	0.875600	0.480900
N721	N72	0.473100	0.707820	0.320990
C1481	C148	0.684700	0.662700	0.285100
H2011	H201	0.655000	0.686900	0.314200
H2021	H202	0.751000	0.668700	0.286600
H2031	H203	0.661900	0.673300	0.246900
C1491	C149	0.663400	0.599870	0.296640
C1501	C150	0.696300	0.550150	0.266920
C1511	C151	0.656000	0.503100	0.294900
C1521	C152	0.665700	0.439000	0.285200
H2041	H204	0.649300	0.429800	0.245500
H2051	H205	0.729100	0.427400	0.292400
H2061	H206	0.624900	0.418200	0.311500
C1531	C153	0.907900	0.593600	0.262700
H2071	H207	0.892100	0.634000	0.271000
H2081	H208	0.897100	0.569900	0.296900
H2091	H209	0.972600	0.591200	0.251900
C1541	C154	0.849700	0.571850	0.214040
C1551	C155	0.759100	0.549890	0.216460
C1561	C156	0.740600	0.529500	0.161000
C1571	C157	0.659100	0.498000	0.137100
H2101	H210	0.663900	0.456700	0.146200
H2111	H211	0.603000	0.513700	0.154100
H2121	H212	0.657100	0.503000	0.095300
C1581	C158	0.586800	0.780900	0.423500
H2131	H213	0.520000	0.777800	0.426100
H2141	H214	0.606900	0.816600	0.442500
H2151	H215	0.605100	0.781800	0.383100
C1591	C159	0.630400	0.729300	0.452700
C1601	C160	0.709800	0.728070	0.487730
C1611	C161	0.718000	0.670300	0.505700
C1621	C162	0.786200	0.640000	0.543400
H2161	H216	0.792200	0.599600	0.531100
H2171	H217	0.845600	0.659400	0.540300
H2181	H218	0.765200	0.641300	0.583300
C1631	C163	0.774000	0.770900	0.615700
H2191	H219	0.768700	0.803100	0.642900
H2201	H220	0.714700	0.751500	0.611900
H2211	H221	0.819500	0.743200	0.629900
C1641	C164	0.803700	0.793800	0.557710
C1651	C165	0.772500	0.776600	0.502140
C1661	C166	0.817400	0.813400	0.464040
C1671	C167	0.813000	0.818100	0.399700
H2221	H222	0.872900	0.829800	0.384900
H2231	H223	0.796100	0.780400	0.383400
H2241	H224	0.767000	0.847000	0.389000
C1681	C168	0.440400	0.736000	0.285600
Si11	Si1	0.000000	0.000000	0.500000
Si21	Si2	0.500000	0.000000	0.000000
Si31	Si3	0.000000	0.500000	0.000000
Si41	Si4	0.500000	0.500000	0.500000
