data_KINDIW_freeONLY_PM
_symmetry_space_group_name_H-M	'P1'
_cell_length_a	10.069100
_cell_length_b	10.949100
_cell_length_c	13.221100
_cell_angle_alpha	99.755000
_cell_angle_beta	110.245000
_cell_angle_gamma	107.793000
_symmetry_Int_Tables_number 1

loop_
_symmetry_equiv_pos_as_xyz
'x,y,z'

loop_
_atom_site_label
_atom_site_type_symbol
_atom_site_fract_x
_atom_site_fract_y
_atom_site_fract_z
Er11	Er1	0.845060	0.293490	0.804190
Er21	Er2	0.154940	0.706510	0.195810
H11	H1	0.275700	0.381000	0.837000
H21	H2	0.496100	0.632200	0.154500
H31	H3	0.162900	0.084600	0.689400
H41	H4	0.774900	0.032300	0.436000
H51	H5	0.766400	0.590200	0.574100
H61	H6	0.373400	0.330200	0.557700
H71	H7	0.036500	0.358500	0.086800
H81	H8	0.098000	0.266100	0.230100
H91	H9	0.976800	0.034500	0.191300
H101	H10	0.796500	0.809600	0.043700
H111	H11	0.610900	0.688500	0.864000
H121	H12	0.458600	0.684600	0.664600
H131	H13	0.399500	0.805700	0.541600
H141	H14	0.535100	0.034800	0.599800
H151	H15	0.724300	0.619000	0.163000
H161	H16	0.503900	0.367800	0.845500
H171	H17	0.837100	0.915400	0.310600
H181	H18	0.225100	0.967700	0.564000
H191	H19	0.233600	0.409800	0.425900
H201	H20	0.626600	0.669800	0.442300
H211	H21	0.963500	0.641500	0.913200
H221	H22	0.902000	0.733900	0.769900
H231	H23	0.023200	0.965500	0.808700
H241	H24	0.203500	0.190400	0.956300
H251	H25	0.389100	0.311500	0.136000
H261	H26	0.541400	0.315400	0.335400
H271	H27	0.600500	0.194300	0.458400
H281	H28	0.464900	0.965200	0.400200
C11	C1	0.212700	0.514400	0.989100
C21	C2	0.362600	0.508000	0.994800
C31	C3	0.366000	0.429100	0.902800
C41	C4	0.497200	0.579000	0.092300
C51	C5	0.923100	0.148700	0.657400
C61	C6	0.961300	0.070200	0.575800
C71	C7	0.096200	0.050400	0.612700
C81	C8	0.866500	0.019400	0.462700
C91	C9	0.674300	0.399300	0.663700
C101	C10	0.584200	0.452400	0.579200
C111	C11	0.659500	0.554000	0.544300
C121	C12	0.424100	0.398400	0.534500
C131	C13	0.989100	0.265500	0.069600
C141	C14	0.026600	0.211400	0.157300
C151	C15	0.955400	0.074400	0.134200
C161	C16	0.849900	0.996100	0.022400
C171	C17	0.772300	0.854200	0.990400
C181	C18	0.662200	0.781100	0.882100
C191	C19	0.625900	0.845300	0.797500
C201	C20	0.511200	0.777700	0.687800
C211	C21	0.476800	0.849100	0.614800
C221	C22	0.558900	0.987700	0.651100
C231	C23	0.704300	0.987300	0.826800
C241	C24	0.822100	0.062300	0.942000
C251	C25	0.787300	0.485600	0.010900
C261	C26	0.637400	0.492000	0.005200
C271	C27	0.634000	0.570900	0.097200
C281	C28	0.502800	0.421000	0.907700
C291	C29	0.076900	0.851300	0.342600
C301	C30	0.038700	0.929800	0.424200
C311	C31	0.903800	0.949600	0.387300
C321	C32	0.133500	0.980600	0.537300
C331	C33	0.325700	0.600700	0.336300
C341	C34	0.415800	0.547600	0.420800
C351	C35	0.340500	0.446000	0.455700
C361	C36	0.575900	0.601600	0.465500
C371	C37	0.010900	0.734500	0.930400
C381	C38	0.973400	0.788600	0.842700
C391	C39	0.044600	0.925600	0.865800
C401	C40	0.150100	0.003900	0.977600
C411	C41	0.227700	0.145800	0.009600
C421	C42	0.337800	0.218900	0.117900
C431	C43	0.374100	0.154700	0.202500
C441	C44	0.488800	0.222300	0.312200
C451	C45	0.523200	0.150900	0.385200
C461	C46	0.441100	0.012300	0.348900
C471	C47	0.295700	0.012700	0.173200
C481	C48	0.177900	0.937700	0.058000
N11	N1	0.891200	0.196000	0.962900
N21	N2	0.668600	0.057000	0.754000
N31	N3	0.108800	0.804000	0.037100
N41	N4	0.331400	0.943000	0.246000
O11	O1	0.091200	0.440300	0.904100
O21	O2	0.219300	0.593100	0.073600
O31	O3	0.988200	0.165900	0.761800
O41	O4	0.823900	0.198900	0.619600
O51	O5	0.819000	0.462300	0.717300
O61	O6	0.606000	0.291100	0.679400
O71	O7	0.908800	0.559700	0.095900
O81	O8	0.780700	0.406900	0.926400
O91	O9	0.011800	0.834100	0.238200
O101	O10	0.176100	0.801100	0.380400
O111	O11	0.181000	0.537700	0.282700
O121	O12	0.394000	0.708900	0.320600
