data_KINNUS_charged_PM
_symmetry_space_group_name_H-M	'P1'
_cell_length_a	7.573500
_cell_length_b	11.754700
_cell_length_c	17.084200
_cell_angle_alpha	82.190000
_cell_angle_beta	86.285000
_cell_angle_gamma	88.218000
_symmetry_Int_Tables_number 1

loop_
_symmetry_equiv_pos_as_xyz
'x,y,z'

loop_
_atom_site_label
_atom_site_type_symbol
_atom_site_fract_x
_atom_site_fract_y
_atom_site_fract_z
Cu11	Cu1	0.416270	0.052730	0.805860
Cu21	Cu2	0.583730	0.947270	0.194130
C11	C1	0.124100	0.055520	0.532800
C21	C2	0.556200	0.551750	0.059290
C31	C3	0.494100	0.626050	0.995260
C41	C4	0.940900	0.055470	0.661460
C51	C5	0.969900	0.028770	0.580260
C61	C6	0.446600	0.824830	0.923350
C71	C7	0.524600	0.806380	0.055800
C81	C8	0.439400	0.566110	0.936120
C91	C9	0.487500	0.750160	0.991570
C101	C10	0.084400	0.068310	0.707380
C111	C11	0.772300	0.061010	0.699240
C121	C12	0.847300	0.972100	0.542630
C131	C13	0.875900	0.944480	0.467200
C141	C14	0.443800	0.448250	0.940710
C151	C15	0.505900	0.373950	0.004740
C161	C16	0.059100	0.944530	0.338540
C171	C17	0.030100	0.971230	0.419740
C181	C18	0.553400	0.175170	0.076650
C191	C19	0.475400	0.193620	0.944200
C201	C20	0.560600	0.433890	0.063880
C211	C21	0.512500	0.249840	0.008430
C221	C22	0.915600	0.931690	0.292620
C231	C23	0.227700	0.938990	0.300760
C241	C24	0.152700	0.027900	0.457370
N11	N1	0.202200	0.076960	0.745770
N21	N2	0.554600	0.855150	0.107750
N31	N3	0.417400	0.892370	0.869360
N41	N4	0.635100	0.064800	0.733240
N51	N5	0.797800	0.923040	0.254230
N61	N6	0.445400	0.144850	0.892250
N71	N7	0.582600	0.107630	0.130640
N81	N8	0.364900	0.935200	0.266760
F11	F1	0.692400	0.940250	0.582120
F21	F2	0.377980	0.625650	0.869080
F31	F3	0.618200	0.596320	0.120930
F41	F4	0.253810	0.112210	0.561290
F51	F5	0.307600	0.059750	0.417880
F61	F6	0.622020	0.374350	0.130920
F71	F7	0.381800	0.403680	0.879070
F81	F8	0.746190	0.887790	0.438710
P11	P1	0.895210	0.676140	0.765480
H11	H1	0.197600	0.821600	0.764300
H21	H2	0.627300	0.507000	0.771700
H31	H3	0.013200	0.576200	0.918000
H41	H4	0.836200	0.891600	0.822000
H51	H5	0.052000	0.648300	0.036100
H61	H6	0.980800	0.840200	0.047800
H71	H7	0.895400	0.203300	0.805700
H81	H8	0.629800	0.305600	0.788400
H91	H9	0.984500	0.641600	0.607800
H101	H10	0.673100	0.702900	0.677800
H111	H11	0.592900	0.709400	0.766100
H121	H12	0.694700	0.816700	0.717800
H131	H13	0.160800	0.500500	0.783700
H141	H14	0.411800	0.892100	0.665900
H151	H15	0.870300	0.960100	0.941800
H161	H16	0.162000	0.299200	0.803400
H171	H17	0.203500	0.709400	0.511100
H181	H18	0.417600	0.833800	0.540600
C251	C25	0.198400	0.799270	0.712860
C261	C26	0.735700	0.464800	0.777950
C271	C27	0.894200	0.522340	0.776890
C281	C28	0.071700	0.725000	0.694990
C291	C29	0.921600	0.726500	0.858350
C301	C30	0.985200	0.654500	0.922420
C311	C31	0.879200	0.841800	0.865500
C321	C32	0.007500	0.697200	0.992560
C331	C33	0.965200	0.811200	0.999470
C341	C34	0.895200	0.284900	0.797980
C351	C35	0.737100	0.345400	0.788170
C361	C36	0.072100	0.691700	0.619720
C371	C37	0.690800	0.732700	0.727510
C381	C38	0.052900	0.460900	0.785460
C391	C39	0.326000	0.840400	0.654520
C401	C40	0.900500	0.882400	0.936420
C411	C41	0.053900	0.341600	0.796670
C421	C42	0.201700	0.732300	0.562390
C431	C43	0.328800	0.806500	0.579840
P21	P2	0.104790	0.323860	0.234520
H191	H19	0.802400	0.178400	0.235700
H201	H20	0.372700	0.493000	0.228300
H211	H21	0.986800	0.423800	0.082000
H221	H22	0.163800	0.108400	0.178000
H231	H23	0.948000	0.351700	0.963900
H241	H24	0.019200	0.159800	0.952200
H251	H25	0.104600	0.796700	0.194300
H261	H26	0.370200	0.694400	0.211600
H271	H27	0.015500	0.358400	0.392200
H281	H28	0.326900	0.297100	0.322200
H291	H29	0.407100	0.290600	0.233900
H301	H30	0.305300	0.183300	0.282200
H311	H31	0.839200	0.499500	0.216300
H321	H32	0.588200	0.107900	0.334100
H331	H33	0.129700	0.039900	0.058200
H341	H34	0.838000	0.700800	0.196600
H351	H35	0.796500	0.290600	0.488900
H361	H36	0.582400	0.166200	0.459400
C441	C44	0.801600	0.200730	0.287140
C451	C45	0.264300	0.535200	0.222050
C461	C46	0.105800	0.477660	0.223110
C471	C47	0.928300	0.275000	0.305010
C481	C48	0.078400	0.273500	0.141650
C491	C49	0.014800	0.345500	0.077580
C501	C50	0.120800	0.158200	0.134500
C511	C51	0.992500	0.302800	0.007440
C521	C52	0.034800	0.188800	0.000530
C531	C53	0.104800	0.715100	0.202020
C541	C54	0.262900	0.654600	0.211830
C551	C55	0.927900	0.308300	0.380280
C561	C56	0.309200	0.267300	0.272490
C571	C57	0.947100	0.539100	0.214540
C581	C58	0.674000	0.159600	0.345480
C591	C59	0.099500	0.117600	0.063580
C601	C60	0.946100	0.658400	0.203330
C611	C61	0.798300	0.267700	0.437610
C621	C62	0.671200	0.193500	0.420160
