data_KINRIK_freeONLY_PM
_symmetry_space_group_name_H-M	'P1'
_cell_length_a	38.074000
_cell_length_b	38.074000
_cell_length_c	24.316000
_cell_angle_alpha	90.000000
_cell_angle_beta	90.000000
_cell_angle_gamma	120.000000
_symmetry_Int_Tables_number 1

loop_
_symmetry_equiv_pos_as_xyz
'x,y,z'

loop_
_atom_site_label
_atom_site_type_symbol
_atom_site_fract_x
_atom_site_fract_y
_atom_site_fract_z
Gd11	Gd1	0.562810	0.124590	0.666250
Gd21	Gd2	0.448860	0.901830	0.825130
Cu11	Cu1	0.525740	0.998570	0.789760
Cu21	Cu2	0.368450	0.897110	0.750360
Cu31	Cu3	0.474640	0.846200	0.738770
Cu41	Cu4	0.512300	0.973530	0.919230
Cu51	Cu5	0.461920	0.822530	0.867650
Cu61	Cu6	0.353750	0.873250	0.880860
O11	O1	0.507400	0.942100	0.764900
O21	O2	0.517600	0.907500	0.697200
O31	O3	0.426700	0.937500	0.762100
O41	O4	0.474800	0.999800	0.738900
O51	O5	0.432900	0.861500	0.741200
O61	O6	0.384800	0.861800	0.689200
O71	O7	0.494100	0.916700	0.905300
O81	O8	0.502200	0.865800	0.936000
O91	O9	0.419900	0.839400	0.877200
O101	O10	0.360500	0.821100	0.917200
O111	O11	0.411900	0.912130	0.899100
O121	O12	0.450600	0.950500	0.966900
O131	O13	0.556300	0.085300	0.742300
O141	O14	0.543500	0.051100	0.823000
O151	O15	0.266800	0.814000	0.925800
O161	O16	0.298400	0.846200	0.851200
O171	O17	0.510500	0.786500	0.927100
O181	O18	0.502300	0.807800	0.844600
O191	O19	0.486280	0.971760	0.849400
O201	O20	0.374600	0.866960	0.811000
O211	O21	0.486100	0.867200	0.813800
O221	O22	0.309400	0.857400	0.742500
O231	O23	0.517700	0.832000	0.743200
O241	O24	0.528900	0.030600	0.930100
O251	O25	0.569100	0.192500	0.646000
O261	O26	0.493800	0.063400	0.674600
O271	O27	0.557700	0.065500	0.615400
O281	O28	0.627300	0.122900	0.677900
O291	O29	0.610200	0.176900	0.728900
O301	O30	0.519600	0.137800	0.724600
N11	N1	0.563800	0.013300	0.725700
H11	H1	0.558900	0.028300	0.701600
H21	H2	0.589500	0.028400	0.737600
N21	N2	0.372500	0.936800	0.696100
H31	H3	0.369900	0.926400	0.662000
H41	H4	0.352300	0.942200	0.701300
N31	N3	0.450400	0.819500	0.668900
H51	H5	0.469900	0.825400	0.643700
H61	H6	0.436200	0.792500	0.673400
N41	N4	0.539000	0.967200	0.984000
H71	H7	0.566000	0.983600	0.981300
H81	H8	0.530500	0.974100	0.014500
N51	N5	0.431500	0.780800	0.919100
H91	H9	0.426800	0.756800	0.905700
H101	H10	0.445400	0.785700	0.950700
N61	N6	0.342200	0.889100	0.954500
H111	H11	0.331600	0.905500	0.950200
H121	H12	0.324200	0.866900	0.973200
C11	C1	0.558800	0.976400	0.697900
H131	H13	0.583700	0.975600	0.702000
H141	H14	0.554700	0.978500	0.659000
C21	C2	0.523700	0.936700	0.719500
C31	C3	0.410800	0.973400	0.700800
H151	H15	0.406100	0.994800	0.713800
H161	H16	0.422800	0.981100	0.664400
C41	C4	0.439900	0.971100	0.737400
C51	C5	0.425300	0.833600	0.652000
H171	H17	0.400900	0.810900	0.637000
H181	H18	0.438700	0.852600	0.622200
C61	C6	0.412500	0.854600	0.696100
C71	C7	0.529600	0.926000	0.987900
H191	H19	0.512700	0.913700	0.020000
H201	H20	0.554600	0.925400	0.993100
C81	C8	0.508500	0.901800	0.939000
C91	C9	0.389300	0.779400	0.930300
H211	H21	0.367400	0.755100	0.913700
H221	H22	0.384400	0.777800	0.969600
C101	C10	0.388800	0.815800	0.907600
C111	C11	0.380900	0.910400	0.984800
H231	H23	0.381800	0.892000	0.011600
H241	H24	0.381900	0.933000	0.004700
C121	C12	0.417900	0.926300	0.947900
C131	C13	0.553400	0.083200	0.795500
H251	H25	0.558700	0.106500	0.814700
C141	C14	0.268800	0.825500	0.877700
H261	H26	0.244100	0.816800	0.860000
C151	C15	0.519200	0.797000	0.876600
H271	H27	0.541500	0.796100	0.862800
Gd31	Gd3	0.229480	0.457920	0.999580
Gd41	Gd4	0.115520	0.235170	0.158460
Cu71	Cu7	0.192410	0.331900	0.123090
Cu81	Cu8	0.035120	0.230440	0.083690
Cu91	Cu9	0.141310	0.179530	0.072100
Cu101	Cu10	0.178970	0.306860	0.252560
Cu111	Cu11	0.128590	0.155860	0.200980
Cu121	Cu12	0.020420	0.206580	0.214190
O311	O31	0.174070	0.275430	0.098230
O321	O32	0.184270	0.240830	0.030530
O331	O33	0.093370	0.270830	0.095430
O341	O34	0.141470	0.333130	0.072230
O351	O35	0.099570	0.194830	0.074530
O361	O36	0.051470	0.195130	0.022530
O371	O37	0.160770	0.250030	0.238630
O381	O38	0.168870	0.199130	0.269330
O391	O39	0.086570	0.172730	0.210530
O401	O40	0.027170	0.154430	0.250530
O411	O41	0.078570	0.245460	0.232430
O421	O42	0.117270	0.283830	0.300230
O431	O43	0.222970	0.418630	0.075630
O441	O44	0.210170	0.384430	0.156330
O451	O45	0.933470	0.147330	0.259130
O461	O46	0.965070	0.179530	0.184530
O471	O47	0.177170	0.119830	0.260430
O481	O48	0.168970	0.141130	0.177930
O491	O49	0.152950	0.305090	0.182730
O501	O50	0.041270	0.200290	0.144330
O511	O51	0.152770	0.200530	0.147130
O521	O52	0.976070	0.190730	0.075830
O531	O53	0.184370	0.165330	0.076530
O541	O54	0.195570	0.363930	0.263430
O551	O55	0.235770	0.525830	0.979330
O561	O56	0.160470	0.396730	0.007930
O571	O57	0.224370	0.398830	0.948730
O581	O58	0.293970	0.456230	0.011230
O591	O59	0.276870	0.510230	0.062230
O601	O60	0.186270	0.471130	0.057930
N71	N7	0.230470	0.346630	0.059030
H281	H28	0.225570	0.361630	0.034930
H291	H29	0.256170	0.361730	0.070930
N81	N8	0.039170	0.270130	0.029430
H301	H30	0.036570	0.259730	0.995330
H311	H31	0.018970	0.275530	0.034630
N91	N9	0.117070	0.152830	0.002230
H321	H32	0.136570	0.158730	0.977030
H331	H33	0.102870	0.125830	0.006730
N101	N10	0.205670	0.300530	0.317330
H341	H34	0.232670	0.316930	0.314630
H351	H35	0.197170	0.307430	0.347830
N111	N11	0.098170	0.114130	0.252430
H361	H36	0.093470	0.090130	0.239030
H371	H37	0.112070	0.119030	0.284030
N121	N12	0.008870	0.222430	0.287830
H381	H38	0.998270	0.238830	0.283530
H391	H39	0.990870	0.200230	0.306530
C161	C16	0.225470	0.309730	0.031230
H401	H40	0.250370	0.308930	0.035330
H411	H41	0.221370	0.311830	0.992330
C171	C17	0.190370	0.270030	0.052830
C181	C18	0.077470	0.306730	0.034130
H421	H42	0.072770	0.328130	0.047130
H431	H43	0.089470	0.314430	0.997730
C191	C19	0.106570	0.304430	0.070730
C201	C20	0.091970	0.166930	0.985330
H441	H44	0.067570	0.144230	0.970330
H451	H45	0.105370	0.185930	0.955530
C211	C21	0.079170	0.187930	0.029430
C221	C22	0.196270	0.259330	0.321230
H461	H46	0.179370	0.247030	0.353330
H471	H47	0.221270	0.258730	0.326430
C231	C23	0.175170	0.235130	0.272330
C241	C24	0.055970	0.112730	0.263630
H481	H48	0.034070	0.088430	0.247030
H491	H49	0.051070	0.111130	0.302930
C251	C25	0.055470	0.149130	0.240930
C261	C26	0.047570	0.243730	0.318130
H501	H50	0.048470	0.225330	0.344930
H511	H51	0.048570	0.266330	0.338030
C271	C27	0.084570	0.259630	0.281230
C281	C28	0.220070	0.416530	0.128830
H521	H52	0.225370	0.439830	0.148030
C291	C29	0.935470	0.158830	0.211030
H531	H53	0.910770	0.150130	0.193330
C301	C30	0.185870	0.130330	0.209930
H541	H54	0.208170	0.129430	0.196130
Gd51	Gd5	0.896140	0.791260	0.332920
Gd61	Gd6	0.782190	0.568500	0.491800
Cu131	Cu13	0.859070	0.665240	0.456430
Cu141	Cu14	0.701780	0.563780	0.417030
Cu151	Cu15	0.807970	0.512870	0.405440
Cu161	Cu16	0.845630	0.640200	0.585900
Cu171	Cu17	0.795250	0.489200	0.534320
Cu181	Cu18	0.687080	0.539920	0.547530
O611	O61	0.840730	0.608770	0.431570
O621	O62	0.850930	0.574170	0.363870
O631	O63	0.760030	0.604170	0.428770
O641	O64	0.808130	0.666470	0.405570
O651	O65	0.766230	0.528170	0.407870
O661	O66	0.718130	0.528470	0.355870
O671	O67	0.827430	0.583370	0.571970
O681	O68	0.835530	0.532470	0.602670
O691	O69	0.753230	0.506070	0.543870
O701	O70	0.693830	0.487770	0.583870
O711	O71	0.745230	0.578800	0.565770
O721	O72	0.783930	0.617170	0.633570
O731	O73	0.889630	0.751970	0.408970
O741	O74	0.876830	0.717770	0.489670
O751	O75	0.600130	0.480670	0.592470
O761	O76	0.631730	0.512870	0.517870
O771	O77	0.843830	0.453170	0.593770
O781	O78	0.835630	0.474470	0.511270
O791	O79	0.819610	0.638430	0.516070
O801	O80	0.707930	0.533630	0.477670
O811	O81	0.819430	0.533870	0.480470
O821	O82	0.642730	0.524070	0.409170
O831	O83	0.851030	0.498670	0.409870
O841	O84	0.862230	0.697270	0.596770
O851	O85	0.902430	0.859170	0.312670
O861	O86	0.827130	0.730070	0.341270
O871	O87	0.891030	0.732170	0.282070
O881	O88	0.960630	0.789570	0.344570
O891	O89	0.943530	0.843570	0.395570
O901	O90	0.852930	0.804470	0.391270
N131	N13	0.897130	0.679970	0.392370
H551	H55	0.892230	0.694970	0.368270
H561	H56	0.922830	0.695070	0.404270
N141	N14	0.705830	0.603470	0.362770
H571	H57	0.703230	0.593070	0.328670
H581	H58	0.685630	0.608870	0.367970
N151	N15	0.783730	0.486170	0.335570
H591	H59	0.803230	0.492070	0.310370
H601	H60	0.769530	0.459170	0.340070
N161	N16	0.872330	0.633870	0.650670
H611	H61	0.899330	0.650270	0.647970
H621	H62	0.863830	0.640770	0.681170
N171	N17	0.764830	0.447470	0.585770
H631	H63	0.760130	0.423470	0.572370
H641	H64	0.778730	0.452370	0.617370
N181	N18	0.675530	0.555770	0.621170
H651	H65	0.664930	0.572170	0.616870
H661	H66	0.657530	0.533570	0.639870
C311	C31	0.892130	0.643070	0.364570
H671	H67	0.917030	0.642270	0.368670
H681	H68	0.888030	0.645170	0.325670
C321	C32	0.857030	0.603370	0.386170
C331	C33	0.744130	0.640070	0.367470
H691	H69	0.739430	0.661470	0.380470
H701	H70	0.756130	0.647770	0.331070
C341	C34	0.773230	0.637770	0.404070
C351	C35	0.758630	0.500270	0.318670
H711	H71	0.734230	0.477570	0.303670
H721	H72	0.772030	0.519270	0.288870
C361	C36	0.745830	0.521270	0.362770
C371	C37	0.862930	0.592670	0.654570
H731	H73	0.846030	0.580370	0.686670
H741	H74	0.887930	0.592070	0.659770
C381	C38	0.841830	0.568470	0.605670
C391	C39	0.722630	0.446070	0.596970
H751	H75	0.700730	0.421770	0.580370
H761	H76	0.717730	0.444470	0.636270
C401	C40	0.722130	0.482470	0.574270
C411	C41	0.714230	0.577070	0.651470
H771	H77	0.715130	0.558670	0.678270
H781	H78	0.715230	0.599670	0.671370
C421	C42	0.751230	0.592970	0.614570
C431	C43	0.886730	0.749870	0.462170
H791	H79	0.892030	0.773170	0.481370
C441	C44	0.602130	0.492170	0.544370
H801	H80	0.577430	0.483470	0.526670
C451	C45	0.852530	0.463670	0.543270
H811	H81	0.874830	0.462770	0.529470
Gd71	Gd7	0.875410	0.438220	0.666250
Gd81	Gd8	0.098170	0.547020	0.825130
Cu191	Cu19	0.001430	0.527170	0.789760
Cu201	Cu20	0.102890	0.471340	0.750360
Cu211	Cu21	0.153800	0.628440	0.738770
Cu221	Cu22	0.026470	0.538770	0.919230
Cu231	Cu23	0.177470	0.639390	0.867650
Cu241	Cu24	0.126750	0.480500	0.880860
O911	O91	0.057900	0.565300	0.764900
O921	O92	0.092500	0.610100	0.697200
O931	O93	0.062500	0.489200	0.762100
O941	O94	0.000200	0.475000	0.738900
O951	O95	0.138500	0.571400	0.741200
O961	O96	0.138200	0.523000	0.689200
O971	O97	0.083300	0.577400	0.905300
O981	O98	0.134200	0.636400	0.936000
O991	O99	0.160600	0.580500	0.877200
O1001	O100	0.178900	0.539400	0.917200
O1011	O101	0.087870	0.499770	0.899100
O1021	O102	0.049500	0.500100	0.966900
O1031	O103	0.914700	0.471000	0.742300
O1041	O104	0.948900	0.492400	0.823000
O1051	O105	0.186000	0.452800	0.925800
O1061	O106	0.153800	0.452200	0.851200
O1071	O107	0.213500	0.724000	0.927100
O1081	O108	0.192200	0.694500	0.844600
O1091	O109	0.028240	0.514520	0.849400
O1101	O110	0.133040	0.507640	0.811000
O1111	O111	0.132800	0.618900	0.813800
O1121	O112	0.142600	0.452000	0.742500
O1131	O113	0.168000	0.685700	0.743200
O1141	O114	0.969400	0.498300	0.930100
O1151	O115	0.807500	0.376600	0.646000
O1161	O116	0.936600	0.430400	0.674600
O1171	O117	0.934500	0.492200	0.615400
O1181	O118	0.877100	0.504400	0.677900
O1191	O119	0.823100	0.433300	0.728900
O1201	O120	0.862200	0.381800	0.724600
N191	N19	0.986700	0.550500	0.725700
H821	H82	0.971700	0.530600	0.701600
H831	H83	0.971600	0.561100	0.737600
N201	N20	0.063200	0.435700	0.696100
H841	H84	0.073600	0.443500	0.662000
H851	H85	0.057800	0.410100	0.701300
N211	N21	0.180500	0.630900	0.668900
H861	H86	0.174600	0.644500	0.643700
H871	H87	0.207500	0.643700	0.673400
N221	N22	0.032800	0.571800	0.984000
H881	H88	0.016400	0.582400	0.981300
H891	H89	0.025900	0.556400	0.014500
N231	N23	0.219200	0.650700	0.919100
H901	H90	0.243200	0.670000	0.905700
H911	H91	0.214300	0.659700	0.950700
N241	N24	0.110900	0.453100	0.954500
H921	H92	0.094500	0.426100	0.950200
H931	H93	0.133100	0.457300	0.973200
C461	C46	0.023600	0.582400	0.697900
H941	H94	0.024400	0.608100	0.702000
H951	H95	0.021500	0.576200	0.659000
C471	C47	0.063300	0.587000	0.719500
C481	C48	0.026600	0.437400	0.700800
H961	H96	0.005200	0.411300	0.713800
H971	H97	0.018900	0.441700	0.664400
C491	C49	0.028900	0.468800	0.737400
C501	C50	0.166400	0.591700	0.652000
H981	H98	0.189100	0.590000	0.637000
H991	H99	0.147400	0.586100	0.622200
C511	C51	0.145400	0.557900	0.696100
C521	C52	0.074000	0.603600	0.987900
H1001	H100	0.086300	0.599000	0.020000
H1011	H101	0.074600	0.629200	0.993100
C531	C53	0.098200	0.606700	0.939000
C541	C54	0.220600	0.609900	0.930300
H1021	H102	0.244900	0.612300	0.913700
H1031	H103	0.222200	0.606600	0.969600
C551	C55	0.184200	0.573000	0.907600
C561	C56	0.089600	0.470500	0.984800
H1041	H104	0.108000	0.489800	0.011600
H1051	H105	0.067000	0.448900	0.004700
C571	C57	0.073700	0.491600	0.947900
C581	C58	0.916800	0.470200	0.795500
H1061	H106	0.893500	0.452200	0.814700
C591	C59	0.174500	0.443300	0.877700
H1071	H107	0.183200	0.427300	0.860000
C601	C60	0.203000	0.722200	0.876600
H1081	H108	0.203900	0.745400	0.862800
Gd91	Gd9	0.542080	0.771550	0.999580
Gd101	Gd10	0.764830	0.880360	0.158460
Cu251	Cu25	0.668100	0.860500	0.123090
Cu261	Cu26	0.769560	0.804670	0.083690
Cu271	Cu27	0.820470	0.961770	0.072100
Cu281	Cu28	0.693140	0.872100	0.252560
Cu291	Cu29	0.844140	0.972720	0.200980
Cu301	Cu30	0.793420	0.813830	0.214190
O1211	O121	0.724570	0.898630	0.098230
O1221	O122	0.759170	0.943430	0.030530
O1231	O123	0.729170	0.822530	0.095430
O1241	O124	0.666870	0.808330	0.072230
O1251	O125	0.805170	0.904730	0.074530
O1261	O126	0.804870	0.856330	0.022530
O1271	O127	0.749970	0.910730	0.238630
O1281	O128	0.800870	0.969730	0.269330
O1291	O129	0.827270	0.913830	0.210530
O1301	O130	0.845570	0.872730	0.250530
O1311	O131	0.754540	0.833100	0.232430
O1321	O132	0.716170	0.833430	0.300230
O1331	O133	0.581370	0.804330	0.075630
O1341	O134	0.615570	0.825730	0.156330
O1351	O135	0.852670	0.786130	0.259130
O1361	O136	0.820470	0.785530	0.184530
O1371	O137	0.880170	0.057330	0.260430
O1381	O138	0.858870	0.027830	0.177930
O1391	O139	0.694910	0.847850	0.182730
O1401	O140	0.799710	0.840970	0.144330
O1411	O141	0.799470	0.952230	0.147130
O1421	O142	0.809270	0.785330	0.075830
O1431	O143	0.834670	0.019030	0.076530
O1441	O144	0.636070	0.831630	0.263430
O1451	O145	0.474170	0.709930	0.979330
O1461	O146	0.603270	0.763730	0.007930
O1471	O147	0.601170	0.825530	0.948730
O1481	O148	0.543770	0.837730	0.011230
O1491	O149	0.489770	0.766630	0.062230
O1501	O150	0.528870	0.715130	0.057930
N251	N25	0.653370	0.883830	0.059030
H1091	H109	0.638370	0.863930	0.034930
H1101	H110	0.638270	0.894430	0.070930
N261	N26	0.729870	0.769030	0.029430
H1111	H111	0.740270	0.776830	0.995330
H1121	H112	0.724470	0.743430	0.034630
N271	N27	0.847170	0.964230	0.002230
H1131	H113	0.841270	0.977830	0.977030
H1141	H114	0.874170	0.977030	0.006730
N281	N28	0.699470	0.905130	0.317330
H1151	H115	0.683070	0.915730	0.314630
H1161	H116	0.692570	0.889730	0.347830
N291	N29	0.885870	0.984030	0.252430
H1171	H117	0.909870	0.003330	0.239030
H1181	H118	0.880970	0.993030	0.284030
N301	N30	0.777570	0.786430	0.287830
H1191	H119	0.761170	0.759430	0.283530
H1201	H120	0.799770	0.790630	0.306530
C611	C61	0.690270	0.915730	0.031230
H1211	H121	0.691070	0.941430	0.035330
H1221	H122	0.688170	0.909530	0.992330
C621	C62	0.729970	0.920330	0.052830
C631	C63	0.693270	0.770730	0.034130
H1231	H123	0.671870	0.744630	0.047130
H1241	H124	0.685570	0.775030	0.997730
C641	C64	0.695570	0.802130	0.070730
C651	C65	0.833070	0.925030	0.985330
H1251	H125	0.855770	0.923330	0.970330
H1261	H126	0.814070	0.919430	0.955530
C661	C66	0.812070	0.891230	0.029430
C671	C67	0.740670	0.936930	0.321230
H1271	H127	0.752970	0.932330	0.353330
H1281	H128	0.741270	0.962530	0.326430
C681	C68	0.764870	0.940030	0.272330
C691	C69	0.887270	0.943230	0.263630
H1291	H129	0.911570	0.945630	0.247030
H1301	H130	0.888870	0.939930	0.302930
C701	C70	0.850870	0.906330	0.240930
C711	C71	0.756270	0.803830	0.318130
H1311	H131	0.774670	0.823130	0.344930
H1321	H132	0.733670	0.782230	0.338030
C721	C72	0.740370	0.824930	0.281230
C731	C73	0.583470	0.803530	0.128830
H1331	H133	0.560170	0.785530	0.148030
C741	C74	0.841170	0.776630	0.211030
H1341	H134	0.849870	0.760630	0.193330
C751	C75	0.869670	0.055530	0.209930
H1351	H135	0.870570	0.078730	0.196130
Gd111	Gd11	0.208740	0.104890	0.332920
Gd121	Gd12	0.431500	0.213690	0.491800
Cu311	Cu31	0.334760	0.193840	0.456430
Cu321	Cu32	0.436220	0.138010	0.417030
Cu331	Cu33	0.487130	0.295110	0.405440
Cu341	Cu34	0.359800	0.205440	0.585900
Cu351	Cu35	0.510800	0.306060	0.534320
Cu361	Cu36	0.460080	0.147170	0.547530
O1511	O151	0.391230	0.231970	0.431570
O1521	O152	0.425830	0.276770	0.363870
O1531	O153	0.395830	0.155870	0.428770
O1541	O154	0.333530	0.141670	0.405570
O1551	O155	0.471830	0.238070	0.407870
O1561	O156	0.471530	0.189670	0.355870
O1571	O157	0.416630	0.244070	0.571970
O1581	O158	0.467530	0.303070	0.602670
O1591	O159	0.493930	0.247170	0.543870
O1601	O160	0.512230	0.206070	0.583870
O1611	O161	0.421200	0.166440	0.565770
O1621	O162	0.382830	0.166770	0.633570
O1631	O163	0.248030	0.137670	0.408970
O1641	O164	0.282230	0.159070	0.489670
O1651	O165	0.519330	0.119470	0.592470
O1661	O166	0.487130	0.118870	0.517870
O1671	O167	0.546830	0.390670	0.593770
O1681	O168	0.525530	0.361170	0.511270
O1691	O169	0.361570	0.181190	0.516070
O1701	O170	0.466370	0.174310	0.477670
O1711	O171	0.466130	0.285570	0.480470
O1721	O172	0.475930	0.118670	0.409170
O1731	O173	0.501330	0.352370	0.409870
O1741	O174	0.302730	0.164970	0.596770
O1751	O175	0.140830	0.043270	0.312670
O1761	O176	0.269930	0.097070	0.341270
O1771	O177	0.267830	0.158870	0.282070
O1781	O178	0.210430	0.171070	0.344570
O1791	O179	0.156430	0.099970	0.395570
O1801	O180	0.195530	0.048470	0.391270
N311	N31	0.320030	0.217170	0.392370
H1361	H136	0.305030	0.197270	0.368270
H1371	H137	0.304930	0.227770	0.404270
N321	N32	0.396530	0.102370	0.362770
H1381	H138	0.406930	0.110170	0.328670
H1391	H139	0.391130	0.076770	0.367970
N331	N33	0.513830	0.297570	0.335570
H1401	H140	0.507930	0.311170	0.310370
H1411	H141	0.540830	0.310370	0.340070
N341	N34	0.366130	0.238470	0.650670
H1421	H142	0.349730	0.249070	0.647970
H1431	H143	0.359230	0.223070	0.681170
N351	N35	0.552530	0.317370	0.585770
H1441	H144	0.576530	0.336670	0.572370
H1451	H145	0.547630	0.326370	0.617370
N361	N36	0.444230	0.119770	0.621170
H1461	H146	0.427830	0.092770	0.616870
H1471	H147	0.466430	0.123970	0.639870
C761	C76	0.356930	0.249070	0.364570
H1481	H148	0.357730	0.274770	0.368670
H1491	H149	0.354830	0.242870	0.325670
C771	C77	0.396630	0.253670	0.386170
C781	C78	0.359930	0.104070	0.367470
H1501	H150	0.338530	0.077970	0.380470
H1511	H151	0.352230	0.108370	0.331070
C791	C79	0.362230	0.135470	0.404070
C801	C80	0.499730	0.258370	0.318670
H1521	H152	0.522430	0.256670	0.303670
H1531	H153	0.480730	0.252770	0.288870
C811	C81	0.478730	0.224570	0.362770
C821	C82	0.407330	0.270270	0.654570
H1541	H154	0.419630	0.265670	0.686670
H1551	H155	0.407930	0.295870	0.659770
C831	C83	0.431530	0.273370	0.605670
C841	C84	0.553930	0.276570	0.596970
H1561	H156	0.578230	0.278970	0.580370
H1571	H157	0.555530	0.273270	0.636270
C851	C85	0.517530	0.239670	0.574270
C861	C86	0.422930	0.137170	0.651470
H1581	H158	0.441330	0.156470	0.678270
H1591	H159	0.400330	0.115570	0.671370
C871	C87	0.407030	0.158270	0.614570
C881	C88	0.250130	0.136870	0.462170
H1601	H160	0.226830	0.118870	0.481370
C891	C89	0.507830	0.109970	0.544370
H1611	H161	0.516530	0.093970	0.526670
C901	C90	0.536330	0.388870	0.543270
H1621	H162	0.537230	0.412070	0.529470
Gd131	Gd13	0.561780	0.437190	0.666250
Gd141	Gd14	0.452980	0.551140	0.825130
Cu371	Cu37	0.472830	0.474260	0.789760
Cu381	Cu38	0.528660	0.631550	0.750360
Cu391	Cu39	0.371560	0.525360	0.738770
Cu401	Cu40	0.461230	0.487700	0.919230
Cu411	Cu41	0.360610	0.538080	0.867650
Cu421	Cu42	0.519500	0.646250	0.880860
O1811	O181	0.434700	0.492600	0.764900
O1821	O182	0.389900	0.482400	0.697200
O1831	O183	0.510800	0.573300	0.762100
O1841	O184	0.525000	0.525200	0.738900
O1851	O185	0.428600	0.567100	0.741200
O1861	O186	0.477000	0.615200	0.689200
O1871	O187	0.422600	0.505900	0.905300
O1881	O188	0.363600	0.497800	0.936000
O1891	O189	0.419500	0.580100	0.877200
O1901	O190	0.460600	0.639500	0.917200
O1911	O191	0.500230	0.588100	0.899100
O1921	O192	0.499900	0.549400	0.966900
O1931	O193	0.529000	0.443700	0.742300
O1941	O194	0.507600	0.456500	0.823000
O1951	O195	0.547200	0.733200	0.925800
O1961	O196	0.547800	0.701600	0.851200
O1971	O197	0.276000	0.489500	0.927100
O1981	O198	0.305500	0.497700	0.844600
O1991	O199	0.485480	0.513720	0.849400
O2001	O200	0.492360	0.625400	0.811000
O2011	O201	0.381100	0.513900	0.813800
O2021	O202	0.548000	0.690600	0.742500
O2031	O203	0.314300	0.482300	0.743200
O2041	O204	0.501700	0.471100	0.930100
O2051	O205	0.623400	0.430900	0.646000
O2061	O206	0.569600	0.506200	0.674600
O2071	O207	0.507800	0.442300	0.615400
O2081	O208	0.495600	0.372700	0.677900
O2091	O209	0.566700	0.389800	0.728900
O2101	O210	0.618200	0.480400	0.724600
N371	N37	0.449500	0.436200	0.725700
H1631	H163	0.469400	0.441100	0.701600
H1641	H164	0.438900	0.410500	0.737600
N381	N38	0.564300	0.627500	0.696100
H1651	H165	0.556500	0.630100	0.662000
H1661	H166	0.589900	0.647700	0.701300
N391	N39	0.369100	0.549600	0.668900
H1671	H167	0.355500	0.530100	0.643700
H1681	H168	0.356300	0.563800	0.673400
N401	N40	0.428200	0.461000	0.984000
H1691	H169	0.417600	0.434000	0.981300
H1701	H170	0.443600	0.469500	0.014500
N411	N41	0.349300	0.568500	0.919100
H1711	H171	0.330000	0.573200	0.905700
H1721	H172	0.340300	0.554600	0.950700
N421	N42	0.546900	0.657800	0.954500
H1731	H173	0.573900	0.668400	0.950200
H1741	H174	0.542700	0.675800	0.973200
C911	C91	0.417600	0.441200	0.697900
H1751	H175	0.391900	0.416300	0.702000
H1761	H176	0.423800	0.445300	0.659000
C921	C92	0.413000	0.476300	0.719500
C931	C93	0.562600	0.589200	0.700800
H1771	H177	0.588700	0.593900	0.713800
H1781	H178	0.558300	0.577200	0.664400
C941	C94	0.531200	0.560100	0.737400
C951	C95	0.408300	0.574700	0.652000
H1791	H179	0.410000	0.599100	0.637000
H1801	H180	0.413900	0.561300	0.622200
C961	C96	0.442100	0.587500	0.696100
C971	C97	0.396400	0.470400	0.987900
H1811	H181	0.401000	0.487300	0.020000
H1821	H182	0.370800	0.445400	0.993100
C981	C98	0.393300	0.491500	0.939000
C991	C99	0.390100	0.610700	0.930300
H1831	H183	0.387700	0.632600	0.913700
H1841	H184	0.393400	0.615600	0.969600
C1001	C100	0.427000	0.611200	0.907600
C1011	C101	0.529500	0.619100	0.984800
H1851	H185	0.510200	0.618200	0.011600
H1861	H186	0.551100	0.618100	0.004700
C1021	C102	0.508400	0.582100	0.947900
C1031	C103	0.529800	0.446600	0.795500
H1871	H187	0.547800	0.441300	0.814700
C1041	C104	0.556700	0.731200	0.877700
H1881	H188	0.572700	0.755900	0.860000
C1051	C105	0.277800	0.480800	0.876600
H1891	H189	0.254600	0.458500	0.862800
Gd151	Gd15	0.228450	0.770520	0.999580
Gd161	Gd16	0.119640	0.884480	0.158460
Cu431	Cu43	0.139500	0.807590	0.123090
Cu441	Cu44	0.195330	0.964880	0.083690
Cu451	Cu45	0.038230	0.858690	0.072100
Cu461	Cu46	0.127900	0.821030	0.252560
Cu471	Cu47	0.027280	0.871410	0.200980
Cu481	Cu48	0.186170	0.979580	0.214190
O2111	O211	0.101370	0.825930	0.098230
O2121	O212	0.056570	0.815730	0.030530
O2131	O213	0.177470	0.906630	0.095430
O2141	O214	0.191670	0.858530	0.072230
O2151	O215	0.095270	0.900430	0.074530
O2161	O216	0.143670	0.948530	0.022530
O2171	O217	0.089270	0.839230	0.238630
O2181	O218	0.030270	0.831130	0.269330
O2191	O219	0.086170	0.913430	0.210530
O2201	O220	0.127270	0.972830	0.250530
O2211	O221	0.166900	0.921430	0.232430
O2221	O222	0.166570	0.882730	0.300230
O2231	O223	0.195670	0.777030	0.075630
O2241	O224	0.174270	0.789830	0.156330
O2251	O225	0.213870	0.066530	0.259130
O2261	O226	0.214470	0.034930	0.184530
O2271	O227	0.942670	0.822830	0.260430
O2281	O228	0.972170	0.831030	0.177930
O2291	O229	0.152150	0.847050	0.182730
O2301	O230	0.159030	0.958730	0.144330
O2311	O231	0.047770	0.847230	0.147130
O2321	O232	0.214670	0.023930	0.075830
O2331	O233	0.980970	0.815630	0.076530
O2341	O234	0.168370	0.804430	0.263430
O2351	O235	0.290070	0.764230	0.979330
O2361	O236	0.236270	0.839530	0.007930
O2371	O237	0.174470	0.775630	0.948730
O2381	O238	0.162270	0.706030	0.011230
O2391	O239	0.233370	0.723130	0.062230
O2401	O240	0.284870	0.813730	0.057930
N431	N43	0.116170	0.769530	0.059030
H1901	H190	0.136070	0.774430	0.034930
H1911	H191	0.105570	0.743830	0.070930
N441	N44	0.230970	0.960830	0.029430
H1921	H192	0.223170	0.963430	0.995330
H1931	H193	0.256570	0.981030	0.034630
N451	N45	0.035770	0.882930	0.002230
H1941	H194	0.022170	0.863430	0.977030
H1951	H195	0.022970	0.897130	0.006730
N461	N46	0.094870	0.794330	0.317330
H1961	H196	0.084270	0.767330	0.314630
H1971	H197	0.110270	0.802830	0.347830
N471	N47	0.015970	0.901830	0.252430
H1981	H198	0.996670	0.906530	0.239030
H1991	H199	0.006970	0.887930	0.284030
N481	N48	0.213570	0.991130	0.287830
H2001	H200	0.240570	0.001730	0.283530
H2011	H201	0.209370	0.009130	0.306530
C1061	C106	0.084270	0.774530	0.031230
H2021	H202	0.058570	0.749630	0.035330
H2031	H203	0.090470	0.778630	0.992330
C1071	C107	0.079670	0.809630	0.052830
C1081	C108	0.229270	0.922530	0.034130
H2041	H204	0.255370	0.927230	0.047130
H2051	H205	0.224970	0.910530	0.997730
C1091	C109	0.197870	0.893430	0.070730
C1101	C110	0.074970	0.908030	0.985330
H2061	H206	0.076670	0.932430	0.970330
H2071	H207	0.080570	0.894630	0.955530
C1111	C111	0.108770	0.920830	0.029430
C1121	C112	0.063070	0.803730	0.321230
H2081	H208	0.067670	0.820630	0.353330
H2091	H209	0.037470	0.778730	0.326430
C1131	C113	0.059970	0.824830	0.272330
C1141	C114	0.056770	0.944030	0.263630
H2101	H210	0.054370	0.965930	0.247030
H2111	H211	0.060070	0.948930	0.302930
C1151	C115	0.093670	0.944530	0.240930
C1161	C116	0.196170	0.952430	0.318130
H2121	H212	0.176870	0.951530	0.344930
H2131	H213	0.217770	0.951430	0.338030
C1171	C117	0.175070	0.915430	0.281230
C1181	C118	0.196470	0.779930	0.128830
H2141	H214	0.214470	0.774630	0.148030
C1191	C119	0.223370	0.064530	0.211030
H2151	H215	0.239370	0.089230	0.193330
C1201	C120	0.944470	0.814130	0.209930
H2161	H216	0.921270	0.791830	0.196130
Gd171	Gd17	0.895110	0.103860	0.332920
Gd181	Gd18	0.786310	0.217810	0.491800
Cu491	Cu49	0.806160	0.140930	0.456430
Cu501	Cu50	0.861990	0.298220	0.417030
Cu511	Cu51	0.704890	0.192030	0.405440
Cu521	Cu52	0.794560	0.154370	0.585900
Cu531	Cu53	0.693940	0.204750	0.534320
Cu541	Cu54	0.852830	0.312920	0.547530
O2411	O241	0.768030	0.159270	0.431570
O2421	O242	0.723230	0.149070	0.363870
O2431	O243	0.844130	0.239970	0.428770
O2441	O244	0.858330	0.191870	0.405570
O2451	O245	0.761930	0.233770	0.407870
O2461	O246	0.810330	0.281870	0.355870
O2471	O247	0.755930	0.172570	0.571970
O2481	O248	0.696930	0.164470	0.602670
O2491	O249	0.752830	0.246770	0.543870
O2501	O250	0.793930	0.306170	0.583870
O2511	O251	0.833560	0.254770	0.565770
O2521	O252	0.833230	0.216070	0.633570
O2531	O253	0.862330	0.110370	0.408970
O2541	O254	0.840930	0.123170	0.489670
O2551	O255	0.880530	0.399870	0.592470
O2561	O256	0.881130	0.368270	0.517870
O2571	O257	0.609330	0.156170	0.593770
O2581	O258	0.638830	0.164370	0.511270
O2591	O259	0.818810	0.180390	0.516070
O2601	O260	0.825690	0.292070	0.477670
O2611	O261	0.714430	0.180570	0.480470
O2621	O262	0.881330	0.357270	0.409170
O2631	O263	0.647630	0.148970	0.409870
O2641	O264	0.835030	0.137770	0.596770
O2651	O265	0.956730	0.097570	0.312670
O2661	O266	0.902930	0.172870	0.341270
O2671	O267	0.841130	0.108970	0.282070
O2681	O268	0.828930	0.039370	0.344570
O2691	O269	0.900030	0.056470	0.395570
O2701	O270	0.951530	0.147070	0.391270
N491	N49	0.782830	0.102870	0.392370
H2171	H217	0.802730	0.107770	0.368270
H2181	H218	0.772230	0.077170	0.404270
N501	N50	0.897630	0.294170	0.362770
H2191	H219	0.889830	0.296770	0.328670
H2201	H220	0.923230	0.314370	0.367970
N511	N51	0.702430	0.216270	0.335570
H2211	H221	0.688830	0.196770	0.310370
H2221	H222	0.689630	0.230470	0.340070
N521	N52	0.761530	0.127670	0.650670
H2231	H223	0.750930	0.100670	0.647970
H2241	H224	0.776930	0.136170	0.681170
N531	N53	0.682630	0.235170	0.585770
H2251	H225	0.663330	0.239870	0.572370
H2261	H226	0.673630	0.221270	0.617370
N541	N54	0.880230	0.324470	0.621170
H2271	H227	0.907230	0.335070	0.616870
H2281	H228	0.876030	0.342470	0.639870
C1211	C121	0.750930	0.107870	0.364570
H2291	H229	0.725230	0.082970	0.368670
H2301	H230	0.757130	0.111970	0.325670
C1221	C122	0.746330	0.142970	0.386170
C1231	C123	0.895930	0.255870	0.367470
H2311	H231	0.922030	0.260570	0.380470
H2321	H232	0.891630	0.243870	0.331070
C1241	C124	0.864530	0.226770	0.404070
C1251	C125	0.741630	0.241370	0.318670
H2331	H233	0.743330	0.265770	0.303670
H2341	H234	0.747230	0.227970	0.288870
C1261	C126	0.775430	0.254170	0.362770
C1271	C127	0.729730	0.137070	0.654570
H2351	H235	0.734330	0.153970	0.686670
H2361	H236	0.704130	0.112070	0.659770
C1281	C128	0.726630	0.158170	0.605670
C1291	C129	0.723430	0.277370	0.596970
H2371	H237	0.721030	0.299270	0.580370
H2381	H238	0.726730	0.282270	0.636270
C1301	C130	0.760330	0.277870	0.574270
C1311	C131	0.862830	0.285770	0.651470
H2391	H239	0.843530	0.284870	0.678270
H2401	H240	0.884430	0.284770	0.671370
C1321	C132	0.841730	0.248770	0.614570
C1331	C133	0.863130	0.113270	0.462170
H2411	H241	0.881130	0.107970	0.481370
C1341	C134	0.890030	0.397870	0.544370
H2421	H242	0.906030	0.422570	0.526670
C1351	C135	0.611130	0.147470	0.543270
H2431	H243	0.587930	0.125170	0.529470
Gd191	Gd19	0.437190	0.875410	0.333750
Gd201	Gd20	0.551140	0.098170	0.174870
Cu551	Cu55	0.474260	0.001430	0.210240
Cu561	Cu56	0.631550	0.102890	0.249640
Cu571	Cu57	0.525360	0.153800	0.261230
Cu581	Cu58	0.487700	0.026470	0.080770
Cu591	Cu59	0.538080	0.177470	0.132350
Cu601	Cu60	0.646250	0.126750	0.119140
O2711	O271	0.492600	0.057900	0.235100
O2721	O272	0.482400	0.092500	0.302800
O2731	O273	0.573300	0.062500	0.237900
O2741	O274	0.525200	0.000200	0.261100
O2751	O275	0.567100	0.138500	0.258800
O2761	O276	0.615200	0.138200	0.310800
O2771	O277	0.505900	0.083300	0.094700
O2781	O278	0.497800	0.134200	0.064000
O2791	O279	0.580100	0.160600	0.122800
O2801	O280	0.639500	0.178900	0.082800
O2811	O281	0.588100	0.087870	0.100900
O2821	O282	0.549400	0.049500	0.033100
O2831	O283	0.443700	0.914700	0.257700
O2841	O284	0.456500	0.948900	0.177000
O2851	O285	0.733200	0.186000	0.074200
O2861	O286	0.701600	0.153800	0.148800
O2871	O287	0.489500	0.213500	0.072900
O2881	O288	0.497700	0.192200	0.155400
O2891	O289	0.513720	0.028240	0.150600
O2901	O290	0.625400	0.133040	0.189000
O2911	O291	0.513900	0.132800	0.186200
O2921	O292	0.690600	0.142600	0.257500
O2931	O293	0.482300	0.168000	0.256800
O2941	O294	0.471100	0.969400	0.069900
O2951	O295	0.430900	0.807500	0.354000
O2961	O296	0.506200	0.936600	0.325400
O2971	O297	0.442300	0.934500	0.384600
O2981	O298	0.372700	0.877100	0.322100
O2991	O299	0.389800	0.823100	0.271100
O3001	O300	0.480400	0.862200	0.275400
N551	N55	0.436200	0.986700	0.274300
H2441	H244	0.441100	0.971700	0.298400
H2451	H245	0.410500	0.971600	0.262400
N561	N56	0.627500	0.063200	0.303900
H2461	H246	0.630100	0.073600	0.338000
H2471	H247	0.647700	0.057800	0.298700
N571	N57	0.549600	0.180500	0.331100
H2481	H248	0.530100	0.174600	0.356300
H2491	H249	0.563800	0.207500	0.326600
N581	N58	0.461000	0.032800	0.016000
H2501	H250	0.434000	0.016400	0.018700
H2511	H251	0.469500	0.025900	0.985500
N591	N59	0.568500	0.219200	0.080900
H2521	H252	0.573200	0.243200	0.094300
H2531	H253	0.554600	0.214300	0.049300
N601	N60	0.657800	0.110900	0.045500
H2541	H254	0.668400	0.094500	0.049800
H2551	H255	0.675800	0.133100	0.026800
C1361	C136	0.441200	0.023600	0.302100
H2561	H256	0.416300	0.024400	0.298000
H2571	H257	0.445300	0.021500	0.341000
C1371	C137	0.476300	0.063300	0.280500
C1381	C138	0.589200	0.026600	0.299200
H2581	H258	0.593900	0.005200	0.286200
H2591	H259	0.577200	0.018900	0.335600
C1391	C139	0.560100	0.028900	0.262600
C1401	C140	0.574700	0.166400	0.348000
H2601	H260	0.599100	0.189100	0.363000
H2611	H261	0.561300	0.147400	0.377800
C1411	C141	0.587500	0.145400	0.303900
C1421	C142	0.470400	0.074000	0.012100
H2621	H262	0.487300	0.086300	0.980000
H2631	H263	0.445400	0.074600	0.006900
C1431	C143	0.491500	0.098200	0.061000
C1441	C144	0.610700	0.220600	0.069700
H2641	H264	0.632600	0.244900	0.086300
H2651	H265	0.615600	0.222200	0.030400
C1451	C145	0.611200	0.184200	0.092400
C1461	C146	0.619100	0.089600	0.015200
H2661	H266	0.618200	0.108000	0.988400
H2671	H267	0.618100	0.067000	0.995300
C1471	C147	0.582100	0.073700	0.052100
C1481	C148	0.446600	0.916800	0.204500
H2681	H268	0.441300	0.893500	0.185300
C1491	C149	0.731200	0.174500	0.122300
H2691	H269	0.755900	0.183200	0.140000
C1501	C150	0.480800	0.203000	0.123400
H2701	H270	0.458500	0.203900	0.137200
Gd211	Gd21	0.103860	0.208740	0.667080
Gd221	Gd22	0.217810	0.431500	0.508200
Cu611	Cu61	0.140930	0.334760	0.543570
Cu621	Cu62	0.298220	0.436220	0.582970
Cu631	Cu63	0.192030	0.487130	0.594560
Cu641	Cu64	0.154370	0.359800	0.414100
Cu651	Cu65	0.204750	0.510800	0.465680
Cu661	Cu66	0.312920	0.460080	0.452470
O3011	O301	0.159270	0.391230	0.568430
O3021	O302	0.149070	0.425830	0.636130
O3031	O303	0.239970	0.395830	0.571230
O3041	O304	0.191870	0.333530	0.594430
O3051	O305	0.233770	0.471830	0.592130
O3061	O306	0.281870	0.471530	0.644130
O3071	O307	0.172570	0.416630	0.428030
O3081	O308	0.164470	0.467530	0.397330
O3091	O309	0.246770	0.493930	0.456130
O3101	O310	0.306170	0.512230	0.416130
O3111	O311	0.254770	0.421200	0.434230
O3121	O312	0.216070	0.382830	0.366430
O3131	O313	0.110370	0.248030	0.591030
O3141	O314	0.123170	0.282230	0.510330
O3151	O315	0.399870	0.519330	0.407530
O3161	O316	0.368270	0.487130	0.482130
O3171	O317	0.156170	0.546830	0.406230
O3181	O318	0.164370	0.525530	0.488730
O3191	O319	0.180390	0.361570	0.483930
O3201	O320	0.292070	0.466370	0.522330
O3211	O321	0.180570	0.466130	0.519530
O3221	O322	0.357270	0.475930	0.590830
O3231	O323	0.148970	0.501330	0.590130
O3241	O324	0.137770	0.302730	0.403230
O3251	O325	0.097570	0.140830	0.687330
O3261	O326	0.172870	0.269930	0.658730
O3271	O327	0.108970	0.267830	0.717930
O3281	O328	0.039370	0.210430	0.655430
O3291	O329	0.056470	0.156430	0.604430
O3301	O330	0.147070	0.195530	0.608730
N611	N61	0.102870	0.320030	0.607630
H2711	H271	0.107770	0.305030	0.631730
H2721	H272	0.077170	0.304930	0.595730
N621	N62	0.294170	0.396530	0.637230
H2731	H273	0.296770	0.406930	0.671330
H2741	H274	0.314370	0.391130	0.632030
N631	N63	0.216270	0.513830	0.664430
H2751	H275	0.196770	0.507930	0.689630
H2761	H276	0.230470	0.540830	0.659930
N641	N64	0.127670	0.366130	0.349330
H2771	H277	0.100670	0.349730	0.352030
H2781	H278	0.136170	0.359230	0.318830
N651	N65	0.235170	0.552530	0.414230
H2791	H279	0.239870	0.576530	0.427630
H2801	H280	0.221270	0.547630	0.382630
N661	N66	0.324470	0.444230	0.378830
H2811	H281	0.335070	0.427830	0.383130
H2821	H282	0.342470	0.466430	0.360130
C1511	C151	0.107870	0.356930	0.635430
H2831	H283	0.082970	0.357730	0.631330
H2841	H284	0.111970	0.354830	0.674330
C1521	C152	0.142970	0.396630	0.613830
C1531	C153	0.255870	0.359930	0.632530
H2851	H285	0.260570	0.338530	0.619530
H2861	H286	0.243870	0.352230	0.668930
C1541	C154	0.226770	0.362230	0.595930
C1551	C155	0.241370	0.499730	0.681330
H2871	H287	0.265770	0.522430	0.696330
H2881	H288	0.227970	0.480730	0.711130
C1561	C156	0.254170	0.478730	0.637230
C1571	C157	0.137070	0.407330	0.345430
H2891	H289	0.153970	0.419630	0.313330
H2901	H290	0.112070	0.407930	0.340230
C1581	C158	0.158170	0.431530	0.394330
C1591	C159	0.277370	0.553930	0.403030
H2911	H291	0.299270	0.578230	0.419630
H2921	H292	0.282270	0.555530	0.363730
C1601	C160	0.277870	0.517530	0.425730
C1611	C161	0.285770	0.422930	0.348530
H2931	H293	0.284870	0.441330	0.321730
H2941	H294	0.284770	0.400330	0.328630
C1621	C162	0.248770	0.407030	0.385430
C1631	C163	0.113270	0.250130	0.537830
H2951	H295	0.107970	0.226830	0.518630
C1641	C164	0.397870	0.507830	0.455630
H2961	H296	0.422570	0.516530	0.473330
C1651	C165	0.147470	0.536330	0.456730
H2971	H297	0.125170	0.537230	0.470530
Gd231	Gd23	0.770520	0.542080	0.000420
Gd241	Gd24	0.884480	0.764830	0.841540
Cu671	Cu67	0.807590	0.668100	0.876910
Cu681	Cu68	0.964880	0.769560	0.916310
Cu691	Cu69	0.858690	0.820470	0.927900
Cu701	Cu70	0.821030	0.693140	0.747440
Cu711	Cu71	0.871410	0.844140	0.799020
Cu721	Cu72	0.979580	0.793420	0.785810
O3311	O331	0.825930	0.724570	0.901770
O3321	O332	0.815730	0.759170	0.969470
O3331	O333	0.906630	0.729170	0.904570
O3341	O334	0.858530	0.666870	0.927770
O3351	O335	0.900430	0.805170	0.925470
O3361	O336	0.948530	0.804870	0.977470
O3371	O337	0.839230	0.749970	0.761370
O3381	O338	0.831130	0.800870	0.730670
O3391	O339	0.913430	0.827270	0.789470
O3401	O340	0.972830	0.845570	0.749470
O3411	O341	0.921430	0.754540	0.767570
O3421	O342	0.882730	0.716170	0.699770
O3431	O343	0.777030	0.581370	0.924370
O3441	O344	0.789830	0.615570	0.843670
O3451	O345	0.066530	0.852670	0.740870
O3461	O346	0.034930	0.820470	0.815470
O3471	O347	0.822830	0.880170	0.739570
O3481	O348	0.831030	0.858870	0.822070
O3491	O349	0.847050	0.694910	0.817270
O3501	O350	0.958730	0.799710	0.855670
O3511	O351	0.847230	0.799470	0.852870
O3521	O352	0.023930	0.809270	0.924170
O3531	O353	0.815630	0.834670	0.923470
O3541	O354	0.804430	0.636070	0.736570
O3551	O355	0.764230	0.474170	0.020670
O3561	O356	0.839530	0.603270	0.992070
O3571	O357	0.775630	0.601170	0.051270
O3581	O358	0.706030	0.543770	0.988770
O3591	O359	0.723130	0.489770	0.937770
O3601	O360	0.813730	0.528870	0.942070
N671	N67	0.769530	0.653370	0.940970
H2981	H298	0.774430	0.638370	0.965070
H2991	H299	0.743830	0.638270	0.929070
N681	N68	0.960830	0.729870	0.970570
H3001	H300	0.963430	0.740270	0.004670
H3011	H301	0.981030	0.724470	0.965370
N691	N69	0.882930	0.847170	0.997770
H3021	H302	0.863430	0.841270	0.022970
H3031	H303	0.897130	0.874170	0.993270
N701	N70	0.794330	0.699470	0.682670
H3041	H304	0.767330	0.683070	0.685370
H3051	H305	0.802830	0.692570	0.652170
N711	N71	0.901830	0.885870	0.747570
H3061	H306	0.906530	0.909870	0.760970
H3071	H307	0.887930	0.880970	0.715970
N721	N72	0.991130	0.777570	0.712170
H3081	H308	0.001730	0.761170	0.716470
H3091	H309	0.009130	0.799770	0.693470
C1661	C166	0.774530	0.690270	0.968770
H3101	H310	0.749630	0.691070	0.964670
H3111	H311	0.778630	0.688170	0.007670
C1671	C167	0.809630	0.729970	0.947170
C1681	C168	0.922530	0.693270	0.965870
H3121	H312	0.927230	0.671870	0.952870
H3131	H313	0.910530	0.685570	0.002270
C1691	C169	0.893430	0.695570	0.929270
C1701	C170	0.908030	0.833070	0.014670
H3141	H314	0.932430	0.855770	0.029670
H3151	H315	0.894630	0.814070	0.044470
C1711	C171	0.920830	0.812070	0.970570
C1721	C172	0.803730	0.740670	0.678770
H3161	H316	0.820630	0.752970	0.646670
H3171	H317	0.778730	0.741270	0.673570
C1731	C173	0.824830	0.764870	0.727670
C1741	C174	0.944030	0.887270	0.736370
H3181	H318	0.965930	0.911570	0.752970
H3191	H319	0.948930	0.888870	0.697070
C1751	C175	0.944530	0.850870	0.759070
C1761	C176	0.952430	0.756270	0.681870
H3201	H320	0.951530	0.774670	0.655070
H3211	H321	0.951430	0.733670	0.661970
C1771	C177	0.915430	0.740370	0.718770
C1781	C178	0.779930	0.583470	0.871170
H3221	H322	0.774630	0.560170	0.851970
C1791	C179	0.064530	0.841170	0.788970
H3231	H323	0.089230	0.849870	0.806670
C1801	C180	0.814130	0.869670	0.790070
H3241	H324	0.791830	0.870570	0.803870
Gd251	Gd25	0.124590	0.561780	0.333750
Gd261	Gd26	0.901830	0.452980	0.174870
Cu731	Cu73	0.998570	0.472830	0.210240
Cu741	Cu74	0.897110	0.528660	0.249640
Cu751	Cu75	0.846200	0.371560	0.261230
Cu761	Cu76	0.973530	0.461230	0.080770
Cu771	Cu77	0.822530	0.360610	0.132350
Cu781	Cu78	0.873250	0.519500	0.119140
O3611	O361	0.942100	0.434700	0.235100
O3621	O362	0.907500	0.389900	0.302800
O3631	O363	0.937500	0.510800	0.237900
O3641	O364	0.999800	0.525000	0.261100
O3651	O365	0.861500	0.428600	0.258800
O3661	O366	0.861800	0.477000	0.310800
O3671	O367	0.916700	0.422600	0.094700
O3681	O368	0.865800	0.363600	0.064000
O3691	O369	0.839400	0.419500	0.122800
O3701	O370	0.821100	0.460600	0.082800
O3711	O371	0.912130	0.500230	0.100900
O3721	O372	0.950500	0.499900	0.033100
O3731	O373	0.085300	0.529000	0.257700
O3741	O374	0.051100	0.507600	0.177000
O3751	O375	0.814000	0.547200	0.074200
O3761	O376	0.846200	0.547800	0.148800
O3771	O377	0.786500	0.276000	0.072900
O3781	O378	0.807800	0.305500	0.155400
O3791	O379	0.971760	0.485480	0.150600
O3801	O380	0.866960	0.492360	0.189000
O3811	O381	0.867200	0.381100	0.186200
O3821	O382	0.857400	0.548000	0.257500
O3831	O383	0.832000	0.314300	0.256800
O3841	O384	0.030600	0.501700	0.069900
O3851	O385	0.192500	0.623400	0.354000
O3861	O386	0.063400	0.569600	0.325400
O3871	O387	0.065500	0.507800	0.384600
O3881	O388	0.122900	0.495600	0.322100
O3891	O389	0.176900	0.566700	0.271100
O3901	O390	0.137800	0.618200	0.275400
N731	N73	0.013300	0.449500	0.274300
H3251	H325	0.028300	0.469400	0.298400
H3261	H326	0.028400	0.438900	0.262400
N741	N74	0.936800	0.564300	0.303900
H3271	H327	0.926400	0.556500	0.338000
H3281	H328	0.942200	0.589900	0.298700
N751	N75	0.819500	0.369100	0.331100
H3291	H329	0.825400	0.355500	0.356300
H3301	H330	0.792500	0.356300	0.326600
N761	N76	0.967200	0.428200	0.016000
H3311	H331	0.983600	0.417600	0.018700
H3321	H332	0.974100	0.443600	0.985500
N771	N77	0.780800	0.349300	0.080900
H3331	H333	0.756800	0.330000	0.094300
H3341	H334	0.785700	0.340300	0.049300
N781	N78	0.889100	0.546900	0.045500
H3351	H335	0.905500	0.573900	0.049800
H3361	H336	0.866900	0.542700	0.026800
C1811	C181	0.976400	0.417600	0.302100
H3371	H337	0.975600	0.391900	0.298000
H3381	H338	0.978500	0.423800	0.341000
C1821	C182	0.936700	0.413000	0.280500
C1831	C183	0.973400	0.562600	0.299200
H3391	H339	0.994800	0.588700	0.286200
H3401	H340	0.981100	0.558300	0.335600
C1841	C184	0.971100	0.531200	0.262600
C1851	C185	0.833600	0.408300	0.348000
H3411	H341	0.810900	0.410000	0.363000
H3421	H342	0.852600	0.413900	0.377800
C1861	C186	0.854600	0.442100	0.303900
C1871	C187	0.926000	0.396400	0.012100
H3431	H343	0.913700	0.401000	0.980000
H3441	H344	0.925400	0.370800	0.006900
C1881	C188	0.901800	0.393300	0.061000
C1891	C189	0.779400	0.390100	0.069700
H3451	H345	0.755100	0.387700	0.086300
H3461	H346	0.777800	0.393400	0.030400
C1901	C190	0.815800	0.427000	0.092400
C1911	C191	0.910400	0.529500	0.015200
H3471	H347	0.892000	0.510200	0.988400
H3481	H348	0.933000	0.551100	0.995300
C1921	C192	0.926300	0.508400	0.052100
C1931	C193	0.083200	0.529800	0.204500
H3491	H349	0.106500	0.547800	0.185300
C1941	C194	0.825500	0.556700	0.122300
H3501	H350	0.816800	0.572700	0.140000
C1951	C195	0.797000	0.277800	0.123400
H3511	H351	0.796100	0.254600	0.137200
Gd271	Gd27	0.791260	0.895110	0.667080
Gd281	Gd28	0.568500	0.786310	0.508200
Cu791	Cu79	0.665240	0.806160	0.543570
Cu801	Cu80	0.563780	0.861990	0.582970
Cu811	Cu81	0.512870	0.704890	0.594560
Cu821	Cu82	0.640200	0.794560	0.414100
Cu831	Cu83	0.489200	0.693940	0.465680
Cu841	Cu84	0.539920	0.852830	0.452470
O3911	O391	0.608770	0.768030	0.568430
O3921	O392	0.574170	0.723230	0.636130
O3931	O393	0.604170	0.844130	0.571230
O3941	O394	0.666470	0.858330	0.594430
O3951	O395	0.528170	0.761930	0.592130
O3961	O396	0.528470	0.810330	0.644130
O3971	O397	0.583370	0.755930	0.428030
O3981	O398	0.532470	0.696930	0.397330
O3991	O399	0.506070	0.752830	0.456130
O4001	O400	0.487770	0.793930	0.416130
O4011	O401	0.578800	0.833560	0.434230
O4021	O402	0.617170	0.833230	0.366430
O4031	O403	0.751970	0.862330	0.591030
O4041	O404	0.717770	0.840930	0.510330
O4051	O405	0.480670	0.880530	0.407530
O4061	O406	0.512870	0.881130	0.482130
O4071	O407	0.453170	0.609330	0.406230
O4081	O408	0.474470	0.638830	0.488730
O4091	O409	0.638430	0.818810	0.483930
O4101	O410	0.533630	0.825690	0.522330
O4111	O411	0.533870	0.714430	0.519530
O4121	O412	0.524070	0.881330	0.590830
O4131	O413	0.498670	0.647630	0.590130
O4141	O414	0.697270	0.835030	0.403230
O4151	O415	0.859170	0.956730	0.687330
O4161	O416	0.730070	0.902930	0.658730
O4171	O417	0.732170	0.841130	0.717930
O4181	O418	0.789570	0.828930	0.655430
O4191	O419	0.843570	0.900030	0.604430
O4201	O420	0.804470	0.951530	0.608730
N791	N79	0.679970	0.782830	0.607630
H3521	H352	0.694970	0.802730	0.631730
H3531	H353	0.695070	0.772230	0.595730
N801	N80	0.603470	0.897630	0.637230
H3541	H354	0.593070	0.889830	0.671330
H3551	H355	0.608870	0.923230	0.632030
N811	N81	0.486170	0.702430	0.664430
H3561	H356	0.492070	0.688830	0.689630
H3571	H357	0.459170	0.689630	0.659930
N821	N82	0.633870	0.761530	0.349330
H3581	H358	0.650270	0.750930	0.352030
H3591	H359	0.640770	0.776930	0.318830
N831	N83	0.447470	0.682630	0.414230
H3601	H360	0.423470	0.663330	0.427630
H3611	H361	0.452370	0.673630	0.382630
N841	N84	0.555770	0.880230	0.378830
H3621	H362	0.572170	0.907230	0.383130
H3631	H363	0.533570	0.876030	0.360130
C1961	C196	0.643070	0.750930	0.635430
H3641	H364	0.642270	0.725230	0.631330
H3651	H365	0.645170	0.757130	0.674330
C1971	C197	0.603370	0.746330	0.613830
C1981	C198	0.640070	0.895930	0.632530
H3661	H366	0.661470	0.922030	0.619530
H3671	H367	0.647770	0.891630	0.668930
C1991	C199	0.637770	0.864530	0.595930
C2001	C200	0.500270	0.741630	0.681330
H3681	H368	0.477570	0.743330	0.696330
H3691	H369	0.519270	0.747230	0.711130
C2011	C201	0.521270	0.775430	0.637230
C2021	C202	0.592670	0.729730	0.345430
H3701	H370	0.580370	0.734330	0.313330
H3711	H371	0.592070	0.704130	0.340230
C2031	C203	0.568470	0.726630	0.394330
C2041	C204	0.446070	0.723430	0.403030
H3721	H372	0.421770	0.721030	0.419630
H3731	H373	0.444470	0.726730	0.363730
C2051	C205	0.482470	0.760330	0.425730
C2061	C206	0.577070	0.862830	0.348530
H3741	H374	0.558670	0.843530	0.321730
H3751	H375	0.599670	0.884430	0.328630
C2071	C207	0.592970	0.841730	0.385430
C2081	C208	0.749870	0.863130	0.537830
H3761	H376	0.773170	0.881130	0.518630
C2091	C209	0.492170	0.890030	0.455630
H3771	H377	0.483470	0.906030	0.473330
C2101	C210	0.463670	0.611130	0.456730
H3781	H378	0.462770	0.587930	0.470530
Gd291	Gd29	0.457920	0.228450	0.000420
Gd301	Gd30	0.235170	0.119640	0.841540
Cu851	Cu85	0.331900	0.139500	0.876910
Cu861	Cu86	0.230440	0.195330	0.916310
Cu871	Cu87	0.179530	0.038230	0.927900
Cu881	Cu88	0.306860	0.127900	0.747440
Cu891	Cu89	0.155860	0.027280	0.799020
Cu901	Cu90	0.206580	0.186170	0.785810
O4211	O421	0.275430	0.101370	0.901770
O4221	O422	0.240830	0.056570	0.969470
O4231	O423	0.270830	0.177470	0.904570
O4241	O424	0.333130	0.191670	0.927770
O4251	O425	0.194830	0.095270	0.925470
O4261	O426	0.195130	0.143670	0.977470
O4271	O427	0.250030	0.089270	0.761370
O4281	O428	0.199130	0.030270	0.730670
O4291	O429	0.172730	0.086170	0.789470
O4301	O430	0.154430	0.127270	0.749470
O4311	O431	0.245460	0.166900	0.767570
O4321	O432	0.283830	0.166570	0.699770
O4331	O433	0.418630	0.195670	0.924370
O4341	O434	0.384430	0.174270	0.843670
O4351	O435	0.147330	0.213870	0.740870
O4361	O436	0.179530	0.214470	0.815470
O4371	O437	0.119830	0.942670	0.739570
O4381	O438	0.141130	0.972170	0.822070
O4391	O439	0.305090	0.152150	0.817270
O4401	O440	0.200290	0.159030	0.855670
O4411	O441	0.200530	0.047770	0.852870
O4421	O442	0.190730	0.214670	0.924170
O4431	O443	0.165330	0.980970	0.923470
O4441	O444	0.363930	0.168370	0.736570
O4451	O445	0.525830	0.290070	0.020670
O4461	O446	0.396730	0.236270	0.992070
O4471	O447	0.398830	0.174470	0.051270
O4481	O448	0.456230	0.162270	0.988770
O4491	O449	0.510230	0.233370	0.937770
O4501	O450	0.471130	0.284870	0.942070
N851	N85	0.346630	0.116170	0.940970
H3791	H379	0.361630	0.136070	0.965070
H3801	H380	0.361730	0.105570	0.929070
N861	N86	0.270130	0.230970	0.970570
H3811	H381	0.259730	0.223170	0.004670
H3821	H382	0.275530	0.256570	0.965370
N871	N87	0.152830	0.035770	0.997770
H3831	H383	0.158730	0.022170	0.022970
H3841	H384	0.125830	0.022970	0.993270
N881	N88	0.300530	0.094870	0.682670
H3851	H385	0.316930	0.084270	0.685370
H3861	H386	0.307430	0.110270	0.652170
N891	N89	0.114130	0.015970	0.747570
H3871	H387	0.090130	0.996670	0.760970
H3881	H388	0.119030	0.006970	0.715970
N901	N90	0.222430	0.213570	0.712170
H3891	H389	0.238830	0.240570	0.716470
H3901	H390	0.200230	0.209370	0.693470
C2111	C211	0.309730	0.084270	0.968770
H3911	H391	0.308930	0.058570	0.964670
H3921	H392	0.311830	0.090470	0.007670
C2121	C212	0.270030	0.079670	0.947170
C2131	C213	0.306730	0.229270	0.965870
H3931	H393	0.328130	0.255370	0.952870
H3941	H394	0.314430	0.224970	0.002270
C2141	C214	0.304430	0.197870	0.929270
C2151	C215	0.166930	0.074970	0.014670
H3951	H395	0.144230	0.076670	0.029670
H3961	H396	0.185930	0.080570	0.044470
C2161	C216	0.187930	0.108770	0.970570
C2171	C217	0.259330	0.063070	0.678770
H3971	H397	0.247030	0.067670	0.646670
H3981	H398	0.258730	0.037470	0.673570
C2181	C218	0.235130	0.059970	0.727670
C2191	C219	0.112730	0.056770	0.736370
H3991	H399	0.088430	0.054370	0.752970
H4001	H400	0.111130	0.060070	0.697070
C2201	C220	0.149130	0.093670	0.759070
C2211	C221	0.243730	0.196170	0.681870
H4011	H401	0.225330	0.176870	0.655070
H4021	H402	0.266330	0.217770	0.661970
C2221	C222	0.259630	0.175070	0.718770
C2231	C223	0.416530	0.196470	0.871170
H4031	H403	0.439830	0.214470	0.851970
C2241	C224	0.158830	0.223370	0.788970
H4041	H404	0.150130	0.239370	0.806670
C2251	C225	0.130330	0.944470	0.790070
H4051	H405	0.129430	0.921270	0.803870
Gd311	Gd31	0.438220	0.562810	0.333750
Gd321	Gd32	0.547020	0.448860	0.174870
Cu911	Cu91	0.527170	0.525740	0.210240
Cu921	Cu92	0.471340	0.368450	0.249640
Cu931	Cu93	0.628440	0.474640	0.261230
Cu941	Cu94	0.538770	0.512300	0.080770
Cu951	Cu95	0.639390	0.461920	0.132350
Cu961	Cu96	0.480500	0.353750	0.119140
O4511	O451	0.565300	0.507400	0.235100
O4521	O452	0.610100	0.517600	0.302800
O4531	O453	0.489200	0.426700	0.237900
O4541	O454	0.475000	0.474800	0.261100
O4551	O455	0.571400	0.432900	0.258800
O4561	O456	0.523000	0.384800	0.310800
O4571	O457	0.577400	0.494100	0.094700
O4581	O458	0.636400	0.502200	0.064000
O4591	O459	0.580500	0.419900	0.122800
O4601	O460	0.539400	0.360500	0.082800
O4611	O461	0.499770	0.411900	0.100900
O4621	O462	0.500100	0.450600	0.033100
O4631	O463	0.471000	0.556300	0.257700
O4641	O464	0.492400	0.543500	0.177000
O4651	O465	0.452800	0.266800	0.074200
O4661	O466	0.452200	0.298400	0.148800
O4671	O467	0.724000	0.510500	0.072900
O4681	O468	0.694500	0.502300	0.155400
O4691	O469	0.514520	0.486280	0.150600
O4701	O470	0.507640	0.374600	0.189000
O4711	O471	0.618900	0.486100	0.186200
O4721	O472	0.452000	0.309400	0.257500
O4731	O473	0.685700	0.517700	0.256800
O4741	O474	0.498300	0.528900	0.069900
O4751	O475	0.376600	0.569100	0.354000
O4761	O476	0.430400	0.493800	0.325400
O4771	O477	0.492200	0.557700	0.384600
O4781	O478	0.504400	0.627300	0.322100
O4791	O479	0.433300	0.610200	0.271100
O4801	O480	0.381800	0.519600	0.275400
N911	N91	0.550500	0.563800	0.274300
H4061	H406	0.530600	0.558900	0.298400
H4071	H407	0.561100	0.589500	0.262400
N921	N92	0.435700	0.372500	0.303900
H4081	H408	0.443500	0.369900	0.338000
H4091	H409	0.410100	0.352300	0.298700
N931	N93	0.630900	0.450400	0.331100
H4101	H410	0.644500	0.469900	0.356300
H4111	H411	0.643700	0.436200	0.326600
N941	N94	0.571800	0.539000	0.016000
H4121	H412	0.582400	0.566000	0.018700
H4131	H413	0.556400	0.530500	0.985500
N951	N95	0.650700	0.431500	0.080900
H4141	H414	0.670000	0.426800	0.094300
H4151	H415	0.659700	0.445400	0.049300
N961	N96	0.453100	0.342200	0.045500
H4161	H416	0.426100	0.331600	0.049800
H4171	H417	0.457300	0.324200	0.026800
C2261	C226	0.582400	0.558800	0.302100
H4181	H418	0.608100	0.583700	0.298000
H4191	H419	0.576200	0.554700	0.341000
C2271	C227	0.587000	0.523700	0.280500
C2281	C228	0.437400	0.410800	0.299200
H4201	H420	0.411300	0.406100	0.286200
H4211	H421	0.441700	0.422800	0.335600
C2291	C229	0.468800	0.439900	0.262600
C2301	C230	0.591700	0.425300	0.348000
H4221	H422	0.590000	0.400900	0.363000
H4231	H423	0.586100	0.438700	0.377800
C2311	C231	0.557900	0.412500	0.303900
C2321	C232	0.603600	0.529600	0.012100
H4241	H424	0.599000	0.512700	0.980000
H4251	H425	0.629200	0.554600	0.006900
C2331	C233	0.606700	0.508500	0.061000
C2341	C234	0.609900	0.389300	0.069700
H4261	H426	0.612300	0.367400	0.086300
H4271	H427	0.606600	0.384400	0.030400
C2351	C235	0.573000	0.388800	0.092400
C2361	C236	0.470500	0.380900	0.015200
H4281	H428	0.489800	0.381800	0.988400
H4291	H429	0.448900	0.381900	0.995300
C2371	C237	0.491600	0.417900	0.052100
C2381	C238	0.470200	0.553400	0.204500
H4301	H430	0.452200	0.558700	0.185300
C2391	C239	0.443300	0.268800	0.122300
H4311	H431	0.427300	0.244100	0.140000
C2401	C240	0.722200	0.519200	0.123400
H4321	H432	0.745400	0.541500	0.137200
Gd331	Gd33	0.104890	0.896140	0.667080
Gd341	Gd34	0.213690	0.782190	0.508200
Cu971	Cu97	0.193840	0.859070	0.543570
Cu981	Cu98	0.138010	0.701780	0.582970
Cu991	Cu99	0.295110	0.807970	0.594560
Cu1001	Cu100	0.205440	0.845630	0.414100
Cu1011	Cu101	0.306060	0.795250	0.465680
Cu1021	Cu102	0.147170	0.687080	0.452470
O4811	O481	0.231970	0.840730	0.568430
O4821	O482	0.276770	0.850930	0.636130
O4831	O483	0.155870	0.760030	0.571230
O4841	O484	0.141670	0.808130	0.594430
O4851	O485	0.238070	0.766230	0.592130
O4861	O486	0.189670	0.718130	0.644130
O4871	O487	0.244070	0.827430	0.428030
O4881	O488	0.303070	0.835530	0.397330
O4891	O489	0.247170	0.753230	0.456130
O4901	O490	0.206070	0.693830	0.416130
O4911	O491	0.166440	0.745230	0.434230
O4921	O492	0.166770	0.783930	0.366430
O4931	O493	0.137670	0.889630	0.591030
O4941	O494	0.159070	0.876830	0.510330
O4951	O495	0.119470	0.600130	0.407530
O4961	O496	0.118870	0.631730	0.482130
O4971	O497	0.390670	0.843830	0.406230
O4981	O498	0.361170	0.835630	0.488730
O4991	O499	0.181190	0.819610	0.483930
O5001	O500	0.174310	0.707930	0.522330
O5011	O501	0.285570	0.819430	0.519530
O5021	O502	0.118670	0.642730	0.590830
O5031	O503	0.352370	0.851030	0.590130
O5041	O504	0.164970	0.862230	0.403230
O5051	O505	0.043270	0.902430	0.687330
O5061	O506	0.097070	0.827130	0.658730
O5071	O507	0.158870	0.891030	0.717930
O5081	O508	0.171070	0.960630	0.655430
O5091	O509	0.099970	0.943530	0.604430
O5101	O510	0.048470	0.852930	0.608730
N971	N97	0.217170	0.897130	0.607630
H4331	H433	0.197270	0.892230	0.631730
H4341	H434	0.227770	0.922830	0.595730
N981	N98	0.102370	0.705830	0.637230
H4351	H435	0.110170	0.703230	0.671330
H4361	H436	0.076770	0.685630	0.632030
N991	N99	0.297570	0.783730	0.664430
H4371	H437	0.311170	0.803230	0.689630
H4381	H438	0.310370	0.769530	0.659930
N1001	N100	0.238470	0.872330	0.349330
H4391	H439	0.249070	0.899330	0.352030
H4401	H440	0.223070	0.863830	0.318830
N1011	N101	0.317370	0.764830	0.414230
H4411	H441	0.336670	0.760130	0.427630
H4421	H442	0.326370	0.778730	0.382630
N1021	N102	0.119770	0.675530	0.378830
H4431	H443	0.092770	0.664930	0.383130
H4441	H444	0.123970	0.657530	0.360130
C2411	C241	0.249070	0.892130	0.635430
H4451	H445	0.274770	0.917030	0.631330
H4461	H446	0.242870	0.888030	0.674330
C2421	C242	0.253670	0.857030	0.613830
C2431	C243	0.104070	0.744130	0.632530
H4471	H447	0.077970	0.739430	0.619530
H4481	H448	0.108370	0.756130	0.668930
C2441	C244	0.135470	0.773230	0.595930
C2451	C245	0.258370	0.758630	0.681330
H4491	H449	0.256670	0.734230	0.696330
H4501	H450	0.252770	0.772030	0.711130
C2461	C246	0.224570	0.745830	0.637230
C2471	C247	0.270270	0.862930	0.345430
H4511	H451	0.265670	0.846030	0.313330
H4521	H452	0.295870	0.887930	0.340230
C2481	C248	0.273370	0.841830	0.394330
C2491	C249	0.276570	0.722630	0.403030
H4531	H453	0.278970	0.700730	0.419630
H4541	H454	0.273270	0.717730	0.363730
C2501	C250	0.239670	0.722130	0.425730
C2511	C251	0.137170	0.714230	0.348530
H4551	H455	0.156470	0.715130	0.321730
H4561	H456	0.115570	0.715230	0.328630
C2521	C252	0.158270	0.751230	0.385430
C2531	C253	0.136870	0.886730	0.537830
H4571	H457	0.118870	0.892030	0.518630
C2541	C254	0.109970	0.602130	0.455630
H4581	H458	0.093970	0.577430	0.473330
C2551	C255	0.388870	0.852530	0.456730
H4591	H459	0.412070	0.874830	0.470530
Gd351	Gd35	0.771550	0.229480	0.000420
Gd361	Gd36	0.880360	0.115520	0.841540
Cu1031	Cu103	0.860500	0.192410	0.876910
Cu1041	Cu104	0.804670	0.035120	0.916310
Cu1051	Cu105	0.961770	0.141310	0.927900
Cu1061	Cu106	0.872100	0.178970	0.747440
Cu1071	Cu107	0.972720	0.128590	0.799020
Cu1081	Cu108	0.813830	0.020420	0.785810
O5111	O511	0.898630	0.174070	0.901770
O5121	O512	0.943430	0.184270	0.969470
O5131	O513	0.822530	0.093370	0.904570
O5141	O514	0.808330	0.141470	0.927770
O5151	O515	0.904730	0.099570	0.925470
O5161	O516	0.856330	0.051470	0.977470
O5171	O517	0.910730	0.160770	0.761370
O5181	O518	0.969730	0.168870	0.730670
O5191	O519	0.913830	0.086570	0.789470
O5201	O520	0.872730	0.027170	0.749470
O5211	O521	0.833100	0.078570	0.767570
O5221	O522	0.833430	0.117270	0.699770
O5231	O523	0.804330	0.222970	0.924370
O5241	O524	0.825730	0.210170	0.843670
O5251	O525	0.786130	0.933470	0.740870
O5261	O526	0.785530	0.965070	0.815470
O5271	O527	0.057330	0.177170	0.739570
O5281	O528	0.027830	0.168970	0.822070
O5291	O529	0.847850	0.152950	0.817270
O5301	O530	0.840970	0.041270	0.855670
O5311	O531	0.952230	0.152770	0.852870
O5321	O532	0.785330	0.976070	0.924170
O5331	O533	0.019030	0.184370	0.923470
O5341	O534	0.831630	0.195570	0.736570
O5351	O535	0.709930	0.235770	0.020670
O5361	O536	0.763730	0.160470	0.992070
O5371	O537	0.825530	0.224370	0.051270
O5381	O538	0.837730	0.293970	0.988770
O5391	O539	0.766630	0.276870	0.937770
O5401	O540	0.715130	0.186270	0.942070
N1031	N103	0.883830	0.230470	0.940970
H4601	H460	0.863930	0.225570	0.965070
H4611	H461	0.894430	0.256170	0.929070
N1041	N104	0.769030	0.039170	0.970570
H4621	H462	0.776830	0.036570	0.004670
H4631	H463	0.743430	0.018970	0.965370
N1051	N105	0.964230	0.117070	0.997770
H4641	H464	0.977830	0.136570	0.022970
H4651	H465	0.977030	0.102870	0.993270
N1061	N106	0.905130	0.205670	0.682670
H4661	H466	0.915730	0.232670	0.685370
H4671	H467	0.889730	0.197170	0.652170
N1071	N107	0.984030	0.098170	0.747570
H4681	H468	0.003330	0.093470	0.760970
H4691	H469	0.993030	0.112070	0.715970
N1081	N108	0.786430	0.008870	0.712170
H4701	H470	0.759430	0.998270	0.716470
H4711	H471	0.790630	0.990870	0.693470
C2561	C256	0.915730	0.225470	0.968770
H4721	H472	0.941430	0.250370	0.964670
H4731	H473	0.909530	0.221370	0.007670
C2571	C257	0.920330	0.190370	0.947170
C2581	C258	0.770730	0.077470	0.965870
H4741	H474	0.744630	0.072770	0.952870
H4751	H475	0.775030	0.089470	0.002270
C2591	C259	0.802130	0.106570	0.929270
C2601	C260	0.925030	0.091970	0.014670
H4761	H476	0.923330	0.067570	0.029670
H4771	H477	0.919430	0.105370	0.044470
C2611	C261	0.891230	0.079170	0.970570
C2621	C262	0.936930	0.196270	0.678770
H4781	H478	0.932330	0.179370	0.646670
H4791	H479	0.962530	0.221270	0.673570
C2631	C263	0.940030	0.175170	0.727670
C2641	C264	0.943230	0.055970	0.736370
H4801	H480	0.945630	0.034070	0.752970
H4811	H481	0.939930	0.051070	0.697070
C2651	C265	0.906330	0.055470	0.759070
C2661	C266	0.803830	0.047570	0.681870
H4821	H482	0.823130	0.048470	0.655070
H4831	H483	0.782230	0.048570	0.661970
C2671	C267	0.824930	0.084570	0.718770
C2681	C268	0.803530	0.220070	0.871170
H4841	H484	0.785530	0.225370	0.851970
C2691	C269	0.776630	0.935470	0.788970
H4851	H485	0.760630	0.910770	0.806670
C2701	C270	0.055530	0.185870	0.790070
H4861	H486	0.078730	0.208170	0.803870
