data_KIQKOK_freeONLY_PM
_symmetry_space_group_name_H-M	'P1'
_cell_length_a	7.523300
_cell_length_b	9.253700
_cell_length_c	27.459900
_cell_angle_alpha	90.000000
_cell_angle_beta	90.000000
_cell_angle_gamma	108.270000
_symmetry_Int_Tables_number 1

loop_
_symmetry_equiv_pos_as_xyz
'x,y,z'

loop_
_atom_site_label
_atom_site_type_symbol
_atom_site_fract_x
_atom_site_fract_y
_atom_site_fract_z
Cu11	Cu1	0.368710	0.510150	0.452560
Cu21	Cu2	0.810500	0.202090	0.531410
Cu31	Cu3	0.631290	0.989850	0.952560
Cu41	Cu4	0.189500	0.297910	0.031410
Cu51	Cu5	0.631290	0.489850	0.547440
Cu61	Cu6	0.189500	0.797910	0.468590
Cu71	Cu7	0.368710	0.010150	0.047440
Cu81	Cu8	0.810500	0.702090	0.968590
Mo11	Mo1	0.709700	0.809150	0.492940
Mo21	Mo2	0.851760	0.451690	0.443300
Mo31	Mo3	0.290300	0.690850	0.992940
Mo41	Mo4	0.148240	0.048310	0.943300
Mo51	Mo5	0.290300	0.190850	0.507060
Mo61	Mo6	0.148240	0.548310	0.556700
Mo71	Mo7	0.709700	0.309150	0.007060
Mo81	Mo8	0.851760	0.951690	0.056700
H11	H1	0.225100	0.327600	0.363900
H21	H2	0.250300	0.349900	0.281100
H31	H3	0.624400	0.763400	0.299300
H41	H4	0.599700	0.725900	0.381400
H51	H5	0.063000	0.242100	0.137900
H61	H6	0.149600	0.353700	0.212400
H71	H7	0.543000	0.668000	0.223700
H81	H8	0.598600	0.647700	0.147400
H91	H9	0.499200	0.527700	0.075000
H101	H10	0.774900	0.172400	0.863900
H111	H11	0.749700	0.150100	0.781100
H121	H12	0.375600	0.736600	0.799300
H131	H13	0.400300	0.774100	0.881400
H141	H14	0.937000	0.257900	0.637900
H151	H15	0.850400	0.146300	0.712400
H161	H16	0.457000	0.832000	0.723700
H171	H17	0.401400	0.852300	0.647400
H181	H18	0.500800	0.972300	0.575000
H191	H19	0.774900	0.672400	0.636100
H201	H20	0.749700	0.650100	0.718900
H211	H21	0.375600	0.236600	0.700700
H221	H22	0.400300	0.274100	0.618600
H231	H23	0.937000	0.757900	0.862100
H241	H24	0.850400	0.646300	0.787600
H251	H25	0.457000	0.332000	0.776300
H261	H26	0.401400	0.352300	0.852600
H271	H27	0.500800	0.472300	0.925000
H281	H28	0.225100	0.827600	0.136100
H291	H29	0.250300	0.849900	0.218900
H301	H30	0.624400	0.263400	0.200700
H311	H31	0.599700	0.225900	0.118600
H321	H32	0.063000	0.742100	0.362100
H331	H33	0.149600	0.853700	0.287600
H341	H34	0.543000	0.168000	0.276300
H351	H35	0.598600	0.147700	0.352600
H361	H36	0.499200	0.027700	0.425000
C11	C1	0.306100	0.416400	0.350700
C21	C2	0.319000	0.429800	0.300800
C31	C3	0.434700	0.562500	0.279900
C41	C4	0.541700	0.673800	0.311600
C51	C5	0.524900	0.651200	0.361000
C61	C6	0.171200	0.325300	0.139800
C71	C7	0.223000	0.390900	0.185100
C81	C8	0.385800	0.512800	0.189100
C91	C9	0.489500	0.565200	0.146300
C101	C10	0.427800	0.493300	0.102800
C111	C11	0.693900	0.083600	0.850700
C121	C12	0.681000	0.070200	0.800800
C131	C13	0.565300	0.937500	0.779900
C141	C14	0.458300	0.826200	0.811600
C151	C15	0.475100	0.848800	0.861000
C161	C16	0.828800	0.174700	0.639800
C171	C17	0.777000	0.109100	0.685100
C181	C18	0.614200	0.987200	0.689100
C191	C19	0.510500	0.934800	0.646300
C201	C20	0.572200	0.006700	0.602800
C211	C21	0.693900	0.583600	0.649300
C221	C22	0.681000	0.570200	0.699200
C231	C23	0.565300	0.437500	0.720100
C241	C24	0.458300	0.326200	0.688400
C251	C25	0.475100	0.348800	0.639000
C261	C26	0.828800	0.674700	0.860200
C271	C27	0.777000	0.609100	0.814900
C281	C28	0.614200	0.487200	0.810900
C291	C29	0.510500	0.434800	0.853700
C301	C30	0.572200	0.506700	0.897200
C311	C31	0.306100	0.916400	0.149300
C321	C32	0.319000	0.929800	0.199200
C331	C33	0.434700	0.062500	0.220100
C341	C34	0.541700	0.173800	0.188400
C351	C35	0.524900	0.151200	0.139000
C361	C36	0.171200	0.825300	0.360200
C371	C37	0.223000	0.890900	0.314900
C381	C38	0.385800	0.012800	0.310900
C391	C39	0.489500	0.065200	0.353700
C401	C40	0.427800	0.993300	0.397200
N11	N1	0.405200	0.526000	0.381300
N21	N2	0.460600	0.594800	0.231000
N31	N3	0.267000	0.374000	0.098400
N41	N4	0.594800	0.974000	0.881300
N51	N5	0.539400	0.905200	0.731000
N61	N6	0.733000	0.126000	0.598400
N71	N7	0.594800	0.474000	0.618700
N81	N8	0.539400	0.405200	0.769000
N91	N9	0.733000	0.626000	0.901600
N101	N10	0.405200	0.026000	0.118700
N111	N11	0.460600	0.094800	0.269000
N121	N12	0.267000	0.874000	0.401600
O11	O1	0.488100	0.730500	0.463600
O21	O2	0.720300	0.994900	0.507500
O31	O3	0.893700	0.819700	0.452900
O41	O4	0.726500	0.712500	0.547900
O51	O5	0.678300	0.512200	0.475100
O61	O6	0.838400	0.265800	0.460800
O71	O7	0.085700	0.577500	0.452700
O81	O8	0.807000	0.448900	0.382200
O91	O9	0.511900	0.769500	0.963600
O101	O10	0.279700	0.505100	0.007500
O111	O11	0.106300	0.680300	0.952900
O121	O12	0.273500	0.787500	0.047900
O131	O13	0.321700	0.987800	0.975100
O141	O14	0.161600	0.234200	0.960800
O151	O15	0.914300	0.922500	0.952700
O161	O16	0.193000	0.051100	0.882200
O171	O17	0.511900	0.269500	0.536400
O181	O18	0.279700	0.005100	0.492500
O191	O19	0.106300	0.180300	0.547100
O201	O20	0.273500	0.287500	0.452100
O211	O21	0.321700	0.487800	0.524900
O221	O22	0.161600	0.734200	0.539200
O231	O23	0.914300	0.422500	0.547300
O241	O24	0.193000	0.551100	0.617800
O251	O25	0.488100	0.230500	0.036400
O261	O26	0.720300	0.494900	0.992500
O271	O27	0.893700	0.319700	0.047100
O281	O28	0.726500	0.212500	0.952100
O291	O29	0.678300	0.012200	0.024900
O301	O30	0.838400	0.765800	0.039200
O311	O31	0.085700	0.077500	0.047300
O321	O32	0.807000	0.948900	0.117800
