data_KIRTUC_freeONLY_PM
_symmetry_space_group_name_H-M	'P1'
_cell_length_a	8.478700
_cell_length_b	15.245600
_cell_length_c	13.380600
_cell_angle_alpha	90.000000
_cell_angle_beta	90.000000
_cell_angle_gamma	90.000000
_symmetry_Int_Tables_number 1

loop_
_symmetry_equiv_pos_as_xyz
'x,y,z'

loop_
_atom_site_label
_atom_site_type_symbol
_atom_site_fract_x
_atom_site_fract_y
_atom_site_fract_z
P11	P1	0.024820	0.098310	0.888520
H11	H1	0.156000	0.087600	0.839700
P21	P2	0.252590	0.369970	0.771110
H21	H2	0.163000	0.442400	0.756600
Be11	Be1	0.465400	0.411700	0.609500
O11	O1	0.937000	0.174260	0.840230
O21	O2	0.066900	0.121660	0.995050
O31	O3	0.931900	0.014680	0.879430
O41	O4	0.141700	0.295400	0.794000
O51	O5	0.343900	0.355080	0.676270
O61	O6	0.352800	0.387010	0.862880
P31	P3	0.475180	0.401690	0.388520
H31	H3	0.344000	0.412400	0.339700
P41	P4	0.247410	0.130030	0.271110
H41	H4	0.337000	0.057600	0.256600
Be21	Be2	0.034600	0.088300	0.109500
O71	O7	0.563000	0.325740	0.340230
O81	O8	0.433100	0.378340	0.495050
O91	O9	0.568100	0.485320	0.379430
O101	O10	0.358300	0.204600	0.294000
O111	O11	0.156100	0.144920	0.176270
O121	O12	0.147200	0.112990	0.362880
P51	P5	0.975180	0.098310	0.611480
H51	H5	0.844000	0.087600	0.660300
P61	P6	0.747410	0.369970	0.728890
H61	H6	0.837000	0.442400	0.743400
Be31	Be3	0.534600	0.411700	0.890500
O131	O13	0.063000	0.174260	0.659770
O141	O14	0.933100	0.121660	0.504950
O151	O15	0.068100	0.014680	0.620570
O161	O16	0.858300	0.295400	0.706000
O171	O17	0.656100	0.355080	0.823730
O181	O18	0.647200	0.387010	0.637120
P71	P7	0.524820	0.401690	0.111480
H71	H7	0.656000	0.412400	0.160300
P81	P8	0.752590	0.130030	0.228890
H81	H8	0.663000	0.057600	0.243400
Be41	Be4	0.965400	0.088300	0.390500
O191	O19	0.437000	0.325740	0.159770
O201	O20	0.566900	0.378340	0.004950
O211	O21	0.431900	0.485320	0.120570
O221	O22	0.641700	0.204600	0.206000
O231	O23	0.843900	0.144920	0.323730
O241	O24	0.852800	0.112990	0.137120
P91	P9	0.975180	0.901690	0.111480
H91	H9	0.844000	0.912400	0.160300
P101	P10	0.747410	0.630030	0.228890
H101	H10	0.837000	0.557600	0.243400
Be51	Be5	0.534600	0.588300	0.390500
O251	O25	0.063000	0.825740	0.159770
O261	O26	0.933100	0.878340	0.004950
O271	O27	0.068100	0.985320	0.120570
O281	O28	0.858300	0.704600	0.206000
O291	O29	0.656100	0.644920	0.323730
O301	O30	0.647200	0.612990	0.137120
P111	P11	0.524820	0.598310	0.611480
H111	H11	0.656000	0.587600	0.660300
P121	P12	0.752590	0.869970	0.728890
H121	H12	0.663000	0.942400	0.743400
Be61	Be6	0.965400	0.911700	0.890500
O311	O31	0.437000	0.674260	0.659770
O321	O32	0.566900	0.621660	0.504950
O331	O33	0.431900	0.514680	0.620570
O341	O34	0.641700	0.795400	0.706000
O351	O35	0.843900	0.855080	0.823730
O361	O36	0.852800	0.887010	0.637120
P131	P13	0.024820	0.901690	0.388520
H131	H13	0.156000	0.912400	0.339700
P141	P14	0.252590	0.630030	0.271110
H141	H14	0.163000	0.557600	0.256600
Be71	Be7	0.465400	0.588300	0.109500
O371	O37	0.937000	0.825740	0.340230
O381	O38	0.066900	0.878340	0.495050
O391	O39	0.931900	0.985320	0.379430
O401	O40	0.141700	0.704600	0.294000
O411	O41	0.343900	0.644920	0.176270
O421	O42	0.352800	0.612990	0.362880
P151	P15	0.475180	0.598310	0.888520
H151	H15	0.344000	0.587600	0.839700
P161	P16	0.247410	0.869970	0.771110
H161	H16	0.337000	0.942400	0.756600
Be81	Be8	0.034600	0.911700	0.609500
O431	O43	0.563000	0.674260	0.840230
O441	O44	0.433100	0.621660	0.995050
O451	O45	0.568100	0.514680	0.879430
O461	O46	0.358300	0.795400	0.794000
O471	O47	0.156100	0.855080	0.676270
O481	O48	0.147200	0.887010	0.862880
Be91	Be9	0.000000	0.237700	0.750000
Be101	Be10	0.500000	0.262300	0.250000
Be111	Be11	0.000000	0.762300	0.250000
Be121	Be12	0.500000	0.737700	0.750000
