data_KIYQIU_freeONLY_PM
_symmetry_space_group_name_H-M	'P1'
_cell_length_a	12.180000
_cell_length_b	14.210700
_cell_length_c	14.283400
_cell_angle_alpha	105.093000
_cell_angle_beta	90.000000
_cell_angle_gamma	90.000000
_symmetry_Int_Tables_number 1

loop_
_symmetry_equiv_pos_as_xyz
'x,y,z'

loop_
_atom_site_label
_atom_site_type_symbol
_atom_site_fract_x
_atom_site_fract_y
_atom_site_fract_z
Zn11	Zn1	0.515500	0.845890	0.157910
Zn21	Zn2	0.015500	0.654110	0.342090
Zn31	Zn3	0.758100	0.438010	0.799090
Zn41	Zn4	0.741900	0.938010	0.299090
Zn51	Zn5	0.258100	0.061990	0.700910
Zn61	Zn6	0.241900	0.561990	0.200910
Zn71	Zn7	0.984500	0.345890	0.657910
Zn81	Zn8	0.484500	0.154110	0.842090
H11	H1	0.319500	0.365900	0.734300
H21	H2	0.948400	0.744700	0.107400
H31	H3	0.676200	0.548300	0.315700
H41	H4	0.545800	0.865800	0.503400
H51	H5	0.428400	0.605400	0.899500
H61	H6	0.673900	0.619800	0.978200
H71	H7	0.746000	0.537900	0.221300
H81	H8	0.530400	0.407400	0.718500
H91	H9	0.826100	0.119800	0.478200
H101	H10	0.180500	0.865900	0.234300
H111	H11	0.469600	0.592600	0.281500
H121	H12	0.183700	0.053400	0.406400
H131	H13	0.187000	0.827000	0.867400
H141	H14	0.680500	0.634100	0.265700
H151	H15	0.448400	0.755300	0.392600
H161	H16	0.246000	0.962100	0.278700
H171	H17	0.315900	0.220600	0.466600
H181	H18	0.928400	0.894600	0.600500
H191	H19	0.936400	0.534800	0.478800
H201	H20	0.051600	0.255300	0.892600
H211	H21	0.076600	0.018600	0.448300
H221	H22	0.684100	0.779400	0.533400
H231	H23	0.816300	0.946600	0.593600
H241	H24	0.316300	0.553400	0.906400
H251	H25	0.551600	0.244700	0.607400
H261	H26	0.184100	0.720600	0.966600
H271	H27	0.815900	0.279400	0.033400
H281	H28	0.813000	0.173000	0.132600
H291	H29	0.045800	0.634200	0.996600
H301	H30	0.030400	0.092600	0.781500
H311	H31	0.423400	0.518600	0.948300
H321	H32	0.576600	0.481400	0.051700
H331	H33	0.754000	0.037900	0.721300
H341	H34	0.176200	0.951700	0.184300
H351	H35	0.969600	0.907400	0.218500
H361	H36	0.063600	0.465200	0.521200
H371	H37	0.819500	0.134100	0.765700
H381	H38	0.313000	0.327000	0.367400
H391	H39	0.683700	0.446600	0.093600
H401	H40	0.954200	0.365800	0.003400
H411	H41	0.454200	0.134200	0.496600
H421	H42	0.823800	0.048300	0.815700
H431	H43	0.436400	0.965200	0.021200
H441	H44	0.071600	0.105400	0.399500
H451	H45	0.254000	0.462100	0.778700
H461	H46	0.571600	0.394600	0.100500
H471	H47	0.173900	0.880200	0.521800
H481	H48	0.687000	0.673000	0.632600
H491	H49	0.923400	0.981400	0.551700
H501	H50	0.563600	0.034800	0.978800
H511	H51	0.323800	0.451700	0.684300
H521	H52	0.326100	0.380200	0.021800
C11	C1	0.469600	0.866900	0.507500
C21	C2	0.587200	0.198300	0.558800
C31	C3	0.823500	0.527300	0.633400
C41	C4	0.750000	0.123900	0.481000
C51	C5	0.030400	0.366900	0.007500
C61	C6	0.077800	0.434100	0.079700
C71	C7	0.750000	0.623900	0.981000
C81	C8	0.983900	0.952600	0.277200
C91	C9	0.685100	0.094300	0.069900
C101	C10	0.764700	0.229200	0.023500
C111	C11	0.614000	0.085700	0.991300
C121	C12	0.894100	0.955900	0.602500
C131	C13	0.422200	0.934100	0.579700
C141	C14	0.735300	0.729200	0.523500
C151	C15	0.738300	0.666100	0.583000
C161	C16	0.323500	0.972700	0.866600
C171	C17	0.176500	0.472700	0.366600
C181	C18	0.701000	0.194900	0.553200
C191	C19	0.250000	0.376100	0.019000
C201	C20	0.233500	0.731800	0.375700
C211	C21	0.314900	0.905700	0.930100
C221	C22	0.238300	0.833900	0.917000
C231	C23	0.016100	0.047400	0.722800
C241	C24	0.412800	0.801700	0.441200
C251	C25	0.513300	0.991000	0.343100
C261	C26	0.266500	0.231800	0.875700
C271	C27	0.766500	0.268200	0.624300
C281	C28	0.679600	0.279600	0.883100
C291	C29	0.261700	0.333900	0.417000
C301	C30	0.689900	0.214900	0.949800
C311	C31	0.201000	0.305100	0.946800
C321	C32	0.605900	0.455900	0.102500
C331	C33	0.577800	0.065900	0.420300
C341	C34	0.310100	0.785100	0.050200
C351	C35	0.986700	0.491000	0.843100
C361	C36	0.814900	0.594300	0.569900
C371	C37	0.394100	0.544100	0.897500
C381	C38	0.180100	0.935400	0.245300
C391	C39	0.105900	0.044100	0.397500
C401	C40	0.179600	0.220400	0.616900
C411	C41	0.733500	0.768200	0.124300
C421	C42	0.516100	0.452600	0.777200
C431	C43	0.810100	0.714900	0.449800
C441	C44	0.799000	0.694900	0.053200
C451	C45	0.912800	0.698300	0.058800
C461	C46	0.299000	0.805100	0.446800
C471	C47	0.886000	0.585700	0.491300
C481	C48	0.087200	0.301700	0.941200
C491	C49	0.969600	0.633100	0.992500
C501	C50	0.235300	0.770800	0.976500
C511	C51	0.820400	0.779600	0.383100
C521	C52	0.680100	0.564600	0.254700
C531	C53	0.486700	0.009000	0.656900
C541	C54	0.013300	0.509000	0.156900
C551	C55	0.114000	0.414300	0.508700
C561	C56	0.530400	0.133100	0.492500
C571	C57	0.819900	0.064600	0.754700
C581	C58	0.185100	0.405700	0.430100
C591	C59	0.320400	0.720400	0.116900
C601	C60	0.761700	0.166100	0.083000
C611	C61	0.386000	0.914300	0.008700
C621	C62	0.189900	0.285100	0.550200
C631	C63	0.319900	0.435400	0.745300
C641	C64	0.264700	0.270800	0.476500
C651	C65	0.483900	0.547400	0.222800
C661	C66	0.922200	0.565900	0.920300
C671	C67	0.250000	0.876100	0.519000
C681	C68	0.676500	0.027300	0.133400
N11	N1	0.688300	0.058700	0.412900
N21	N2	0.415300	0.475900	0.804300
N31	N3	0.188300	0.441300	0.087100
N41	N4	0.886800	0.643100	0.434800
N51	N5	0.584700	0.524100	0.195700
N61	N6	0.915300	0.024100	0.695700
N71	N7	0.084700	0.975900	0.304300
N81	N8	0.386800	0.856900	0.065200
N91	N9	0.113200	0.356900	0.565200
N101	N10	0.613200	0.143100	0.934800
N111	N11	0.311700	0.941300	0.587100
N121	N12	0.811700	0.558700	0.912900
O11	O1	0.253600	0.656500	0.116300
O21	O2	0.602500	0.963800	0.106200
O31	O3	0.096300	0.236900	0.672200
O41	O4	0.266900	0.965100	0.794300
O51	O5	0.406700	0.508400	0.169100
O61	O6	0.277700	0.664700	0.313800
O71	O7	0.222300	0.164700	0.813800
O81	O8	0.593300	0.491600	0.830900
O91	O9	0.897500	0.463800	0.606200
O101	O10	0.746400	0.343500	0.883700
O111	O11	0.733100	0.034900	0.205700
O121	O12	0.414800	0.002000	0.323000
O131	O13	0.403700	0.736900	0.172200
O141	O14	0.397500	0.036200	0.893800
O151	O15	0.070500	0.581700	0.199400
O161	O16	0.766900	0.534900	0.705700
O171	O17	0.129400	0.745600	0.381600
O181	O18	0.906700	0.991600	0.330900
O191	O19	0.585200	0.998000	0.677000
O201	O20	0.903700	0.763100	0.327800
O211	O21	0.429500	0.081700	0.699400
O221	O22	0.914800	0.498000	0.177000
O231	O23	0.722300	0.335300	0.686200
O241	O24	0.777700	0.835300	0.186200
O251	O25	0.093300	0.008400	0.669100
O261	O26	0.929500	0.418300	0.800600
O271	O27	0.629400	0.754400	0.118400
O281	O28	0.085200	0.502000	0.823000
O291	O29	0.370600	0.245600	0.881600
O301	O30	0.102500	0.536200	0.393800
O311	O31	0.570500	0.918300	0.300600
O321	O32	0.596300	0.263100	0.827800
O331	O33	0.753600	0.843500	0.383700
O341	O34	0.870600	0.254400	0.618400
O351	O35	0.246400	0.156500	0.616300
O361	O36	0.233100	0.465100	0.294300
