data_KODSUT_freeONLY_PM
_symmetry_space_group_name_H-M	'P1'
_cell_length_a	15.932500
_cell_length_b	15.932500
_cell_length_c	25.304700
_cell_angle_alpha	90.000000
_cell_angle_beta	90.000000
_cell_angle_gamma	90.000000
_symmetry_Int_Tables_number 1

loop_
_symmetry_equiv_pos_as_xyz
'x,y,z'

loop_
_atom_site_label
_atom_site_type_symbol
_atom_site_fract_x
_atom_site_fract_y
_atom_site_fract_z
H11	H1	0.751600	0.110400	0.025300
N11	N1	0.014550	0.139600	0.050630
C11	C1	0.826890	0.020680	0.000550
H21	H2	0.826500	0.984500	0.969700
H31	H3	0.825800	0.985100	0.031700
C21	C2	0.942930	0.095270	0.048030
H41	H4	0.916700	0.079800	0.079400
C31	C3	0.906550	0.071630	0.000700
C41	C4	0.946280	0.093880	0.954380
H51	H5	0.923400	0.078700	0.922000
C51	C5	0.020310	0.138890	0.956460
H61	H6	0.048200	0.154100	0.925600
C61	C6	0.051790	0.160730	0.005130
H71	H7	0.101300	0.191600	0.006500
H81	H8	0.251600	0.610400	0.525300
N21	N2	0.514550	0.639600	0.550630
C71	C7	0.326890	0.520680	0.500550
H91	H9	0.326500	0.484500	0.469700
H101	H10	0.325800	0.485100	0.531700
C81	C8	0.442930	0.595270	0.548030
H111	H11	0.416700	0.579800	0.579400
C91	C9	0.406550	0.571630	0.500700
C101	C10	0.446280	0.593880	0.454380
H121	H12	0.423400	0.578700	0.422000
C111	C11	0.520310	0.638890	0.456460
H131	H13	0.548200	0.654100	0.425600
C121	C12	0.551790	0.660730	0.505130
H141	H14	0.601300	0.691600	0.506500
H151	H15	0.748400	0.889600	0.525300
N31	N3	0.485450	0.860400	0.550630
C131	C13	0.673110	0.979320	0.500550
H161	H16	0.673500	0.015500	0.469700
H171	H17	0.674200	0.014900	0.531700
C141	C14	0.557070	0.904730	0.548030
H181	H18	0.583300	0.920200	0.579400
C151	C15	0.593450	0.928370	0.500700
C161	C16	0.553720	0.906120	0.454380
H191	H19	0.576600	0.921300	0.422000
C171	C17	0.479690	0.861110	0.456460
H201	H20	0.451800	0.845900	0.425600
C181	C18	0.448210	0.839270	0.505130
H211	H21	0.398700	0.808400	0.506500
H221	H22	0.248400	0.389600	0.025300
N41	N4	0.985450	0.360400	0.050630
C191	C19	0.173110	0.479320	0.000550
H231	H23	0.173500	0.515500	0.969700
H241	H24	0.174200	0.514900	0.031700
C201	C20	0.057070	0.404730	0.048030
H251	H25	0.083300	0.420200	0.079400
C211	C21	0.093450	0.428370	0.000700
C221	C22	0.053720	0.406120	0.954380
H261	H26	0.076600	0.421300	0.922000
C231	C23	0.979690	0.361110	0.956460
H271	H27	0.951800	0.345900	0.925600
C241	C24	0.948210	0.339270	0.005130
H281	H28	0.898700	0.308400	0.006500
H291	H29	0.139600	0.501600	0.275300
N51	N5	0.110400	0.764550	0.300630
C251	C25	0.229320	0.576890	0.250550
H301	H30	0.265500	0.576500	0.219700
H311	H31	0.264900	0.575800	0.281700
C261	C26	0.154730	0.692930	0.298030
H321	H32	0.170200	0.666700	0.329400
C271	C27	0.178370	0.656550	0.250700
C281	C28	0.156120	0.696280	0.204380
H331	H33	0.171300	0.673400	0.172000
C291	C29	0.111110	0.770310	0.206460
H341	H34	0.095900	0.798200	0.175600
C301	C30	0.089270	0.801790	0.255130
H351	H35	0.058400	0.851300	0.256500
H361	H36	0.639600	0.001600	0.775300
N61	N6	0.610400	0.264550	0.800630
C311	C31	0.729320	0.076890	0.750550
H371	H37	0.765500	0.076500	0.719700
H381	H38	0.764900	0.075800	0.781700
C321	C32	0.654730	0.192930	0.798030
H391	H39	0.670200	0.166700	0.829400
C331	C33	0.678370	0.156550	0.750700
C341	C34	0.656120	0.196280	0.704380
H401	H40	0.671300	0.173400	0.672000
C351	C35	0.611110	0.270310	0.706460
H411	H41	0.595900	0.298200	0.675600
C361	C36	0.589270	0.301790	0.755130
H421	H42	0.558400	0.351300	0.756500
H431	H43	0.360400	0.498400	0.775300
N71	N7	0.389600	0.235450	0.800630
C371	C37	0.270680	0.423110	0.750550
H441	H44	0.234500	0.423500	0.719700
H451	H45	0.235100	0.424200	0.781700
C381	C38	0.345270	0.307070	0.798030
H461	H46	0.329800	0.333300	0.829400
C391	C39	0.321630	0.343450	0.750700
C401	C40	0.343880	0.303720	0.704380
H471	H47	0.328700	0.326600	0.672000
C411	C41	0.388890	0.229690	0.706460
H481	H48	0.404100	0.201800	0.675600
C421	C42	0.410730	0.198210	0.755130
H491	H49	0.441600	0.148700	0.756500
H501	H50	0.860400	0.998400	0.275300
N81	N8	0.889600	0.735450	0.300630
C431	C43	0.770680	0.923110	0.250550
H511	H51	0.734500	0.923500	0.219700
H521	H52	0.735100	0.924200	0.281700
C441	C44	0.845270	0.807070	0.298030
H531	H53	0.829800	0.833300	0.329400
C451	C45	0.821630	0.843450	0.250700
C461	C46	0.843880	0.803720	0.204380
H541	H54	0.828700	0.826600	0.172000
C471	C47	0.888890	0.729690	0.206460
H551	H55	0.904100	0.701800	0.175600
C481	C48	0.910730	0.698210	0.255130
H561	H56	0.941600	0.648700	0.256500
H571	H57	0.748400	0.110400	0.974700
N91	N9	0.485450	0.139600	0.949370
C491	C49	0.673110	0.020680	0.999450
H581	H58	0.673500	0.984500	0.030300
H591	H59	0.674200	0.985100	0.968300
C501	C50	0.557070	0.095270	0.951970
H601	H60	0.583300	0.079800	0.920600
C511	C51	0.593450	0.071630	0.999300
C521	C52	0.553720	0.093880	0.045620
H611	H61	0.576600	0.078700	0.078000
C531	C53	0.479690	0.138890	0.043540
H621	H62	0.451800	0.154100	0.074400
C541	C54	0.448210	0.160730	0.994870
H631	H63	0.398700	0.191600	0.993500
H641	H64	0.248400	0.610400	0.474700
N101	N10	0.985450	0.639600	0.449370
C551	C55	0.173110	0.520680	0.499450
H651	H65	0.173500	0.484500	0.530300
H661	H66	0.174200	0.485100	0.468300
C561	C56	0.057070	0.595270	0.451970
H671	H67	0.083300	0.579800	0.420600
C571	C57	0.093450	0.571630	0.499300
C581	C58	0.053720	0.593880	0.545620
H681	H68	0.076600	0.578700	0.578000
C591	C59	0.979690	0.638890	0.543540
H691	H69	0.951800	0.654100	0.574400
C601	C60	0.948210	0.660730	0.494870
H701	H70	0.898700	0.691600	0.493500
H711	H71	0.751600	0.889600	0.474700
N111	N11	0.014550	0.860400	0.449370
C611	C61	0.826890	0.979320	0.499450
H721	H72	0.826500	0.015500	0.530300
H731	H73	0.825800	0.014900	0.468300
C621	C62	0.942930	0.904730	0.451970
H741	H74	0.916700	0.920200	0.420600
C631	C63	0.906550	0.928370	0.499300
C641	C64	0.946280	0.906120	0.545620
H751	H75	0.923400	0.921300	0.578000
C651	C65	0.020310	0.861110	0.543540
H761	H76	0.048200	0.845900	0.574400
C661	C66	0.051790	0.839270	0.494870
H771	H77	0.101300	0.808400	0.493500
H781	H78	0.251600	0.389600	0.974700
N121	N12	0.514550	0.360400	0.949370
C671	C67	0.326890	0.479320	0.999450
H791	H79	0.326500	0.515500	0.030300
H801	H80	0.325800	0.514900	0.968300
C681	C68	0.442930	0.404730	0.951970
H811	H81	0.416700	0.420200	0.920600
C691	C69	0.406550	0.428370	0.999300
C701	C70	0.446280	0.406120	0.045620
H821	H82	0.423400	0.421300	0.078000
C711	C71	0.520310	0.361110	0.043540
H831	H83	0.548200	0.345900	0.074400
C721	C72	0.551790	0.339270	0.994870
H841	H84	0.601300	0.308400	0.993500
H851	H85	0.360400	0.501600	0.724700
N131	N13	0.389600	0.764550	0.699370
C731	C73	0.270680	0.576890	0.749450
H861	H86	0.234500	0.576500	0.780300
H871	H87	0.235100	0.575800	0.718300
C741	C74	0.345270	0.692930	0.701970
H881	H88	0.329800	0.666700	0.670600
C751	C75	0.321630	0.656550	0.749300
C761	C76	0.343880	0.696280	0.795620
H891	H89	0.328700	0.673400	0.828000
C771	C77	0.388890	0.770310	0.793540
H901	H90	0.404100	0.798200	0.824400
C781	C78	0.410730	0.801790	0.744870
H911	H91	0.441600	0.851300	0.743500
H921	H92	0.860400	0.001600	0.224700
N141	N14	0.889600	0.264550	0.199370
C791	C79	0.770680	0.076890	0.249450
H931	H93	0.734500	0.076500	0.280300
H941	H94	0.735100	0.075800	0.218300
C801	C80	0.845270	0.192930	0.201970
H951	H95	0.829800	0.166700	0.170600
C811	C81	0.821630	0.156550	0.249300
C821	C82	0.843880	0.196280	0.295620
H961	H96	0.828700	0.173400	0.328000
C831	C83	0.888890	0.270310	0.293540
H971	H97	0.904100	0.298200	0.324400
C841	C84	0.910730	0.301790	0.244870
H981	H98	0.941600	0.351300	0.243500
H991	H99	0.139600	0.498400	0.224700
N151	N15	0.110400	0.235450	0.199370
C851	C85	0.229320	0.423110	0.249450
H1001	H100	0.265500	0.423500	0.280300
H1011	H101	0.264900	0.424200	0.218300
C861	C86	0.154730	0.307070	0.201970
H1021	H102	0.170200	0.333300	0.170600
C871	C87	0.178370	0.343450	0.249300
C881	C88	0.156120	0.303720	0.295620
H1031	H103	0.171300	0.326600	0.328000
C891	C89	0.111110	0.229690	0.293540
H1041	H104	0.095900	0.201800	0.324400
C901	C90	0.089270	0.198210	0.244870
H1051	H105	0.058400	0.148700	0.243500
H1061	H106	0.639600	0.998400	0.724700
N161	N16	0.610400	0.735450	0.699370
C911	C91	0.729320	0.923110	0.749450
H1071	H107	0.765500	0.923500	0.780300
H1081	H108	0.764900	0.924200	0.718300
C921	C92	0.654730	0.807070	0.701970
H1091	H109	0.670200	0.833300	0.670600
C931	C93	0.678370	0.843450	0.749300
C941	C94	0.656120	0.803720	0.795620
H1101	H110	0.671300	0.826600	0.828000
C951	C95	0.611110	0.729690	0.793540
H1111	H111	0.595900	0.701800	0.824400
C961	C96	0.589270	0.698210	0.744870
H1121	H112	0.558400	0.648700	0.743500
Ag11	Ag1	0.068080	0.181920	0.125000
Ag21	Ag2	0.568080	0.681920	0.625000
Ag31	Ag3	0.431920	0.818080	0.625000
Ag41	Ag4	0.931920	0.318080	0.125000
Ag51	Ag5	0.068080	0.818080	0.375000
Ag61	Ag6	0.568080	0.318080	0.875000
Ag71	Ag7	0.431920	0.181920	0.875000
Ag81	Ag8	0.931920	0.681920	0.375000
N171	N17	0.750000	0.074260	0.000000
N181	N18	0.250000	0.574260	0.500000
N191	N19	0.750000	0.925740	0.500000
N201	N20	0.250000	0.425740	0.000000
N211	N21	0.175740	0.500000	0.250000
N221	N22	0.675740	0.000000	0.750000
N231	N23	0.324260	0.500000	0.750000
N241	N24	0.824260	0.000000	0.250000
H1131	H113	0.248400	0.889600	0.974700
N251	N25	0.985450	0.860400	0.949370
C971	C97	0.173110	0.979320	0.999450
H1141	H114	0.173500	0.015500	0.030300
H1151	H115	0.174200	0.014900	0.968300
C981	C98	0.057070	0.904730	0.951970
H1161	H116	0.083300	0.920200	0.920600
C991	C99	0.093450	0.928370	0.999300
C1001	C100	0.053720	0.906120	0.045620
H1171	H117	0.076600	0.921300	0.078000
C1011	C101	0.979690	0.861110	0.043540
H1181	H118	0.951800	0.845900	0.074400
C1021	C102	0.948210	0.839270	0.994870
H1191	H119	0.898700	0.808400	0.993500
H1201	H120	0.748400	0.389600	0.474700
N261	N26	0.485450	0.360400	0.449370
C1031	C103	0.673110	0.479320	0.499450
H1211	H121	0.673500	0.515500	0.530300
H1221	H122	0.674200	0.514900	0.468300
C1041	C104	0.557070	0.404730	0.451970
H1231	H123	0.583300	0.420200	0.420600
C1051	C105	0.593450	0.428370	0.499300
C1061	C106	0.553720	0.406120	0.545620
H1241	H124	0.576600	0.421300	0.578000
C1071	C107	0.479690	0.361110	0.543540
H1251	H125	0.451800	0.345900	0.574400
C1081	C108	0.448210	0.339270	0.494870
H1261	H126	0.398700	0.308400	0.493500
H1271	H127	0.251600	0.110400	0.474700
N271	N27	0.514550	0.139600	0.449370
C1091	C109	0.326890	0.020680	0.499450
H1281	H128	0.326500	0.984500	0.530300
H1291	H129	0.325800	0.985100	0.468300
C1101	C110	0.442930	0.095270	0.451970
H1301	H130	0.416700	0.079800	0.420600
C1111	C111	0.406550	0.071630	0.499300
C1121	C112	0.446280	0.093880	0.545620
H1311	H131	0.423400	0.078700	0.578000
C1131	C113	0.520310	0.138890	0.543540
H1321	H132	0.548200	0.154100	0.574400
C1141	C114	0.551790	0.160730	0.494870
H1331	H133	0.601300	0.191600	0.493500
H1341	H134	0.751600	0.610400	0.974700
N281	N28	0.014550	0.639600	0.949370
C1151	C115	0.826890	0.520680	0.999450
H1351	H135	0.826500	0.484500	0.030300
H1361	H136	0.825800	0.485100	0.968300
C1161	C116	0.942930	0.595270	0.951970
H1371	H137	0.916700	0.579800	0.920600
C1171	C117	0.906550	0.571630	0.999300
C1181	C118	0.946280	0.593880	0.045620
H1381	H138	0.923400	0.578700	0.078000
C1191	C119	0.020310	0.638890	0.043540
H1391	H139	0.048200	0.654100	0.074400
C1201	C120	0.051790	0.660730	0.994870
H1401	H140	0.101300	0.691600	0.993500
H1411	H141	0.860400	0.498400	0.724700
N291	N29	0.889600	0.235450	0.699370
C1211	C121	0.770680	0.423110	0.749450
H1421	H142	0.734500	0.423500	0.780300
H1431	H143	0.735100	0.424200	0.718300
C1221	C122	0.845270	0.307070	0.701970
H1441	H144	0.829800	0.333300	0.670600
C1231	C123	0.821630	0.343450	0.749300
C1241	C124	0.843880	0.303720	0.795620
H1451	H145	0.828700	0.326600	0.828000
C1251	C125	0.888890	0.229690	0.793540
H1461	H146	0.904100	0.201800	0.824400
C1261	C126	0.910730	0.198210	0.744870
H1471	H147	0.941600	0.148700	0.743500
H1481	H148	0.360400	0.998400	0.224700
N301	N30	0.389600	0.735450	0.199370
C1271	C127	0.270680	0.923110	0.249450
H1491	H149	0.234500	0.923500	0.280300
H1501	H150	0.235100	0.924200	0.218300
C1281	C128	0.345270	0.807070	0.201970
H1511	H151	0.329800	0.833300	0.170600
C1291	C129	0.321630	0.843450	0.249300
C1301	C130	0.343880	0.803720	0.295620
H1521	H152	0.328700	0.826600	0.328000
C1311	C131	0.388890	0.729690	0.293540
H1531	H153	0.404100	0.701800	0.324400
C1321	C132	0.410730	0.698210	0.244870
H1541	H154	0.441600	0.648700	0.243500
H1551	H155	0.639600	0.501600	0.224700
N311	N31	0.610400	0.764550	0.199370
C1331	C133	0.729320	0.576890	0.249450
H1561	H156	0.765500	0.576500	0.280300
H1571	H157	0.764900	0.575800	0.218300
C1341	C134	0.654730	0.692930	0.201970
H1581	H158	0.670200	0.666700	0.170600
C1351	C135	0.678370	0.656550	0.249300
C1361	C136	0.656120	0.696280	0.295620
H1591	H159	0.671300	0.673400	0.328000
C1371	C137	0.611110	0.770310	0.293540
H1601	H160	0.595900	0.798200	0.324400
C1381	C138	0.589270	0.801790	0.244870
H1611	H161	0.558400	0.851300	0.243500
H1621	H162	0.139600	0.001600	0.724700
N321	N32	0.110400	0.264550	0.699370
C1391	C139	0.229320	0.076890	0.749450
H1631	H163	0.265500	0.076500	0.780300
H1641	H164	0.264900	0.075800	0.718300
C1401	C140	0.154730	0.192930	0.701970
H1651	H165	0.170200	0.166700	0.670600
C1411	C141	0.178370	0.156550	0.749300
C1421	C142	0.156120	0.196280	0.795620
H1661	H166	0.171300	0.173400	0.828000
C1431	C143	0.111110	0.270310	0.793540
H1671	H167	0.095900	0.298200	0.824400
C1441	C144	0.089270	0.301790	0.744870
H1681	H168	0.058400	0.351300	0.743500
H1691	H169	0.251600	0.889600	0.025300
N331	N33	0.514550	0.860400	0.050630
C1451	C145	0.326890	0.979320	0.000550
H1701	H170	0.326500	0.015500	0.969700
H1711	H171	0.325800	0.014900	0.031700
C1461	C146	0.442930	0.904730	0.048030
H1721	H172	0.416700	0.920200	0.079400
C1471	C147	0.406550	0.928370	0.000700
C1481	C148	0.446280	0.906120	0.954380
H1731	H173	0.423400	0.921300	0.922000
C1491	C149	0.520310	0.861110	0.956460
H1741	H174	0.548200	0.845900	0.925600
C1501	C150	0.551790	0.839270	0.005130
H1751	H175	0.601300	0.808400	0.006500
H1761	H176	0.751600	0.389600	0.525300
N341	N34	0.014550	0.360400	0.550630
C1511	C151	0.826890	0.479320	0.500550
H1771	H177	0.826500	0.515500	0.469700
H1781	H178	0.825800	0.514900	0.531700
C1521	C152	0.942930	0.404730	0.548030
H1791	H179	0.916700	0.420200	0.579400
C1531	C153	0.906550	0.428370	0.500700
C1541	C154	0.946280	0.406120	0.454380
H1801	H180	0.923400	0.421300	0.422000
C1551	C155	0.020310	0.361110	0.456460
H1811	H181	0.048200	0.345900	0.425600
C1561	C156	0.051790	0.339270	0.505130
H1821	H182	0.101300	0.308400	0.506500
H1831	H183	0.248400	0.110400	0.525300
N351	N35	0.985450	0.139600	0.550630
C1571	C157	0.173110	0.020680	0.500550
H1841	H184	0.173500	0.984500	0.469700
H1851	H185	0.174200	0.985100	0.531700
C1581	C158	0.057070	0.095270	0.548030
H1861	H186	0.083300	0.079800	0.579400
C1591	C159	0.093450	0.071630	0.500700
C1601	C160	0.053720	0.093880	0.454380
H1871	H187	0.076600	0.078700	0.422000
C1611	C161	0.979690	0.138890	0.456460
H1881	H188	0.951800	0.154100	0.425600
C1621	C162	0.948210	0.160730	0.505130
H1891	H189	0.898700	0.191600	0.506500
H1901	H190	0.748400	0.610400	0.025300
N361	N36	0.485450	0.639600	0.050630
C1631	C163	0.673110	0.520680	0.000550
H1911	H191	0.673500	0.484500	0.969700
H1921	H192	0.674200	0.485100	0.031700
C1641	C164	0.557070	0.595270	0.048030
H1931	H193	0.583300	0.579800	0.079400
C1651	C165	0.593450	0.571630	0.000700
C1661	C166	0.553720	0.593880	0.954380
H1941	H194	0.576600	0.578700	0.922000
C1671	C167	0.479690	0.638890	0.956460
H1951	H195	0.451800	0.654100	0.925600
C1681	C168	0.448210	0.660730	0.005130
H1961	H196	0.398700	0.691600	0.006500
H1971	H197	0.639600	0.498400	0.275300
N371	N37	0.610400	0.235450	0.300630
C1691	C169	0.729320	0.423110	0.250550
H1981	H198	0.765500	0.423500	0.219700
H1991	H199	0.764900	0.424200	0.281700
C1701	C170	0.654730	0.307070	0.298030
H2001	H200	0.670200	0.333300	0.329400
C1711	C171	0.678370	0.343450	0.250700
C1721	C172	0.656120	0.303720	0.204380
H2011	H201	0.671300	0.326600	0.172000
C1731	C173	0.611110	0.229690	0.206460
H2021	H202	0.595900	0.201800	0.175600
C1741	C174	0.589270	0.198210	0.255130
H2031	H203	0.558400	0.148700	0.256500
H2041	H204	0.139600	0.998400	0.775300
N381	N38	0.110400	0.735450	0.800630
C1751	C175	0.229320	0.923110	0.750550
H2051	H205	0.265500	0.923500	0.719700
H2061	H206	0.264900	0.924200	0.781700
C1761	C176	0.154730	0.807070	0.798030
H2071	H207	0.170200	0.833300	0.829400
C1771	C177	0.178370	0.843450	0.750700
C1781	C178	0.156120	0.803720	0.704380
H2081	H208	0.171300	0.826600	0.672000
C1791	C179	0.111110	0.729690	0.706460
H2091	H209	0.095900	0.701800	0.675600
C1801	C180	0.089270	0.698210	0.755130
H2101	H210	0.058400	0.648700	0.756500
H2111	H211	0.860400	0.501600	0.775300
N391	N39	0.889600	0.764550	0.800630
C1811	C181	0.770680	0.576890	0.750550
H2121	H212	0.734500	0.576500	0.719700
H2131	H213	0.735100	0.575800	0.781700
C1821	C182	0.845270	0.692930	0.798030
H2141	H214	0.829800	0.666700	0.829400
C1831	C183	0.821630	0.656550	0.750700
C1841	C184	0.843880	0.696280	0.704380
H2151	H215	0.828700	0.673400	0.672000
C1851	C185	0.888890	0.770310	0.706460
H2161	H216	0.904100	0.798200	0.675600
C1861	C186	0.910730	0.801790	0.755130
H2171	H217	0.941600	0.851300	0.756500
H2181	H218	0.360400	0.001600	0.275300
N401	N40	0.389600	0.264550	0.300630
C1871	C187	0.270680	0.076890	0.250550
H2191	H219	0.234500	0.076500	0.219700
H2201	H220	0.235100	0.075800	0.281700
C1881	C188	0.345270	0.192930	0.298030
H2211	H221	0.329800	0.166700	0.329400
C1891	C189	0.321630	0.156550	0.250700
C1901	C190	0.343880	0.196280	0.204380
H2221	H222	0.328700	0.173400	0.172000
C1911	C191	0.388890	0.270310	0.206460
H2231	H223	0.404100	0.298200	0.175600
C1921	C192	0.410730	0.301790	0.255130
H2241	H224	0.441600	0.351300	0.256500
Ag91	Ag9	0.931920	0.818080	0.875000
Ag101	Ag10	0.431920	0.318080	0.375000
Ag111	Ag11	0.568080	0.181920	0.375000
Ag121	Ag12	0.068080	0.681920	0.875000
Ag131	Ag13	0.931920	0.181920	0.625000
Ag141	Ag14	0.431920	0.681920	0.125000
Ag151	Ag15	0.568080	0.818080	0.125000
Ag161	Ag16	0.068080	0.318080	0.625000
N411	N41	0.250000	0.925740	0.000000
N421	N42	0.750000	0.425740	0.500000
N431	N43	0.250000	0.074260	0.500000
N441	N44	0.750000	0.574260	0.000000
N451	N45	0.824260	0.500000	0.750000
N461	N46	0.324260	0.000000	0.250000
N471	N47	0.675740	0.500000	0.250000
N481	N48	0.175740	0.000000	0.750000
