data_KOLWEO_freeONLY_PM
_symmetry_space_group_name_H-M	'P1'
_cell_length_a	16.902500
_cell_length_b	18.792900
_cell_length_c	18.792900
_cell_angle_alpha	68.581500
_cell_angle_beta	72.554200
_cell_angle_gamma	107.446000
_symmetry_Int_Tables_number 1

loop_
_symmetry_equiv_pos_as_xyz
'x,y,z'

loop_
_atom_site_label
_atom_site_type_symbol
_atom_site_fract_x
_atom_site_fract_y
_atom_site_fract_z
Ni11	Ni1	0.868930	0.618930	0.762140
Ni21	Ni2	0.631070	0.762140	0.618930
Ni31	Ni3	0.250000	0.618930	0.618930
Ni41	Ni4	0.131070	0.381070	0.237860
Ni51	Ni5	0.368930	0.237860	0.381070
Ni61	Ni6	0.750000	0.381070	0.381070
H11	H1	0.965500	0.088900	0.850700
H21	H2	0.772100	0.827500	0.954400
H31	H3	0.068700	0.937000	0.732400
H41	H4	0.042800	0.008600	0.807600
H51	H5	0.797300	0.757800	0.876000
H61	H6	0.911000	0.727700	0.533900
H71	H7	0.920500	0.640900	0.568600
H81	H8	0.899700	0.551600	0.036100
H91	H9	0.851100	0.606300	0.935400
H101	H10	0.997200	0.547400	0.784700
H111	H11	0.054100	0.496900	0.878800
H121	H12	0.801600	0.593100	0.667800
H131	H13	0.816200	0.850700	0.060400
H141	H14	0.726500	0.954400	0.218100
H151	H15	0.801100	0.732400	0.330600
H161	H16	0.850400	0.807600	0.183800
H171	H17	0.673300	0.876000	0.366200
H181	H18	0.444900	0.533900	0.738400
H191	H19	0.489100	0.568600	0.790500
H201	H20	0.935800	0.036100	0.412300
H211	H21	0.786500	0.935400	0.458300
H221	H22	0.781900	0.784700	0.667900
H231	H23	0.932900	0.878800	0.624300
H241	H24	0.469400	0.667800	0.739100
H251	H25	0.876600	0.060400	0.088900
H261	H26	0.944600	0.218100	0.827500
H271	H27	0.131700	0.330600	0.937000
H281	H28	0.034200	0.183800	0.008600
H291	H29	0.039500	0.366200	0.757800
H301	H30	0.183300	0.738400	0.727700
H311	H31	0.279600	0.790500	0.640900
H321	H32	0.348100	0.412300	0.551600
H331	H33	0.244800	0.458300	0.606300
H341	H34	0.449800	0.667900	0.547400
H351	H35	0.557200	0.624300	0.496900
H361	H36	0.208500	0.739100	0.593100
H371	H37	0.683800	0.060400	0.850700
H381	H38	0.773500	0.218100	0.954400
H391	H39	0.698900	0.330600	0.732400
H401	H40	0.649600	0.183800	0.807600
H411	H41	0.826700	0.366200	0.876000
H421	H42	0.055100	0.738400	0.533900
H431	H43	0.010900	0.790500	0.568600
H441	H44	0.564200	0.412300	0.036100
H451	H45	0.713500	0.458300	0.935400
H461	H46	0.718100	0.667900	0.784700
H471	H47	0.567100	0.624300	0.878800
H481	H48	0.030600	0.739100	0.667800
H491	H49	0.623400	0.088900	0.060400
H501	H50	0.555400	0.827500	0.218100
H511	H51	0.368300	0.937000	0.330600
H521	H52	0.465800	0.008600	0.183800
H531	H53	0.460500	0.757800	0.366200
H541	H54	0.316700	0.727700	0.738400
H551	H55	0.220400	0.640900	0.790500
H561	H56	0.151900	0.551600	0.412300
H571	H57	0.255200	0.606300	0.458300
H581	H58	0.050200	0.547400	0.667900
H591	H59	0.942800	0.496900	0.624300
H601	H60	0.291500	0.593100	0.739100
H611	H61	0.534500	0.850700	0.088900
H621	H62	0.727900	0.954400	0.827500
H631	H63	0.431300	0.732400	0.937000
H641	H64	0.457200	0.807600	0.008600
H651	H65	0.702700	0.876000	0.757800
H661	H66	0.589000	0.533900	0.727700
H671	H67	0.579500	0.568600	0.640900
H681	H68	0.600300	0.036100	0.551600
H691	H69	0.648900	0.935400	0.606300
H701	H70	0.502800	0.784700	0.547400
H711	H71	0.445900	0.878800	0.496900
H721	H72	0.698400	0.667800	0.593100
H731	H73	0.034500	0.911100	0.149300
H741	H74	0.227900	0.172500	0.045600
H751	H75	0.931300	0.063000	0.267600
H761	H76	0.957200	0.991400	0.192400
H771	H77	0.202700	0.242200	0.124000
H781	H78	0.089000	0.272300	0.466100
H791	H79	0.079500	0.359100	0.431400
H801	H80	0.100300	0.448400	0.963900
H811	H81	0.148900	0.393700	0.064600
H821	H82	0.002800	0.452600	0.215300
H831	H83	0.945900	0.503100	0.121200
H841	H84	0.198400	0.406900	0.332200
H851	H85	0.183800	0.149300	0.939600
H861	H86	0.273500	0.045600	0.781900
H871	H87	0.198900	0.267600	0.669400
H881	H88	0.149600	0.192400	0.816200
H891	H89	0.326700	0.124000	0.633800
H901	H90	0.555100	0.466100	0.261600
H911	H91	0.510900	0.431400	0.209500
H921	H92	0.064200	0.963900	0.587700
H931	H93	0.213500	0.064600	0.541700
H941	H94	0.218100	0.215300	0.332100
H951	H95	0.067100	0.121200	0.375700
H961	H96	0.530600	0.332200	0.260900
H971	H97	0.123400	0.939600	0.911100
H981	H98	0.055400	0.781900	0.172500
H991	H99	0.868300	0.669400	0.063000
H1001	H100	0.965800	0.816200	0.991400
H1011	H101	0.960500	0.633800	0.242200
H1021	H102	0.816700	0.261600	0.272300
H1031	H103	0.720400	0.209500	0.359100
H1041	H104	0.651900	0.587700	0.448400
H1051	H105	0.755200	0.541700	0.393700
H1061	H106	0.550200	0.332100	0.452600
H1071	H107	0.442800	0.375700	0.503100
H1081	H108	0.791500	0.260900	0.406900
H1091	H109	0.316200	0.939600	0.149300
H1101	H110	0.226500	0.781900	0.045600
H1111	H111	0.301100	0.669400	0.267600
H1121	H112	0.350400	0.816200	0.192400
H1131	H113	0.173300	0.633800	0.124000
H1141	H114	0.944900	0.261600	0.466100
H1151	H115	0.989100	0.209500	0.431400
H1161	H116	0.435800	0.587700	0.963900
H1171	H117	0.286500	0.541700	0.064600
H1181	H118	0.281900	0.332100	0.215300
H1191	H119	0.432900	0.375700	0.121200
H1201	H120	0.969400	0.260900	0.332200
H1211	H121	0.376600	0.911100	0.939600
H1221	H122	0.444600	0.172500	0.781900
H1231	H123	0.631700	0.063000	0.669400
H1241	H124	0.534200	0.991400	0.816200
H1251	H125	0.539500	0.242200	0.633800
H1261	H126	0.683300	0.272300	0.261600
H1271	H127	0.779600	0.359100	0.209500
H1281	H128	0.848100	0.448400	0.587700
H1291	H129	0.744800	0.393700	0.541700
H1301	H130	0.949800	0.452600	0.332100
H1311	H131	0.057200	0.503100	0.375700
H1321	H132	0.708500	0.406900	0.260900
H1331	H133	0.465500	0.149300	0.911100
H1341	H134	0.272100	0.045600	0.172500
H1351	H135	0.568700	0.267600	0.063000
H1361	H136	0.542800	0.192400	0.991400
H1371	H137	0.297300	0.124000	0.242200
H1381	H138	0.411000	0.466100	0.272300
H1391	H139	0.420500	0.431400	0.359100
H1401	H140	0.399700	0.963900	0.448400
H1411	H141	0.351100	0.064600	0.393700
H1421	H142	0.497200	0.215300	0.452600
H1431	H143	0.554100	0.121200	0.503100
H1441	H144	0.301600	0.332200	0.406900
C11	C1	0.953820	0.788780	0.753320
C21	C2	0.937230	0.838930	0.798040
C31	C3	0.933630	0.052850	0.911460
C41	C4	0.832760	0.849650	0.909770
C51	C5	0.008350	0.913990	0.777940
C61	C6	0.892110	0.963320	0.947090
C71	C7	0.983830	0.517970	0.968480
C81	C8	0.905870	0.924090	0.891480
C91	C9	0.992940	0.956350	0.823330
C101	C10	0.847890	0.807830	0.863360
C111	C11	0.917130	0.687130	0.580840
C121	C12	0.922380	0.550980	0.983640
C131	C13	0.892980	0.583230	0.923190
C141	C14	0.977710	0.549890	0.836360
C151	C15	0.011110	0.518480	0.893150
C161	C16	0.707140	0.753320	0.457900
C171	C17	0.735270	0.798040	0.363030
C181	C18	0.845090	0.911460	0.035690
C191	C19	0.742530	0.909770	0.240580
C201	C20	0.786290	0.777940	0.308070
C211	C21	0.839200	0.947090	0.089590
C221	C22	0.952310	0.968480	0.513550
C231	C23	0.797350	0.891480	0.184430
C241	C24	0.816270	0.823330	0.220320
C251	C25	0.711250	0.863360	0.328810
C261	C26	0.497970	0.580840	0.732030
C271	C27	0.906020	0.983640	0.465380
C281	C28	0.816170	0.923190	0.493580
C291	C29	0.814070	0.836360	0.613750
C301	C30	0.904260	0.893150	0.588370
C311	C31	0.165040	0.457900	0.788780
C321	C32	0.098300	0.363030	0.838930
C331	C33	0.880780	0.035690	0.052850
C341	C34	0.983110	0.240580	0.849650
C351	C35	0.094360	0.308070	0.913990
C361	C36	0.928790	0.089590	0.963320
C371	C37	0.465860	0.513550	0.517970
C381	C38	0.981780	0.184430	0.924090
C391	C39	0.036590	0.220320	0.956350
C401	C40	0.040060	0.328810	0.807830
C411	C41	0.230000	0.732030	0.687130
C421	C42	0.371400	0.465380	0.550980
C431	C43	0.309750	0.493580	0.583230
C441	C44	0.427820	0.613750	0.549890
C451	C45	0.492630	0.588370	0.518480
C461	C46	0.792860	0.457900	0.753320
C471	C47	0.764730	0.363030	0.798040
C481	C48	0.654910	0.035690	0.911460
C491	C49	0.757470	0.240580	0.909770
C501	C50	0.713710	0.308070	0.777940
C511	C51	0.660800	0.089590	0.947090
C521	C52	0.547690	0.513550	0.968480
C531	C53	0.702650	0.184430	0.891480
C541	C54	0.683730	0.220320	0.823330
C551	C55	0.788750	0.328810	0.863360
C561	C56	0.002030	0.732030	0.580840
C571	C57	0.593980	0.465380	0.983640
C581	C58	0.683830	0.493580	0.923190
C591	C59	0.685930	0.613750	0.836360
C601	C60	0.595740	0.588370	0.893150
C611	C61	0.334960	0.788780	0.457900
C621	C62	0.401700	0.838930	0.363030
C631	C63	0.619220	0.052850	0.035690
C641	C64	0.516890	0.849650	0.240580
C651	C65	0.405640	0.913990	0.308070
C661	C66	0.571210	0.963320	0.089590
C671	C67	0.034140	0.517970	0.513550
C681	C68	0.518220	0.924090	0.184430
C691	C69	0.463410	0.956350	0.220320
C701	C70	0.459940	0.807830	0.328810
C711	C71	0.270000	0.687130	0.732030
C721	C72	0.128600	0.550980	0.465380
C731	C73	0.190250	0.583230	0.493580
C741	C74	0.072180	0.549890	0.613750
C751	C75	0.007370	0.518480	0.588370
C761	C76	0.546180	0.753320	0.788780
C771	C77	0.562770	0.798040	0.838930
C781	C78	0.566370	0.911460	0.052850
C791	C79	0.667240	0.909770	0.849650
C801	C80	0.491650	0.777940	0.913990
C811	C81	0.607890	0.947090	0.963320
C821	C82	0.516170	0.968480	0.517970
C831	C83	0.594130	0.891480	0.924090
C841	C84	0.507060	0.823330	0.956350
C851	C85	0.652110	0.863360	0.807830
C861	C86	0.582870	0.580840	0.687130
C871	C87	0.577620	0.983640	0.550980
C881	C88	0.607020	0.923190	0.583230
C891	C89	0.522290	0.836360	0.549890
C901	C90	0.488890	0.893150	0.518480
C911	C91	0.046180	0.211220	0.246680
C921	C92	0.062770	0.161070	0.201960
C931	C93	0.066370	0.947150	0.088540
C941	C94	0.167240	0.150350	0.090230
C951	C95	0.991650	0.086010	0.222060
C961	C96	0.107890	0.036680	0.052910
C971	C97	0.016170	0.482030	0.031520
C981	C98	0.094130	0.075910	0.108520
C991	C99	0.007060	0.043650	0.176670
C1001	C100	0.152110	0.192170	0.136640
C1011	C101	0.082870	0.312870	0.419160
C1021	C102	0.077620	0.449020	0.016360
C1031	C103	0.107020	0.416770	0.076810
C1041	C104	0.022290	0.450110	0.163640
C1051	C105	0.988890	0.481520	0.106850
C1061	C106	0.292860	0.246680	0.542100
C1071	C107	0.264730	0.201960	0.636970
C1081	C108	0.154910	0.088540	0.964310
C1091	C109	0.257470	0.090230	0.759420
C1101	C110	0.213710	0.222060	0.691930
C1111	C111	0.160800	0.052910	0.910410
C1121	C112	0.047690	0.031520	0.486450
C1131	C113	0.202650	0.108520	0.815570
C1141	C114	0.183730	0.176670	0.779680
C1151	C115	0.288750	0.136640	0.671190
C1161	C116	0.502030	0.419160	0.267970
C1171	C117	0.093980	0.016360	0.534620
C1181	C118	0.183830	0.076810	0.506420
C1191	C119	0.185930	0.163640	0.386250
C1201	C120	0.095740	0.106850	0.411630
C1211	C121	0.834960	0.542100	0.211220
C1221	C122	0.901700	0.636970	0.161070
C1231	C123	0.119220	0.964310	0.947150
C1241	C124	0.016890	0.759420	0.150350
C1251	C125	0.905640	0.691930	0.086010
C1261	C126	0.071210	0.910410	0.036680
C1271	C127	0.534140	0.486450	0.482030
C1281	C128	0.018220	0.815570	0.075910
C1291	C129	0.963410	0.779680	0.043650
C1301	C130	0.959940	0.671190	0.192170
C1311	C131	0.770000	0.267970	0.312870
C1321	C132	0.628600	0.534620	0.449020
C1331	C133	0.690250	0.506420	0.416770
C1341	C134	0.572180	0.386250	0.450110
C1351	C135	0.507370	0.411630	0.481520
C1361	C136	0.207140	0.542100	0.246680
C1371	C137	0.235270	0.636970	0.201960
C1381	C138	0.345090	0.964310	0.088540
C1391	C139	0.242530	0.759420	0.090230
C1401	C140	0.286290	0.691930	0.222060
C1411	C141	0.339200	0.910410	0.052910
C1421	C142	0.452310	0.486450	0.031520
C1431	C143	0.297350	0.815570	0.108520
C1441	C144	0.316270	0.779680	0.176670
C1451	C145	0.211250	0.671190	0.136640
C1461	C146	0.997970	0.267970	0.419160
C1471	C147	0.406020	0.534620	0.016360
C1481	C148	0.316170	0.506420	0.076810
C1491	C149	0.314070	0.386250	0.163640
C1501	C150	0.404260	0.411630	0.106850
C1511	C151	0.665040	0.211220	0.542100
C1521	C152	0.598300	0.161070	0.636970
C1531	C153	0.380780	0.947150	0.964310
C1541	C154	0.483110	0.150350	0.759420
C1551	C155	0.594360	0.086010	0.691930
C1561	C156	0.428790	0.036680	0.910410
C1571	C157	0.965860	0.482030	0.486450
C1581	C158	0.481780	0.075910	0.815570
C1591	C159	0.536590	0.043650	0.779680
C1601	C160	0.540060	0.192170	0.671190
C1611	C161	0.730000	0.312870	0.267970
C1621	C162	0.871400	0.449020	0.534620
C1631	C163	0.809750	0.416770	0.506420
C1641	C164	0.927820	0.450110	0.386250
C1651	C165	0.992630	0.481520	0.411630
C1661	C166	0.453820	0.246680	0.211220
C1671	C167	0.437230	0.201960	0.161070
C1681	C168	0.433630	0.088540	0.947150
C1691	C169	0.332760	0.090230	0.150350
C1701	C170	0.508350	0.222060	0.086010
C1711	C171	0.392110	0.052910	0.036680
C1721	C172	0.483830	0.031520	0.482030
C1731	C173	0.405870	0.108520	0.075910
C1741	C174	0.492940	0.176670	0.043650
C1751	C175	0.347890	0.136640	0.192170
C1761	C176	0.417130	0.419160	0.312870
C1771	C177	0.422380	0.016360	0.449020
C1781	C178	0.392980	0.076810	0.416770
C1791	C179	0.477710	0.163640	0.450110
C1801	C180	0.511110	0.106850	0.481520
N11	N1	0.920200	0.583340	0.850040
N21	N2	0.770240	0.850040	0.566620
N31	N3	0.336860	0.566620	0.583340
N41	N4	0.729760	0.566620	0.850040
N51	N5	0.163140	0.583340	0.566620
N61	N6	0.579800	0.850040	0.583340
N71	N7	0.079800	0.416660	0.149960
N81	N8	0.229760	0.149960	0.433380
N91	N9	0.663140	0.433380	0.416660
N101	N10	0.270240	0.433380	0.149960
N111	N11	0.836860	0.416660	0.433380
N121	N12	0.420200	0.149960	0.416660
O11	O1	0.881820	0.727100	0.768980
O21	O2	0.836640	0.650530	0.659560
O31	O3	0.035400	0.809980	0.704440
O41	O4	0.650800	0.768980	0.503920
O51	O5	0.496200	0.659560	0.689910
O61	O6	0.739840	0.704440	0.485580
O71	O7	0.154720	0.503920	0.727100
O81	O8	0.186110	0.689910	0.650530
O91	O9	0.225420	0.485580	0.809980
O101	O10	0.849200	0.503920	0.768980
O111	O11	0.003800	0.689910	0.659560
O121	O12	0.760160	0.485580	0.704440
O131	O13	0.345280	0.727100	0.503920
O141	O14	0.313890	0.650530	0.689910
O151	O15	0.274580	0.809980	0.485580
O161	O16	0.618180	0.768980	0.727100
O171	O17	0.663360	0.659560	0.650530
O181	O18	0.464600	0.704440	0.809980
O191	O19	0.118180	0.272900	0.231020
O201	O20	0.163360	0.349470	0.340440
O211	O21	0.964600	0.190020	0.295560
O221	O22	0.349200	0.231020	0.496080
O231	O23	0.503800	0.340440	0.310090
O241	O24	0.260160	0.295560	0.514420
O251	O25	0.845280	0.496080	0.272900
O261	O26	0.813890	0.310090	0.349470
O271	O27	0.774580	0.514420	0.190020
O281	O28	0.150800	0.496080	0.231020
O291	O29	0.996200	0.310090	0.340440
O301	O30	0.239840	0.514420	0.295560
O311	O31	0.654720	0.272900	0.496080
O321	O32	0.686110	0.349470	0.310090
O331	O33	0.725420	0.190020	0.514420
O341	O34	0.381820	0.231020	0.272900
O351	O35	0.336640	0.340440	0.349470
O361	O36	0.535400	0.295560	0.190020
