data_KOMDAT_freeONLY_PM
_symmetry_space_group_name_H-M	'P1'
_cell_length_a	8.960000
_cell_length_b	28.437000
_cell_length_c	56.800000
_cell_angle_alpha	90.000000
_cell_angle_beta	90.000000
_cell_angle_gamma	90.000000
_symmetry_Int_Tables_number 1

loop_
_symmetry_equiv_pos_as_xyz
'x,y,z'

loop_
_atom_site_label
_atom_site_type_symbol
_atom_site_fract_x
_atom_site_fract_y
_atom_site_fract_z
C11	C1	0.176000	0.031600	0.181000
H11	H1	0.247800	0.056100	0.180900
N11	N1	0.117300	0.009200	0.201370
C21	C2	0.013600	0.974500	0.193900
H21	H2	0.957600	0.954200	0.203800
C31	C3	0.008300	0.975500	0.168900
H31	H3	0.948200	0.956000	0.159200
N21	N2	0.108700	0.010700	0.160950
C41	C4	0.277400	0.065700	0.253400
H41	H4	0.309800	0.096000	0.258200
C51	C5	0.224400	0.058700	0.230650
H51	H5	0.220600	0.084200	0.219900
C61	C6	0.177100	0.014300	0.223640
C71	C7	0.182700	0.976900	0.239400
H61	H6	0.150400	0.946500	0.234600
C81	C8	0.235700	0.983900	0.262100
H71	H7	0.239600	0.958300	0.272900
C91	C9	0.283100	0.028300	0.269110
C101	C10	0.302300	0.232400	0.350900
H81	H8	0.404800	0.236700	0.347200
C111	C11	0.211800	0.264000	0.363900
H91	H9	0.243000	0.293200	0.370400
N31	N3	0.066300	0.244500	0.365480
C121	C12	0.066900	0.200800	0.353400
H101	H10	0.984300	0.180100	0.351700
N41	N4	0.212800	0.193300	0.344390
C131	C13	0.383800	0.137100	0.333330
H111	H11	0.455600	0.151100	0.343500
C141	C14	0.240800	0.155900	0.331900
C151	C15	0.135800	0.135500	0.317100
H121	H12	0.038100	0.148300	0.316100
C161	C16	0.173800	0.096400	0.303650
H131	H13	0.102000	0.082500	0.293500
C171	C17	0.316800	0.077700	0.305080
C181	C18	0.421800	0.098000	0.319900
H141	H14	0.519600	0.085300	0.320900
C191	C19	0.596000	0.865300	0.353900
H151	H15	0.503000	0.875100	0.360100
C201	C20	0.807000	0.831100	0.350500
H161	H16	0.893000	0.812700	0.353400
C211	C21	0.793000	0.869700	0.333100
H171	H17	0.861100	0.879900	0.321400
C221	C22	0.590200	0.929900	0.301770
H181	H18	0.648100	0.908400	0.292800
C231	C23	0.520000	0.967500	0.290710
H191	H19	0.530000	0.971700	0.274200
C241	C24	0.435200	0.999000	0.303810
C251	C25	0.420500	0.992900	0.327980
H201	H20	0.362600	0.014400	0.336900
C261	C26	0.490700	0.955300	0.339040
H211	H21	0.480600	0.951100	0.355600
C271	C27	0.575500	0.923800	0.325940
N51	N5	0.212600	0.978900	0.110770
C281	C28	0.115800	0.941500	0.104400
H221	H22	0.015000	0.937900	0.109300
C291	C29	0.196100	0.910300	0.089550
N61	N6	0.342500	0.928500	0.086670
C301	C30	0.352700	0.970900	0.099780
H231	H23	0.438300	0.990500	0.101000
C311	C31	0.023500	0.844800	0.090170
H241	H24	0.991200	0.854300	0.105400
C321	C32	0.959200	0.805900	0.079410
H251	H25	0.883100	0.788700	0.087300
C331	C33	0.006400	0.792000	0.057160
C341	C34	0.117800	0.817100	0.045660
H261	H26	0.150000	0.807600	0.030400
C351	C35	0.182000	0.856100	0.056410
H271	H27	0.258200	0.873200	0.048600
C361	C36	0.134900	0.869900	0.078670
C371	C37	0.757300	0.642900	0.088000
C381	C38	0.694500	0.657500	0.066000
H281	H28	0.611400	0.640700	0.059900
C391	C39	0.750400	0.695600	0.053000
H291	H29	0.698000	0.707100	0.039700
C401	C40	0.876700	0.715200	0.059700
C411	C41	0.953300	0.700700	0.079700
H301	H30	0.043500	0.716000	0.083900
C421	C42	0.899300	0.663300	0.093900
H311	H31	0.955400	0.652100	0.106900
C431	C43	0.009400	0.688700	0.990650
H321	H32	0.042500	0.658600	0.985700
C441	C44	0.997200	0.698700	0.014540
H331	H33	0.022100	0.675300	0.025900
C451	C45	0.948700	0.742700	0.021850
C461	C46	0.912300	0.776800	0.005290
H341	H34	0.879100	0.806900	0.010300
C471	C47	0.924400	0.766900	0.981410
H351	H35	0.899500	0.790200	0.970100
C481	C48	0.972900	0.722800	0.974090
C491	C49	0.915600	0.737100	0.932300
H361	H36	0.849200	0.762900	0.934100
N71	N7	0.000200	0.715700	0.950540
C501	C50	0.084700	0.678500	0.940470
H371	H37	0.151100	0.658300	0.948700
C511	C51	0.052300	0.676900	0.916010
H381	H38	0.093400	0.655500	0.905000
N81	N8	0.947900	0.713100	0.910960
Cl11	Cl1	0.341200	0.081330	0.128130
Cl21	Cl2	0.704900	0.786410	0.874600
N91	N9	0.352500	0.034800	0.292000
N101	N10	0.659700	0.885900	0.338400
N111	N11	0.668700	0.826900	0.361700
N121	N12	0.935400	0.750800	0.046200
N131	N13	0.528800	0.558200	0.117410
C521	C52	0.672200	0.537400	0.119630
H391	H39	0.693800	0.508200	0.127000
C531	C53	0.777500	0.567800	0.108800
H401	H40	0.882000	0.562500	0.107700
N141	N14	0.699200	0.607400	0.099890
C541	C54	0.545500	0.601400	0.105210
H411	H41	0.467500	0.622700	0.101300
Zn11	Zn1	0.156300	0.031050	0.129880
Zn21	Zn2	0.880200	0.730210	0.879640
C551	C55	0.324000	0.468400	0.681000
H421	H42	0.252200	0.443900	0.680900
N151	N15	0.382700	0.490800	0.701370
C561	C56	0.486400	0.525500	0.693900
H431	H43	0.542400	0.545800	0.703800
C571	C57	0.491700	0.524500	0.668900
H441	H44	0.551800	0.544000	0.659200
N161	N16	0.391300	0.489300	0.660950
C581	C58	0.222600	0.434300	0.753400
H451	H45	0.190200	0.404000	0.758200
C591	C59	0.275600	0.441300	0.730650
H461	H46	0.279400	0.415800	0.719900
C601	C60	0.322900	0.485700	0.723640
C611	C61	0.317300	0.523100	0.739400
H471	H47	0.349600	0.553500	0.734600
C621	C62	0.264300	0.516100	0.762100
H481	H48	0.260400	0.541700	0.772900
C631	C63	0.216900	0.471700	0.769110
C641	C64	0.197700	0.267600	0.850900
H491	H49	0.095200	0.263300	0.847200
C651	C65	0.288200	0.236000	0.863900
H501	H50	0.257000	0.206800	0.870400
N171	N17	0.433700	0.255500	0.865480
C661	C66	0.433100	0.299200	0.853400
H511	H51	0.515700	0.319900	0.851700
N181	N18	0.287200	0.306700	0.844390
C671	C67	0.116200	0.362900	0.833330
H521	H52	0.044400	0.348900	0.843500
C681	C68	0.259200	0.344100	0.831900
C691	C69	0.364200	0.364500	0.817100
H531	H53	0.461900	0.351700	0.816100
C701	C70	0.326200	0.403600	0.803650
H541	H54	0.398000	0.417500	0.793500
C711	C71	0.183200	0.422300	0.805080
C721	C72	0.078200	0.402000	0.819900
H551	H55	0.980400	0.414700	0.820900
C731	C73	0.904000	0.634700	0.853900
H561	H56	0.997000	0.624900	0.860100
C741	C74	0.693000	0.668900	0.850500
H571	H57	0.607000	0.687300	0.853400
C751	C75	0.707000	0.630300	0.833100
H581	H58	0.638900	0.620100	0.821400
C761	C76	0.909800	0.570100	0.801770
H591	H59	0.851900	0.591600	0.792800
C771	C77	0.980000	0.532500	0.790710
H601	H60	0.970000	0.528300	0.774200
C781	C78	0.064800	0.501000	0.803810
C791	C79	0.079500	0.507100	0.827980
H611	H61	0.137400	0.485600	0.836900
C801	C80	0.009300	0.544700	0.839040
H621	H62	0.019400	0.548900	0.855600
C811	C81	0.924500	0.576200	0.825940
N191	N19	0.287400	0.521100	0.610770
C821	C82	0.384200	0.558500	0.604400
H631	H63	0.485000	0.562100	0.609300
C831	C83	0.303900	0.589700	0.589550
N201	N20	0.157500	0.571500	0.586670
C841	C84	0.147300	0.529100	0.599780
H641	H64	0.061700	0.509500	0.601000
C851	C85	0.476500	0.655200	0.590170
H651	H65	0.508800	0.645700	0.605400
C861	C86	0.540800	0.694100	0.579410
H661	H66	0.616900	0.711300	0.587300
C871	C87	0.493600	0.708000	0.557160
C881	C88	0.382200	0.682900	0.545660
H671	H67	0.350000	0.692400	0.530400
C891	C89	0.318000	0.643900	0.556410
H681	H68	0.241800	0.626800	0.548600
C901	C90	0.365100	0.630100	0.578670
C911	C91	0.742700	0.857100	0.588000
C921	C92	0.805500	0.842500	0.566000
H691	H69	0.888600	0.859300	0.559900
C931	C93	0.749600	0.804400	0.553000
H701	H70	0.802000	0.792900	0.539700
C941	C94	0.623300	0.784800	0.559700
C951	C95	0.546700	0.799300	0.579700
H711	H71	0.456500	0.784000	0.583900
C961	C96	0.600700	0.836700	0.593900
H721	H72	0.544600	0.847900	0.606900
C971	C97	0.490600	0.811300	0.490650
H731	H73	0.457500	0.841400	0.485700
C981	C98	0.502800	0.801300	0.514540
H741	H74	0.477900	0.824700	0.525900
C991	C99	0.551300	0.757300	0.521850
C1001	C100	0.587700	0.723200	0.505290
H751	H75	0.620900	0.693100	0.510300
C1011	C101	0.575600	0.733100	0.481410
H761	H76	0.600500	0.709800	0.470100
C1021	C102	0.527100	0.777200	0.474090
C1031	C103	0.584400	0.762900	0.432300
H771	H77	0.650800	0.737100	0.434100
N211	N21	0.499800	0.784300	0.450540
C1041	C104	0.415300	0.821500	0.440470
H781	H78	0.348900	0.841700	0.448700
C1051	C105	0.447700	0.823100	0.416010
H791	H79	0.406600	0.844500	0.405000
N221	N22	0.552100	0.786900	0.410960
Cl31	Cl3	0.158800	0.418670	0.628130
Cl41	Cl4	0.795100	0.713590	0.374600
N231	N23	0.147500	0.465200	0.792000
N241	N24	0.840300	0.614100	0.838400
N251	N25	0.831300	0.673100	0.861700
N261	N26	0.564600	0.749200	0.546200
N271	N27	0.971200	0.941800	0.617410
C1061	C106	0.827800	0.962600	0.619630
H801	H80	0.806200	0.991800	0.627000
C1071	C107	0.722500	0.932200	0.608800
H811	H81	0.618000	0.937500	0.607700
N281	N28	0.800800	0.892600	0.599890
C1081	C108	0.954500	0.898600	0.605210
H821	H82	0.032500	0.877300	0.601300
Zn31	Zn3	0.343700	0.468950	0.629880
Zn41	Zn4	0.619800	0.769790	0.379640
C1091	C109	0.176000	0.968400	0.681000
H831	H83	0.247800	0.943900	0.680900
N291	N29	0.117300	0.990800	0.701370
C1101	C110	0.013600	0.025500	0.693900
H841	H84	0.957600	0.045800	0.703800
C1111	C111	0.008300	0.024500	0.668900
H851	H85	0.948200	0.044000	0.659200
N301	N30	0.108700	0.989300	0.660950
C1121	C112	0.277400	0.934300	0.753400
H861	H86	0.309800	0.904000	0.758200
C1131	C113	0.224400	0.941300	0.730650
H871	H87	0.220600	0.915800	0.719900
C1141	C114	0.177100	0.985700	0.723640
C1151	C115	0.182700	0.023100	0.739400
H881	H88	0.150400	0.053500	0.734600
C1161	C116	0.235700	0.016100	0.762100
H891	H89	0.239600	0.041700	0.772900
C1171	C117	0.283100	0.971700	0.769110
C1181	C118	0.302300	0.767600	0.850900
H901	H90	0.404800	0.763300	0.847200
C1191	C119	0.211800	0.736000	0.863900
H911	H91	0.243000	0.706800	0.870400
N311	N31	0.066300	0.755500	0.865480
C1201	C120	0.066900	0.799200	0.853400
H921	H92	0.984300	0.819900	0.851700
N321	N32	0.212800	0.806700	0.844390
C1211	C121	0.383800	0.862900	0.833330
H931	H93	0.455600	0.848900	0.843500
C1221	C122	0.240800	0.844100	0.831900
C1231	C123	0.135800	0.864500	0.817100
H941	H94	0.038100	0.851700	0.816100
C1241	C124	0.173800	0.903600	0.803650
H951	H95	0.102000	0.917500	0.793500
C1251	C125	0.316800	0.922300	0.805080
C1261	C126	0.421800	0.902000	0.819900
H961	H96	0.519600	0.914700	0.820900
C1271	C127	0.596000	0.134700	0.853900
H971	H97	0.503000	0.124900	0.860100
C1281	C128	0.807000	0.168900	0.850500
H981	H98	0.893000	0.187300	0.853400
C1291	C129	0.793000	0.130300	0.833100
H991	H99	0.861100	0.120100	0.821400
C1301	C130	0.590200	0.070100	0.801770
H1001	H100	0.648100	0.091600	0.792800
C1311	C131	0.520000	0.032500	0.790710
H1011	H101	0.530000	0.028300	0.774200
C1321	C132	0.435200	0.001000	0.803810
C1331	C133	0.420500	0.007100	0.827980
H1021	H102	0.362600	0.985600	0.836900
C1341	C134	0.490700	0.044700	0.839040
H1031	H103	0.480600	0.048900	0.855600
C1351	C135	0.575500	0.076200	0.825940
N331	N33	0.212600	0.021100	0.610770
C1361	C136	0.115800	0.058500	0.604400
H1041	H104	0.015000	0.062100	0.609300
C1371	C137	0.196100	0.089700	0.589550
N341	N34	0.342500	0.071500	0.586670
C1381	C138	0.352700	0.029100	0.599780
H1051	H105	0.438300	0.009500	0.601000
C1391	C139	0.023500	0.155200	0.590170
H1061	H106	0.991200	0.145700	0.605400
C1401	C140	0.959200	0.194100	0.579410
H1071	H107	0.883100	0.211300	0.587300
C1411	C141	0.006400	0.208000	0.557160
C1421	C142	0.117800	0.182900	0.545660
H1081	H108	0.150000	0.192400	0.530400
C1431	C143	0.182000	0.143900	0.556410
H1091	H109	0.258200	0.126800	0.548600
C1441	C144	0.134900	0.130100	0.578670
C1451	C145	0.757300	0.357100	0.588000
C1461	C146	0.694500	0.342500	0.566000
H1101	H110	0.611400	0.359300	0.559900
C1471	C147	0.750400	0.304400	0.553000
H1111	H111	0.698000	0.292900	0.539700
C1481	C148	0.876700	0.284800	0.559700
C1491	C149	0.953300	0.299300	0.579700
H1121	H112	0.043500	0.284000	0.583900
C1501	C150	0.899300	0.336700	0.593900
H1131	H113	0.955400	0.347900	0.606900
C1511	C151	0.009400	0.311300	0.490650
H1141	H114	0.042500	0.341400	0.485700
C1521	C152	0.997200	0.301300	0.514540
H1151	H115	0.022100	0.324700	0.525900
C1531	C153	0.948700	0.257300	0.521850
C1541	C154	0.912300	0.223200	0.505290
H1161	H116	0.879100	0.193100	0.510300
C1551	C155	0.924400	0.233100	0.481410
H1171	H117	0.899500	0.209800	0.470100
C1561	C156	0.972900	0.277200	0.474090
C1571	C157	0.915600	0.262900	0.432300
H1181	H118	0.849200	0.237100	0.434100
N351	N35	0.000200	0.284300	0.450540
C1581	C158	0.084700	0.321500	0.440470
H1191	H119	0.151100	0.341700	0.448700
C1591	C159	0.052300	0.323100	0.416010
H1201	H120	0.093400	0.344500	0.405000
N361	N36	0.947900	0.286900	0.410960
Cl51	Cl5	0.341200	0.918670	0.628130
Cl61	Cl6	0.704900	0.213590	0.374600
N371	N37	0.352500	0.965200	0.792000
N381	N38	0.659700	0.114100	0.838400
N391	N39	0.668700	0.173100	0.861700
N401	N40	0.935400	0.249200	0.546200
N411	N41	0.528800	0.441800	0.617410
C1601	C160	0.672200	0.462600	0.619630
H1211	H121	0.693800	0.491800	0.627000
C1611	C161	0.777500	0.432200	0.608800
H1221	H122	0.882000	0.437500	0.607700
N421	N42	0.699200	0.392600	0.599890
C1621	C162	0.545500	0.398600	0.605210
H1231	H123	0.467500	0.377300	0.601300
Zn51	Zn5	0.156300	0.968950	0.629880
Zn61	Zn6	0.880200	0.269790	0.379640
C1631	C163	0.324000	0.531600	0.181000
H1241	H124	0.252200	0.556100	0.180900
N431	N43	0.382700	0.509200	0.201370
C1641	C164	0.486400	0.474500	0.193900
H1251	H125	0.542400	0.454200	0.203800
C1651	C165	0.491700	0.475500	0.168900
H1261	H126	0.551800	0.456000	0.159200
N441	N44	0.391300	0.510700	0.160950
C1661	C166	0.222600	0.565700	0.253400
H1271	H127	0.190200	0.596000	0.258200
C1671	C167	0.275600	0.558700	0.230650
H1281	H128	0.279400	0.584200	0.219900
C1681	C168	0.322900	0.514300	0.223640
C1691	C169	0.317300	0.476900	0.239400
H1291	H129	0.349600	0.446500	0.234600
C1701	C170	0.264300	0.483900	0.262100
H1301	H130	0.260400	0.458300	0.272900
C1711	C171	0.216900	0.528300	0.269110
C1721	C172	0.197700	0.732400	0.350900
H1311	H131	0.095200	0.736700	0.347200
C1731	C173	0.288200	0.764000	0.363900
H1321	H132	0.257000	0.793200	0.370400
N451	N45	0.433700	0.744500	0.365480
C1741	C174	0.433100	0.700800	0.353400
H1331	H133	0.515700	0.680100	0.351700
N461	N46	0.287200	0.693300	0.344390
C1751	C175	0.116200	0.637100	0.333330
H1341	H134	0.044400	0.651100	0.343500
C1761	C176	0.259200	0.655900	0.331900
C1771	C177	0.364200	0.635500	0.317100
H1351	H135	0.461900	0.648300	0.316100
C1781	C178	0.326200	0.596400	0.303650
H1361	H136	0.398000	0.582500	0.293500
C1791	C179	0.183200	0.577700	0.305080
C1801	C180	0.078200	0.598000	0.319900
H1371	H137	0.980400	0.585300	0.320900
C1811	C181	0.904000	0.365300	0.353900
H1381	H138	0.997000	0.375100	0.360100
C1821	C182	0.693000	0.331100	0.350500
H1391	H139	0.607000	0.312700	0.353400
C1831	C183	0.707000	0.369700	0.333100
H1401	H140	0.638900	0.379900	0.321400
C1841	C184	0.909800	0.429900	0.301770
H1411	H141	0.851900	0.408400	0.292800
C1851	C185	0.980000	0.467500	0.290710
H1421	H142	0.970000	0.471700	0.274200
C1861	C186	0.064800	0.499000	0.303810
C1871	C187	0.079500	0.492900	0.327980
H1431	H143	0.137400	0.514400	0.336900
C1881	C188	0.009300	0.455300	0.339040
H1441	H144	0.019400	0.451100	0.355600
C1891	C189	0.924500	0.423800	0.325940
N471	N47	0.287400	0.478900	0.110770
C1901	C190	0.384200	0.441500	0.104400
H1451	H145	0.485000	0.437900	0.109300
C1911	C191	0.303900	0.410300	0.089550
N481	N48	0.157500	0.428500	0.086670
C1921	C192	0.147300	0.470900	0.099780
H1461	H146	0.061700	0.490500	0.101000
C1931	C193	0.476500	0.344800	0.090170
H1471	H147	0.508800	0.354300	0.105400
C1941	C194	0.540800	0.305900	0.079410
H1481	H148	0.616900	0.288700	0.087300
C1951	C195	0.493600	0.292000	0.057160
C1961	C196	0.382200	0.317100	0.045660
H1491	H149	0.350000	0.307600	0.030400
C1971	C197	0.318000	0.356100	0.056410
H1501	H150	0.241800	0.373200	0.048600
C1981	C198	0.365100	0.369900	0.078670
C1991	C199	0.742700	0.142900	0.088000
C2001	C200	0.805500	0.157500	0.066000
H1511	H151	0.888600	0.140700	0.059900
C2011	C201	0.749600	0.195600	0.053000
H1521	H152	0.802000	0.207100	0.039700
C2021	C202	0.623300	0.215200	0.059700
C2031	C203	0.546700	0.200700	0.079700
H1531	H153	0.456500	0.216000	0.083900
C2041	C204	0.600700	0.163300	0.093900
H1541	H154	0.544600	0.152100	0.106900
C2051	C205	0.490600	0.188700	0.990650
H1551	H155	0.457500	0.158600	0.985700
C2061	C206	0.502800	0.198700	0.014540
H1561	H156	0.477900	0.175300	0.025900
C2071	C207	0.551300	0.242700	0.021850
C2081	C208	0.587700	0.276800	0.005290
H1571	H157	0.620900	0.306900	0.010300
C2091	C209	0.575600	0.266900	0.981410
H1581	H158	0.600500	0.290200	0.970100
C2101	C210	0.527100	0.222800	0.974090
C2111	C211	0.584400	0.237100	0.932300
H1591	H159	0.650800	0.262900	0.934100
N491	N49	0.499800	0.215700	0.950540
C2121	C212	0.415300	0.178500	0.940470
H1601	H160	0.348900	0.158300	0.948700
C2131	C213	0.447700	0.176900	0.916010
H1611	H161	0.406600	0.155500	0.905000
N501	N50	0.552100	0.213100	0.910960
Cl71	Cl7	0.158800	0.581330	0.128130
Cl81	Cl8	0.795100	0.286410	0.874600
N511	N51	0.147500	0.534800	0.292000
N521	N52	0.840300	0.385900	0.338400
N531	N53	0.831300	0.326900	0.361700
N541	N54	0.564600	0.250800	0.046200
N551	N55	0.971200	0.058200	0.117410
C2141	C214	0.827800	0.037400	0.119630
H1621	H162	0.806200	0.008200	0.127000
C2151	C215	0.722500	0.067800	0.108800
H1631	H163	0.618000	0.062500	0.107700
N561	N56	0.800800	0.107400	0.099890
C2161	C216	0.954500	0.101400	0.105210
H1641	H164	0.032500	0.122700	0.101300
Zn71	Zn7	0.343700	0.531050	0.129880
Zn81	Zn8	0.619800	0.230210	0.879640
C2171	C217	0.824000	0.031600	0.319000
H1651	H165	0.752200	0.056100	0.319100
N571	N57	0.882700	0.009200	0.298630
C2181	C218	0.986400	0.974500	0.306100
H1661	H166	0.042400	0.954200	0.296200
C2191	C219	0.991700	0.975500	0.331100
H1671	H167	0.051800	0.956000	0.340800
N581	N58	0.891300	0.010700	0.339050
C2201	C220	0.722600	0.065700	0.246600
H1681	H168	0.690200	0.096000	0.241800
C2211	C221	0.775600	0.058700	0.269350
H1691	H169	0.779400	0.084200	0.280100
C2221	C222	0.822900	0.014300	0.276360
C2231	C223	0.817300	0.976900	0.260600
H1701	H170	0.849600	0.946500	0.265400
C2241	C224	0.764300	0.983900	0.237900
H1711	H171	0.760400	0.958300	0.227100
C2251	C225	0.716900	0.028300	0.230890
C2261	C226	0.697700	0.232400	0.149100
H1721	H172	0.595200	0.236700	0.152800
C2271	C227	0.788200	0.264000	0.136100
H1731	H173	0.757000	0.293200	0.129600
N591	N59	0.933700	0.244500	0.134520
C2281	C228	0.933100	0.200800	0.146600
H1741	H174	0.015700	0.180100	0.148300
N601	N60	0.787200	0.193300	0.155610
C2291	C229	0.616200	0.137100	0.166670
H1751	H175	0.544400	0.151100	0.156500
C2301	C230	0.759200	0.155900	0.168100
C2311	C231	0.864200	0.135500	0.182900
H1761	H176	0.961900	0.148300	0.183900
C2321	C232	0.826200	0.096400	0.196350
H1771	H177	0.898000	0.082500	0.206500
C2331	C233	0.683200	0.077700	0.194920
C2341	C234	0.578200	0.098000	0.180100
H1781	H178	0.480400	0.085300	0.179100
C2351	C235	0.404000	0.865300	0.146100
H1791	H179	0.497000	0.875100	0.139900
C2361	C236	0.193000	0.831100	0.149500
H1801	H180	0.107000	0.812700	0.146600
C2371	C237	0.207000	0.869700	0.166900
H1811	H181	0.138900	0.879900	0.178600
C2381	C238	0.409800	0.929900	0.198230
H1821	H182	0.351900	0.908400	0.207200
C2391	C239	0.480000	0.967500	0.209290
H1831	H183	0.470000	0.971700	0.225800
C2401	C240	0.564800	0.999000	0.196190
C2411	C241	0.579500	0.992900	0.172020
H1841	H184	0.637400	0.014400	0.163100
C2421	C242	0.509300	0.955300	0.160960
H1851	H185	0.519400	0.951100	0.144400
C2431	C243	0.424500	0.923800	0.174060
N611	N61	0.787400	0.978900	0.389230
C2441	C244	0.884200	0.941500	0.395600
H1861	H186	0.985000	0.937900	0.390700
C2451	C245	0.803900	0.910300	0.410450
N621	N62	0.657500	0.928500	0.413330
C2461	C246	0.647300	0.970900	0.400220
H1871	H187	0.561700	0.990500	0.399000
C2471	C247	0.976500	0.844800	0.409830
H1881	H188	0.008800	0.854300	0.394600
C2481	C248	0.040800	0.805900	0.420590
H1891	H189	0.116900	0.788700	0.412700
C2491	C249	0.993600	0.792000	0.442840
C2501	C250	0.882200	0.817100	0.454340
H1901	H190	0.850000	0.807600	0.469600
C2511	C251	0.818000	0.856100	0.443590
H1911	H191	0.741800	0.873200	0.451400
C2521	C252	0.865100	0.869900	0.421330
C2531	C253	0.242700	0.642900	0.412000
C2541	C254	0.305500	0.657500	0.434000
H1921	H192	0.388600	0.640700	0.440100
C2551	C255	0.249600	0.695600	0.447000
H1931	H193	0.302000	0.707100	0.460300
C2561	C256	0.123300	0.715200	0.440300
C2571	C257	0.046700	0.700700	0.420300
H1941	H194	0.956500	0.716000	0.416100
C2581	C258	0.100700	0.663300	0.406100
H1951	H195	0.044600	0.652100	0.393100
C2591	C259	0.990600	0.688700	0.509350
H1961	H196	0.957500	0.658600	0.514300
C2601	C260	0.002800	0.698700	0.485460
H1971	H197	0.977900	0.675300	0.474100
C2611	C261	0.051300	0.742700	0.478150
C2621	C262	0.087700	0.776800	0.494710
H1981	H198	0.120900	0.806900	0.489700
C2631	C263	0.075600	0.766900	0.518590
H1991	H199	0.100500	0.790200	0.529900
C2641	C264	0.027100	0.722800	0.525910
C2651	C265	0.084400	0.737100	0.567700
H2001	H200	0.150800	0.762900	0.565900
N631	N63	0.999800	0.715700	0.549460
C2661	C266	0.915300	0.678500	0.559530
H2011	H201	0.848900	0.658300	0.551300
C2671	C267	0.947700	0.676900	0.583990
H2021	H202	0.906600	0.655500	0.595000
N641	N64	0.052100	0.713100	0.589040
Cl91	Cl9	0.658800	0.081330	0.371870
Cl101	Cl10	0.295100	0.786410	0.625400
N651	N65	0.647500	0.034800	0.208000
N661	N66	0.340300	0.885900	0.161600
N671	N67	0.331300	0.826900	0.138300
N681	N68	0.064600	0.750800	0.453800
N691	N69	0.471200	0.558200	0.382590
C2681	C268	0.327800	0.537400	0.380370
H2031	H203	0.306200	0.508200	0.373000
C2691	C269	0.222500	0.567800	0.391200
H2041	H204	0.118000	0.562500	0.392300
N701	N70	0.300800	0.607400	0.400110
C2701	C270	0.454500	0.601400	0.394790
H2051	H205	0.532500	0.622700	0.398700
Zn91	Zn9	0.843700	0.031050	0.370120
Zn101	Zn10	0.119800	0.730210	0.620360
C2711	C271	0.676000	0.468400	0.819000
H2061	H206	0.747800	0.443900	0.819100
N711	N71	0.617300	0.490800	0.798630
C2721	C272	0.513600	0.525500	0.806100
H2071	H207	0.457600	0.545800	0.796200
C2731	C273	0.508300	0.524500	0.831100
H2081	H208	0.448200	0.544000	0.840800
N721	N72	0.608700	0.489300	0.839050
C2741	C274	0.777400	0.434300	0.746600
H2091	H209	0.809800	0.404000	0.741800
C2751	C275	0.724400	0.441300	0.769350
H2101	H210	0.720600	0.415800	0.780100
C2761	C276	0.677100	0.485700	0.776360
C2771	C277	0.682700	0.523100	0.760600
H2111	H211	0.650400	0.553500	0.765400
C2781	C278	0.735700	0.516100	0.737900
H2121	H212	0.739600	0.541700	0.727100
C2791	C279	0.783100	0.471700	0.730890
C2801	C280	0.802300	0.267600	0.649100
H2131	H213	0.904800	0.263300	0.652800
C2811	C281	0.711800	0.236000	0.636100
H2141	H214	0.743000	0.206800	0.629600
N731	N73	0.566300	0.255500	0.634520
C2821	C282	0.566900	0.299200	0.646600
H2151	H215	0.484300	0.319900	0.648300
N741	N74	0.712800	0.306700	0.655610
C2831	C283	0.883800	0.362900	0.666670
H2161	H216	0.955600	0.348900	0.656500
C2841	C284	0.740800	0.344100	0.668100
C2851	C285	0.635800	0.364500	0.682900
H2171	H217	0.538100	0.351700	0.683900
C2861	C286	0.673800	0.403600	0.696350
H2181	H218	0.602000	0.417500	0.706500
C2871	C287	0.816800	0.422300	0.694920
C2881	C288	0.921800	0.402000	0.680100
H2191	H219	0.019600	0.414700	0.679100
C2891	C289	0.096000	0.634700	0.646100
H2201	H220	0.003000	0.624900	0.639900
C2901	C290	0.307000	0.668900	0.649500
H2211	H221	0.393000	0.687300	0.646600
C2911	C291	0.293000	0.630300	0.666900
H2221	H222	0.361100	0.620100	0.678600
C2921	C292	0.090200	0.570100	0.698230
H2231	H223	0.148100	0.591600	0.707200
C2931	C293	0.020000	0.532500	0.709290
H2241	H224	0.030000	0.528300	0.725800
C2941	C294	0.935200	0.501000	0.696190
C2951	C295	0.920500	0.507100	0.672020
H2251	H225	0.862600	0.485600	0.663100
C2961	C296	0.990700	0.544700	0.660960
H2261	H226	0.980600	0.548900	0.644400
C2971	C297	0.075500	0.576200	0.674060
N751	N75	0.712600	0.521100	0.889230
C2981	C298	0.615800	0.558500	0.895600
H2271	H227	0.515000	0.562100	0.890700
C2991	C299	0.696100	0.589700	0.910450
N761	N76	0.842500	0.571500	0.913330
C3001	C300	0.852700	0.529100	0.900220
H2281	H228	0.938300	0.509500	0.899000
C3011	C301	0.523500	0.655200	0.909830
H2291	H229	0.491200	0.645700	0.894600
C3021	C302	0.459200	0.694100	0.920590
H2301	H230	0.383100	0.711300	0.912700
C3031	C303	0.506400	0.708000	0.942840
C3041	C304	0.617800	0.682900	0.954340
H2311	H231	0.650000	0.692400	0.969600
C3051	C305	0.682000	0.643900	0.943590
H2321	H232	0.758200	0.626800	0.951400
C3061	C306	0.634900	0.630100	0.921330
C3071	C307	0.257300	0.857100	0.912000
C3081	C308	0.194500	0.842500	0.934000
H2331	H233	0.111400	0.859300	0.940100
C3091	C309	0.250400	0.804400	0.947000
H2341	H234	0.198000	0.792900	0.960300
C3101	C310	0.376700	0.784800	0.940300
C3111	C311	0.453300	0.799300	0.920300
H2351	H235	0.543500	0.784000	0.916100
C3121	C312	0.399300	0.836700	0.906100
H2361	H236	0.455400	0.847900	0.893100
C3131	C313	0.509400	0.811300	0.009350
H2371	H237	0.542500	0.841400	0.014300
C3141	C314	0.497200	0.801300	0.985460
H2381	H238	0.522100	0.824700	0.974100
C3151	C315	0.448700	0.757300	0.978150
C3161	C316	0.412300	0.723200	0.994710
H2391	H239	0.379100	0.693100	0.989700
C3171	C317	0.424400	0.733100	0.018590
H2401	H240	0.399500	0.709800	0.029900
C3181	C318	0.472900	0.777200	0.025910
C3191	C319	0.415600	0.762900	0.067700
H2411	H241	0.349200	0.737100	0.065900
N771	N77	0.500200	0.784300	0.049460
C3201	C320	0.584700	0.821500	0.059530
H2421	H242	0.651100	0.841700	0.051300
C3211	C321	0.552300	0.823100	0.083990
H2431	H243	0.593400	0.844500	0.095000
N781	N78	0.447900	0.786900	0.089040
Cl111	Cl11	0.841200	0.418670	0.871870
Cl121	Cl12	0.204900	0.713590	0.125400
N791	N79	0.852500	0.465200	0.708000
N801	N80	0.159700	0.614100	0.661600
N811	N81	0.168700	0.673100	0.638300
N821	N82	0.435400	0.749200	0.953800
N831	N83	0.028800	0.941800	0.882590
C3221	C322	0.172200	0.962600	0.880370
H2441	H244	0.193800	0.991800	0.873000
C3231	C323	0.277500	0.932200	0.891200
H2451	H245	0.382000	0.937500	0.892300
N841	N84	0.199200	0.892600	0.900110
C3241	C324	0.045500	0.898600	0.894790
H2461	H246	0.967500	0.877300	0.898700
Zn111	Zn11	0.656300	0.468950	0.870120
Zn121	Zn12	0.380200	0.769790	0.120360
C3251	C325	0.824000	0.968400	0.819000
H2471	H247	0.752200	0.943900	0.819100
N851	N85	0.882700	0.990800	0.798630
C3261	C326	0.986400	0.025500	0.806100
H2481	H248	0.042400	0.045800	0.796200
C3271	C327	0.991700	0.024500	0.831100
H2491	H249	0.051800	0.044000	0.840800
N861	N86	0.891300	0.989300	0.839050
C3281	C328	0.722600	0.934300	0.746600
H2501	H250	0.690200	0.904000	0.741800
C3291	C329	0.775600	0.941300	0.769350
H2511	H251	0.779400	0.915800	0.780100
C3301	C330	0.822900	0.985700	0.776360
C3311	C331	0.817300	0.023100	0.760600
H2521	H252	0.849600	0.053500	0.765400
C3321	C332	0.764300	0.016100	0.737900
H2531	H253	0.760400	0.041700	0.727100
C3331	C333	0.716900	0.971700	0.730890
C3341	C334	0.697700	0.767600	0.649100
H2541	H254	0.595200	0.763300	0.652800
C3351	C335	0.788200	0.736000	0.636100
H2551	H255	0.757000	0.706800	0.629600
N871	N87	0.933700	0.755500	0.634520
C3361	C336	0.933100	0.799200	0.646600
H2561	H256	0.015700	0.819900	0.648300
N881	N88	0.787200	0.806700	0.655610
C3371	C337	0.616200	0.862900	0.666670
H2571	H257	0.544400	0.848900	0.656500
C3381	C338	0.759200	0.844100	0.668100
C3391	C339	0.864200	0.864500	0.682900
H2581	H258	0.961900	0.851700	0.683900
C3401	C340	0.826200	0.903600	0.696350
H2591	H259	0.898000	0.917500	0.706500
C3411	C341	0.683200	0.922300	0.694920
C3421	C342	0.578200	0.902000	0.680100
H2601	H260	0.480400	0.914700	0.679100
C3431	C343	0.404000	0.134700	0.646100
H2611	H261	0.497000	0.124900	0.639900
C3441	C344	0.193000	0.168900	0.649500
H2621	H262	0.107000	0.187300	0.646600
C3451	C345	0.207000	0.130300	0.666900
H2631	H263	0.138900	0.120100	0.678600
C3461	C346	0.409800	0.070100	0.698230
H2641	H264	0.351900	0.091600	0.707200
C3471	C347	0.480000	0.032500	0.709290
H2651	H265	0.470000	0.028300	0.725800
C3481	C348	0.564800	0.001000	0.696190
C3491	C349	0.579500	0.007100	0.672020
H2661	H266	0.637400	0.985600	0.663100
C3501	C350	0.509300	0.044700	0.660960
H2671	H267	0.519400	0.048900	0.644400
C3511	C351	0.424500	0.076200	0.674060
N891	N89	0.787400	0.021100	0.889230
C3521	C352	0.884200	0.058500	0.895600
H2681	H268	0.985000	0.062100	0.890700
C3531	C353	0.803900	0.089700	0.910450
N901	N90	0.657500	0.071500	0.913330
C3541	C354	0.647300	0.029100	0.900220
H2691	H269	0.561700	0.009500	0.899000
C3551	C355	0.976500	0.155200	0.909830
H2701	H270	0.008800	0.145700	0.894600
C3561	C356	0.040800	0.194100	0.920590
H2711	H271	0.116900	0.211300	0.912700
C3571	C357	0.993600	0.208000	0.942840
C3581	C358	0.882200	0.182900	0.954340
H2721	H272	0.850000	0.192400	0.969600
C3591	C359	0.818000	0.143900	0.943590
H2731	H273	0.741800	0.126800	0.951400
C3601	C360	0.865100	0.130100	0.921330
C3611	C361	0.242700	0.357100	0.912000
C3621	C362	0.305500	0.342500	0.934000
H2741	H274	0.388600	0.359300	0.940100
C3631	C363	0.249600	0.304400	0.947000
H2751	H275	0.302000	0.292900	0.960300
C3641	C364	0.123300	0.284800	0.940300
C3651	C365	0.046700	0.299300	0.920300
H2761	H276	0.956500	0.284000	0.916100
C3661	C366	0.100700	0.336700	0.906100
H2771	H277	0.044600	0.347900	0.893100
C3671	C367	0.990600	0.311300	0.009350
H2781	H278	0.957500	0.341400	0.014300
C3681	C368	0.002800	0.301300	0.985460
H2791	H279	0.977900	0.324700	0.974100
C3691	C369	0.051300	0.257300	0.978150
C3701	C370	0.087700	0.223200	0.994710
H2801	H280	0.120900	0.193100	0.989700
C3711	C371	0.075600	0.233100	0.018590
H2811	H281	0.100500	0.209800	0.029900
C3721	C372	0.027100	0.277200	0.025910
C3731	C373	0.084400	0.262900	0.067700
H2821	H282	0.150800	0.237100	0.065900
N911	N91	0.999800	0.284300	0.049460
C3741	C374	0.915300	0.321500	0.059530
H2831	H283	0.848900	0.341700	0.051300
C3751	C375	0.947700	0.323100	0.083990
H2841	H284	0.906600	0.344500	0.095000
N921	N92	0.052100	0.286900	0.089040
Cl131	Cl13	0.658800	0.918670	0.871870
Cl141	Cl14	0.295100	0.213590	0.125400
N931	N93	0.647500	0.965200	0.708000
N941	N94	0.340300	0.114100	0.661600
N951	N95	0.331300	0.173100	0.638300
N961	N96	0.064600	0.249200	0.953800
N971	N97	0.471200	0.441800	0.882590
C3761	C376	0.327800	0.462600	0.880370
H2851	H285	0.306200	0.491800	0.873000
C3771	C377	0.222500	0.432200	0.891200
H2861	H286	0.118000	0.437500	0.892300
N981	N98	0.300800	0.392600	0.900110
C3781	C378	0.454500	0.398600	0.894790
H2871	H287	0.532500	0.377300	0.898700
Zn131	Zn13	0.843700	0.968950	0.870120
Zn141	Zn14	0.119800	0.269790	0.120360
C3791	C379	0.676000	0.531600	0.319000
H2881	H288	0.747800	0.556100	0.319100
N991	N99	0.617300	0.509200	0.298630
C3801	C380	0.513600	0.474500	0.306100
H2891	H289	0.457600	0.454200	0.296200
C3811	C381	0.508300	0.475500	0.331100
H2901	H290	0.448200	0.456000	0.340800
N1001	N100	0.608700	0.510700	0.339050
C3821	C382	0.777400	0.565700	0.246600
H2911	H291	0.809800	0.596000	0.241800
C3831	C383	0.724400	0.558700	0.269350
H2921	H292	0.720600	0.584200	0.280100
C3841	C384	0.677100	0.514300	0.276360
C3851	C385	0.682700	0.476900	0.260600
H2931	H293	0.650400	0.446500	0.265400
C3861	C386	0.735700	0.483900	0.237900
H2941	H294	0.739600	0.458300	0.227100
C3871	C387	0.783100	0.528300	0.230890
C3881	C388	0.802300	0.732400	0.149100
H2951	H295	0.904800	0.736700	0.152800
C3891	C389	0.711800	0.764000	0.136100
H2961	H296	0.743000	0.793200	0.129600
N1011	N101	0.566300	0.744500	0.134520
C3901	C390	0.566900	0.700800	0.146600
H2971	H297	0.484300	0.680100	0.148300
N1021	N102	0.712800	0.693300	0.155610
C3911	C391	0.883800	0.637100	0.166670
H2981	H298	0.955600	0.651100	0.156500
C3921	C392	0.740800	0.655900	0.168100
C3931	C393	0.635800	0.635500	0.182900
H2991	H299	0.538100	0.648300	0.183900
C3941	C394	0.673800	0.596400	0.196350
H3001	H300	0.602000	0.582500	0.206500
C3951	C395	0.816800	0.577700	0.194920
C3961	C396	0.921800	0.598000	0.180100
H3011	H301	0.019600	0.585300	0.179100
C3971	C397	0.096000	0.365300	0.146100
H3021	H302	0.003000	0.375100	0.139900
C3981	C398	0.307000	0.331100	0.149500
H3031	H303	0.393000	0.312700	0.146600
C3991	C399	0.293000	0.369700	0.166900
H3041	H304	0.361100	0.379900	0.178600
C4001	C400	0.090200	0.429900	0.198230
H3051	H305	0.148100	0.408400	0.207200
C4011	C401	0.020000	0.467500	0.209290
H3061	H306	0.030000	0.471700	0.225800
C4021	C402	0.935200	0.499000	0.196190
C4031	C403	0.920500	0.492900	0.172020
H3071	H307	0.862600	0.514400	0.163100
C4041	C404	0.990700	0.455300	0.160960
H3081	H308	0.980600	0.451100	0.144400
C4051	C405	0.075500	0.423800	0.174060
N1031	N103	0.712600	0.478900	0.389230
C4061	C406	0.615800	0.441500	0.395600
H3091	H309	0.515000	0.437900	0.390700
C4071	C407	0.696100	0.410300	0.410450
N1041	N104	0.842500	0.428500	0.413330
C4081	C408	0.852700	0.470900	0.400220
H3101	H310	0.938300	0.490500	0.399000
C4091	C409	0.523500	0.344800	0.409830
H3111	H311	0.491200	0.354300	0.394600
C4101	C410	0.459200	0.305900	0.420590
H3121	H312	0.383100	0.288700	0.412700
C4111	C411	0.506400	0.292000	0.442840
C4121	C412	0.617800	0.317100	0.454340
H3131	H313	0.650000	0.307600	0.469600
C4131	C413	0.682000	0.356100	0.443590
H3141	H314	0.758200	0.373200	0.451400
C4141	C414	0.634900	0.369900	0.421330
C4151	C415	0.257300	0.142900	0.412000
C4161	C416	0.194500	0.157500	0.434000
H3151	H315	0.111400	0.140700	0.440100
C4171	C417	0.250400	0.195600	0.447000
H3161	H316	0.198000	0.207100	0.460300
C4181	C418	0.376700	0.215200	0.440300
C4191	C419	0.453300	0.200700	0.420300
H3171	H317	0.543500	0.216000	0.416100
C4201	C420	0.399300	0.163300	0.406100
H3181	H318	0.455400	0.152100	0.393100
C4211	C421	0.509400	0.188700	0.509350
H3191	H319	0.542500	0.158600	0.514300
C4221	C422	0.497200	0.198700	0.485460
H3201	H320	0.522100	0.175300	0.474100
C4231	C423	0.448700	0.242700	0.478150
C4241	C424	0.412300	0.276800	0.494710
H3211	H321	0.379100	0.306900	0.489700
C4251	C425	0.424400	0.266900	0.518590
H3221	H322	0.399500	0.290200	0.529900
C4261	C426	0.472900	0.222800	0.525910
C4271	C427	0.415600	0.237100	0.567700
H3231	H323	0.349200	0.262900	0.565900
N1051	N105	0.500200	0.215700	0.549460
C4281	C428	0.584700	0.178500	0.559530
H3241	H324	0.651100	0.158300	0.551300
C4291	C429	0.552300	0.176900	0.583990
H3251	H325	0.593400	0.155500	0.595000
N1061	N106	0.447900	0.213100	0.589040
Cl151	Cl15	0.841200	0.581330	0.371870
Cl161	Cl16	0.204900	0.286410	0.625400
N1071	N107	0.852500	0.534800	0.208000
N1081	N108	0.159700	0.385900	0.161600
N1091	N109	0.168700	0.326900	0.138300
N1101	N110	0.435400	0.250800	0.453800
N1111	N111	0.028800	0.058200	0.382590
C4301	C430	0.172200	0.037400	0.380370
H3261	H326	0.193800	0.008200	0.373000
C4311	C431	0.277500	0.067800	0.391200
H3271	H327	0.382000	0.062500	0.392300
N1121	N112	0.199200	0.107400	0.400110
C4321	C432	0.045500	0.101400	0.394790
H3281	H328	0.967500	0.122700	0.398700
Zn151	Zn15	0.656300	0.531050	0.370120
Zn161	Zn16	0.380200	0.230210	0.620360
