data_KOMGEZ_freeONLY_PM
_symmetry_space_group_name_H-M	'P1'
_cell_length_a	11.151400
_cell_length_b	11.151400
_cell_length_c	102.578000
_cell_angle_alpha	90.000000
_cell_angle_beta	90.000000
_cell_angle_gamma	120.000000
_symmetry_Int_Tables_number 1

loop_
_symmetry_equiv_pos_as_xyz
'x,y,z'

loop_
_atom_site_label
_atom_site_type_symbol
_atom_site_fract_x
_atom_site_fract_y
_atom_site_fract_z
N11	N1	0.138900	0.201300	0.011930
N21	N2	0.093600	0.280900	0.018320
N31	N3	0.295200	0.329900	0.025660
N41	N4	0.414900	0.386000	0.033060
N51	N5	0.631200	0.507000	0.038520
N61	N6	0.556400	0.412600	0.048430
N71	N7	0.654400	0.495800	0.076700
N81	N8	0.615400	0.967400	0.087840
C11	C1	0.258400	0.231500	0.016380
H11	H1	0.310800	0.192200	0.013700
C21	C2	0.189900	0.357100	0.026480
H21	H2	0.187400	0.421300	0.032100
C31	C3	0.542600	0.487800	0.029520
H31	H3	0.563400	0.536800	0.021700
C41	C4	0.428900	0.342200	0.044870
H41	H4	0.357700	0.272100	0.049700
C51	C5	0.646000	0.602400	0.072850
H51	H5	0.628700	0.619200	0.064400
C61	C6	0.583200	0.840600	0.090200
H61	H6	0.513200	0.780600	0.095800
N91	N9	0.805570	0.534630	0.345260
N101	N10	0.760270	0.614230	0.351650
N111	N11	0.961870	0.663230	0.358990
N121	N12	0.081570	0.719330	0.366390
N131	N13	0.297870	0.840330	0.371850
N141	N14	0.223070	0.745930	0.381760
N151	N15	0.321070	0.829130	0.410030
N161	N16	0.282070	0.300730	0.421170
C71	C7	0.925070	0.564830	0.349710
H71	H7	0.977470	0.525530	0.347030
C81	C8	0.856570	0.690430	0.359810
H81	H8	0.854070	0.754630	0.365430
C91	C9	0.209270	0.821130	0.362850
H91	H9	0.230070	0.870130	0.355030
C101	C10	0.095570	0.675530	0.378200
H101	H10	0.024370	0.605430	0.383030
C111	C11	0.312670	0.935730	0.406180
H111	H11	0.295370	0.952530	0.397730
C121	C12	0.249870	0.173930	0.423530
H121	H12	0.179870	0.113930	0.429130
N171	N17	0.472230	0.867970	0.678600
N181	N18	0.426930	0.947570	0.684990
N191	N19	0.628530	0.996570	0.692330
N201	N20	0.748230	0.052670	0.699730
N211	N21	0.964530	0.173670	0.705190
N221	N22	0.889730	0.079270	0.715100
N231	N23	0.987730	0.162470	0.743370
N241	N24	0.948730	0.634070	0.754510
C131	C13	0.591730	0.898170	0.683050
H131	H13	0.644130	0.858870	0.680370
C141	C14	0.523230	0.023770	0.693150
H141	H14	0.520730	0.087970	0.698770
C151	C15	0.875930	0.154470	0.696190
H151	H15	0.896730	0.203470	0.688370
C161	C16	0.762230	0.008870	0.711540
H161	H16	0.691030	0.938770	0.716370
C171	C17	0.979330	0.269070	0.739520
H171	H17	0.962030	0.285870	0.731070
C181	C18	0.916530	0.507270	0.756870
H181	H18	0.846530	0.447270	0.762470
N251	N25	0.798700	0.937600	0.011930
N261	N26	0.719100	0.812700	0.018320
N271	N27	0.670100	0.965300	0.025660
N281	N28	0.614000	0.028900	0.033060
N291	N29	0.493000	0.124200	0.038520
N301	N30	0.587400	0.143800	0.048430
N311	N31	0.504200	0.158600	0.076700
N321	N32	0.032600	0.648000	0.087840
C191	C19	0.768500	0.026900	0.016380
H191	H19	0.807800	0.118600	0.013700
C201	C20	0.642900	0.832800	0.026480
H201	H20	0.578700	0.766100	0.032100
C211	C21	0.512200	0.054800	0.029520
H211	H21	0.463200	0.026600	0.021700
C221	C22	0.657800	0.086700	0.044870
H221	H22	0.727900	0.085600	0.049700
C231	C23	0.397600	0.043600	0.072850
H231	H23	0.380800	0.009500	0.064400
C241	C24	0.159400	0.742600	0.090200
H241	H24	0.219400	0.732600	0.095800
N331	N33	0.465370	0.270930	0.345260
N341	N34	0.385770	0.146030	0.351650
N351	N35	0.336770	0.298630	0.358990
N361	N36	0.280670	0.362230	0.366390
N371	N37	0.159670	0.457530	0.371850
N381	N38	0.254070	0.477130	0.381760
N391	N39	0.170870	0.491930	0.410030
N401	N40	0.699270	0.981330	0.421170
C251	C25	0.435170	0.360230	0.349710
H251	H25	0.474470	0.451930	0.347030
C261	C26	0.309570	0.166130	0.359810
H261	H26	0.245370	0.099430	0.365430
C271	C27	0.178870	0.388130	0.362850
H271	H27	0.129870	0.359930	0.355030
C281	C28	0.324470	0.420030	0.378200
H281	H28	0.394570	0.418930	0.383030
C291	C29	0.064270	0.376930	0.406180
H291	H29	0.047470	0.342830	0.397730
C301	C30	0.826070	0.075930	0.423530
H301	H30	0.886070	0.065930	0.429130
N411	N41	0.132030	0.604270	0.678600
N421	N42	0.052430	0.479370	0.684990
N431	N43	0.003430	0.631970	0.692330
N441	N44	0.947330	0.695570	0.699730
N451	N45	0.826330	0.790870	0.705190
N461	N46	0.920730	0.810470	0.715100
N471	N47	0.837530	0.825270	0.743370
N481	N48	0.365930	0.314670	0.754510
C311	C31	0.101830	0.693570	0.683050
H311	H31	0.141130	0.785270	0.680370
C321	C32	0.976230	0.499470	0.693150
H321	H32	0.912030	0.432770	0.698770
C331	C33	0.845530	0.721470	0.696190
H331	H33	0.796530	0.693270	0.688370
C341	C34	0.991130	0.753370	0.711540
H341	H34	0.061230	0.752270	0.716370
C351	C35	0.730930	0.710270	0.739520
H351	H35	0.714130	0.676170	0.731070
C361	C36	0.492730	0.409270	0.756870
H361	H36	0.552730	0.399270	0.762470
N491	N49	0.062400	0.861100	0.011930
N501	N50	0.187300	0.906400	0.018320
N511	N51	0.034700	0.704800	0.025660
N521	N52	0.971100	0.585100	0.033060
N531	N53	0.875800	0.368800	0.038520
N541	N54	0.856200	0.443600	0.048430
N551	N55	0.841400	0.345600	0.076700
N561	N56	0.352000	0.384600	0.087840
C371	C37	0.973100	0.741600	0.016380
H371	H37	0.881400	0.689200	0.013700
C381	C38	0.167200	0.810100	0.026480
H381	H38	0.233900	0.812600	0.032100
C391	C39	0.945200	0.457400	0.029520
H391	H39	0.973400	0.436600	0.021700
C401	C40	0.913300	0.571100	0.044870
H401	H40	0.914400	0.642300	0.049700
C411	C41	0.956400	0.354000	0.072850
H411	H41	0.990500	0.371300	0.064400
C421	C42	0.257400	0.416800	0.090200
H421	H42	0.267400	0.486800	0.095800
N571	N57	0.729070	0.194430	0.345260
N581	N58	0.853970	0.239730	0.351650
N591	N59	0.701370	0.038130	0.358990
N601	N60	0.637770	0.918430	0.366390
N611	N61	0.542470	0.702130	0.371850
N621	N62	0.522870	0.776930	0.381760
N631	N63	0.508070	0.678930	0.410030
N641	N64	0.018670	0.717930	0.421170
C431	C43	0.639770	0.074930	0.349710
H431	H43	0.548070	0.022530	0.347030
C441	C44	0.833870	0.143430	0.359810
H441	H44	0.900570	0.145930	0.365430
C451	C45	0.611870	0.790730	0.362850
H451	H45	0.640070	0.769930	0.355030
C461	C46	0.579970	0.904430	0.378200
H461	H46	0.581070	0.975630	0.383030
C471	C47	0.623070	0.687330	0.406180
H471	H47	0.657170	0.704630	0.397730
C481	C48	0.924070	0.750130	0.423530
H481	H48	0.934070	0.820130	0.429130
N651	N65	0.395730	0.527770	0.678600
N661	N66	0.520630	0.573070	0.684990
N671	N67	0.368030	0.371470	0.692330
N681	N68	0.304430	0.251770	0.699730
N691	N69	0.209130	0.035470	0.705190
N701	N70	0.189530	0.110270	0.715100
N711	N71	0.174730	0.012270	0.743370
N721	N72	0.685330	0.051270	0.754510
C491	C49	0.306430	0.408270	0.683050
H491	H49	0.214730	0.355870	0.680370
C501	C50	0.500530	0.476770	0.693150
H501	H50	0.567230	0.479270	0.698770
C511	C51	0.278530	0.124070	0.696190
H511	H51	0.306730	0.103270	0.688370
C521	C52	0.246630	0.237770	0.711540
H521	H52	0.247730	0.308970	0.716370
C531	C53	0.289730	0.020670	0.739520
H531	H53	0.323830	0.037970	0.731070
C541	C54	0.590730	0.083470	0.756870
H541	H54	0.600730	0.153470	0.762470
N731	N73	0.201300	0.138900	0.488070
N741	N74	0.280900	0.093600	0.481680
N751	N75	0.329900	0.295200	0.474340
N761	N76	0.386000	0.414900	0.466940
N771	N77	0.507000	0.631200	0.461480
N781	N78	0.412600	0.556400	0.451570
N791	N79	0.495800	0.654400	0.423300
N801	N80	0.967400	0.615400	0.412160
C551	C55	0.231500	0.258400	0.483620
H551	H55	0.192200	0.310800	0.486300
C561	C56	0.357100	0.189900	0.473520
H561	H56	0.421300	0.187400	0.467900
C571	C57	0.487800	0.542600	0.470480
H571	H57	0.536800	0.563400	0.478300
C581	C58	0.342200	0.428900	0.455130
H581	H58	0.272100	0.357700	0.450300
C591	C59	0.602400	0.646000	0.427150
H591	H59	0.619200	0.628700	0.435600
C601	C60	0.840600	0.583200	0.409800
H601	H60	0.780600	0.513200	0.404200
N811	N81	0.867970	0.472230	0.821400
N821	N82	0.947570	0.426930	0.815010
N831	N83	0.996570	0.628530	0.807670
N841	N84	0.052670	0.748230	0.800270
N851	N85	0.173670	0.964530	0.794810
N861	N86	0.079270	0.889730	0.784900
N871	N87	0.162470	0.987730	0.756630
N881	N88	0.634070	0.948730	0.745490
C611	C61	0.898170	0.591730	0.816950
H611	H61	0.858870	0.644130	0.819630
C621	C62	0.023770	0.523230	0.806850
H621	H62	0.087970	0.520730	0.801230
C631	C63	0.154470	0.875930	0.803810
H631	H63	0.203470	0.896730	0.811630
C641	C64	0.008870	0.762230	0.788460
H641	H64	0.938770	0.691030	0.783630
C651	C65	0.269070	0.979330	0.760480
H651	H65	0.285870	0.962030	0.768930
C661	C66	0.507270	0.916530	0.743130
H661	H66	0.447270	0.846530	0.737530
N891	N89	0.534630	0.805570	0.154740
N901	N90	0.614230	0.760270	0.148350
N911	N91	0.663230	0.961870	0.141010
N921	N92	0.719330	0.081570	0.133610
N931	N93	0.840330	0.297870	0.128150
N941	N94	0.745930	0.223070	0.118240
N951	N95	0.829130	0.321070	0.089970
N961	N96	0.300730	0.282070	0.078830
C671	C67	0.564830	0.925070	0.150290
H671	H67	0.525530	0.977470	0.152970
C681	C68	0.690430	0.856570	0.140190
H681	H68	0.754630	0.854070	0.134570
C691	C69	0.821130	0.209270	0.137150
H691	H69	0.870130	0.230070	0.144970
C701	C70	0.675530	0.095570	0.121800
H701	H70	0.605430	0.024370	0.116970
C711	C71	0.935730	0.312670	0.093820
H711	H71	0.952530	0.295370	0.102270
C721	C72	0.173930	0.249870	0.076470
H721	H72	0.113930	0.179870	0.070870
N971	N97	0.937600	0.798700	0.488070
N981	N98	0.812700	0.719100	0.481680
N991	N99	0.965300	0.670100	0.474340
N1001	N100	0.028900	0.614000	0.466940
N1011	N101	0.124200	0.493000	0.461480
N1021	N102	0.143800	0.587400	0.451570
N1031	N103	0.158600	0.504200	0.423300
N1041	N104	0.648000	0.032600	0.412160
C731	C73	0.026900	0.768500	0.483620
H731	H73	0.118600	0.807800	0.486300
C741	C74	0.832800	0.642900	0.473520
H741	H74	0.766100	0.578700	0.467900
C751	C75	0.054800	0.512200	0.470480
H751	H75	0.026600	0.463200	0.478300
C761	C76	0.086700	0.657800	0.455130
H761	H76	0.085600	0.727900	0.450300
C771	C77	0.043600	0.397600	0.427150
H771	H77	0.009500	0.380800	0.435600
C781	C78	0.742600	0.159400	0.409800
H781	H78	0.732600	0.219400	0.404200
N1051	N105	0.604270	0.132030	0.821400
N1061	N106	0.479370	0.052430	0.815010
N1071	N107	0.631970	0.003430	0.807670
N1081	N108	0.695570	0.947330	0.800270
N1091	N109	0.790870	0.826330	0.794810
N1101	N110	0.810470	0.920730	0.784900
N1111	N111	0.825270	0.837530	0.756630
N1121	N112	0.314670	0.365930	0.745490
C791	C79	0.693570	0.101830	0.816950
H791	H79	0.785270	0.141130	0.819630
C801	C80	0.499470	0.976230	0.806850
H801	H80	0.432770	0.912030	0.801230
C811	C81	0.721470	0.845530	0.803810
H811	H81	0.693270	0.796530	0.811630
C821	C82	0.753370	0.991130	0.788460
H821	H82	0.752270	0.061230	0.783630
C831	C83	0.710270	0.730930	0.760480
H831	H83	0.676170	0.714130	0.768930
C841	C84	0.409270	0.492730	0.743130
H841	H84	0.399270	0.552730	0.737530
N1131	N113	0.270930	0.465370	0.154740
N1141	N114	0.146030	0.385770	0.148350
N1151	N115	0.298630	0.336770	0.141010
N1161	N116	0.362230	0.280670	0.133610
N1171	N117	0.457530	0.159670	0.128150
N1181	N118	0.477130	0.254070	0.118240
N1191	N119	0.491930	0.170870	0.089970
N1201	N120	0.981330	0.699270	0.078830
C851	C85	0.360230	0.435170	0.150290
H851	H85	0.451930	0.474470	0.152970
C861	C86	0.166130	0.309570	0.140190
H861	H86	0.099430	0.245370	0.134570
C871	C87	0.388130	0.178870	0.137150
H871	H87	0.359930	0.129870	0.144970
C881	C88	0.420030	0.324470	0.121800
H881	H88	0.418930	0.394570	0.116970
C891	C89	0.376930	0.064270	0.093820
H891	H89	0.342830	0.047470	0.102270
C901	C90	0.075930	0.826070	0.076470
H901	H90	0.065930	0.886070	0.070870
N1211	N121	0.861100	0.062400	0.488070
N1221	N122	0.906400	0.187300	0.481680
N1231	N123	0.704800	0.034700	0.474340
N1241	N124	0.585100	0.971100	0.466940
N1251	N125	0.368800	0.875800	0.461480
N1261	N126	0.443600	0.856200	0.451570
N1271	N127	0.345600	0.841400	0.423300
N1281	N128	0.384600	0.352000	0.412160
C911	C91	0.741600	0.973100	0.483620
H911	H91	0.689200	0.881400	0.486300
C921	C92	0.810100	0.167200	0.473520
H921	H92	0.812600	0.233900	0.467900
C931	C93	0.457400	0.945200	0.470480
H931	H93	0.436600	0.973400	0.478300
C941	C94	0.571100	0.913300	0.455130
H941	H94	0.642300	0.914400	0.450300
C951	C95	0.354000	0.956400	0.427150
H951	H95	0.371300	0.990500	0.435600
C961	C96	0.416800	0.257400	0.409800
H961	H96	0.486800	0.267400	0.404200
N1291	N129	0.527770	0.395730	0.821400
N1301	N130	0.573070	0.520630	0.815010
N1311	N131	0.371470	0.368030	0.807670
N1321	N132	0.251770	0.304430	0.800270
N1331	N133	0.035470	0.209130	0.794810
N1341	N134	0.110270	0.189530	0.784900
N1351	N135	0.012270	0.174730	0.756630
N1361	N136	0.051270	0.685330	0.745490
C971	C97	0.408270	0.306430	0.816950
H971	H97	0.355870	0.214730	0.819630
C981	C98	0.476770	0.500530	0.806850
H981	H98	0.479270	0.567230	0.801230
C991	C99	0.124070	0.278530	0.803810
H991	H99	0.103270	0.306730	0.811630
C1001	C100	0.237770	0.246630	0.788460
H1001	H100	0.308970	0.247730	0.783630
C1011	C101	0.020670	0.289730	0.760480
H1011	H101	0.037970	0.323830	0.768930
C1021	C102	0.083470	0.590730	0.743130
H1021	H102	0.153470	0.600730	0.737530
N1371	N137	0.194430	0.729070	0.154740
N1381	N138	0.239730	0.853970	0.148350
N1391	N139	0.038130	0.701370	0.141010
N1401	N140	0.918430	0.637770	0.133610
N1411	N141	0.702130	0.542470	0.128150
N1421	N142	0.776930	0.522870	0.118240
N1431	N143	0.678930	0.508070	0.089970
N1441	N144	0.717930	0.018670	0.078830
C1031	C103	0.074930	0.639770	0.150290
H1031	H103	0.022530	0.548070	0.152970
C1041	C104	0.143430	0.833870	0.140190
H1041	H104	0.145930	0.900570	0.134570
C1051	C105	0.790730	0.611870	0.137150
H1051	H105	0.769930	0.640070	0.144970
C1061	C106	0.904430	0.579970	0.121800
H1061	H106	0.975630	0.581070	0.116970
C1071	C107	0.687330	0.623070	0.093820
H1071	H107	0.704630	0.657170	0.102270
C1081	C108	0.750130	0.924070	0.076470
H1081	H108	0.820130	0.934070	0.070870
N1451	N145	0.861100	0.798700	0.988070
N1461	N146	0.906400	0.719100	0.981680
N1471	N147	0.704800	0.670100	0.974340
N1481	N148	0.585100	0.614000	0.966940
N1491	N149	0.368800	0.493000	0.961480
N1501	N150	0.443600	0.587400	0.951570
N1511	N151	0.345600	0.504200	0.923300
N1521	N152	0.384600	0.032600	0.912160
C1091	C109	0.741600	0.768500	0.983620
H1091	H109	0.689200	0.807800	0.986300
C1101	C110	0.810100	0.642900	0.973520
H1101	H110	0.812600	0.578700	0.967900
C1111	C111	0.457400	0.512200	0.970480
H1111	H111	0.436600	0.463200	0.978300
C1121	C112	0.571100	0.657800	0.955130
H1121	H112	0.642300	0.727900	0.950300
C1131	C113	0.354000	0.397600	0.927150
H1131	H113	0.371300	0.380800	0.935600
C1141	C114	0.416800	0.159400	0.909800
H1141	H114	0.486800	0.219400	0.904200
N1531	N153	0.527770	0.132030	0.321400
N1541	N154	0.573070	0.052430	0.315010
N1551	N155	0.371470	0.003430	0.307670
N1561	N156	0.251770	0.947330	0.300270
N1571	N157	0.035470	0.826330	0.294810
N1581	N158	0.110270	0.920730	0.284900
N1591	N159	0.012270	0.837530	0.256630
N1601	N160	0.051270	0.365930	0.245490
C1151	C115	0.408270	0.101830	0.316950
H1151	H115	0.355870	0.141130	0.319630
C1161	C116	0.476770	0.976230	0.306850
H1161	H116	0.479270	0.912030	0.301230
C1171	C117	0.124070	0.845530	0.303810
H1171	H117	0.103270	0.796530	0.311630
C1181	C118	0.237770	0.991130	0.288460
H1181	H118	0.308970	0.061230	0.283630
C1191	C119	0.020670	0.730930	0.260480
H1191	H119	0.037970	0.714130	0.268930
C1201	C120	0.083470	0.492730	0.243130
H1201	H120	0.153470	0.552730	0.237530
N1611	N161	0.194430	0.465370	0.654740
N1621	N162	0.239730	0.385770	0.648350
N1631	N163	0.038130	0.336770	0.641010
N1641	N164	0.918430	0.280670	0.633610
N1651	N165	0.702130	0.159670	0.628150
N1661	N166	0.776930	0.254070	0.618240
N1671	N167	0.678930	0.170870	0.589970
N1681	N168	0.717930	0.699270	0.578830
C1211	C121	0.074930	0.435170	0.650290
H1211	H121	0.022530	0.474470	0.652970
C1221	C122	0.143430	0.309570	0.640190
H1221	H122	0.145930	0.245370	0.634570
C1231	C123	0.790730	0.178870	0.637150
H1231	H123	0.769930	0.129870	0.644970
C1241	C124	0.904430	0.324470	0.621800
H1241	H124	0.975630	0.394570	0.616970
C1251	C125	0.687330	0.064270	0.593820
H1251	H125	0.704630	0.047470	0.602270
C1261	C126	0.750130	0.826070	0.576470
H1261	H126	0.820130	0.886070	0.570870
N1691	N169	0.201300	0.062400	0.988070
N1701	N170	0.280900	0.187300	0.981680
N1711	N171	0.329900	0.034700	0.974340
N1721	N172	0.386000	0.971100	0.966940
N1731	N173	0.507000	0.875800	0.961480
N1741	N174	0.412600	0.856200	0.951570
N1751	N175	0.495800	0.841400	0.923300
N1761	N176	0.967400	0.352000	0.912160
C1271	C127	0.231500	0.973100	0.983620
H1271	H127	0.192200	0.881400	0.986300
C1281	C128	0.357100	0.167200	0.973520
H1281	H128	0.421300	0.233900	0.967900
C1291	C129	0.487800	0.945200	0.970480
H1291	H129	0.536800	0.973400	0.978300
C1301	C130	0.342200	0.913300	0.955130
H1301	H130	0.272100	0.914400	0.950300
C1311	C131	0.602400	0.956400	0.927150
H1311	H131	0.619200	0.990500	0.935600
C1321	C132	0.840600	0.257400	0.909800
H1321	H132	0.780600	0.267400	0.904200
N1771	N177	0.867970	0.395730	0.321400
N1781	N178	0.947570	0.520630	0.315010
N1791	N179	0.996570	0.368030	0.307670
N1801	N180	0.052670	0.304430	0.300270
N1811	N181	0.173670	0.209130	0.294810
N1821	N182	0.079270	0.189530	0.284900
N1831	N183	0.162470	0.174730	0.256630
N1841	N184	0.634070	0.685330	0.245490
C1331	C133	0.898170	0.306430	0.316950
H1331	H133	0.858870	0.214730	0.319630
C1341	C134	0.023770	0.500530	0.306850
H1341	H134	0.087970	0.567230	0.301230
C1351	C135	0.154470	0.278530	0.303810
H1351	H135	0.203470	0.306730	0.311630
C1361	C136	0.008870	0.246630	0.288460
H1361	H136	0.938770	0.247730	0.283630
C1371	C137	0.269070	0.289730	0.260480
H1371	H137	0.285870	0.323830	0.268930
C1381	C138	0.507270	0.590730	0.243130
H1381	H138	0.447270	0.600730	0.237530
N1851	N185	0.534630	0.729070	0.654740
N1861	N186	0.614230	0.853970	0.648350
N1871	N187	0.663230	0.701370	0.641010
N1881	N188	0.719330	0.637770	0.633610
N1891	N189	0.840330	0.542470	0.628150
N1901	N190	0.745930	0.522870	0.618240
N1911	N191	0.829130	0.508070	0.589970
N1921	N192	0.300730	0.018670	0.578830
C1391	C139	0.564830	0.639770	0.650290
H1391	H139	0.525530	0.548070	0.652970
C1401	C140	0.690430	0.833870	0.640190
H1401	H140	0.754630	0.900570	0.634570
C1411	C141	0.821130	0.611870	0.637150
H1411	H141	0.870130	0.640070	0.644970
C1421	C142	0.675530	0.579970	0.621800
H1421	H142	0.605430	0.581070	0.616970
C1431	C143	0.935730	0.623070	0.593820
H1431	H143	0.952530	0.657170	0.602270
C1441	C144	0.173930	0.924070	0.576470
H1441	H144	0.113930	0.934070	0.570870
N1931	N193	0.937600	0.138900	0.988070
N1941	N194	0.812700	0.093600	0.981680
N1951	N195	0.965300	0.295200	0.974340
N1961	N196	0.028900	0.414900	0.966940
N1971	N197	0.124200	0.631200	0.961480
N1981	N198	0.143800	0.556400	0.951570
N1991	N199	0.158600	0.654400	0.923300
N2001	N200	0.648000	0.615400	0.912160
C1451	C145	0.026900	0.258400	0.983620
H1451	H145	0.118600	0.310800	0.986300
C1461	C146	0.832800	0.189900	0.973520
H1461	H146	0.766100	0.187400	0.967900
C1471	C147	0.054800	0.542600	0.970480
H1471	H147	0.026600	0.563400	0.978300
C1481	C148	0.086700	0.428900	0.955130
H1481	H148	0.085600	0.357700	0.950300
C1491	C149	0.043600	0.646000	0.927150
H1491	H149	0.009500	0.628700	0.935600
C1501	C150	0.742600	0.583200	0.909800
H1501	H150	0.732600	0.513200	0.904200
N2011	N201	0.604270	0.472230	0.321400
N2021	N202	0.479370	0.426930	0.315010
N2031	N203	0.631970	0.628530	0.307670
N2041	N204	0.695570	0.748230	0.300270
N2051	N205	0.790870	0.964530	0.294810
N2061	N206	0.810470	0.889730	0.284900
N2071	N207	0.825270	0.987730	0.256630
N2081	N208	0.314670	0.948730	0.245490
C1511	C151	0.693570	0.591730	0.316950
H1511	H151	0.785270	0.644130	0.319630
C1521	C152	0.499470	0.523230	0.306850
H1521	H152	0.432770	0.520730	0.301230
C1531	C153	0.721470	0.875930	0.303810
H1531	H153	0.693270	0.896730	0.311630
C1541	C154	0.753370	0.762230	0.288460
H1541	H154	0.752270	0.691030	0.283630
C1551	C155	0.710270	0.979330	0.260480
H1551	H155	0.676170	0.962030	0.268930
C1561	C156	0.409270	0.916530	0.243130
H1561	H156	0.399270	0.846530	0.237530
N2091	N209	0.270930	0.805570	0.654740
N2101	N210	0.146030	0.760270	0.648350
N2111	N211	0.298630	0.961870	0.641010
N2121	N212	0.362230	0.081570	0.633610
N2131	N213	0.457530	0.297870	0.628150
N2141	N214	0.477130	0.223070	0.618240
N2151	N215	0.491930	0.321070	0.589970
N2161	N216	0.981330	0.282070	0.578830
C1571	C157	0.360230	0.925070	0.650290
H1571	H157	0.451930	0.977470	0.652970
C1581	C158	0.166130	0.856570	0.640190
H1581	H158	0.099430	0.854070	0.634570
C1591	C159	0.388130	0.209270	0.637150
H1591	H159	0.359930	0.230070	0.644970
C1601	C160	0.420030	0.095570	0.621800
H1601	H160	0.418930	0.024370	0.616970
C1611	C161	0.376930	0.312670	0.593820
H1611	H161	0.342830	0.295370	0.602270
C1621	C162	0.075930	0.249870	0.576470
H1621	H162	0.065930	0.179870	0.570870
N2171	N217	0.798700	0.861100	0.511930
N2181	N218	0.719100	0.906400	0.518320
N2191	N219	0.670100	0.704800	0.525660
N2201	N220	0.614000	0.585100	0.533060
N2211	N221	0.493000	0.368800	0.538520
N2221	N222	0.587400	0.443600	0.548430
N2231	N223	0.504200	0.345600	0.576700
N2241	N224	0.032600	0.384600	0.587840
C1631	C163	0.768500	0.741600	0.516380
H1631	H163	0.807800	0.689200	0.513700
C1641	C164	0.642900	0.810100	0.526480
H1641	H164	0.578700	0.812600	0.532100
C1651	C165	0.512200	0.457400	0.529520
H1651	H165	0.463200	0.436600	0.521700
C1661	C166	0.657800	0.571100	0.544870
H1661	H166	0.727900	0.642300	0.549700
C1671	C167	0.397600	0.354000	0.572850
H1671	H167	0.380800	0.371300	0.564400
C1681	C168	0.159400	0.416800	0.590200
H1681	H168	0.219400	0.486800	0.595800
N2251	N225	0.465370	0.194430	0.845260
N2261	N226	0.385770	0.239730	0.851650
N2271	N227	0.336770	0.038130	0.858990
N2281	N228	0.280670	0.918430	0.866390
N2291	N229	0.159670	0.702130	0.871850
N2301	N230	0.254070	0.776930	0.881760
N2311	N231	0.170870	0.678930	0.910030
N2321	N232	0.699270	0.717930	0.921170
C1691	C169	0.435170	0.074930	0.849710
H1691	H169	0.474470	0.022530	0.847030
C1701	C170	0.309570	0.143430	0.859810
H1701	H170	0.245370	0.145930	0.865430
C1711	C171	0.178870	0.790730	0.862850
H1711	H171	0.129870	0.769930	0.855030
C1721	C172	0.324470	0.904430	0.878200
H1721	H172	0.394570	0.975630	0.883030
C1731	C173	0.064270	0.687330	0.906180
H1731	H173	0.047470	0.704630	0.897730
C1741	C174	0.826070	0.750130	0.923530
H1741	H174	0.886070	0.820130	0.929130
N2331	N233	0.132030	0.527770	0.178600
N2341	N234	0.052430	0.573070	0.184990
N2351	N235	0.003430	0.371470	0.192330
N2361	N236	0.947330	0.251770	0.199730
N2371	N237	0.826330	0.035470	0.205190
N2381	N238	0.920730	0.110270	0.215100
N2391	N239	0.837530	0.012270	0.243370
N2401	N240	0.365930	0.051270	0.254510
C1751	C175	0.101830	0.408270	0.183050
H1751	H175	0.141130	0.355870	0.180370
C1761	C176	0.976230	0.476770	0.193150
H1761	H176	0.912030	0.479270	0.198770
C1771	C177	0.845530	0.124070	0.196190
H1771	H177	0.796530	0.103270	0.188370
C1781	C178	0.991130	0.237770	0.211540
H1781	H178	0.061230	0.308970	0.216370
C1791	C179	0.730930	0.020670	0.239520
H1791	H179	0.714130	0.037970	0.231070
C1801	C180	0.492730	0.083470	0.256870
H1801	H180	0.552730	0.153470	0.262470
N2411	N241	0.062400	0.201300	0.511930
N2421	N242	0.187300	0.280900	0.518320
N2431	N243	0.034700	0.329900	0.525660
N2441	N244	0.971100	0.386000	0.533060
N2451	N245	0.875800	0.507000	0.538520
N2461	N246	0.856200	0.412600	0.548430
N2471	N247	0.841400	0.495800	0.576700
N2481	N248	0.352000	0.967400	0.587840
C1811	C181	0.973100	0.231500	0.516380
H1811	H181	0.881400	0.192200	0.513700
C1821	C182	0.167200	0.357100	0.526480
H1821	H182	0.233900	0.421300	0.532100
C1831	C183	0.945200	0.487800	0.529520
H1831	H183	0.973400	0.536800	0.521700
C1841	C184	0.913300	0.342200	0.544870
H1841	H184	0.914400	0.272100	0.549700
C1851	C185	0.956400	0.602400	0.572850
H1851	H185	0.990500	0.619200	0.564400
C1861	C186	0.257400	0.840600	0.590200
H1861	H186	0.267400	0.780600	0.595800
N2491	N249	0.729070	0.534630	0.845260
N2501	N250	0.853970	0.614230	0.851650
N2511	N251	0.701370	0.663230	0.858990
N2521	N252	0.637770	0.719330	0.866390
N2531	N253	0.542470	0.840330	0.871850
N2541	N254	0.522870	0.745930	0.881760
N2551	N255	0.508070	0.829130	0.910030
N2561	N256	0.018670	0.300730	0.921170
C1871	C187	0.639770	0.564830	0.849710
H1871	H187	0.548070	0.525530	0.847030
C1881	C188	0.833870	0.690430	0.859810
H1881	H188	0.900570	0.754630	0.865430
C1891	C189	0.611870	0.821130	0.862850
H1891	H189	0.640070	0.870130	0.855030
C1901	C190	0.579970	0.675530	0.878200
H1901	H190	0.581070	0.605430	0.883030
C1911	C191	0.623070	0.935730	0.906180
H1911	H191	0.657170	0.952530	0.897730
C1921	C192	0.924070	0.173930	0.923530
H1921	H192	0.934070	0.113930	0.929130
N2571	N257	0.395730	0.867970	0.178600
N2581	N258	0.520630	0.947570	0.184990
N2591	N259	0.368030	0.996570	0.192330
N2601	N260	0.304430	0.052670	0.199730
N2611	N261	0.209130	0.173670	0.205190
N2621	N262	0.189530	0.079270	0.215100
N2631	N263	0.174730	0.162470	0.243370
N2641	N264	0.685330	0.634070	0.254510
C1931	C193	0.306430	0.898170	0.183050
H1931	H193	0.214730	0.858870	0.180370
C1941	C194	0.500530	0.023770	0.193150
H1941	H194	0.567230	0.087970	0.198770
C1951	C195	0.278530	0.154470	0.196190
H1951	H195	0.306730	0.203470	0.188370
C1961	C196	0.246630	0.008870	0.211540
H1961	H196	0.247730	0.938770	0.216370
C1971	C197	0.289730	0.269070	0.239520
H1971	H197	0.323830	0.285870	0.231070
C1981	C198	0.590730	0.507270	0.256870
H1981	H198	0.600730	0.447270	0.262470
N2651	N265	0.138900	0.937600	0.511930
N2661	N266	0.093600	0.812700	0.518320
N2671	N267	0.295200	0.965300	0.525660
N2681	N268	0.414900	0.028900	0.533060
N2691	N269	0.631200	0.124200	0.538520
N2701	N270	0.556400	0.143800	0.548430
N2711	N271	0.654400	0.158600	0.576700
N2721	N272	0.615400	0.648000	0.587840
C1991	C199	0.258400	0.026900	0.516380
H1991	H199	0.310800	0.118600	0.513700
C2001	C200	0.189900	0.832800	0.526480
H2001	H200	0.187400	0.766100	0.532100
C2011	C201	0.542600	0.054800	0.529520
H2011	H201	0.563400	0.026600	0.521700
C2021	C202	0.428900	0.086700	0.544870
H2021	H202	0.357700	0.085600	0.549700
C2031	C203	0.646000	0.043600	0.572850
H2031	H203	0.628700	0.009500	0.564400
C2041	C204	0.583200	0.742600	0.590200
H2041	H204	0.513200	0.732600	0.595800
N2731	N273	0.805570	0.270930	0.845260
N2741	N274	0.760270	0.146030	0.851650
N2751	N275	0.961870	0.298630	0.858990
N2761	N276	0.081570	0.362230	0.866390
N2771	N277	0.297870	0.457530	0.871850
N2781	N278	0.223070	0.477130	0.881760
N2791	N279	0.321070	0.491930	0.910030
N2801	N280	0.282070	0.981330	0.921170
C2051	C205	0.925070	0.360230	0.849710
H2051	H205	0.977470	0.451930	0.847030
C2061	C206	0.856570	0.166130	0.859810
H2061	H206	0.854070	0.099430	0.865430
C2071	C207	0.209270	0.388130	0.862850
H2071	H207	0.230070	0.359930	0.855030
C2081	C208	0.095570	0.420030	0.878200
H2081	H208	0.024370	0.418930	0.883030
C2091	C209	0.312670	0.376930	0.906180
H2091	H209	0.295370	0.342830	0.897730
C2101	C210	0.249870	0.075930	0.923530
H2101	H210	0.179870	0.065930	0.929130
N2811	N281	0.472230	0.604270	0.178600
N2821	N282	0.426930	0.479370	0.184990
N2831	N283	0.628530	0.631970	0.192330
N2841	N284	0.748230	0.695570	0.199730
N2851	N285	0.964530	0.790870	0.205190
N2861	N286	0.889730	0.810470	0.215100
N2871	N287	0.987730	0.825270	0.243370
N2881	N288	0.948730	0.314670	0.254510
C2111	C211	0.591730	0.693570	0.183050
H2111	H211	0.644130	0.785270	0.180370
C2121	C212	0.523230	0.499470	0.193150
H2121	H212	0.520730	0.432770	0.198770
C2131	C213	0.875930	0.721470	0.196190
H2131	H213	0.896730	0.693270	0.188370
C2141	C214	0.762230	0.753370	0.211540
H2141	H214	0.691030	0.752270	0.216370
C2151	C215	0.979330	0.710270	0.239520
H2151	H215	0.962030	0.676170	0.231070
C2161	C216	0.916530	0.409270	0.256870
H2161	H216	0.846530	0.399270	0.262470
Cd11	Cd1	0.000000	0.000000	0.000000
Cd21	Cd2	0.666670	0.333330	0.333330
Cd31	Cd3	0.333330	0.666670	0.666670
Cd41	Cd4	0.000000	0.000000	0.500000
Cd51	Cd5	0.666670	0.333330	0.833330
Cd61	Cd6	0.333330	0.666670	0.166670
Cd71	Cd7	0.666670	0.333330	0.063130
Cd81	Cd8	0.333330	0.666670	0.396470
Cd91	Cd9	0.000000	0.000000	0.729800
Cd101	Cd10	0.333330	0.666670	0.436870
Cd111	Cd11	0.000000	0.000000	0.770200
Cd121	Cd12	0.666670	0.333330	0.103530
Cd131	Cd13	0.333330	0.666670	0.936870
Cd141	Cd14	0.000000	0.000000	0.270200
Cd151	Cd15	0.666670	0.333330	0.603530
Cd161	Cd16	0.666670	0.333330	0.563130
Cd171	Cd17	0.333330	0.666670	0.896470
Cd181	Cd18	0.000000	0.000000	0.229800
N2891	N289	0.666670	0.685280	0.083330
N2901	N290	0.666670	0.808780	0.083330
N2911	N291	0.314720	0.981380	0.083330
N2921	N292	0.191220	0.857880	0.083330
N2931	N293	0.018620	0.333330	0.083330
N2941	N294	0.142120	0.333330	0.083330
N2951	N295	0.685280	0.666670	0.416670
N2961	N296	0.808780	0.666670	0.416670
N2971	N297	0.351950	0.000000	0.750000
N2981	N298	0.475450	0.000000	0.750000
N2991	N299	0.981380	0.314720	0.416670
N3001	N300	0.857880	0.191220	0.416670
N3011	N301	0.648050	0.648050	0.750000
N3021	N302	0.524550	0.524550	0.750000
N3031	N303	0.333330	0.018620	0.416670
N3041	N304	0.333330	0.142120	0.416670
N3051	N305	0.000000	0.351950	0.750000
N3061	N306	0.000000	0.475450	0.750000
N3071	N307	0.333330	0.314720	0.916670
N3081	N308	0.333330	0.191220	0.916670
N3091	N309	0.000000	0.648050	0.250000
N3101	N310	0.000000	0.524550	0.250000
N3111	N311	0.685280	0.018620	0.916670
N3121	N312	0.808780	0.142120	0.916670
N3131	N313	0.351950	0.351950	0.250000
N3141	N314	0.475450	0.475450	0.250000
N3151	N315	0.981380	0.666670	0.916670
N3161	N316	0.857880	0.666670	0.916670
N3171	N317	0.648050	0.000000	0.250000
N3181	N318	0.524550	0.000000	0.250000
N3191	N319	0.314720	0.333330	0.583330
N3201	N320	0.191220	0.333330	0.583330
N3211	N321	0.018620	0.685280	0.583330
N3221	N322	0.142120	0.808780	0.583330
N3231	N323	0.666670	0.981380	0.583330
N3241	N324	0.666670	0.857880	0.583330
