data_KOMGID_freeONLY_PM
_symmetry_space_group_name_H-M	'P1'
_cell_length_a	12.747100
_cell_length_b	12.747100
_cell_length_c	22.545000
_cell_angle_alpha	90.000000
_cell_angle_beta	90.000000
_cell_angle_gamma	90.000000
_symmetry_Int_Tables_number 1

loop_
_symmetry_equiv_pos_as_xyz
'x,y,z'

loop_
_atom_site_label
_atom_site_type_symbol
_atom_site_fract_x
_atom_site_fract_y
_atom_site_fract_z
H11	H1	0.041400	0.040200	0.880000
N11	N1	0.129800	0.126100	0.994100
N21	N2	0.111500	0.214300	0.958770
N31	N3	0.253300	0.238400	0.009520
N41	N4	0.341000	0.286000	0.033310
N51	N5	0.501500	0.335600	0.046770
N61	N6	0.437000	0.386900	0.087350
N71	N7	0.347300	0.605700	0.163500
N81	N8	0.254800	0.579800	0.135800
N91	N9	0.231900	0.722400	0.185100
N101	N10	0.186700	0.812200	0.209330
N111	N11	0.100700	0.914100	0.267110
N121	N12	0.152800	0.976400	0.226600
C11	C1	0.214900	0.143500	0.024800
H21	H2	0.244100	0.098200	0.052600
C21	C2	0.187100	0.279300	0.968400
H31	H3	0.195100	0.344100	0.950100
C31	C3	0.441500	0.277700	0.015130
H41	H4	0.464100	0.235600	0.983900
C41	C4	0.341500	0.356400	0.078550
H51	H5	0.283000	0.378900	0.099600
C51	C5	0.187900	0.651400	0.148900
H61	H6	0.119100	0.653700	0.135200
C61	C6	0.331600	0.691400	0.193200
H71	H7	0.381300	0.725700	0.216400
C71	C7	0.204700	0.911600	0.192600
H81	H8	0.247800	0.931500	0.161400
C81	C8	0.121500	0.816400	0.256300
H91	H9	0.095700	0.759100	0.277300
H101	H10	0.541400	0.540200	0.380000
N131	N13	0.629800	0.626100	0.494100
N141	N14	0.611500	0.714300	0.458770
N151	N15	0.753300	0.738400	0.509520
N161	N16	0.841000	0.786000	0.533310
N171	N17	0.001500	0.835600	0.546770
N181	N18	0.937000	0.886900	0.587350
N191	N19	0.847300	0.105700	0.663500
N201	N20	0.754800	0.079800	0.635800
N211	N21	0.731900	0.222400	0.685100
N221	N22	0.686700	0.312200	0.709330
N231	N23	0.600700	0.414100	0.767110
N241	N24	0.652800	0.476400	0.726600
C91	C9	0.714900	0.643500	0.524800
H111	H11	0.744100	0.598200	0.552600
C101	C10	0.687100	0.779300	0.468400
H121	H12	0.695100	0.844100	0.450100
C111	C11	0.941500	0.777700	0.515130
H131	H13	0.964100	0.735600	0.483900
C121	C12	0.841500	0.856400	0.578550
H141	H14	0.783000	0.878900	0.599600
C131	C13	0.687900	0.151400	0.648900
H151	H15	0.619100	0.153700	0.635200
C141	C14	0.831600	0.191400	0.693200
H161	H16	0.881300	0.225700	0.716400
C151	C15	0.704700	0.411600	0.692600
H171	H17	0.747800	0.431500	0.661400
C161	C16	0.621500	0.316400	0.756300
H181	H18	0.595700	0.259100	0.777300
H191	H19	0.958600	0.959800	0.880000
N251	N25	0.870200	0.873900	0.994100
N261	N26	0.888500	0.785700	0.958770
N271	N27	0.746700	0.761600	0.009520
N281	N28	0.659000	0.714000	0.033310
N291	N29	0.498500	0.664400	0.046770
N301	N30	0.563000	0.613100	0.087350
N311	N31	0.652700	0.394300	0.163500
N321	N32	0.745200	0.420200	0.135800
N331	N33	0.768100	0.277600	0.185100
N341	N34	0.813300	0.187800	0.209330
N351	N35	0.899300	0.085900	0.267110
N361	N36	0.847200	0.023600	0.226600
C171	C17	0.785100	0.856500	0.024800
H201	H20	0.755900	0.901800	0.052600
C181	C18	0.812900	0.720700	0.968400
H211	H21	0.804900	0.655900	0.950100
C191	C19	0.558500	0.722300	0.015130
H221	H22	0.535900	0.764400	0.983900
C201	C20	0.658500	0.643600	0.078550
H231	H23	0.717000	0.621100	0.099600
C211	C21	0.812100	0.348600	0.148900
H241	H24	0.880900	0.346300	0.135200
C221	C22	0.668400	0.308600	0.193200
H251	H25	0.618700	0.274300	0.216400
C231	C23	0.795300	0.088400	0.192600
H261	H26	0.752200	0.068500	0.161400
C241	C24	0.878500	0.183600	0.256300
H271	H27	0.904300	0.240900	0.277300
H281	H28	0.458600	0.459800	0.380000
N371	N37	0.370200	0.373900	0.494100
N381	N38	0.388500	0.285700	0.458770
N391	N39	0.246700	0.261600	0.509520
N401	N40	0.159000	0.214000	0.533310
N411	N41	0.998500	0.164400	0.546770
N421	N42	0.063000	0.113100	0.587350
N431	N43	0.152700	0.894300	0.663500
N441	N44	0.245200	0.920200	0.635800
N451	N45	0.268100	0.777600	0.685100
N461	N46	0.313300	0.687800	0.709330
N471	N47	0.399300	0.585900	0.767110
N481	N48	0.347200	0.523600	0.726600
C251	C25	0.285100	0.356500	0.524800
H291	H29	0.255900	0.401800	0.552600
C261	C26	0.312900	0.220700	0.468400
H301	H30	0.304900	0.155900	0.450100
C271	C27	0.058500	0.222300	0.515130
H311	H31	0.035900	0.264400	0.483900
C281	C28	0.158500	0.143600	0.578550
H321	H32	0.217000	0.121100	0.599600
C291	C29	0.312100	0.848600	0.648900
H331	H33	0.380900	0.846300	0.635200
C301	C30	0.168400	0.808600	0.693200
H341	H34	0.118700	0.774300	0.716400
C311	C31	0.295300	0.588400	0.692600
H351	H35	0.252200	0.568500	0.661400
C321	C32	0.378500	0.683600	0.756300
H361	H36	0.404300	0.740900	0.777300
H371	H37	0.040200	0.958600	0.120000
N491	N49	0.126100	0.870200	0.005900
N501	N50	0.214300	0.888500	0.041230
N511	N51	0.238400	0.746700	0.990480
N521	N52	0.286000	0.659000	0.966690
N531	N53	0.335600	0.498500	0.953230
N541	N54	0.386900	0.563000	0.912650
N551	N55	0.605700	0.652700	0.836500
N561	N56	0.579800	0.745200	0.864200
N571	N57	0.722400	0.768100	0.814900
N581	N58	0.812200	0.813300	0.790670
N591	N59	0.914100	0.899300	0.732890
N601	N60	0.976400	0.847200	0.773400
C331	C33	0.143500	0.785100	0.975200
H381	H38	0.098200	0.755900	0.947400
C341	C34	0.279300	0.812900	0.031600
H391	H39	0.344100	0.804900	0.049900
C351	C35	0.277700	0.558500	0.984870
H401	H40	0.235600	0.535900	0.016100
C361	C36	0.356400	0.658500	0.921450
H411	H41	0.378900	0.717000	0.900400
C371	C37	0.651400	0.812100	0.851100
H421	H42	0.653700	0.880900	0.864800
C381	C38	0.691400	0.668400	0.806800
H431	H43	0.725700	0.618700	0.783600
C391	C39	0.911600	0.795300	0.807400
H441	H44	0.931500	0.752200	0.838600
C401	C40	0.816400	0.878500	0.743700
H451	H45	0.759100	0.904300	0.722700
H461	H46	0.540200	0.458600	0.620000
N611	N61	0.626100	0.370200	0.505900
N621	N62	0.714300	0.388500	0.541230
N631	N63	0.738400	0.246700	0.490480
N641	N64	0.786000	0.159000	0.466690
N651	N65	0.835600	0.998500	0.453230
N661	N66	0.886900	0.063000	0.412650
N671	N67	0.105700	0.152700	0.336500
N681	N68	0.079800	0.245200	0.364200
N691	N69	0.222400	0.268100	0.314900
N701	N70	0.312200	0.313300	0.290670
N711	N71	0.414100	0.399300	0.232890
N721	N72	0.476400	0.347200	0.273400
C411	C41	0.643500	0.285100	0.475200
H471	H47	0.598200	0.255900	0.447400
C421	C42	0.779300	0.312900	0.531600
H481	H48	0.844100	0.304900	0.549900
C431	C43	0.777700	0.058500	0.484870
H491	H49	0.735600	0.035900	0.516100
C441	C44	0.856400	0.158500	0.421450
H501	H50	0.878900	0.217000	0.400400
C451	C45	0.151400	0.312100	0.351100
H511	H51	0.153700	0.380900	0.364800
C461	C46	0.191400	0.168400	0.306800
H521	H52	0.225700	0.118700	0.283600
C471	C47	0.411600	0.295300	0.307400
H531	H53	0.431500	0.252200	0.338600
C481	C48	0.316400	0.378500	0.243700
H541	H54	0.259100	0.404300	0.222700
H551	H55	0.959800	0.041400	0.120000
N731	N73	0.873900	0.129800	0.005900
N741	N74	0.785700	0.111500	0.041230
N751	N75	0.761600	0.253300	0.990480
N761	N76	0.714000	0.341000	0.966690
N771	N77	0.664400	0.501500	0.953230
N781	N78	0.613100	0.437000	0.912650
N791	N79	0.394300	0.347300	0.836500
N801	N80	0.420200	0.254800	0.864200
N811	N81	0.277600	0.231900	0.814900
N821	N82	0.187800	0.186700	0.790670
N831	N83	0.085900	0.100700	0.732890
N841	N84	0.023600	0.152800	0.773400
C491	C49	0.856500	0.214900	0.975200
H561	H56	0.901800	0.244100	0.947400
C501	C50	0.720700	0.187100	0.031600
H571	H57	0.655900	0.195100	0.049900
C511	C51	0.722300	0.441500	0.984870
H581	H58	0.764400	0.464100	0.016100
C521	C52	0.643600	0.341500	0.921450
H591	H59	0.621100	0.283000	0.900400
C531	C53	0.348600	0.187900	0.851100
H601	H60	0.346300	0.119100	0.864800
C541	C54	0.308600	0.331600	0.806800
H611	H61	0.274300	0.381300	0.783600
C551	C55	0.088400	0.204700	0.807400
H621	H62	0.068500	0.247800	0.838600
C561	C56	0.183600	0.121500	0.743700
H631	H63	0.240900	0.095700	0.722700
H641	H64	0.459800	0.541400	0.620000
N851	N85	0.373900	0.629800	0.505900
N861	N86	0.285700	0.611500	0.541230
N871	N87	0.261600	0.753300	0.490480
N881	N88	0.214000	0.841000	0.466690
N891	N89	0.164400	0.001500	0.453230
N901	N90	0.113100	0.937000	0.412650
N911	N91	0.894300	0.847300	0.336500
N921	N92	0.920200	0.754800	0.364200
N931	N93	0.777600	0.731900	0.314900
N941	N94	0.687800	0.686700	0.290670
N951	N95	0.585900	0.600700	0.232890
N961	N96	0.523600	0.652800	0.273400
C571	C57	0.356500	0.714900	0.475200
H651	H65	0.401800	0.744100	0.447400
C581	C58	0.220700	0.687100	0.531600
H661	H66	0.155900	0.695100	0.549900
C591	C59	0.222300	0.941500	0.484870
H671	H67	0.264400	0.964100	0.516100
C601	C60	0.143600	0.841500	0.421450
H681	H68	0.121100	0.783000	0.400400
C611	C61	0.848600	0.687900	0.351100
H691	H69	0.846300	0.619100	0.364800
C621	C62	0.808600	0.831600	0.306800
H701	H70	0.774300	0.881300	0.283600
C631	C63	0.588400	0.704700	0.307400
H711	H71	0.568500	0.747800	0.338600
C641	C64	0.683600	0.621500	0.243700
H721	H72	0.740900	0.595700	0.222700
Cd11	Cd1	0.000000	0.000000	0.000000
Cd21	Cd2	0.500000	0.500000	0.500000
Cd31	Cd3	0.500000	0.500000	0.160420
Cd41	Cd4	0.000000	0.000000	0.660420
Cd51	Cd5	0.500000	0.500000	0.839580
Cd61	Cd6	0.000000	0.000000	0.339580
O11	O1	0.000000	0.000000	0.898850
O21	O2	0.500000	0.500000	0.398850
O31	O3	0.000000	0.000000	0.101150
O41	O4	0.500000	0.500000	0.601150
