data_KOMHAW_freeONLY_PM
_symmetry_space_group_name_H-M	'P1'
_cell_length_a	9.043600
_cell_length_b	9.730800
_cell_length_c	17.391600
_cell_angle_alpha	94.430900
_cell_angle_beta	105.070000
_cell_angle_gamma	90.000000
_symmetry_Int_Tables_number 1

loop_
_symmetry_equiv_pos_as_xyz
'x,y,z'

loop_
_atom_site_label
_atom_site_type_symbol
_atom_site_fract_x
_atom_site_fract_y
_atom_site_fract_z
Zn11	Zn1	0.781660	0.759610	0.164260
Zn21	Zn2	0.966590	0.553040	0.342920
Zn31	Zn3	0.617400	0.740390	0.835740
Zn41	Zn4	0.623670	0.946960	0.657080
Zn51	Zn5	0.218340	0.240390	0.835740
Zn61	Zn6	0.033410	0.446960	0.657080
Zn71	Zn7	0.382600	0.259610	0.164260
Zn81	Zn8	0.376330	0.053040	0.342920
H11	H1	0.479900	0.640000	0.069200
H21	H2	0.379200	0.518000	0.067400
H31	H3	0.132200	0.047600	0.184200
H41	H4	0.992000	0.967900	0.138800
H51	H5	0.698300	0.334800	0.282000
H61	H6	0.226700	0.789000	0.399400
H71	H7	0.410700	0.860000	0.930800
H81	H8	0.311800	0.982000	0.932600
H91	H9	0.948000	0.452400	0.815800
H101	H10	0.853200	0.532100	0.861200
H111	H11	0.416300	0.165200	0.718000
H121	H12	0.827300	0.711000	0.600600
H131	H13	0.520100	0.360000	0.930800
H141	H14	0.620800	0.482000	0.932600
H151	H15	0.867800	0.952400	0.815800
H161	H16	0.008000	0.032100	0.861200
H171	H17	0.301700	0.665200	0.718000
H181	H18	0.773300	0.211000	0.600600
H191	H19	0.589300	0.140000	0.069200
H201	H20	0.688200	0.018000	0.067400
H211	H21	0.052000	0.547600	0.184200
H221	H22	0.146800	0.467900	0.138800
H231	H23	0.583700	0.834800	0.282000
H241	H24	0.172700	0.289000	0.399400
C11	C1	0.567400	0.518900	0.152200
C21	C2	0.677250	0.403400	0.246500
C31	C3	0.083940	0.896600	0.241880
C41	C4	0.166480	0.806800	0.349160
C51	C5	0.931740	0.451200	0.486480
C61	C6	0.415200	0.981100	0.847800
C71	C7	0.430750	0.096600	0.753500
C81	C8	0.842060	0.603400	0.758120
C91	C9	0.817320	0.693200	0.650840
C101	C10	0.445260	0.048800	0.513520
C111	C11	0.432600	0.481100	0.847800
C121	C12	0.322750	0.596600	0.753500
C131	C13	0.916060	0.103400	0.758120
C141	C14	0.833520	0.193200	0.650840
C151	C15	0.068260	0.548800	0.513520
C161	C16	0.584800	0.018900	0.152200
C171	C17	0.569250	0.903400	0.246500
C181	C18	0.157940	0.396600	0.241880
C191	C19	0.182680	0.306800	0.349160
C201	C20	0.554740	0.951200	0.486480
C211	C21	0.736800	0.750000	0.000000
C221	C22	0.263200	0.250000	0.000000
N11	N1	0.698880	0.584100	0.188360
N21	N2	0.768490	0.506900	0.250580
N31	N3	0.549130	0.403500	0.186460
N41	N4	0.462590	0.564600	0.088380
N51	N5	0.988070	0.793400	0.240940
N61	N6	0.044130	0.733800	0.311260
N71	N7	0.196280	0.910400	0.307960
N81	N8	0.067330	0.981200	0.180660
N91	N9	0.510520	0.915900	0.811640
N101	N10	0.517910	0.993100	0.749420
N111	N11	0.362670	0.096500	0.813540
N121	N12	0.374210	0.935400	0.911620
N131	N13	0.747130	0.706600	0.759060
N141	N14	0.732870	0.766200	0.688740
N151	N15	0.888320	0.589600	0.692040
N161	N16	0.886670	0.518800	0.819340
N171	N17	0.301120	0.415900	0.811640
N181	N18	0.231510	0.493100	0.749420
N191	N19	0.450870	0.596500	0.813540
N201	N20	0.537410	0.435400	0.911620
N211	N21	0.011930	0.206600	0.759060
N221	N22	0.955870	0.266200	0.688740
N231	N23	0.803720	0.089600	0.692040
N241	N24	0.932670	0.018800	0.819340
N251	N25	0.489480	0.084100	0.188360
N261	N26	0.482090	0.006900	0.250580
N271	N27	0.637330	0.903500	0.186460
N281	N28	0.625790	0.064600	0.088380
N291	N29	0.252870	0.293400	0.240940
N301	N30	0.267130	0.233800	0.311260
N311	N31	0.111680	0.410400	0.307960
N321	N32	0.113330	0.481200	0.180660
O11	O1	0.842550	0.759200	0.065700
O21	O2	0.877470	0.424400	0.413740
O31	O3	0.887030	0.397500	0.540060
O41	O4	0.776850	0.740800	0.934300
O51	O5	0.463730	0.075600	0.586260
O61	O6	0.346970	0.102500	0.459940
O71	O7	0.157450	0.240800	0.934300
O81	O8	0.122530	0.575600	0.586260
O91	O9	0.112970	0.602500	0.459940
O101	O10	0.223150	0.259200	0.065700
O111	O11	0.536270	0.924400	0.413740
O121	O12	0.653030	0.897500	0.540060
O131	O13	0.598000	0.750000	0.000000
O141	O14	0.402000	0.250000	0.000000
