data_KOMJON_freeONLY_PM
_symmetry_space_group_name_H-M	'P1'
_cell_length_a	26.160000
_cell_length_b	26.160000
_cell_length_c	26.160000
_cell_angle_alpha	90.000000
_cell_angle_beta	90.000000
_cell_angle_gamma	90.000000
_symmetry_Int_Tables_number 1

loop_
_symmetry_equiv_pos_as_xyz
'x,y,z'

loop_
_atom_site_label
_atom_site_type_symbol
_atom_site_fract_x
_atom_site_fract_y
_atom_site_fract_z
O11	O1	0.014100	0.416900	0.977300
O21	O2	0.008900	0.334300	0.969900
C11	C1	0.008700	0.373300	0.998700
C21	C2	0.003400	0.367200	0.054200
H11	H1	0.032800	0.381900	0.071400
H21	H2	0.973000	0.384800	0.066000
O31	O3	0.014100	0.916900	0.477300
O41	O4	0.008900	0.834300	0.469900
C31	C3	0.008700	0.873300	0.498700
C41	C4	0.003400	0.867200	0.554200
H31	H3	0.032800	0.881900	0.571400
H41	H4	0.973000	0.884800	0.566000
O51	O5	0.514100	0.416900	0.477300
O61	O6	0.508900	0.334300	0.469900
C51	C5	0.508700	0.373300	0.498700
C61	C6	0.503400	0.367200	0.554200
H51	H5	0.532800	0.381900	0.571400
H61	H6	0.473000	0.384800	0.566000
O71	O7	0.514100	0.916900	0.977300
O81	O8	0.508900	0.834300	0.969900
C71	C7	0.508700	0.873300	0.998700
C81	C8	0.503400	0.867200	0.054200
H71	H7	0.532800	0.881900	0.071400
H81	H8	0.473000	0.884800	0.066000
O91	O9	0.235900	0.333100	0.477300
O101	O10	0.241100	0.415700	0.469900
C91	C9	0.241300	0.376700	0.498700
C101	C10	0.246600	0.382800	0.554200
H91	H9	0.217200	0.368100	0.571400
H101	H10	0.277000	0.365200	0.566000
O111	O11	0.235900	0.833100	0.977300
O121	O12	0.241100	0.915700	0.969900
C111	C11	0.241300	0.876700	0.998700
C121	C12	0.246600	0.882800	0.054200
H111	H11	0.217200	0.868100	0.071400
H121	H12	0.277000	0.865200	0.066000
O131	O13	0.735900	0.333100	0.977300
O141	O14	0.741100	0.415700	0.969900
C131	C13	0.741300	0.376700	0.998700
C141	C14	0.746600	0.382800	0.054200
H131	H13	0.717200	0.368100	0.071400
H141	H14	0.777000	0.365200	0.066000
O151	O15	0.735900	0.833100	0.477300
O161	O16	0.741100	0.915700	0.469900
C151	C15	0.741300	0.876700	0.498700
C161	C16	0.746600	0.882800	0.554200
H151	H15	0.717200	0.868100	0.571400
H161	H16	0.777000	0.865200	0.566000
O171	O17	0.735900	0.916900	0.272700
O181	O18	0.741100	0.834300	0.280100
C171	C17	0.741300	0.873300	0.251300
C181	C18	0.746600	0.867200	0.195800
H171	H17	0.717200	0.881900	0.178600
H181	H18	0.777000	0.884800	0.184000
O191	O19	0.735900	0.416900	0.772700
O201	O20	0.741100	0.334300	0.780100
C191	C19	0.741300	0.373300	0.751300
C201	C20	0.746600	0.367200	0.695800
H191	H19	0.717200	0.381900	0.678600
H201	H20	0.777000	0.384800	0.684000
O211	O21	0.235900	0.916900	0.772700
O221	O22	0.241100	0.834300	0.780100
C211	C21	0.241300	0.873300	0.751300
C221	C22	0.246600	0.867200	0.695800
H211	H21	0.217200	0.881900	0.678600
H221	H22	0.277000	0.884800	0.684000
O231	O23	0.235900	0.416900	0.272700
O241	O24	0.241100	0.334300	0.280100
C231	C23	0.241300	0.373300	0.251300
C241	C24	0.246600	0.367200	0.195800
H231	H23	0.217200	0.381900	0.178600
H241	H24	0.277000	0.384800	0.184000
O251	O25	0.514100	0.833100	0.772700
O261	O26	0.508900	0.915700	0.780100
C251	C25	0.508700	0.876700	0.751300
C261	C26	0.503400	0.882800	0.695800
H251	H25	0.532800	0.868100	0.678600
H261	H26	0.473000	0.865200	0.684000
O271	O27	0.514100	0.333100	0.272700
O281	O28	0.508900	0.415700	0.280100
C271	C27	0.508700	0.376700	0.251300
C281	C28	0.503400	0.382800	0.195800
H271	H27	0.532800	0.368100	0.178600
H281	H28	0.473000	0.365200	0.184000
O291	O29	0.014100	0.833100	0.272700
O301	O30	0.008900	0.915700	0.280100
C291	C29	0.008700	0.876700	0.251300
C301	C30	0.003400	0.882800	0.195800
H291	H29	0.032800	0.868100	0.178600
H301	H30	0.973000	0.865200	0.184000
O311	O31	0.014100	0.333100	0.772700
O321	O32	0.008900	0.415700	0.780100
C311	C31	0.008700	0.376700	0.751300
C321	C32	0.003400	0.382800	0.695800
H311	H31	0.032800	0.368100	0.678600
H321	H32	0.973000	0.365200	0.684000
O331	O33	0.977300	0.014100	0.416900
O341	O34	0.969900	0.008900	0.334300
C331	C33	0.998700	0.008700	0.373300
C341	C34	0.054200	0.003400	0.367200
H331	H33	0.071400	0.032800	0.381900
H341	H34	0.066000	0.973000	0.384800
O351	O35	0.977300	0.514100	0.916900
O361	O36	0.969900	0.508900	0.834300
C351	C35	0.998700	0.508700	0.873300
C361	C36	0.054200	0.503400	0.867200
H351	H35	0.071400	0.532800	0.881900
H361	H36	0.066000	0.473000	0.884800
O371	O37	0.477300	0.014100	0.916900
O381	O38	0.469900	0.008900	0.834300
C371	C37	0.498700	0.008700	0.873300
C381	C38	0.554200	0.003400	0.867200
H371	H37	0.571400	0.032800	0.881900
H381	H38	0.566000	0.973000	0.884800
O391	O39	0.477300	0.514100	0.416900
O401	O40	0.469900	0.508900	0.334300
C391	C39	0.498700	0.508700	0.373300
C401	C40	0.554200	0.503400	0.367200
H391	H39	0.571400	0.532800	0.381900
H401	H40	0.566000	0.473000	0.384800
O411	O41	0.477300	0.235900	0.333100
O421	O42	0.469900	0.241100	0.415700
C411	C41	0.498700	0.241300	0.376700
C421	C42	0.554200	0.246600	0.382800
H411	H41	0.571400	0.217200	0.368100
H421	H42	0.566000	0.277000	0.365200
O431	O43	0.477300	0.735900	0.833100
O441	O44	0.469900	0.741100	0.915700
C431	C43	0.498700	0.741300	0.876700
C441	C44	0.554200	0.746600	0.882800
H431	H43	0.571400	0.717200	0.868100
H441	H44	0.566000	0.777000	0.865200
O451	O45	0.977300	0.235900	0.833100
O461	O46	0.969900	0.241100	0.915700
C451	C45	0.998700	0.241300	0.876700
C461	C46	0.054200	0.246600	0.882800
H451	H45	0.071400	0.217200	0.868100
H461	H46	0.066000	0.277000	0.865200
O471	O47	0.977300	0.735900	0.333100
O481	O48	0.969900	0.741100	0.415700
C471	C47	0.998700	0.741300	0.376700
C481	C48	0.054200	0.746600	0.382800
H471	H47	0.071400	0.717200	0.368100
H481	H48	0.066000	0.777000	0.365200
O491	O49	0.272700	0.735900	0.916900
O501	O50	0.280100	0.741100	0.834300
C491	C49	0.251300	0.741300	0.873300
C501	C50	0.195800	0.746600	0.867200
H491	H49	0.178600	0.717200	0.881900
H501	H50	0.184000	0.777000	0.884800
O511	O51	0.272700	0.235900	0.416900
O521	O52	0.280100	0.241100	0.334300
C511	C51	0.251300	0.241300	0.373300
C521	C52	0.195800	0.246600	0.367200
H511	H51	0.178600	0.217200	0.381900
H521	H52	0.184000	0.277000	0.384800
O531	O53	0.772700	0.735900	0.416900
O541	O54	0.780100	0.741100	0.334300
C531	C53	0.751300	0.741300	0.373300
C541	C54	0.695800	0.746600	0.367200
H531	H53	0.678600	0.717200	0.381900
H541	H54	0.684000	0.777000	0.384800
O551	O55	0.772700	0.235900	0.916900
O561	O56	0.780100	0.241100	0.834300
C551	C55	0.751300	0.241300	0.873300
C561	C56	0.695800	0.246600	0.867200
H551	H55	0.678600	0.217200	0.881900
H561	H56	0.684000	0.277000	0.884800
O571	O57	0.772700	0.514100	0.833100
O581	O58	0.780100	0.508900	0.915700
C571	C57	0.751300	0.508700	0.876700
C581	C58	0.695800	0.503400	0.882800
H571	H57	0.678600	0.532800	0.868100
H581	H58	0.684000	0.473000	0.865200
O591	O59	0.772700	0.014100	0.333100
O601	O60	0.780100	0.008900	0.415700
C591	C59	0.751300	0.008700	0.376700
C601	C60	0.695800	0.003400	0.382800
H591	H59	0.678600	0.032800	0.368100
H601	H60	0.684000	0.973000	0.365200
O611	O61	0.272700	0.514100	0.333100
O621	O62	0.280100	0.508900	0.415700
C611	C61	0.251300	0.508700	0.376700
C621	C62	0.195800	0.503400	0.382800
H611	H61	0.178600	0.532800	0.368100
H621	H62	0.184000	0.473000	0.365200
O631	O63	0.272700	0.014100	0.833100
O641	O64	0.280100	0.008900	0.915700
C631	C63	0.251300	0.008700	0.876700
C641	C64	0.195800	0.003400	0.882800
H631	H63	0.178600	0.032800	0.868100
H641	H64	0.184000	0.973000	0.865200
O651	O65	0.416900	0.977300	0.014100
O661	O66	0.334300	0.969900	0.008900
C651	C65	0.373300	0.998700	0.008700
C661	C66	0.367200	0.054200	0.003400
H651	H65	0.381900	0.071400	0.032800
H661	H66	0.384800	0.066000	0.973000
O671	O67	0.416900	0.477300	0.514100
O681	O68	0.334300	0.469900	0.508900
C671	C67	0.373300	0.498700	0.508700
C681	C68	0.367200	0.554200	0.503400
H671	H67	0.381900	0.571400	0.532800
H681	H68	0.384800	0.566000	0.473000
O691	O69	0.916900	0.977300	0.514100
O701	O70	0.834300	0.969900	0.508900
C691	C69	0.873300	0.998700	0.508700
C701	C70	0.867200	0.054200	0.503400
H691	H69	0.881900	0.071400	0.532800
H701	H70	0.884800	0.066000	0.473000
O711	O71	0.916900	0.477300	0.014100
O721	O72	0.834300	0.469900	0.008900
C711	C71	0.873300	0.498700	0.008700
C721	C72	0.867200	0.554200	0.003400
H711	H71	0.881900	0.571400	0.032800
H721	H72	0.884800	0.566000	0.973000
O731	O73	0.333100	0.477300	0.235900
O741	O74	0.415700	0.469900	0.241100
C731	C73	0.376700	0.498700	0.241300
C741	C74	0.382800	0.554200	0.246600
H731	H73	0.368100	0.571400	0.217200
H741	H74	0.365200	0.566000	0.277000
O751	O75	0.333100	0.977300	0.735900
O761	O76	0.415700	0.969900	0.741100
C751	C75	0.376700	0.998700	0.741300
C761	C76	0.382800	0.054200	0.746600
H751	H75	0.368100	0.071400	0.717200
H761	H76	0.365200	0.066000	0.777000
O771	O77	0.833100	0.477300	0.735900
O781	O78	0.915700	0.469900	0.741100
C771	C77	0.876700	0.498700	0.741300
C781	C78	0.882800	0.554200	0.746600
H771	H77	0.868100	0.571400	0.717200
H781	H78	0.865200	0.566000	0.777000
O791	O79	0.833100	0.977300	0.235900
O801	O80	0.915700	0.969900	0.241100
C791	C79	0.876700	0.998700	0.241300
C801	C80	0.882800	0.054200	0.246600
H791	H79	0.868100	0.071400	0.217200
H801	H80	0.865200	0.066000	0.277000
O811	O81	0.916900	0.272700	0.735900
O821	O82	0.834300	0.280100	0.741100
C811	C81	0.873300	0.251300	0.741300
C821	C82	0.867200	0.195800	0.746600
H811	H81	0.881900	0.178600	0.717200
H821	H82	0.884800	0.184000	0.777000
O831	O83	0.916900	0.772700	0.235900
O841	O84	0.834300	0.780100	0.241100
C831	C83	0.873300	0.751300	0.241300
C841	C84	0.867200	0.695800	0.246600
H831	H83	0.881900	0.678600	0.217200
H841	H84	0.884800	0.684000	0.277000
O851	O85	0.416900	0.272700	0.235900
O861	O86	0.334300	0.280100	0.241100
C851	C85	0.373300	0.251300	0.241300
C861	C86	0.367200	0.195800	0.246600
H851	H85	0.381900	0.178600	0.217200
H861	H86	0.384800	0.184000	0.277000
O871	O87	0.416900	0.772700	0.735900
O881	O88	0.334300	0.780100	0.741100
C871	C87	0.373300	0.751300	0.741300
C881	C88	0.367200	0.695800	0.746600
H871	H87	0.381900	0.678600	0.717200
H881	H88	0.384800	0.684000	0.777000
O891	O89	0.833100	0.772700	0.514100
O901	O90	0.915700	0.780100	0.508900
C891	C89	0.876700	0.751300	0.508700
C901	C90	0.882800	0.695800	0.503400
H891	H89	0.868100	0.678600	0.532800
H901	H90	0.865200	0.684000	0.473000
O911	O91	0.833100	0.272700	0.014100
O921	O92	0.915700	0.280100	0.008900
C911	C91	0.876700	0.251300	0.008700
C921	C92	0.882800	0.195800	0.003400
H911	H91	0.868100	0.178600	0.032800
H921	H92	0.865200	0.184000	0.973000
O931	O93	0.333100	0.772700	0.014100
O941	O94	0.415700	0.780100	0.008900
C931	C93	0.376700	0.751300	0.008700
C941	C94	0.382800	0.695800	0.003400
H931	H93	0.368100	0.678600	0.032800
H941	H94	0.365200	0.684000	0.973000
O951	O95	0.333100	0.272700	0.514100
O961	O96	0.415700	0.280100	0.508900
C951	C95	0.376700	0.251300	0.508700
C961	C96	0.382800	0.195800	0.503400
H951	H95	0.368100	0.178600	0.532800
H961	H96	0.365200	0.184000	0.473000
O971	O97	0.166900	0.264100	0.022700
O981	O98	0.084300	0.258900	0.030100
C971	C97	0.123300	0.258700	0.001300
C981	C98	0.117200	0.253400	0.945800
H971	H97	0.131900	0.282800	0.928600
H981	H98	0.134800	0.223000	0.934000
O991	O99	0.166900	0.764100	0.522700
O1001	O100	0.084300	0.758900	0.530100
C991	C99	0.123300	0.758700	0.501300
C1001	C100	0.117200	0.753400	0.445800
H991	H99	0.131900	0.782800	0.428600
H1001	H100	0.134800	0.723000	0.434000
O1011	O101	0.666900	0.264100	0.522700
O1021	O102	0.584300	0.258900	0.530100
C1011	C101	0.623300	0.258700	0.501300
C1021	C102	0.617200	0.253400	0.445800
H1011	H101	0.631900	0.282800	0.428600
H1021	H102	0.634800	0.223000	0.434000
O1031	O103	0.666900	0.764100	0.022700
O1041	O104	0.584300	0.758900	0.030100
C1031	C103	0.623300	0.758700	0.001300
C1041	C104	0.617200	0.753400	0.945800
H1031	H103	0.631900	0.782800	0.928600
H1041	H104	0.634800	0.723000	0.934000
O1051	O105	0.083100	0.485900	0.522700
O1061	O106	0.165700	0.491100	0.530100
C1051	C105	0.126700	0.491300	0.501300
C1061	C106	0.132800	0.496600	0.445800
H1051	H105	0.118100	0.467200	0.428600
H1061	H106	0.115200	0.527000	0.434000
O1071	O107	0.083100	0.985900	0.022700
O1081	O108	0.165700	0.991100	0.030100
C1071	C107	0.126700	0.991300	0.001300
C1081	C108	0.132800	0.996600	0.945800
H1071	H107	0.118100	0.967200	0.928600
H1081	H108	0.115200	0.027000	0.934000
O1091	O109	0.583100	0.485900	0.022700
O1101	O110	0.665700	0.491100	0.030100
C1091	C109	0.626700	0.491300	0.001300
C1101	C110	0.632800	0.496600	0.945800
H1091	H109	0.618100	0.467200	0.928600
H1101	H110	0.615200	0.527000	0.934000
O1111	O111	0.583100	0.985900	0.522700
O1121	O112	0.665700	0.991100	0.530100
C1111	C111	0.626700	0.991300	0.501300
C1121	C112	0.632800	0.996600	0.445800
H1111	H111	0.618100	0.967200	0.428600
H1121	H112	0.615200	0.027000	0.434000
O1131	O113	0.666900	0.985900	0.727300
O1141	O114	0.584300	0.991100	0.719900
C1131	C113	0.623300	0.991300	0.748700
C1141	C114	0.617200	0.996600	0.804200
H1131	H113	0.631900	0.967200	0.821400
H1141	H114	0.634800	0.027000	0.816000
O1151	O115	0.666900	0.485900	0.227300
O1161	O116	0.584300	0.491100	0.219900
C1151	C115	0.623300	0.491300	0.248700
C1161	C116	0.617200	0.496600	0.304200
H1151	H115	0.631900	0.467200	0.321400
H1161	H116	0.634800	0.527000	0.316000
O1171	O117	0.166900	0.985900	0.227300
O1181	O118	0.084300	0.991100	0.219900
C1171	C117	0.123300	0.991300	0.248700
C1181	C118	0.117200	0.996600	0.304200
H1171	H117	0.131900	0.967200	0.321400
H1181	H118	0.134800	0.027000	0.316000
O1191	O119	0.166900	0.485900	0.727300
O1201	O120	0.084300	0.491100	0.719900
C1191	C119	0.123300	0.491300	0.748700
C1201	C120	0.117200	0.496600	0.804200
H1191	H119	0.131900	0.467200	0.821400
H1201	H120	0.134800	0.527000	0.816000
O1211	O121	0.583100	0.764100	0.227300
O1221	O122	0.665700	0.758900	0.219900
C1211	C121	0.626700	0.758700	0.248700
C1221	C122	0.632800	0.753400	0.304200
H1211	H121	0.618100	0.782800	0.321400
H1221	H122	0.615200	0.723000	0.316000
O1231	O123	0.583100	0.264100	0.727300
O1241	O124	0.665700	0.258900	0.719900
C1231	C123	0.626700	0.258700	0.748700
C1241	C124	0.632800	0.253400	0.804200
H1231	H123	0.618100	0.282800	0.821400
H1241	H124	0.615200	0.223000	0.816000
O1251	O125	0.083100	0.764100	0.727300
O1261	O126	0.165700	0.758900	0.719900
C1251	C125	0.126700	0.758700	0.748700
C1261	C126	0.132800	0.753400	0.804200
H1251	H125	0.118100	0.782800	0.821400
H1261	H126	0.115200	0.723000	0.816000
O1271	O127	0.083100	0.264100	0.227300
O1281	O128	0.165700	0.258900	0.219900
C1271	C127	0.126700	0.258700	0.248700
C1281	C128	0.132800	0.253400	0.304200
H1271	H127	0.118100	0.282800	0.321400
H1281	H128	0.115200	0.223000	0.316000
O1291	O129	0.764100	0.227300	0.583100
O1301	O130	0.758900	0.219900	0.665700
C1291	C129	0.758700	0.248700	0.626700
C1301	C130	0.753400	0.304200	0.632800
H1291	H129	0.782800	0.321400	0.618100
H1301	H130	0.723000	0.316000	0.615200
O1311	O131	0.764100	0.727300	0.083100
O1321	O132	0.758900	0.719900	0.165700
C1311	C131	0.758700	0.748700	0.126700
C1321	C132	0.753400	0.804200	0.132800
H1311	H131	0.782800	0.821400	0.118100
H1321	H132	0.723000	0.816000	0.115200
O1331	O133	0.264100	0.227300	0.083100
O1341	O134	0.258900	0.219900	0.165700
C1331	C133	0.258700	0.248700	0.126700
C1341	C134	0.253400	0.304200	0.132800
H1331	H133	0.282800	0.321400	0.118100
H1341	H134	0.223000	0.316000	0.115200
O1351	O135	0.264100	0.727300	0.583100
O1361	O136	0.258900	0.719900	0.665700
C1351	C135	0.258700	0.748700	0.626700
C1361	C136	0.253400	0.804200	0.632800
H1351	H135	0.282800	0.821400	0.618100
H1361	H136	0.223000	0.816000	0.615200
O1371	O137	0.985900	0.727300	0.666900
O1381	O138	0.991100	0.719900	0.584300
C1371	C137	0.991300	0.748700	0.623300
C1381	C138	0.996600	0.804200	0.617200
H1371	H137	0.967200	0.821400	0.631900
H1381	H138	0.027000	0.816000	0.634800
O1391	O139	0.985900	0.227300	0.166900
O1401	O140	0.991100	0.219900	0.084300
C1391	C139	0.991300	0.248700	0.123300
C1401	C140	0.996600	0.304200	0.117200
H1391	H139	0.967200	0.321400	0.131900
H1401	H140	0.027000	0.316000	0.134800
O1411	O141	0.485900	0.727300	0.166900
O1421	O142	0.491100	0.719900	0.084300
C1411	C141	0.491300	0.748700	0.123300
C1421	C142	0.496600	0.804200	0.117200
H1411	H141	0.467200	0.821400	0.131900
H1421	H142	0.527000	0.816000	0.134800
O1431	O143	0.485900	0.227300	0.666900
O1441	O144	0.491100	0.219900	0.584300
C1431	C143	0.491300	0.248700	0.623300
C1441	C144	0.496600	0.304200	0.617200
H1431	H143	0.467200	0.321400	0.631900
H1441	H144	0.527000	0.316000	0.634800
O1451	O145	0.485900	0.522700	0.083100
O1461	O146	0.491100	0.530100	0.165700
C1451	C145	0.491300	0.501300	0.126700
C1461	C146	0.496600	0.445800	0.132800
H1451	H145	0.467200	0.428600	0.118100
H1461	H146	0.527000	0.434000	0.115200
O1471	O147	0.485900	0.022700	0.583100
O1481	O148	0.491100	0.030100	0.665700
C1471	C147	0.491300	0.001300	0.626700
C1481	C148	0.496600	0.945800	0.632800
H1471	H147	0.467200	0.928600	0.618100
H1481	H148	0.527000	0.934000	0.615200
O1491	O149	0.985900	0.522700	0.583100
O1501	O150	0.991100	0.530100	0.665700
C1491	C149	0.991300	0.501300	0.626700
C1501	C150	0.996600	0.445800	0.632800
H1491	H149	0.967200	0.428600	0.618100
H1501	H150	0.027000	0.434000	0.615200
O1511	O151	0.985900	0.022700	0.083100
O1521	O152	0.991100	0.030100	0.165700
C1511	C151	0.991300	0.001300	0.126700
C1521	C152	0.996600	0.945800	0.132800
H1511	H151	0.967200	0.928600	0.118100
H1521	H152	0.027000	0.934000	0.115200
O1531	O153	0.264100	0.022700	0.166900
O1541	O154	0.258900	0.030100	0.084300
C1531	C153	0.258700	0.001300	0.123300
C1541	C154	0.253400	0.945800	0.117200
H1531	H153	0.282800	0.928600	0.131900
H1541	H154	0.223000	0.934000	0.134800
O1551	O155	0.264100	0.522700	0.666900
O1561	O156	0.258900	0.530100	0.584300
C1551	C155	0.258700	0.501300	0.623300
C1561	C156	0.253400	0.445800	0.617200
H1551	H155	0.282800	0.428600	0.631900
H1561	H156	0.223000	0.434000	0.634800
O1571	O157	0.764100	0.022700	0.666900
O1581	O158	0.758900	0.030100	0.584300
C1571	C157	0.758700	0.001300	0.623300
C1581	C158	0.753400	0.945800	0.617200
H1571	H157	0.782800	0.928600	0.631900
H1581	H158	0.723000	0.934000	0.634800
O1591	O159	0.764100	0.522700	0.166900
O1601	O160	0.758900	0.530100	0.084300
C1591	C159	0.758700	0.501300	0.123300
C1601	C160	0.753400	0.445800	0.117200
H1591	H159	0.782800	0.428600	0.131900
H1601	H160	0.723000	0.434000	0.134800
O1611	O161	0.727300	0.666900	0.985900
O1621	O162	0.719900	0.584300	0.991100
C1611	C161	0.748700	0.623300	0.991300
C1621	C162	0.804200	0.617200	0.996600
H1611	H161	0.821400	0.631900	0.967200
H1621	H162	0.816000	0.634800	0.027000
O1631	O163	0.727300	0.166900	0.485900
O1641	O164	0.719900	0.084300	0.491100
C1631	C163	0.748700	0.123300	0.491300
C1641	C164	0.804200	0.117200	0.496600
H1631	H163	0.821400	0.131900	0.467200
H1641	H164	0.816000	0.134800	0.527000
O1651	O165	0.227300	0.666900	0.485900
O1661	O166	0.219900	0.584300	0.491100
C1651	C165	0.248700	0.623300	0.491300
C1661	C166	0.304200	0.617200	0.496600
H1651	H165	0.321400	0.631900	0.467200
H1661	H166	0.316000	0.634800	0.527000
O1671	O167	0.227300	0.166900	0.985900
O1681	O168	0.219900	0.084300	0.991100
C1671	C167	0.248700	0.123300	0.991300
C1681	C168	0.304200	0.117200	0.996600
H1671	H167	0.321400	0.131900	0.967200
H1681	H168	0.316000	0.134800	0.027000
O1691	O169	0.227300	0.583100	0.764100
O1701	O170	0.219900	0.665700	0.758900
C1691	C169	0.248700	0.626700	0.758700
C1701	C170	0.304200	0.632800	0.753400
H1691	H169	0.321400	0.618100	0.782800
H1701	H170	0.316000	0.615200	0.723000
O1711	O171	0.227300	0.083100	0.264100
O1721	O172	0.219900	0.165700	0.258900
C1711	C171	0.248700	0.126700	0.258700
C1721	C172	0.304200	0.132800	0.253400
H1711	H171	0.321400	0.118100	0.282800
H1721	H172	0.316000	0.115200	0.223000
O1731	O173	0.727300	0.583100	0.264100
O1741	O174	0.719900	0.665700	0.258900
C1731	C173	0.748700	0.626700	0.258700
C1741	C174	0.804200	0.632800	0.253400
H1731	H173	0.821400	0.618100	0.282800
H1741	H174	0.816000	0.615200	0.223000
O1751	O175	0.727300	0.083100	0.764100
O1761	O176	0.719900	0.165700	0.758900
C1751	C175	0.748700	0.126700	0.758700
C1761	C176	0.804200	0.132800	0.753400
H1751	H175	0.821400	0.118100	0.782800
H1761	H176	0.816000	0.115200	0.723000
O1771	O177	0.022700	0.166900	0.264100
O1781	O178	0.030100	0.084300	0.258900
C1771	C177	0.001300	0.123300	0.258700
C1781	C178	0.945800	0.117200	0.253400
H1771	H177	0.928600	0.131900	0.282800
H1781	H178	0.934000	0.134800	0.223000
O1791	O179	0.022700	0.666900	0.764100
O1801	O180	0.030100	0.584300	0.758900
C1791	C179	0.001300	0.623300	0.758700
C1801	C180	0.945800	0.617200	0.753400
H1791	H179	0.928600	0.631900	0.782800
H1801	H180	0.934000	0.634800	0.723000
O1811	O181	0.522700	0.166900	0.764100
O1821	O182	0.530100	0.084300	0.758900
C1811	C181	0.501300	0.123300	0.758700
C1821	C182	0.445800	0.117200	0.753400
H1811	H181	0.428600	0.131900	0.782800
H1821	H182	0.434000	0.134800	0.723000
O1831	O183	0.522700	0.666900	0.264100
O1841	O184	0.530100	0.584300	0.258900
C1831	C183	0.501300	0.623300	0.258700
C1841	C184	0.445800	0.617200	0.253400
H1831	H183	0.428600	0.631900	0.282800
H1841	H184	0.434000	0.634800	0.223000
O1851	O185	0.522700	0.083100	0.485900
O1861	O186	0.530100	0.165700	0.491100
C1851	C185	0.501300	0.126700	0.491300
C1861	C186	0.445800	0.132800	0.496600
H1851	H185	0.428600	0.118100	0.467200
H1861	H186	0.434000	0.115200	0.527000
O1871	O187	0.522700	0.583100	0.985900
O1881	O188	0.530100	0.665700	0.991100
C1871	C187	0.501300	0.626700	0.991300
C1881	C188	0.445800	0.632800	0.996600
H1871	H187	0.428600	0.618100	0.967200
H1881	H188	0.434000	0.615200	0.027000
O1891	O189	0.022700	0.083100	0.985900
O1901	O190	0.030100	0.165700	0.991100
C1891	C189	0.001300	0.126700	0.991300
C1901	C190	0.945800	0.132800	0.996600
H1891	H189	0.928600	0.118100	0.967200
H1901	H190	0.934000	0.115200	0.027000
O1911	O191	0.022700	0.583100	0.485900
O1921	O192	0.030100	0.665700	0.491100
C1911	C191	0.001300	0.626700	0.491300
C1921	C192	0.945800	0.632800	0.496600
H1911	H191	0.928600	0.618100	0.467200
H1921	H192	0.934000	0.615200	0.527000
O1931	O193	0.985900	0.583100	0.022700
O1941	O194	0.991100	0.665700	0.030100
C1931	C193	0.991300	0.626700	0.001300
C1941	C194	0.996600	0.632800	0.945800
H1931	H193	0.967200	0.618100	0.928600
H1941	H194	0.027000	0.615200	0.934000
O1951	O195	0.985900	0.083100	0.522700
O1961	O196	0.991100	0.165700	0.530100
C1951	C195	0.991300	0.126700	0.501300
C1961	C196	0.996600	0.132800	0.445800
H1951	H195	0.967200	0.118100	0.428600
H1961	H196	0.027000	0.115200	0.434000
O1971	O197	0.485900	0.583100	0.522700
O1981	O198	0.491100	0.665700	0.530100
C1971	C197	0.491300	0.626700	0.501300
C1981	C198	0.496600	0.632800	0.445800
H1971	H197	0.467200	0.618100	0.428600
H1981	H198	0.527000	0.615200	0.434000
O1991	O199	0.485900	0.083100	0.022700
O2001	O200	0.491100	0.165700	0.030100
C1991	C199	0.491300	0.126700	0.001300
C2001	C200	0.496600	0.132800	0.945800
H1991	H199	0.467200	0.118100	0.928600
H2001	H200	0.527000	0.115200	0.934000
O2011	O201	0.764100	0.666900	0.522700
O2021	O202	0.758900	0.584300	0.530100
C2011	C201	0.758700	0.623300	0.501300
C2021	C202	0.753400	0.617200	0.445800
H2011	H201	0.782800	0.631900	0.428600
H2021	H202	0.723000	0.634800	0.434000
O2031	O203	0.764100	0.166900	0.022700
O2041	O204	0.758900	0.084300	0.030100
C2031	C203	0.758700	0.123300	0.001300
C2041	C204	0.753400	0.117200	0.945800
H2031	H203	0.782800	0.131900	0.928600
H2041	H204	0.723000	0.134800	0.934000
O2051	O205	0.264100	0.666900	0.022700
O2061	O206	0.258900	0.584300	0.030100
C2051	C205	0.258700	0.623300	0.001300
C2061	C206	0.253400	0.617200	0.945800
H2051	H205	0.282800	0.631900	0.928600
H2061	H206	0.223000	0.634800	0.934000
O2071	O207	0.264100	0.166900	0.522700
O2081	O208	0.258900	0.084300	0.530100
C2071	C207	0.258700	0.123300	0.501300
C2081	C208	0.253400	0.117200	0.445800
H2071	H207	0.282800	0.131900	0.428600
H2081	H208	0.223000	0.134800	0.434000
O2091	O209	0.264100	0.083100	0.727300
O2101	O210	0.258900	0.165700	0.719900
C2091	C209	0.258700	0.126700	0.748700
C2101	C210	0.253400	0.132800	0.804200
H2091	H209	0.282800	0.118100	0.821400
H2101	H210	0.223000	0.115200	0.816000
O2111	O211	0.264100	0.583100	0.227300
O2121	O212	0.258900	0.665700	0.219900
C2111	C211	0.258700	0.626700	0.248700
C2121	C212	0.253400	0.632800	0.304200
H2111	H211	0.282800	0.618100	0.321400
H2121	H212	0.223000	0.615200	0.316000
O2131	O213	0.764100	0.083100	0.227300
O2141	O214	0.758900	0.165700	0.219900
C2131	C213	0.758700	0.126700	0.248700
C2141	C214	0.753400	0.132800	0.304200
H2131	H213	0.782800	0.118100	0.321400
H2141	H214	0.723000	0.115200	0.316000
O2151	O215	0.764100	0.583100	0.727300
O2161	O216	0.758900	0.665700	0.719900
C2151	C215	0.758700	0.626700	0.748700
C2161	C216	0.753400	0.632800	0.804200
H2151	H215	0.782800	0.618100	0.821400
H2161	H216	0.723000	0.615200	0.816000
O2171	O217	0.485900	0.166900	0.227300
O2181	O218	0.491100	0.084300	0.219900
C2171	C217	0.491300	0.123300	0.248700
C2181	C218	0.496600	0.117200	0.304200
H2171	H217	0.467200	0.131900	0.321400
H2181	H218	0.527000	0.134800	0.316000
O2191	O219	0.485900	0.666900	0.727300
O2201	O220	0.491100	0.584300	0.719900
C2191	C219	0.491300	0.623300	0.748700
C2201	C220	0.496600	0.617200	0.804200
H2191	H219	0.467200	0.631900	0.821400
H2201	H220	0.527000	0.634800	0.816000
O2211	O221	0.985900	0.166900	0.727300
O2221	O222	0.991100	0.084300	0.719900
C2211	C221	0.991300	0.123300	0.748700
C2221	C222	0.996600	0.117200	0.804200
H2211	H221	0.967200	0.131900	0.821400
H2221	H222	0.027000	0.134800	0.816000
O2231	O223	0.985900	0.666900	0.227300
O2241	O224	0.991100	0.584300	0.219900
C2231	C223	0.991300	0.623300	0.248700
C2241	C224	0.996600	0.617200	0.304200
H2231	H223	0.967200	0.631900	0.321400
H2241	H224	0.027000	0.634800	0.316000
O2251	O225	0.022700	0.985900	0.583100
O2261	O226	0.030100	0.991100	0.665700
C2251	C225	0.001300	0.991300	0.626700
C2261	C226	0.945800	0.996600	0.632800
H2251	H225	0.928600	0.967200	0.618100
H2261	H226	0.934000	0.027000	0.615200
O2271	O227	0.022700	0.485900	0.083100
O2281	O228	0.030100	0.491100	0.165700
C2271	C227	0.001300	0.491300	0.126700
C2281	C228	0.945800	0.496600	0.132800
H2271	H227	0.928600	0.467200	0.118100
H2281	H228	0.934000	0.527000	0.115200
O2291	O229	0.522700	0.985900	0.083100
O2301	O230	0.530100	0.991100	0.165700
C2291	C229	0.501300	0.991300	0.126700
C2301	C230	0.445800	0.996600	0.132800
H2291	H229	0.428600	0.967200	0.118100
H2301	H230	0.434000	0.027000	0.115200
O2311	O231	0.522700	0.485900	0.583100
O2321	O232	0.530100	0.491100	0.665700
C2311	C231	0.501300	0.491300	0.626700
C2321	C232	0.445800	0.496600	0.632800
H2311	H231	0.428600	0.467200	0.618100
H2321	H232	0.434000	0.527000	0.615200
O2331	O233	0.522700	0.764100	0.666900
O2341	O234	0.530100	0.758900	0.584300
C2331	C233	0.501300	0.758700	0.623300
C2341	C234	0.445800	0.753400	0.617200
H2331	H233	0.428600	0.782800	0.631900
H2341	H234	0.434000	0.723000	0.634800
O2351	O235	0.522700	0.264100	0.166900
O2361	O236	0.530100	0.258900	0.084300
C2351	C235	0.501300	0.258700	0.123300
C2361	C236	0.445800	0.253400	0.117200
H2351	H235	0.428600	0.282800	0.131900
H2361	H236	0.434000	0.223000	0.134800
O2371	O237	0.022700	0.764100	0.166900
O2381	O238	0.030100	0.758900	0.084300
C2371	C237	0.001300	0.758700	0.123300
C2381	C238	0.945800	0.753400	0.117200
H2371	H237	0.928600	0.782800	0.131900
H2381	H238	0.934000	0.723000	0.134800
O2391	O239	0.022700	0.264100	0.666900
O2401	O240	0.030100	0.258900	0.584300
C2391	C239	0.001300	0.258700	0.623300
C2401	C240	0.945800	0.253400	0.617200
H2391	H239	0.928600	0.282800	0.631900
H2401	H240	0.934000	0.223000	0.634800
O2411	O241	0.727300	0.264100	0.083100
O2421	O242	0.719900	0.258900	0.165700
C2411	C241	0.748700	0.258700	0.126700
C2421	C242	0.804200	0.253400	0.132800
H2411	H241	0.821400	0.282800	0.118100
H2421	H242	0.816000	0.223000	0.115200
O2431	O243	0.727300	0.764100	0.583100
O2441	O244	0.719900	0.758900	0.665700
C2431	C243	0.748700	0.758700	0.626700
C2441	C244	0.804200	0.753400	0.632800
H2431	H243	0.821400	0.782800	0.618100
H2441	H244	0.816000	0.723000	0.615200
O2451	O245	0.227300	0.264100	0.583100
O2461	O246	0.219900	0.258900	0.665700
C2451	C245	0.248700	0.258700	0.626700
C2461	C246	0.304200	0.253400	0.632800
H2451	H245	0.321400	0.282800	0.618100
H2461	H246	0.316000	0.223000	0.615200
O2471	O247	0.227300	0.764100	0.083100
O2481	O248	0.219900	0.758900	0.165700
C2471	C247	0.248700	0.758700	0.126700
C2481	C248	0.304200	0.753400	0.132800
H2471	H247	0.321400	0.782800	0.118100
H2481	H248	0.316000	0.723000	0.115200
O2491	O249	0.227300	0.485900	0.166900
O2501	O250	0.219900	0.491100	0.084300
C2491	C249	0.248700	0.491300	0.123300
C2501	C250	0.304200	0.496600	0.117200
H2491	H249	0.321400	0.467200	0.131900
H2501	H250	0.316000	0.527000	0.134800
O2511	O251	0.227300	0.985900	0.666900
O2521	O252	0.219900	0.991100	0.584300
C2511	C251	0.248700	0.991300	0.623300
C2521	C252	0.304200	0.996600	0.617200
H2511	H251	0.321400	0.967200	0.631900
H2521	H252	0.316000	0.027000	0.634800
O2531	O253	0.727300	0.485900	0.666900
O2541	O254	0.719900	0.491100	0.584300
C2531	C253	0.748700	0.491300	0.623300
C2541	C254	0.804200	0.496600	0.617200
H2531	H253	0.821400	0.467200	0.631900
H2541	H254	0.816000	0.527000	0.634800
O2551	O255	0.727300	0.985900	0.166900
O2561	O256	0.719900	0.991100	0.084300
C2551	C255	0.748700	0.991300	0.123300
C2561	C256	0.804200	0.996600	0.117200
H2551	H255	0.821400	0.967200	0.131900
H2561	H256	0.816000	0.027000	0.134800
O2571	O257	0.583100	0.022700	0.985900
O2581	O258	0.665700	0.030100	0.991100
C2571	C257	0.626700	0.001300	0.991300
C2581	C258	0.632800	0.945800	0.996600
H2571	H257	0.618100	0.928600	0.967200
H2581	H258	0.615200	0.934000	0.027000
O2591	O259	0.583100	0.522700	0.485900
O2601	O260	0.665700	0.530100	0.491100
C2591	C259	0.626700	0.501300	0.491300
C2601	C260	0.632800	0.445800	0.496600
H2591	H259	0.618100	0.428600	0.467200
H2601	H260	0.615200	0.434000	0.527000
O2611	O261	0.083100	0.022700	0.485900
O2621	O262	0.165700	0.030100	0.491100
C2611	C261	0.126700	0.001300	0.491300
C2621	C262	0.132800	0.945800	0.496600
H2611	H261	0.118100	0.928600	0.467200
H2621	H262	0.115200	0.934000	0.527000
O2631	O263	0.083100	0.522700	0.985900
O2641	O264	0.165700	0.530100	0.991100
C2631	C263	0.126700	0.501300	0.991300
C2641	C264	0.132800	0.445800	0.996600
H2631	H263	0.118100	0.428600	0.967200
H2641	H264	0.115200	0.434000	0.027000
O2651	O265	0.666900	0.522700	0.764100
O2661	O266	0.584300	0.530100	0.758900
C2651	C265	0.623300	0.501300	0.758700
C2661	C266	0.617200	0.445800	0.753400
H2651	H265	0.631900	0.428600	0.782800
H2661	H266	0.634800	0.434000	0.723000
O2671	O267	0.666900	0.022700	0.264100
O2681	O268	0.584300	0.030100	0.258900
C2671	C267	0.623300	0.001300	0.258700
C2681	C268	0.617200	0.945800	0.253400
H2671	H267	0.631900	0.928600	0.282800
H2681	H268	0.634800	0.934000	0.223000
O2691	O269	0.166900	0.522700	0.264100
O2701	O270	0.084300	0.530100	0.258900
C2691	C269	0.123300	0.501300	0.258700
C2701	C270	0.117200	0.445800	0.253400
H2691	H269	0.131900	0.428600	0.282800
H2701	H270	0.134800	0.434000	0.223000
O2711	O271	0.166900	0.022700	0.764100
O2721	O272	0.084300	0.030100	0.758900
C2711	C271	0.123300	0.001300	0.758700
C2721	C272	0.117200	0.945800	0.753400
H2711	H271	0.131900	0.928600	0.782800
H2721	H272	0.134800	0.934000	0.723000
O2731	O273	0.083100	0.727300	0.264100
O2741	O274	0.165700	0.719900	0.258900
C2731	C273	0.126700	0.748700	0.258700
C2741	C274	0.132800	0.804200	0.253400
H2731	H273	0.118100	0.821400	0.282800
H2741	H274	0.115200	0.816000	0.223000
O2751	O275	0.083100	0.227300	0.764100
O2761	O276	0.165700	0.219900	0.758900
C2751	C275	0.126700	0.248700	0.758700
C2761	C276	0.132800	0.304200	0.753400
H2751	H275	0.118100	0.321400	0.782800
H2761	H276	0.115200	0.316000	0.723000
O2771	O277	0.583100	0.727300	0.764100
O2781	O278	0.665700	0.719900	0.758900
C2771	C277	0.626700	0.748700	0.758700
C2781	C278	0.632800	0.804200	0.753400
H2771	H277	0.618100	0.821400	0.782800
H2781	H278	0.615200	0.816000	0.723000
O2791	O279	0.583100	0.227300	0.264100
O2801	O280	0.665700	0.219900	0.258900
C2791	C279	0.626700	0.248700	0.258700
C2801	C280	0.632800	0.304200	0.253400
H2791	H279	0.618100	0.321400	0.282800
H2801	H280	0.615200	0.316000	0.223000
O2811	O281	0.166900	0.227300	0.485900
O2821	O282	0.084300	0.219900	0.491100
C2811	C281	0.123300	0.248700	0.491300
C2821	C282	0.117200	0.304200	0.496600
H2811	H281	0.131900	0.321400	0.467200
H2821	H282	0.134800	0.316000	0.527000
O2831	O283	0.166900	0.727300	0.985900
O2841	O284	0.084300	0.719900	0.991100
C2831	C283	0.123300	0.748700	0.991300
C2841	C284	0.117200	0.804200	0.996600
H2831	H283	0.131900	0.821400	0.967200
H2841	H284	0.134800	0.816000	0.027000
O2851	O285	0.666900	0.227300	0.985900
O2861	O286	0.584300	0.219900	0.991100
C2851	C285	0.623300	0.248700	0.991300
C2861	C286	0.617200	0.304200	0.996600
H2851	H285	0.631900	0.321400	0.967200
H2861	H286	0.634800	0.316000	0.027000
O2871	O287	0.666900	0.727300	0.485900
O2881	O288	0.584300	0.719900	0.491100
C2871	C287	0.623300	0.748700	0.491300
C2881	C288	0.617200	0.804200	0.496600
H2871	H287	0.631900	0.821400	0.467200
H2881	H288	0.634800	0.816000	0.527000
O2891	O289	0.833100	0.735900	0.977300
O2901	O290	0.915700	0.741100	0.969900
C2891	C289	0.876700	0.741300	0.998700
C2901	C290	0.882800	0.746600	0.054200
H2891	H289	0.868100	0.717200	0.071400
H2901	H290	0.865200	0.777000	0.066000
O2911	O291	0.833100	0.235900	0.477300
O2921	O292	0.915700	0.241100	0.469900
C2911	C291	0.876700	0.241300	0.498700
C2921	C292	0.882800	0.246600	0.554200
H2911	H291	0.868100	0.217200	0.571400
H2921	H292	0.865200	0.277000	0.566000
O2931	O293	0.333100	0.735900	0.477300
O2941	O294	0.415700	0.741100	0.469900
C2931	C293	0.376700	0.741300	0.498700
C2941	C294	0.382800	0.746600	0.554200
H2931	H293	0.368100	0.717200	0.571400
H2941	H294	0.365200	0.777000	0.566000
O2951	O295	0.333100	0.235900	0.977300
O2961	O296	0.415700	0.241100	0.969900
C2951	C295	0.376700	0.241300	0.998700
C2961	C296	0.382800	0.246600	0.054200
H2951	H295	0.368100	0.217200	0.071400
H2961	H296	0.365200	0.277000	0.066000
O2971	O297	0.916900	0.514100	0.477300
O2981	O298	0.834300	0.508900	0.469900
C2971	C297	0.873300	0.508700	0.498700
C2981	C298	0.867200	0.503400	0.554200
H2971	H297	0.881900	0.532800	0.571400
H2981	H298	0.884800	0.473000	0.566000
O2991	O299	0.916900	0.014100	0.977300
O3001	O300	0.834300	0.008900	0.969900
C2991	C299	0.873300	0.008700	0.998700
C3001	C300	0.867200	0.003400	0.054200
H2991	H299	0.881900	0.032800	0.071400
H3001	H300	0.884800	0.973000	0.066000
O3011	O301	0.416900	0.514100	0.977300
O3021	O302	0.334300	0.508900	0.969900
C3011	C301	0.373300	0.508700	0.998700
C3021	C302	0.367200	0.503400	0.054200
H3011	H301	0.381900	0.532800	0.071400
H3021	H302	0.384800	0.473000	0.066000
O3031	O303	0.416900	0.014100	0.477300
O3041	O304	0.334300	0.008900	0.469900
C3031	C303	0.373300	0.008700	0.498700
C3041	C304	0.367200	0.003400	0.554200
H3031	H303	0.381900	0.032800	0.571400
H3041	H304	0.384800	0.973000	0.566000
O3051	O305	0.333100	0.014100	0.272700
O3061	O306	0.415700	0.008900	0.280100
C3051	C305	0.376700	0.008700	0.251300
C3061	C306	0.382800	0.003400	0.195800
H3051	H305	0.368100	0.032800	0.178600
H3061	H306	0.365200	0.973000	0.184000
O3071	O307	0.333100	0.514100	0.772700
O3081	O308	0.415700	0.508900	0.780100
C3071	C307	0.376700	0.508700	0.751300
C3081	C308	0.382800	0.503400	0.695800
H3071	H307	0.368100	0.532800	0.678600
H3081	H308	0.365200	0.473000	0.684000
O3091	O309	0.833100	0.014100	0.772700
O3101	O310	0.915700	0.008900	0.780100
C3091	C309	0.876700	0.008700	0.751300
C3101	C310	0.882800	0.003400	0.695800
H3091	H309	0.868100	0.032800	0.678600
H3101	H310	0.865200	0.973000	0.684000
O3111	O311	0.833100	0.514100	0.272700
O3121	O312	0.915700	0.508900	0.280100
C3111	C311	0.876700	0.508700	0.251300
C3121	C312	0.882800	0.503400	0.195800
H3111	H311	0.868100	0.532800	0.178600
H3121	H312	0.865200	0.473000	0.184000
O3131	O313	0.416900	0.235900	0.772700
O3141	O314	0.334300	0.241100	0.780100
C3131	C313	0.373300	0.241300	0.751300
C3141	C314	0.367200	0.246600	0.695800
H3131	H313	0.381900	0.217200	0.678600
H3141	H314	0.384800	0.277000	0.684000
O3151	O315	0.416900	0.735900	0.272700
O3161	O316	0.334300	0.741100	0.280100
C3151	C315	0.373300	0.741300	0.251300
C3161	C316	0.367200	0.746600	0.195800
H3151	H315	0.381900	0.717200	0.178600
H3161	H316	0.384800	0.777000	0.184000
O3171	O317	0.916900	0.235900	0.272700
O3181	O318	0.834300	0.241100	0.280100
C3171	C317	0.873300	0.241300	0.251300
C3181	C318	0.867200	0.246600	0.195800
H3171	H317	0.881900	0.217200	0.178600
H3181	H318	0.884800	0.277000	0.184000
O3191	O319	0.916900	0.735900	0.772700
O3201	O320	0.834300	0.741100	0.780100
C3191	C319	0.873300	0.741300	0.751300
C3201	C320	0.867200	0.746600	0.695800
H3191	H319	0.881900	0.717200	0.678600
H3201	H320	0.884800	0.777000	0.684000
O3211	O321	0.235900	0.772700	0.416900
O3221	O322	0.241100	0.780100	0.334300
C3211	C321	0.241300	0.751300	0.373300
C3221	C322	0.246600	0.695800	0.367200
H3211	H321	0.217200	0.678600	0.381900
H3221	H322	0.277000	0.684000	0.384800
O3231	O323	0.235900	0.272700	0.916900
O3241	O324	0.241100	0.280100	0.834300
C3231	C323	0.241300	0.251300	0.873300
C3241	C324	0.246600	0.195800	0.867200
H3231	H323	0.217200	0.178600	0.881900
H3241	H324	0.277000	0.184000	0.884800
O3251	O325	0.735900	0.772700	0.916900
O3261	O326	0.741100	0.780100	0.834300
C3251	C325	0.741300	0.751300	0.873300
C3261	C326	0.746600	0.695800	0.867200
H3251	H325	0.717200	0.678600	0.881900
H3261	H326	0.777000	0.684000	0.884800
O3271	O327	0.735900	0.272700	0.416900
O3281	O328	0.741100	0.280100	0.334300
C3271	C327	0.741300	0.251300	0.373300
C3281	C328	0.746600	0.195800	0.367200
H3271	H327	0.717200	0.178600	0.381900
H3281	H328	0.777000	0.184000	0.384800
O3291	O329	0.014100	0.272700	0.333100
O3301	O330	0.008900	0.280100	0.415700
C3291	C329	0.008700	0.251300	0.376700
C3301	C330	0.003400	0.195800	0.382800
H3291	H329	0.032800	0.178600	0.368100
H3301	H330	0.973000	0.184000	0.365200
O3311	O331	0.014100	0.772700	0.833100
O3321	O332	0.008900	0.780100	0.915700
C3311	C331	0.008700	0.751300	0.876700
C3321	C332	0.003400	0.695800	0.882800
H3311	H331	0.032800	0.678600	0.868100
H3321	H332	0.973000	0.684000	0.865200
O3331	O333	0.514100	0.272700	0.833100
O3341	O334	0.508900	0.280100	0.915700
C3331	C333	0.508700	0.251300	0.876700
C3341	C334	0.503400	0.195800	0.882800
H3331	H333	0.532800	0.178600	0.868100
H3341	H334	0.473000	0.184000	0.865200
O3351	O335	0.514100	0.772700	0.333100
O3361	O336	0.508900	0.780100	0.415700
C3351	C335	0.508700	0.751300	0.376700
C3361	C336	0.503400	0.695800	0.382800
H3351	H335	0.532800	0.678600	0.368100
H3361	H336	0.473000	0.684000	0.365200
O3371	O337	0.514100	0.477300	0.916900
O3381	O338	0.508900	0.469900	0.834300
C3371	C337	0.508700	0.498700	0.873300
C3381	C338	0.503400	0.554200	0.867200
H3371	H337	0.532800	0.571400	0.881900
H3381	H338	0.473000	0.566000	0.884800
O3391	O339	0.514100	0.977300	0.416900
O3401	O340	0.508900	0.969900	0.334300
C3391	C339	0.508700	0.998700	0.373300
C3401	C340	0.503400	0.054200	0.367200
H3391	H339	0.532800	0.071400	0.381900
H3401	H340	0.473000	0.066000	0.384800
O3411	O341	0.014100	0.477300	0.416900
O3421	O342	0.008900	0.469900	0.334300
C3411	C341	0.008700	0.498700	0.373300
C3421	C342	0.003400	0.554200	0.367200
H3411	H341	0.032800	0.571400	0.381900
H3421	H342	0.973000	0.566000	0.384800
O3431	O343	0.014100	0.977300	0.916900
O3441	O344	0.008900	0.969900	0.834300
C3431	C343	0.008700	0.998700	0.873300
C3441	C344	0.003400	0.054200	0.867200
H3431	H343	0.032800	0.071400	0.881900
H3441	H344	0.973000	0.066000	0.884800
O3451	O345	0.735900	0.977300	0.833100
O3461	O346	0.741100	0.969900	0.915700
C3451	C345	0.741300	0.998700	0.876700
C3461	C346	0.746600	0.054200	0.882800
H3451	H345	0.717200	0.071400	0.868100
H3461	H346	0.777000	0.066000	0.865200
O3471	O347	0.735900	0.477300	0.333100
O3481	O348	0.741100	0.469900	0.415700
C3471	C347	0.741300	0.498700	0.376700
C3481	C348	0.746600	0.554200	0.382800
H3471	H347	0.717200	0.571400	0.368100
H3481	H348	0.777000	0.566000	0.365200
O3491	O349	0.235900	0.977300	0.333100
O3501	O350	0.241100	0.969900	0.415700
C3491	C349	0.241300	0.998700	0.376700
C3501	C350	0.246600	0.054200	0.382800
H3491	H349	0.217200	0.071400	0.368100
H3501	H350	0.277000	0.066000	0.365200
O3511	O351	0.235900	0.477300	0.833100
O3521	O352	0.241100	0.469900	0.915700
C3511	C351	0.241300	0.498700	0.876700
C3521	C352	0.246600	0.554200	0.882800
H3511	H351	0.217200	0.571400	0.868100
H3521	H352	0.277000	0.566000	0.865200
O3531	O353	0.272700	0.333100	0.014100
O3541	O354	0.280100	0.415700	0.008900
C3531	C353	0.251300	0.376700	0.008700
C3541	C354	0.195800	0.382800	0.003400
H3531	H353	0.178600	0.368100	0.032800
H3541	H354	0.184000	0.365200	0.973000
O3551	O355	0.272700	0.833100	0.514100
O3561	O356	0.280100	0.915700	0.508900
C3551	C355	0.251300	0.876700	0.508700
C3561	C356	0.195800	0.882800	0.503400
H3551	H355	0.178600	0.868100	0.532800
H3561	H356	0.184000	0.865200	0.473000
O3571	O357	0.772700	0.333100	0.514100
O3581	O358	0.780100	0.415700	0.508900
C3571	C357	0.751300	0.376700	0.508700
C3581	C358	0.695800	0.382800	0.503400
H3571	H357	0.678600	0.368100	0.532800
H3581	H358	0.684000	0.365200	0.473000
O3591	O359	0.772700	0.833100	0.014100
O3601	O360	0.780100	0.915700	0.008900
C3591	C359	0.751300	0.876700	0.008700
C3601	C360	0.695800	0.882800	0.003400
H3591	H359	0.678600	0.868100	0.032800
H3601	H360	0.684000	0.865200	0.973000
O3611	O361	0.772700	0.416900	0.235900
O3621	O362	0.780100	0.334300	0.241100
C3611	C361	0.751300	0.373300	0.241300
C3621	C362	0.695800	0.367200	0.246600
H3611	H361	0.678600	0.381900	0.217200
H3621	H362	0.684000	0.384800	0.277000
O3631	O363	0.772700	0.916900	0.735900
O3641	O364	0.780100	0.834300	0.741100
C3631	C363	0.751300	0.873300	0.741300
C3641	C364	0.695800	0.867200	0.746600
H3631	H363	0.678600	0.881900	0.717200
H3641	H364	0.684000	0.884800	0.777000
O3651	O365	0.272700	0.416900	0.735900
O3661	O366	0.280100	0.334300	0.741100
C3651	C365	0.251300	0.373300	0.741300
C3661	C366	0.195800	0.367200	0.746600
H3651	H365	0.178600	0.381900	0.717200
H3661	H366	0.184000	0.384800	0.777000
O3671	O367	0.272700	0.916900	0.235900
O3681	O368	0.280100	0.834300	0.241100
C3671	C367	0.251300	0.873300	0.241300
C3681	C368	0.195800	0.867200	0.246600
H3671	H367	0.178600	0.881900	0.217200
H3681	H368	0.184000	0.884800	0.277000
O3691	O369	0.977300	0.833100	0.735900
O3701	O370	0.969900	0.915700	0.741100
C3691	C369	0.998700	0.876700	0.741300
C3701	C370	0.054200	0.882800	0.746600
H3691	H369	0.071400	0.868100	0.717200
H3701	H370	0.066000	0.865200	0.777000
O3711	O371	0.977300	0.333100	0.235900
O3721	O372	0.969900	0.415700	0.241100
C3711	C371	0.998700	0.376700	0.241300
C3721	C372	0.054200	0.382800	0.246600
H3711	H371	0.071400	0.368100	0.217200
H3721	H372	0.066000	0.365200	0.277000
O3731	O373	0.477300	0.833100	0.235900
O3741	O374	0.469900	0.915700	0.241100
C3731	C373	0.498700	0.876700	0.241300
C3741	C374	0.554200	0.882800	0.246600
H3731	H373	0.571400	0.868100	0.217200
H3741	H374	0.566000	0.865200	0.277000
O3751	O375	0.477300	0.333100	0.735900
O3761	O376	0.469900	0.415700	0.741100
C3751	C375	0.498700	0.376700	0.741300
C3761	C376	0.554200	0.382800	0.746600
H3751	H375	0.571400	0.368100	0.717200
H3761	H376	0.566000	0.365200	0.777000
O3771	O377	0.477300	0.916900	0.514100
O3781	O378	0.469900	0.834300	0.508900
C3771	C377	0.498700	0.873300	0.508700
C3781	C378	0.554200	0.867200	0.503400
H3771	H377	0.571400	0.881900	0.532800
H3781	H378	0.566000	0.884800	0.473000
O3791	O379	0.477300	0.416900	0.014100
O3801	O380	0.469900	0.334300	0.008900
C3791	C379	0.498700	0.373300	0.008700
C3801	C380	0.554200	0.367200	0.003400
H3791	H379	0.571400	0.381900	0.032800
H3801	H380	0.566000	0.384800	0.973000
O3811	O381	0.977300	0.916900	0.014100
O3821	O382	0.969900	0.834300	0.008900
C3811	C381	0.998700	0.873300	0.008700
C3821	C382	0.054200	0.867200	0.003400
H3811	H381	0.071400	0.881900	0.032800
H3821	H382	0.066000	0.884800	0.973000
O3831	O383	0.977300	0.416900	0.514100
O3841	O384	0.969900	0.334300	0.508900
C3831	C383	0.998700	0.373300	0.508700
C3841	C384	0.054200	0.367200	0.503400
H3831	H383	0.071400	0.381900	0.532800
H3841	H384	0.066000	0.384800	0.473000
Er11	Er1	0.000000	0.250000	0.000000
Er21	Er2	0.000000	0.750000	0.500000
Er31	Er3	0.500000	0.250000	0.500000
Er41	Er4	0.250000	0.500000	0.500000
Er51	Er5	0.750000	0.000000	0.500000
Er61	Er6	0.750000	0.750000	0.250000
Er71	Er7	0.500000	0.000000	0.750000
Er81	Er8	0.000000	0.000000	0.250000
Er91	Er9	0.000000	0.500000	0.750000
Er101	Er10	0.500000	0.500000	0.250000
Er111	Er11	0.500000	0.750000	0.000000
Er121	Er12	0.250000	0.750000	0.750000
Er131	Er13	0.250000	0.250000	0.250000
Er141	Er14	0.750000	0.500000	0.000000
Er151	Er15	0.250000	0.000000	0.000000
Er161	Er16	0.750000	0.250000	0.750000
Er171	Er17	0.000000	0.750000	0.000000
Er181	Er18	0.750000	0.500000	0.500000
Er191	Er19	0.250000	0.250000	0.750000
Er201	Er20	0.750000	0.750000	0.750000
Er211	Er21	0.500000	0.000000	0.250000
Er221	Er22	0.000000	0.000000	0.750000
Er231	Er23	0.000000	0.500000	0.250000
Er241	Er24	0.500000	0.750000	0.500000
Er251	Er25	0.500000	0.250000	0.000000
Er261	Er26	0.750000	0.250000	0.250000
Er271	Er27	0.250000	0.500000	0.000000
Er281	Er28	0.250000	0.000000	0.500000
Er291	Er29	0.750000	0.000000	0.000000
Er301	Er30	0.500000	0.500000	0.750000
Er311	Er31	0.250000	0.750000	0.250000
Er321	Er32	0.000000	0.250000	0.500000
Cd11	Cd1	0.000000	0.500000	0.000000
Cd21	Cd2	0.500000	0.500000	0.500000
Cd31	Cd3	0.250000	0.250000	0.500000
Cd41	Cd4	0.250000	0.750000	0.000000
Cd51	Cd5	0.750000	0.000000	0.250000
Cd61	Cd6	0.500000	0.750000	0.750000
Cd71	Cd7	0.000000	0.250000	0.750000
Cd81	Cd8	0.000000	0.000000	0.500000
Cd91	Cd9	0.500000	0.250000	0.250000
Cd101	Cd10	0.750000	0.500000	0.750000
Cd111	Cd11	0.500000	0.000000	0.000000
Cd121	Cd12	0.250000	0.500000	0.250000
Cd131	Cd13	0.750000	0.750000	0.500000
Cd141	Cd14	0.250000	0.250000	0.000000
Cd151	Cd15	0.000000	0.500000	0.500000
Cd161	Cd16	0.000000	0.000000	0.000000
Cd171	Cd17	0.750000	0.000000	0.750000
Cd181	Cd18	0.500000	0.750000	0.250000
Cd191	Cd19	0.000000	0.750000	0.750000
Cd201	Cd20	0.000000	0.250000	0.250000
Cd211	Cd21	0.750000	0.250000	0.500000
Cd221	Cd22	0.750000	0.750000	0.000000
Cd231	Cd23	0.500000	0.500000	0.000000
Cd241	Cd24	0.250000	0.000000	0.250000
Cd251	Cd25	0.250000	0.500000	0.750000
Cd261	Cd26	0.500000	0.000000	0.500000
Cd271	Cd27	0.250000	0.000000	0.750000
Cd281	Cd28	0.750000	0.250000	0.000000
Cd291	Cd29	0.000000	0.750000	0.250000
Cd301	Cd30	0.250000	0.750000	0.500000
Cd311	Cd31	0.750000	0.500000	0.250000
Cd321	Cd32	0.500000	0.250000	0.750000
O3851	O385	0.000000	0.315400	0.065400
O3861	O386	0.000000	0.815400	0.565400
O3871	O387	0.500000	0.315400	0.565400
O3881	O388	0.250000	0.434600	0.565400
O3891	O389	0.750000	0.434600	0.065400
O3901	O390	0.750000	0.815400	0.184600
O3911	O391	0.250000	0.815400	0.684600
O3921	O392	0.500000	0.934600	0.684600
O3931	O393	0.000000	0.934600	0.184600
O3941	O394	0.000000	0.434600	0.684600
O3951	O395	0.065400	0.000000	0.315400
O3961	O396	0.065400	0.500000	0.815400
O3971	O397	0.565400	0.000000	0.815400
O3981	O398	0.565400	0.250000	0.434600
O3991	O399	0.565400	0.750000	0.934600
O4001	O400	0.065400	0.750000	0.434600
O4011	O401	0.184600	0.750000	0.815400
O4021	O402	0.184600	0.250000	0.315400
O4031	O403	0.684600	0.500000	0.934600
O4041	O404	0.684600	0.000000	0.434600
O4051	O405	0.315400	0.065400	0.000000
O4061	O406	0.315400	0.565400	0.500000
O4071	O407	0.815400	0.565400	0.000000
O4081	O408	0.434600	0.565400	0.250000
O4091	O409	0.434600	0.065400	0.750000
O4101	O410	0.815400	0.184600	0.750000
O4111	O411	0.815400	0.684600	0.250000
O4121	O412	0.934600	0.684600	0.500000
O4131	O413	0.934600	0.184600	0.000000
O4141	O414	0.434600	0.684600	0.000000
O4151	O415	0.065400	0.250000	0.934600
O4161	O416	0.184600	0.500000	0.434600
O4171	O417	0.184600	0.000000	0.934600
O4181	O418	0.565400	0.500000	0.315400
O4191	O419	0.684600	0.750000	0.315400
O4201	O420	0.684600	0.250000	0.815400
O4211	O421	0.750000	0.315400	0.684600
O4221	O422	0.250000	0.315400	0.184600
O4231	O423	0.500000	0.815400	0.065400
O4241	O424	0.500000	0.434600	0.184600
O4251	O425	0.250000	0.934600	0.065400
O4261	O426	0.750000	0.934600	0.565400
O4271	O427	0.815400	0.065400	0.500000
O4281	O428	0.315400	0.684600	0.750000
O4291	O429	0.315400	0.184600	0.250000
O4301	O430	0.934600	0.065400	0.250000
O4311	O431	0.934600	0.565400	0.750000
O4321	O432	0.434600	0.184600	0.500000
O4331	O433	0.000000	0.684600	0.934600
O4341	O434	0.000000	0.184600	0.434600
O4351	O435	0.500000	0.684600	0.434600
O4361	O436	0.750000	0.565400	0.434600
O4371	O437	0.250000	0.565400	0.934600
O4381	O438	0.250000	0.184600	0.815400
O4391	O439	0.750000	0.184600	0.315400
O4401	O440	0.750000	0.684600	0.815400
O4411	O441	0.500000	0.065400	0.315400
O4421	O442	0.000000	0.065400	0.815400
O4431	O443	0.934600	0.000000	0.684600
O4441	O444	0.934600	0.500000	0.184600
O4451	O445	0.434600	0.000000	0.184600
O4461	O446	0.434600	0.750000	0.565400
O4471	O447	0.434600	0.250000	0.065400
O4481	O448	0.815400	0.250000	0.184600
O4491	O449	0.815400	0.750000	0.684600
O4501	O450	0.315400	0.500000	0.065400
O4511	O451	0.315400	0.000000	0.565400
O4521	O452	0.815400	0.000000	0.065400
O4531	O453	0.684600	0.934600	0.000000
O4541	O454	0.684600	0.434600	0.500000
O4551	O455	0.184600	0.434600	0.000000
O4561	O456	0.565400	0.434600	0.750000
O4571	O457	0.565400	0.934600	0.250000
O4581	O458	0.184600	0.815400	0.250000
O4591	O459	0.184600	0.315400	0.750000
O4601	O460	0.684600	0.815400	0.750000
O4611	O461	0.065400	0.315400	0.500000
O4621	O462	0.065400	0.815400	0.000000
O4631	O463	0.934600	0.750000	0.065400
O4641	O464	0.934600	0.250000	0.565400
O4651	O465	0.815400	0.500000	0.565400
O4661	O466	0.434600	0.500000	0.684600
O4671	O467	0.315400	0.250000	0.684600
O4681	O468	0.315400	0.750000	0.184600
O4691	O469	0.250000	0.684600	0.315400
O4701	O470	0.500000	0.184600	0.934600
O4711	O471	0.500000	0.565400	0.815400
O4721	O472	0.000000	0.565400	0.315400
O4731	O473	0.750000	0.065400	0.934600
O4741	O474	0.250000	0.065400	0.434600
O4751	O475	0.184600	0.934600	0.500000
O4761	O476	0.684600	0.315400	0.250000
O4771	O477	0.065400	0.934600	0.750000
O4781	O478	0.065400	0.434600	0.250000
O4791	O479	0.565400	0.815400	0.500000
O4801	O480	0.565400	0.315400	0.000000
