data_KONFEA_freeONLY_PM
_symmetry_space_group_name_H-M	'P1'
_cell_length_a	7.040400
_cell_length_b	13.001500
_cell_length_c	13.733800
_cell_angle_alpha	90.000000
_cell_angle_beta	100.881000
_cell_angle_gamma	90.000000
_symmetry_Int_Tables_number 1

loop_
_symmetry_equiv_pos_as_xyz
'x,y,z'

loop_
_atom_site_label
_atom_site_type_symbol
_atom_site_fract_x
_atom_site_fract_y
_atom_site_fract_z
La11	La1	0.792350	0.038440	0.957740
La21	La2	0.586780	0.964090	0.440740
S11	S1	0.258100	0.057360	0.187740
S21	S2	0.632100	0.291240	0.798140
S31	S3	0.595300	0.306820	0.049230
O11	O1	0.658300	0.995400	0.111600
O21	O2	0.641100	0.993300	0.269500
O31	O3	0.921600	0.909100	0.426900
O41	O4	0.242300	0.912400	0.460700
O51	O5	0.733500	0.972000	0.783400
O61	O6	0.673000	0.979400	0.619700
O71	O7	0.413000	0.112700	0.493300
O81	O8	0.382500	0.282900	0.494100
O91	O9	0.421100	0.025300	0.902800
O101	O10	0.114300	0.059000	0.908800
O111	O11	0.927100	0.217100	0.995400
O121	O12	0.000400	0.382500	0.992400
O131	O13	0.802700	0.123700	0.451000
N11	N1	0.025800	0.049800	0.150700
N21	N2	0.269000	0.010000	0.298700
N31	N3	0.684900	0.169100	0.801100
N41	N4	0.536500	0.297900	0.683400
N51	N5	0.548000	0.192000	0.003300
N61	N6	0.371600	0.340100	0.044000
C11	C1	0.948000	0.009600	0.224800
C21	C2	0.090600	0.986100	0.311000
C31	C3	0.732800	0.997100	0.200700
C41	C4	0.079000	0.931100	0.407600
C51	C5	0.627600	0.130400	0.711400
C61	C6	0.540700	0.205100	0.641800
C71	C7	0.678600	0.017000	0.703300
C81	C8	0.441300	0.198700	0.534200
C91	C9	0.357800	0.179100	0.981700
C101	C10	0.255800	0.265000	0.007500
C111	C11	0.290400	0.079600	0.927800
C121	C12	0.043400	0.287900	0.996800
La31	La3	0.207650	0.538440	0.042260
La41	La4	0.413220	0.464090	0.559260
S41	S4	0.741900	0.557360	0.812260
S51	S5	0.367900	0.791240	0.201860
S61	S6	0.404700	0.806820	0.950770
O141	O14	0.341700	0.495400	0.888400
O151	O15	0.358900	0.493300	0.730500
O161	O16	0.078400	0.409100	0.573100
O171	O17	0.757700	0.412400	0.539300
O181	O18	0.266500	0.472000	0.216600
O191	O19	0.327000	0.479400	0.380300
O201	O20	0.587000	0.612700	0.506700
O211	O21	0.617500	0.782900	0.505900
O221	O22	0.578900	0.525300	0.097200
O231	O23	0.885700	0.559000	0.091200
O241	O24	0.072900	0.717100	0.004600
O251	O25	0.999600	0.882500	0.007600
O261	O26	0.197300	0.623700	0.549000
N71	N7	0.974200	0.549800	0.849300
N81	N8	0.731000	0.510000	0.701300
N91	N9	0.315100	0.669100	0.198900
N101	N10	0.463500	0.797900	0.316600
N111	N11	0.452000	0.692000	0.996700
N121	N12	0.628400	0.840100	0.956000
C131	C13	0.052000	0.509600	0.775200
C141	C14	0.909400	0.486100	0.689000
C151	C15	0.267200	0.497100	0.799300
C161	C16	0.921000	0.431100	0.592400
C171	C17	0.372400	0.630400	0.288600
C181	C18	0.459300	0.705100	0.358200
C191	C19	0.321400	0.517000	0.296700
C201	C20	0.558700	0.698700	0.465800
C211	C21	0.642200	0.679100	0.018300
C221	C22	0.744200	0.765000	0.992500
C231	C23	0.709600	0.579600	0.072200
C241	C24	0.956600	0.787900	0.003200
