data_KONSAJ_freeONLY_PM
_symmetry_space_group_name_H-M	'P1'
_cell_length_a	25.027500
_cell_length_b	25.027500
_cell_length_c	25.027500
_cell_angle_alpha	109.471000
_cell_angle_beta	109.471000
_cell_angle_gamma	109.471000
_symmetry_Int_Tables_number 1

loop_
_symmetry_equiv_pos_as_xyz
'x,y,z'

loop_
_atom_site_label
_atom_site_type_symbol
_atom_site_fract_x
_atom_site_fract_y
_atom_site_fract_z
Fe11	Fe1	0.175540	0.000000	0.519140
Fe21	Fe2	0.519140	0.000000	0.175540
Fe31	Fe3	0.656400	0.480860	0.480860
Fe41	Fe4	0.000000	0.175540	0.519140
Fe51	Fe5	0.480860	0.480860	0.656400
Fe61	Fe6	0.175540	0.519140	0.000000
Fe71	Fe7	0.824460	0.343600	0.824460
Fe81	Fe8	0.824460	0.824460	0.343600
Fe91	Fe9	0.519140	0.175540	0.000000
Fe101	Fe10	0.000000	0.519140	0.175540
Fe111	Fe11	0.343600	0.824460	0.824460
Fe121	Fe12	0.480860	0.656400	0.480860
Cu11	Cu1	0.575000	0.256590	0.729770
Cu21	Cu2	0.270230	0.845230	0.526820
Cu31	Cu3	0.729770	0.256590	0.575000
Cu41	Cu4	0.473180	0.743410	0.318410
Cu51	Cu5	0.681590	0.154770	0.425000
Cu61	Cu6	0.743410	0.318410	0.473180
Cu71	Cu7	0.845230	0.526820	0.270230
Cu81	Cu8	0.729770	0.575000	0.256590
Cu91	Cu9	0.526820	0.270230	0.845230
Cu101	Cu10	0.256590	0.729770	0.575000
Cu111	Cu11	0.318410	0.743410	0.473180
Cu121	Cu12	0.681590	0.425000	0.154770
Cu131	Cu13	0.425000	0.154770	0.681590
Cu141	Cu14	0.845230	0.270230	0.526820
Cu151	Cu15	0.526820	0.845230	0.270230
Cu161	Cu16	0.270230	0.526820	0.845230
Cu171	Cu17	0.425000	0.681590	0.154770
Cu181	Cu18	0.256590	0.575000	0.729770
Cu191	Cu19	0.318410	0.473180	0.743410
Cu201	Cu20	0.473180	0.318410	0.743410
Cu211	Cu21	0.743410	0.473180	0.318410
Cu221	Cu22	0.154770	0.425000	0.681590
Cu231	Cu23	0.154770	0.681590	0.425000
Cu241	Cu24	0.575000	0.729770	0.256590
P11	P1	0.550210	0.938440	0.272590
P21	P2	0.727410	0.665850	0.277620
P31	P3	0.722380	0.388230	0.449790
P41	P4	0.061560	0.611770	0.334150
P51	P5	0.272590	0.550210	0.938440
P61	P6	0.272590	0.938440	0.550210
P71	P7	0.611770	0.061560	0.334150
P81	P8	0.449790	0.722380	0.388230
P91	P9	0.665850	0.277620	0.727410
P101	P10	0.388230	0.449790	0.722380
P111	P11	0.334150	0.611770	0.061560
P121	P12	0.334150	0.061560	0.611770
P131	P13	0.061560	0.334150	0.611770
P141	P14	0.277620	0.665850	0.727410
P151	P15	0.727410	0.277620	0.665850
P161	P16	0.611770	0.334150	0.061560
P171	P17	0.938440	0.550210	0.272590
P181	P18	0.550210	0.272590	0.938440
P191	P19	0.388230	0.722380	0.449790
P201	P20	0.722380	0.449790	0.388230
P211	P21	0.938440	0.272590	0.550210
P221	P22	0.665850	0.727410	0.277620
P231	P23	0.277620	0.727410	0.665850
P241	P24	0.449790	0.388230	0.722380
H11	H1	0.348900	0.059300	0.782400
H21	H2	0.601300	0.673300	0.518000
H31	H3	0.151200	0.570100	0.920900
H41	H4	0.059300	0.348900	0.782400
H51	H5	0.432800	0.703000	0.766200
H61	H6	0.748800	0.370800	0.098400
H71	H7	0.432100	0.946200	0.856500
H81	H8	0.143500	0.575600	0.089700
H91	H9	0.350800	0.429900	0.581100
H101	H10	0.666600	0.233800	0.936800
H111	H11	0.451100	0.862400	0.549100
H121	H12	0.450900	0.902000	0.313300
H131	H13	0.766200	0.703000	0.432800
H141	H14	0.258200	0.077200	0.496200
H151	H15	0.928000	0.326700	0.844700
H161	H16	0.450900	0.313300	0.902000
H171	H17	0.326700	0.928000	0.844700
H181	H18	0.910300	0.053800	0.485900
H191	H19	0.230300	0.079100	0.649200
H201	H20	0.346900	0.062600	0.481700
H211	H21	0.155300	0.083300	0.482000
H221	H22	0.946200	0.856500	0.432100
H231	H23	0.729800	0.063200	0.297000
H241	H24	0.063200	0.729800	0.297000
H251	H25	0.089700	0.575600	0.143500
H261	H26	0.715700	0.653100	0.134800
H271	H27	0.567200	0.270200	0.333400
H281	H28	0.518000	0.673300	0.601300
H291	H29	0.920900	0.570100	0.151200
H301	H30	0.079100	0.649200	0.230300
H311	H31	0.326700	0.844700	0.928000
H321	H32	0.848800	0.769700	0.418900
H331	H33	0.270200	0.333400	0.567200
H341	H34	0.433500	0.710400	0.651100
H351	H35	0.727600	0.629200	0.378000
H361	H36	0.622000	0.349600	0.251200
H371	H37	0.819000	0.741800	0.238000
H381	H38	0.151200	0.920900	0.570100
H391	H39	0.313300	0.902000	0.450900
H401	H40	0.181000	0.922800	0.419000
H411	H41	0.936800	0.233800	0.666600
H421	H42	0.902000	0.313300	0.450900
H431	H43	0.346900	0.481700	0.062600
H441	H44	0.865200	0.580900	0.518300
H451	H45	0.079100	0.230300	0.649200
H461	H46	0.083300	0.482000	0.155300
H471	H47	0.485900	0.910300	0.053800
H481	H48	0.333400	0.567200	0.270200
H491	H49	0.062600	0.346900	0.481700
H501	H50	0.581000	0.503800	0.762000
H511	H51	0.516200	0.573700	0.924500
H521	H52	0.910300	0.485900	0.053800
H531	H53	0.482000	0.083300	0.155300
H541	H54	0.856500	0.432100	0.946200
H551	H55	0.297000	0.729800	0.063200
H561	H56	0.143500	0.089700	0.575600
H571	H57	0.940700	0.289600	0.723100
H581	H58	0.230300	0.649200	0.079100
H591	H59	0.496200	0.258200	0.077200
H601	H60	0.937400	0.419100	0.284300
H611	H61	0.916700	0.398700	0.072000
H621	H62	0.258200	0.496200	0.077200
H631	H63	0.727600	0.378000	0.629200
H641	H64	0.270200	0.567200	0.333400
H651	H65	0.077200	0.258200	0.496200
H661	H66	0.426300	0.942500	0.350800
H671	H67	0.916700	0.072000	0.398700
H681	H68	0.503800	0.762000	0.581000
H691	H69	0.936800	0.666600	0.233800
H701	H70	0.217600	0.276900	0.566500
H711	H71	0.482000	0.155300	0.083300
H721	H72	0.370800	0.098400	0.748800
H731	H73	0.591700	0.075500	0.649200
H741	H74	0.284300	0.937400	0.419100
H751	H75	0.408300	0.057500	0.483800
H761	H76	0.072000	0.916700	0.398700
H771	H77	0.922800	0.419000	0.181000
H781	H78	0.622000	0.251200	0.349600
H791	H79	0.514100	0.567900	0.424400
H801	H80	0.378000	0.629200	0.727600
H811	H81	0.862400	0.549100	0.451100
H821	H82	0.715700	0.134800	0.653100
H831	H83	0.419000	0.922800	0.181000
H841	H84	0.591700	0.649200	0.075500
H851	H85	0.063200	0.297000	0.729800
H861	H86	0.083300	0.155300	0.482000
H871	H87	0.901600	0.272400	0.650400
H881	H88	0.729800	0.297000	0.063200
H891	H89	0.922800	0.181000	0.419000
H901	H90	0.424400	0.567900	0.514100
H911	H91	0.766200	0.432800	0.703000
H921	H92	0.233800	0.936800	0.666600
H931	H93	0.928000	0.844700	0.326700
H941	H94	0.370800	0.748800	0.098400
H951	H95	0.289600	0.940700	0.723100
H961	H96	0.920900	0.151200	0.570100
H971	H97	0.289600	0.723100	0.940700
H981	H98	0.902000	0.450900	0.313300
H991	H99	0.601300	0.518000	0.673300
H1001	H100	0.233800	0.666600	0.936800
H1011	H101	0.483800	0.057500	0.408300
H1021	H102	0.276900	0.217600	0.566500
H1031	H103	0.942500	0.426300	0.350800
H1041	H104	0.276900	0.566500	0.217600
H1051	H105	0.924500	0.573700	0.516200
H1061	H106	0.673300	0.518000	0.601300
H1071	H107	0.418900	0.769700	0.848800
H1081	H108	0.059300	0.782400	0.348900
H1091	H109	0.483800	0.408300	0.057500
H1101	H110	0.819000	0.238000	0.741800
H1111	H111	0.575600	0.143500	0.089700
H1121	H112	0.703000	0.432800	0.766200
H1131	H113	0.653100	0.134800	0.715700
H1141	H114	0.549100	0.451100	0.862400
H1151	H115	0.748800	0.098400	0.370800
H1161	H116	0.518300	0.865200	0.580900
H1171	H117	0.098400	0.748800	0.370800
H1181	H118	0.134800	0.715700	0.653100
H1191	H119	0.649200	0.079100	0.230300
H1201	H120	0.137600	0.686700	0.588700
H1211	H121	0.901600	0.650400	0.272400
H1221	H122	0.350800	0.581100	0.429900
H1231	H123	0.348900	0.782400	0.059300
H1241	H124	0.350800	0.426300	0.942500
H1251	H125	0.629200	0.727600	0.378000
H1261	H126	0.481700	0.346900	0.062600
H1271	H127	0.548900	0.098000	0.411300
H1281	H128	0.588700	0.686700	0.137600
H1291	H129	0.272400	0.901600	0.650400
H1301	H130	0.937400	0.284300	0.419100
H1311	H131	0.580900	0.865200	0.518300
H1321	H132	0.426300	0.350800	0.942500
H1331	H133	0.782400	0.348900	0.059300
H1341	H134	0.575600	0.089700	0.143500
H1351	H135	0.710400	0.651100	0.433500
H1361	H136	0.549100	0.862400	0.451100
H1371	H137	0.865200	0.518300	0.580900
H1381	H138	0.651100	0.710400	0.433500
H1391	H139	0.333400	0.270200	0.567200
H1401	H140	0.650400	0.901600	0.272400
H1411	H141	0.432800	0.766200	0.703000
H1421	H142	0.134800	0.653100	0.715700
H1431	H143	0.848800	0.418900	0.769700
H1441	H144	0.075500	0.649200	0.591700
H1451	H145	0.432100	0.856500	0.946200
H1461	H146	0.651100	0.433500	0.710400
H1471	H147	0.741800	0.819000	0.238000
H1481	H148	0.723100	0.940700	0.289600
H1491	H149	0.844700	0.326700	0.928000
H1501	H150	0.567900	0.514100	0.424400
H1511	H151	0.098000	0.548900	0.411300
H1521	H152	0.411300	0.548900	0.098000
H1531	H153	0.424400	0.514100	0.567900
H1541	H154	0.686700	0.588700	0.137600
H1551	H155	0.098400	0.370800	0.748800
H1561	H156	0.496200	0.077200	0.258200
H1571	H157	0.946200	0.432100	0.856500
H1581	H158	0.649200	0.591700	0.075500
H1591	H159	0.503800	0.581000	0.762000
H1601	H160	0.940700	0.723100	0.289600
H1611	H161	0.057500	0.483800	0.408300
H1621	H162	0.481700	0.062600	0.346900
H1631	H163	0.566500	0.217600	0.276900
H1641	H164	0.350800	0.942500	0.426300
H1651	H165	0.349600	0.622000	0.251200
H1661	H166	0.588700	0.137600	0.686700
H1671	H167	0.057500	0.408300	0.483800
H1681	H168	0.581100	0.350800	0.429900
H1691	H169	0.769700	0.418900	0.848800
H1701	H170	0.098000	0.411300	0.548900
H1711	H171	0.653100	0.715700	0.134800
H1721	H172	0.566500	0.276900	0.217600
H1731	H173	0.762000	0.503800	0.581000
H1741	H174	0.518300	0.580900	0.865200
H1751	H175	0.942500	0.350800	0.426300
H1761	H176	0.238000	0.819000	0.741800
H1771	H177	0.181000	0.419000	0.922800
H1781	H178	0.297000	0.063200	0.729800
H1791	H179	0.710400	0.433500	0.651100
H1801	H180	0.649200	0.230300	0.079100
H1811	H181	0.581100	0.429900	0.350800
H1821	H182	0.418900	0.848800	0.769700
H1831	H183	0.516200	0.924500	0.573700
H1841	H184	0.062600	0.481700	0.346900
H1851	H185	0.686700	0.137600	0.588700
H1861	H186	0.723100	0.289600	0.940700
H1871	H187	0.137600	0.588700	0.686700
H1881	H188	0.419000	0.181000	0.922800
H1891	H189	0.485900	0.053800	0.910300
H1901	H190	0.570100	0.151200	0.920900
H1911	H191	0.580900	0.518300	0.865200
H1921	H192	0.581000	0.762000	0.503800
H1931	H193	0.155300	0.482000	0.083300
H1941	H194	0.567900	0.424400	0.514100
H1951	H195	0.629200	0.378000	0.727600
H1961	H196	0.053800	0.910300	0.485900
H1971	H197	0.075500	0.591700	0.649200
H1981	H198	0.077200	0.496200	0.258200
H1991	H199	0.762000	0.581000	0.503800
H2001	H200	0.924500	0.516200	0.573700
H2011	H201	0.548900	0.411300	0.098000
H2021	H202	0.284300	0.419100	0.937400
H2031	H203	0.666600	0.936800	0.233800
H2041	H204	0.251200	0.349600	0.622000
H2051	H205	0.782400	0.059300	0.348900
H2061	H206	0.251200	0.622000	0.349600
H2071	H207	0.272400	0.650400	0.901600
H2081	H208	0.419100	0.284300	0.937400
H2091	H209	0.769700	0.848800	0.418900
H2101	H210	0.089700	0.143500	0.575600
H2111	H211	0.856500	0.946200	0.432100
H2121	H212	0.419100	0.937400	0.284300
H2131	H213	0.053800	0.485900	0.910300
H2141	H214	0.451100	0.549100	0.862400
H2151	H215	0.398700	0.072000	0.916700
H2161	H216	0.844700	0.928000	0.326700
H2171	H217	0.650400	0.272400	0.901600
H2181	H218	0.429900	0.581100	0.350800
H2191	H219	0.349600	0.251200	0.622000
H2201	H220	0.429900	0.350800	0.581100
H2211	H221	0.567200	0.333400	0.270200
H2221	H222	0.313300	0.450900	0.902000
H2231	H223	0.741800	0.238000	0.819000
H2241	H224	0.570100	0.920900	0.151200
H2251	H225	0.433500	0.651100	0.710400
H2261	H226	0.238000	0.741800	0.819000
H2271	H227	0.411300	0.098000	0.548900
H2281	H228	0.514100	0.424400	0.567900
H2291	H229	0.378000	0.727600	0.629200
H2301	H230	0.703000	0.766200	0.432800
H2311	H231	0.649200	0.075500	0.591700
H2321	H232	0.217600	0.566500	0.276900
H2331	H233	0.408300	0.483800	0.057500
H2341	H234	0.673300	0.601300	0.518000
H2351	H235	0.072000	0.398700	0.916700
H2361	H236	0.518000	0.601300	0.673300
H2371	H237	0.862400	0.451100	0.549100
H2381	H238	0.573700	0.924500	0.516200
H2391	H239	0.573700	0.516200	0.924500
H2401	H240	0.398700	0.916700	0.072000
C11	C1	0.383800	0.059900	0.506100
C21	C2	0.914900	0.091300	0.483600
C31	C3	0.392300	0.823600	0.908700
C41	C4	0.717000	0.553900	0.475700
C51	C5	0.392300	0.908700	0.823600
C61	C6	0.861400	0.442500	0.442500
C71	C7	0.333600	0.816800	0.899200
C81	C8	0.565600	0.666400	0.483200
C91	C9	0.336300	0.060600	0.742300
C101	C10	0.292000	0.292000	0.682000
C111	C11	0.085100	0.568700	0.176400
C121	C12	0.122300	0.616200	0.676100
C131	C13	0.681700	0.275700	0.939400
C141	C14	0.506100	0.059900	0.383800
C151	C15	0.639800	0.151800	0.639800
C161	C16	0.848200	0.488000	0.488000
C171	C17	0.442500	0.442500	0.861400
C181	C18	0.323900	0.446200	0.940100
C191	C19	0.684900	0.418000	0.493500
C201	C20	0.553900	0.475700	0.717000
C211	C21	0.488000	0.848200	0.488000
C221	C22	0.283000	0.758700	0.836900
C231	C23	0.385600	0.854500	0.774700
C241	C24	0.418000	0.493500	0.684900
C251	C25	0.724300	0.663700	0.406000
C261	C26	0.075500	0.582000	0.266900
C271	C27	0.075500	0.266900	0.582000
C281	C28	0.924500	0.506500	0.191400
C291	C29	0.360200	0.512000	0.000000
C301	C30	0.553800	0.493900	0.877700
C311	C31	0.163100	0.921800	0.446100
C321	C32	0.431300	0.516400	0.607700
C331	C33	0.581100	0.581100	0.138600
C341	C34	0.145500	0.920200	0.531100
C351	C35	0.553800	0.877700	0.493900
C361	C36	0.836900	0.283000	0.758700
C371	C37	0.446100	0.921800	0.163100
C381	C38	0.091300	0.914900	0.483600
C391	C39	0.000000	0.512000	0.360200
C401	C40	0.191400	0.924500	0.506500
C411	C41	0.418900	0.557500	0.000000
C421	C42	0.921800	0.446100	0.163100
C431	C43	0.060600	0.742300	0.336300
C441	C44	0.446200	0.940100	0.323900
C451	C45	0.493900	0.877700	0.553800
C461	C46	0.708000	0.000000	0.390000
C471	C47	0.506500	0.924500	0.191400
C481	C48	0.610900	0.225300	0.079800
C491	C49	0.390000	0.708000	0.000000
C501	C50	0.360200	0.000000	0.512000
C511	C51	0.689700	0.324700	0.000000
C521	C52	0.191400	0.506500	0.924500
C531	C53	0.275700	0.681700	0.939400
C541	C54	0.616200	0.676100	0.122300
C551	C55	0.000000	0.324700	0.689700
C561	C56	0.315100	0.733100	0.808600
C571	C57	0.557500	0.000000	0.418900
C581	C58	0.594000	0.257700	0.318300
C591	C59	0.183200	0.082400	0.516800
C601	C60	0.568700	0.085100	0.176400
C611	C61	0.681700	0.939400	0.275700
C621	C62	0.854500	0.385600	0.774700
C631	C63	0.079800	0.610900	0.225300
C641	C64	0.225300	0.079800	0.610900
C651	C65	0.516400	0.431300	0.607700
C661	C66	0.000000	0.418900	0.557500
C671	C67	0.908700	0.392300	0.823600
C681	C68	0.336300	0.742300	0.060600
C691	C69	0.808600	0.315100	0.733100
C701	C70	0.488000	0.488000	0.848200
C711	C71	0.283000	0.836900	0.758700
C721	C72	0.531100	0.920200	0.145500
C731	C73	0.816800	0.899200	0.333600
C741	C74	0.610000	0.318000	0.610000
C751	C75	0.816800	0.333600	0.899200
C761	C76	0.557500	0.418900	0.000000
C771	C77	0.616200	0.122300	0.676100
C781	C78	0.318300	0.594000	0.257700
C791	C79	0.920200	0.145500	0.531100
C801	C80	0.689700	0.000000	0.324700
C811	C81	0.483600	0.914900	0.091300
C821	C82	0.241300	0.078200	0.524300
C831	C83	0.774700	0.385600	0.854500
C841	C84	0.333600	0.899200	0.816800
C851	C85	0.434400	0.917600	0.100800
C861	C86	0.406000	0.663700	0.724300
C871	C87	0.708000	0.390000	0.000000
C881	C88	0.581100	0.138600	0.581100
C891	C89	0.431300	0.607700	0.516400
C901	C90	0.635000	0.310300	0.310300
C911	C91	0.666400	0.483200	0.565600
C921	C92	0.663700	0.724300	0.406000
C931	C93	0.060600	0.336300	0.742300
C941	C94	0.122300	0.676100	0.616200
C951	C95	0.085100	0.176400	0.568700
C961	C96	0.082400	0.183200	0.516800
C971	C97	0.524300	0.241300	0.078200
C981	C98	0.266900	0.582000	0.075500
C991	C99	0.924500	0.191400	0.506500
C1001	C100	0.742300	0.336300	0.060600
C1011	C101	0.000000	0.360200	0.512000
C1021	C102	0.614400	0.389100	0.468900
C1031	C103	0.506100	0.383800	0.059900
C1041	C104	0.607700	0.516400	0.431300
C1051	C105	0.899200	0.816800	0.333600
C1061	C106	0.676100	0.616200	0.122300
C1071	C107	0.506500	0.191400	0.924500
C1081	C108	0.383800	0.506100	0.059900
C1091	C109	0.582000	0.075500	0.266900
C1101	C110	0.553900	0.717000	0.475700
C1111	C111	0.406000	0.724300	0.663700
C1121	C112	0.324700	0.689700	0.000000
C1131	C113	0.675300	0.675300	0.365000
C1141	C114	0.610900	0.079800	0.225300
C1151	C115	0.176400	0.568700	0.085100
C1161	C116	0.000000	0.689700	0.324700
C1171	C117	0.475700	0.717000	0.553900
C1181	C118	0.675300	0.365000	0.675300
C1191	C119	0.318000	0.610000	0.610000
C1201	C120	0.000000	0.557500	0.418900
C1211	C121	0.475700	0.553900	0.717000
C1221	C122	0.493500	0.684900	0.418000
C1231	C123	0.266900	0.075500	0.582000
C1241	C124	0.684900	0.493500	0.418000
C1251	C125	0.275700	0.939400	0.681700
C1261	C126	0.823600	0.908700	0.392300
C1271	C127	0.176400	0.085100	0.568700
C1281	C128	0.607700	0.431300	0.516400
C1291	C129	0.078200	0.241300	0.524300
C1301	C130	0.524300	0.078200	0.241300
C1311	C131	0.138600	0.581100	0.581100
C1321	C132	0.808600	0.733100	0.315100
C1331	C133	0.100800	0.917600	0.434400
C1341	C134	0.468900	0.614400	0.389100
C1351	C135	0.091300	0.483600	0.914900
C1361	C136	0.292000	0.682000	0.292000
C1371	C137	0.733100	0.315100	0.808600
C1381	C138	0.418900	0.000000	0.557500
C1391	C139	0.310300	0.310300	0.635000
C1401	C140	0.082400	0.516800	0.183200
C1411	C141	0.493900	0.553800	0.877700
C1421	C142	0.145500	0.531100	0.920200
C1431	C143	0.939400	0.275700	0.681700
C1441	C144	0.315100	0.808600	0.733100
C1451	C145	0.483200	0.565600	0.666400
C1461	C146	0.000000	0.708000	0.390000
C1471	C147	0.758700	0.836900	0.283000
C1481	C148	0.663700	0.406000	0.724300
C1491	C149	0.512000	0.360200	0.000000
C1501	C150	0.516400	0.607700	0.431300
C1511	C151	0.516800	0.082400	0.183200
C1521	C152	0.318300	0.257700	0.594000
C1531	C153	0.733100	0.808600	0.315100
C1541	C154	0.758700	0.283000	0.836900
C1551	C155	0.610000	0.610000	0.318000
C1561	C156	0.257700	0.594000	0.318300
C1571	C157	0.531100	0.145500	0.920200
C1581	C158	0.100800	0.434400	0.917600
C1591	C159	0.078200	0.524300	0.241300
C1601	C160	0.059900	0.506100	0.383800
C1611	C161	0.614400	0.468900	0.389100
C1621	C162	0.257700	0.318300	0.594000
C1631	C163	0.639800	0.639800	0.151800
C1641	C164	0.163100	0.446100	0.921800
C1651	C165	0.323900	0.940100	0.446200
C1661	C166	0.742300	0.060600	0.336300
C1671	C167	0.920200	0.531100	0.145500
C1681	C168	0.310300	0.635000	0.310300
C1691	C169	0.483600	0.091300	0.914900
C1701	C170	0.724300	0.406000	0.663700
C1711	C171	0.483200	0.666400	0.565600
C1721	C172	0.568700	0.176400	0.085100
C1731	C173	0.717000	0.475700	0.553900
C1741	C174	0.151800	0.639800	0.639800
C1751	C175	0.446100	0.163100	0.921800
C1761	C176	0.059900	0.383800	0.506100
C1771	C177	0.389100	0.468900	0.614400
C1781	C178	0.940100	0.446200	0.323900
C1791	C179	0.365000	0.675300	0.675300
C1801	C180	0.877700	0.553800	0.493900
C1811	C181	0.682000	0.292000	0.292000
C1821	C182	0.512000	0.000000	0.360200
C1831	C183	0.908700	0.823600	0.392300
C1841	C184	0.434400	0.100800	0.917600
C1851	C185	0.565600	0.483200	0.666400
C1861	C186	0.493500	0.418000	0.684900
C1871	C187	0.899200	0.333600	0.816800
C1881	C188	0.241300	0.524300	0.078200
C1891	C189	0.324700	0.000000	0.689700
C1901	C190	0.446200	0.323900	0.940100
C1911	C191	0.914900	0.483600	0.091300
C1921	C192	0.940100	0.323900	0.446200
C1931	C193	0.877700	0.493900	0.553800
C1941	C194	0.442500	0.861400	0.442500
C1951	C195	0.582000	0.266900	0.075500
C1961	C196	0.917600	0.434400	0.100800
C1971	C197	0.385600	0.774700	0.854500
C1981	C198	0.823600	0.392300	0.908700
C1991	C199	0.594000	0.318300	0.257700
C2001	C200	0.666400	0.565600	0.483200
C2011	C201	0.418000	0.684900	0.493500
C2021	C202	0.676100	0.122300	0.616200
C2031	C203	0.774700	0.854500	0.385600
C2041	C204	0.183200	0.516800	0.082400
C2051	C205	0.468900	0.389100	0.614400
C2061	C206	0.225300	0.610900	0.079800
C2071	C207	0.390000	0.000000	0.708000
C2081	C208	0.836900	0.758700	0.283000
C2091	C209	0.516800	0.183200	0.082400
C2101	C210	0.939400	0.681700	0.275700
C2111	C211	0.000000	0.390000	0.708000
C2121	C212	0.079800	0.225300	0.610900
C2131	C213	0.921800	0.163100	0.446100
C2141	C214	0.854500	0.774700	0.385600
C2151	C215	0.917600	0.100800	0.434400
C2161	C216	0.389100	0.614400	0.468900
Br11	Br1	0.233560	0.469540	0.644600
Br21	Br2	0.235980	0.766440	0.411040
Br31	Br3	0.588960	0.355400	0.824940
Br41	Br4	0.355400	0.824940	0.588960
Br51	Br5	0.233560	0.644600	0.469540
Br61	Br6	0.824940	0.588960	0.355400
Br71	Br7	0.469540	0.644600	0.233560
Br81	Br8	0.588960	0.824940	0.355400
Br91	Br9	0.766440	0.235980	0.411040
Br101	Br10	0.175060	0.764020	0.530460
Br111	Br11	0.764020	0.530460	0.175060
Br121	Br12	0.764020	0.175060	0.530460
Br131	Br13	0.530460	0.175060	0.764020
Br141	Br14	0.530460	0.764020	0.175060
Br151	Br15	0.824940	0.355400	0.588960
Br161	Br16	0.644600	0.469540	0.233560
Br171	Br17	0.175060	0.530460	0.764020
Br181	Br18	0.644600	0.233560	0.469540
Br191	Br19	0.411040	0.235980	0.766440
Br201	Br20	0.469540	0.233560	0.644600
Br211	Br21	0.766440	0.411040	0.235980
Br221	Br22	0.355400	0.588960	0.824940
Br231	Br23	0.235980	0.411040	0.766440
Br241	Br24	0.411040	0.766440	0.235980
N11	N1	0.698110	0.324820	0.698110
N21	N2	0.316820	0.000000	0.540180
N31	N3	0.683180	0.223360	0.683180
N41	N4	0.698110	0.698110	0.324820
N51	N5	0.223360	0.683180	0.683180
N61	N6	0.301890	0.626710	0.000000
N71	N7	0.373290	0.373290	0.675180
N81	N8	0.000000	0.301890	0.626710
N91	N9	0.626710	0.000000	0.301890
N101	N10	0.776640	0.459820	0.459820
N111	N11	0.626710	0.301890	0.000000
N121	N12	0.301890	0.000000	0.626710
N131	N13	0.459820	0.776640	0.459820
N141	N14	0.000000	0.316820	0.540180
N151	N15	0.324820	0.698110	0.698110
N161	N16	0.316820	0.540180	0.000000
N171	N17	0.459820	0.459820	0.776640
N181	N18	0.000000	0.540180	0.316820
N191	N19	0.683180	0.683180	0.223360
N201	N20	0.675180	0.373290	0.373290
N211	N21	0.373290	0.675180	0.373290
N221	N22	0.540180	0.316820	0.000000
N231	N23	0.540180	0.000000	0.316820
N241	N24	0.000000	0.626710	0.301890
