data_KONYOB_freeONLY_PM
_symmetry_space_group_name_H-M	'P1'
_cell_length_a	7.325000
_cell_length_b	11.618500
_cell_length_c	14.048000
_cell_angle_alpha	114.065000
_cell_angle_beta	91.500000
_cell_angle_gamma	103.560000
_symmetry_Int_Tables_number 1

loop_
_symmetry_equiv_pos_as_xyz
'x,y,z'

loop_
_atom_site_label
_atom_site_type_symbol
_atom_site_fract_x
_atom_site_fract_y
_atom_site_fract_z
Cd11	Cd1	0.000000	0.000000	0.000000
Cd21	Cd2	0.000000	0.000000	0.500000
Ni11	Ni1	0.516340	0.077160	0.267300
Ni21	Ni2	0.483660	0.922840	0.732700
H11	H1	0.214300	0.168100	0.931100
H21	H2	0.114800	0.268800	0.037700
H31	H3	0.039400	0.289700	0.877500
H41	H4	0.681900	0.228200	0.869900
H51	H5	0.707000	0.145600	0.949800
H61	H6	0.881600	0.348300	0.091000
H71	H7	0.867600	0.432600	0.011200
H81	H8	0.509900	0.359300	0.992300
H91	H9	0.529200	0.282400	0.077300
H101	H10	0.698900	0.499400	0.220900
H111	H11	0.671300	0.574800	0.135700
H121	H12	0.318200	0.488600	0.117100
H131	H13	0.349400	0.419100	0.206200
H141	H14	0.494400	0.633800	0.345800
H151	H15	0.485400	0.707700	0.257500
H161	H16	0.124700	0.619000	0.226300
H171	H17	0.143400	0.562000	0.325100
H181	H18	0.291300	0.842300	0.356600
H191	H19	0.291600	0.782100	0.454500
H201	H20	0.943600	0.715300	0.426900
H211	H21	0.943300	0.775500	0.329000
H221	H22	0.785700	0.831900	0.068900
H231	H23	0.885200	0.731200	0.962300
H241	H24	0.960600	0.710300	0.122500
H251	H25	0.318100	0.771800	0.130100
H261	H26	0.293000	0.854400	0.050200
H271	H27	0.118400	0.651700	0.909000
H281	H28	0.132400	0.567400	0.988800
H291	H29	0.490100	0.640700	0.007700
H301	H30	0.470800	0.717600	0.922700
H311	H31	0.301100	0.500600	0.779100
H321	H32	0.328700	0.425200	0.864300
H331	H33	0.681800	0.511400	0.882900
H341	H34	0.650600	0.580900	0.793800
H351	H35	0.505600	0.366200	0.654200
H361	H36	0.514600	0.292300	0.742500
H371	H37	0.875300	0.381000	0.773700
H381	H38	0.856600	0.438000	0.674900
H391	H39	0.708700	0.157700	0.643400
H401	H40	0.708400	0.217900	0.545500
H411	H41	0.056400	0.284700	0.573100
H421	H42	0.056700	0.224500	0.671000
C11	C1	0.684400	0.020200	0.328100
C21	C2	0.668800	0.068700	0.162800
C31	C3	0.357300	0.083800	0.370300
C41	C4	0.344100	0.120600	0.198200
C51	C5	0.962500	0.205500	0.888800
C61	C6	0.777700	0.225200	0.929500
C71	C7	0.793200	0.350200	0.027500
C81	C8	0.601200	0.364400	0.058600
C91	C9	0.605100	0.490600	0.153800
C101	C10	0.411300	0.499800	0.185200
C111	C11	0.413200	0.626100	0.275500
C121	C12	0.211500	0.637600	0.298700
C131	C13	0.210100	0.767900	0.381500
C141	C14	0.315600	0.979800	0.671900
C151	C15	0.331200	0.931300	0.837200
C161	C16	0.642700	0.916200	0.629700
C171	C17	0.655900	0.879400	0.801800
C181	C18	0.037500	0.794500	0.111200
C191	C19	0.222300	0.774800	0.070500
C201	C20	0.206800	0.649800	0.972500
C211	C21	0.398800	0.635600	0.941400
C221	C22	0.394900	0.509400	0.846200
C231	C23	0.588700	0.500200	0.814800
C241	C24	0.586800	0.373900	0.724500
C251	C25	0.788500	0.362400	0.701300
C261	C26	0.789900	0.232100	0.618500
N11	N1	0.786300	0.983600	0.363600
N21	N2	0.764600	0.063600	0.100000
N31	N3	0.253800	0.083000	0.429300
N41	N4	0.231000	0.134100	0.148600
N51	N5	0.081100	0.181200	0.961200
N61	N6	0.022100	0.788200	0.402000
N71	N7	0.213700	0.016400	0.636400
N81	N8	0.235400	0.936400	0.900000
N91	N9	0.746200	0.917000	0.570700
N101	N10	0.769000	0.865900	0.851400
N111	N11	0.918900	0.818800	0.038800
N121	N12	0.977900	0.211800	0.598000
