data_KOPXOE_freeONLY_PM
_symmetry_space_group_name_H-M	'P1'
_cell_length_a	9.276200
_cell_length_b	14.823000
_cell_length_c	27.405800
_cell_angle_alpha	90.000000
_cell_angle_beta	90.000000
_cell_angle_gamma	90.000000
_symmetry_Int_Tables_number 1

loop_
_symmetry_equiv_pos_as_xyz
'x,y,z'

loop_
_atom_site_label
_atom_site_type_symbol
_atom_site_fract_x
_atom_site_fract_y
_atom_site_fract_z
Cu11	Cu1	0.109610	0.030710	0.436640
Cu21	Cu2	0.109610	0.969290	0.563360
Cu31	Cu3	0.890390	0.530710	0.063360
Cu41	Cu4	0.612870	0.053940	0.439510
Cu51	Cu5	0.387130	0.446060	0.939510
Cu61	Cu6	0.890390	0.469290	0.936640
Cu71	Cu7	0.387130	0.553940	0.060490
Cu81	Cu8	0.612870	0.946060	0.560490
H11	H1	0.085900	0.472200	0.320000
H21	H2	0.311300	0.708900	0.220700
H31	H3	0.474200	0.462100	0.219000
H41	H4	0.092100	0.161000	0.528700
H51	H5	0.516500	0.737800	0.386700
H61	H6	0.941200	0.066900	0.111400
H71	H7	0.175400	0.318000	0.981600
H81	H8	0.140400	0.578100	0.631800
H91	H9	0.883000	0.194100	0.060800
H101	H10	0.470800	0.874700	0.425000
H111	H11	0.221600	0.804900	0.309100
H121	H12	0.488900	0.271300	0.717200
H131	H13	0.403000	0.199600	0.464700
H141	H14	0.227000	0.559000	0.400200
H151	H15	0.350600	0.089600	0.384000
H161	H16	0.058800	0.566900	0.388600
H171	H17	0.402100	0.342100	0.499200
H181	H18	0.175400	0.682000	0.018400
H191	H19	0.597900	0.157900	0.999200
H201	H20	0.227000	0.441000	0.599800
H211	H21	0.358600	0.100800	0.843300
H221	H22	0.511100	0.228700	0.217200
H231	H23	0.252800	0.510600	0.747500
H241	H24	0.471400	0.036200	0.049400
H251	H25	0.832400	0.321400	0.519300
H261	H26	0.280600	0.364100	0.669700
H271	H27	0.396800	0.109800	0.198600
H281	H28	0.471400	0.963800	0.950600
H291	H29	0.581900	0.915600	0.117800
H301	H30	0.529200	0.374700	0.075000
H311	H31	0.276100	0.144500	0.309400
H321	H32	0.597900	0.842100	0.000800
H331	H33	0.824600	0.818000	0.518400
H341	H34	0.258400	0.958800	0.017900
H351	H35	0.114800	0.342300	0.166400
H361	H36	0.373500	0.272800	0.242400
H371	H37	0.252800	0.489400	0.252500
H381	H38	0.773000	0.941000	0.900200
H391	H39	0.168400	0.477000	0.127900
H401	H40	0.741600	0.458800	0.482100
H411	H41	0.824600	0.182000	0.481600
H421	H42	0.581900	0.084400	0.882200
H431	H43	0.396800	0.890200	0.801400
H441	H44	0.806500	0.555500	0.843300
H451	H45	0.311300	0.291100	0.779300
H461	H46	0.832400	0.678600	0.480700
H471	H47	0.474200	0.537900	0.781000
H481	H48	0.755600	0.849200	0.645600
H491	H49	0.806500	0.444500	0.156700
H501	H50	0.264500	0.135700	0.232000
H511	H51	0.529200	0.625300	0.925000
H521	H52	0.092100	0.839000	0.471300
H531	H53	0.907900	0.661000	0.971300
H541	H54	0.734100	0.364700	0.641900
H551	H55	0.885200	0.842300	0.333600
H561	H56	0.883000	0.805900	0.939200
H571	H57	0.117000	0.305900	0.560800
H581	H58	0.723900	0.355500	0.809400
H591	H59	0.525800	0.037900	0.719000
H601	H60	0.907900	0.339000	0.028700
H611	H61	0.244400	0.349200	0.854400
H621	H62	0.914100	0.027800	0.820000
H631	H63	0.470800	0.125300	0.575000
H641	H64	0.058800	0.433100	0.611400
H651	H65	0.528600	0.463800	0.549400
H661	H66	0.747200	0.010600	0.752500
H671	H67	0.885200	0.157700	0.666400
H681	H68	0.403000	0.800400	0.535300
H691	H69	0.276100	0.855500	0.690600
H701	H70	0.307900	0.942700	0.934100
H711	H71	0.265900	0.135300	0.141900
H721	H72	0.941200	0.933100	0.888600
H731	H73	0.483500	0.762200	0.886700
H741	H74	0.244400	0.650800	0.145600
H751	H75	0.418100	0.584400	0.617800
H761	H76	0.373500	0.727200	0.757600
H771	H77	0.114000	0.359100	0.683400
H781	H78	0.193500	0.944500	0.343300
H791	H79	0.741600	0.541200	0.517900
H801	H80	0.692100	0.557300	0.434100
H811	H81	0.859600	0.921900	0.131800
H821	H82	0.747200	0.989400	0.247500
H831	H83	0.850100	0.314900	0.675400
H841	H84	0.688700	0.791100	0.720700
H851	H85	0.597000	0.699600	0.035300
H861	H86	0.649400	0.410400	0.884000
H871	H87	0.723900	0.644500	0.190600
H881	H88	0.483500	0.237800	0.113300
H891	H89	0.831600	0.977000	0.372100
H901	H90	0.603200	0.390200	0.698600
H911	H91	0.778400	0.304900	0.190900
H921	H92	0.193500	0.055500	0.656700
H931	H93	0.149900	0.185100	0.175400
H941	H94	0.597000	0.300400	0.964700
H951	H95	0.358600	0.899200	0.156700
H961	H96	0.117000	0.694100	0.439200
H971	H97	0.168400	0.523000	0.872100
H981	H98	0.859600	0.078100	0.868200
H991	H99	0.734100	0.635300	0.358100
H1001	H100	0.350600	0.910400	0.616000
H1011	H101	0.649400	0.589600	0.116000
H1021	H102	0.221600	0.195100	0.690900
H1031	H103	0.167600	0.821400	0.980700
H1041	H104	0.418100	0.415600	0.382200
H1051	H105	0.719400	0.864100	0.830300
H1061	H106	0.778400	0.695100	0.809100
H1071	H107	0.850100	0.685100	0.324600
H1081	H108	0.114800	0.657700	0.833600
H1091	H109	0.755600	0.150800	0.354400
H1101	H110	0.914100	0.972200	0.180000
H1111	H111	0.307900	0.057300	0.065900
H1121	H112	0.641400	0.600800	0.656700
H1131	H113	0.280600	0.635900	0.330300
H1141	H114	0.167600	0.178600	0.019300
H1151	H115	0.258400	0.041200	0.982100
H1161	H116	0.735500	0.635700	0.268000
H1171	H117	0.886000	0.859100	0.816600
H1181	H118	0.085900	0.527800	0.680000
H1191	H119	0.626500	0.227200	0.742400
H1201	H120	0.773000	0.059000	0.099800
H1211	H121	0.402100	0.657900	0.500800
H1221	H122	0.264500	0.864300	0.768000
H1231	H123	0.114000	0.640900	0.316600
H1241	H124	0.525800	0.962100	0.281000
H1251	H125	0.886000	0.140900	0.183400
H1261	H126	0.626500	0.772800	0.257600
H1271	H127	0.735500	0.364300	0.732000
H1281	H128	0.831600	0.023000	0.627900
H1291	H129	0.692100	0.442700	0.565900
H1301	H130	0.516500	0.262200	0.613300
H1311	H131	0.528600	0.536200	0.450600
H1321	H132	0.140400	0.421900	0.368200
H1331	H133	0.511100	0.771300	0.782800
H1341	H134	0.688700	0.208900	0.279300
H1351	H135	0.265900	0.864700	0.858100
H1361	H136	0.603200	0.609800	0.301400
H1371	H137	0.641400	0.399200	0.343300
H1381	H138	0.488900	0.728700	0.282800
H1391	H139	0.719400	0.135900	0.169700
H1401	H140	0.149900	0.814900	0.824600
C11	C1	0.262600	0.285400	0.986000
C21	C2	0.169100	0.500000	0.000000
C31	C3	0.161600	0.527900	0.654500
C41	C4	0.844700	0.938800	0.873500
C51	C5	0.415700	0.714400	0.884100
C61	C6	0.617700	0.816500	0.699850
C71	C7	0.746900	0.683900	0.333700
C81	C8	0.624600	0.646000	0.182230
C91	C9	0.171600	0.734200	0.369300
C101	C10	0.176700	0.892800	0.362930
C111	C11	0.342900	0.351000	0.844940
C121	C12	0.525700	0.318700	0.785500
C131	C13	0.828400	0.765800	0.869300
C141	C14	0.556900	0.132300	0.593370
C151	C15	0.384500	0.151800	0.012500
C161	C16	0.882900	0.668400	0.938000
C171	C17	0.509700	0.810000	0.003700
C181	C18	0.838400	0.972100	0.154500
C191	C19	0.806100	0.690200	0.842300
C201	C20	0.574000	0.927200	0.151800
C211	C21	0.199600	0.653000	0.852870
C221	C22	0.415700	0.285600	0.115900
C231	C23	0.743400	0.298000	0.507700
C241	C24	0.664500	0.338900	0.708800
C251	C25	0.508800	0.725100	0.024340
C261	C26	0.694700	0.955600	0.178200
C271	C27	0.823300	0.392800	0.137070
C281	C28	0.232000	0.427200	0.124280
C291	C29	0.737400	0.214600	0.486000
C301	C30	0.253100	0.816100	0.833700
C311	C31	0.066100	0.168300	0.393550
C321	C32	0.440000	0.084300	0.824300
C331	C33	0.768000	0.072800	0.624280
C341	C34	0.828400	0.234200	0.130700
C351	C35	0.844700	0.061200	0.126500
C361	C36	0.584300	0.214400	0.615900
C371	C37	0.193900	0.809800	0.342300
C381	C38	0.262600	0.714600	0.014000
C391	C39	0.199600	0.347000	0.147130
C401	C40	0.464000	0.547000	0.746900
C411	C41	0.737400	0.785400	0.514000
C421	C42	0.155300	0.561200	0.373500
C431	C43	0.474300	0.818700	0.714500
C441	C44	0.746900	0.316100	0.666300
C451	C45	0.161600	0.472100	0.345500
C461	C46	0.382300	0.683500	0.199850
C471	C47	0.132500	0.745300	0.419000
C481	C48	0.256600	0.202000	0.007700
C491	C49	0.305300	0.455600	0.321800
C501	C50	0.823300	0.607200	0.862930
C511	C51	0.491200	0.774900	0.524340
C521	C52	0.117100	0.831600	0.438000
C531	C53	0.800400	0.847000	0.352870
C541	C54	0.490300	0.310000	0.496300
C551	C55	0.617700	0.183500	0.300150
C561	C56	0.670900	0.969100	0.227200
C571	C57	0.443100	0.632300	0.906630
C581	C58	0.579500	0.387000	0.862100
C591	C59	0.256600	0.798000	0.992300
C601	C60	0.426000	0.427200	0.348200
C611	C61	0.289900	0.726900	0.857800
C621	C62	0.193900	0.190200	0.657700
C631	C63	0.253100	0.183900	0.166300
C641	C64	0.670900	0.030900	0.772800
C651	C65	0.375000	0.943700	0.962100
C661	C66	0.420500	0.887000	0.637900
C671	C67	0.132500	0.254700	0.581000
C681	C68	0.584300	0.785600	0.384100
C691	C69	0.117100	0.168400	0.562000
C701	C70	0.657100	0.149000	0.344940
C711	C71	0.424300	0.215000	0.236900
C721	C72	0.882900	0.331600	0.062000
C731	C73	0.440000	0.915700	0.175700
C741	C74	0.867500	0.754700	0.919000
C751	C75	0.474300	0.181300	0.285500
C761	C76	0.324000	0.000000	0.000000
C771	C77	0.625000	0.443700	0.537900
C781	C78	0.335500	0.161100	0.208800
C791	C79	0.443100	0.367700	0.093370
C801	C80	0.800400	0.153000	0.647130
C811	C81	0.491200	0.225100	0.475660
C821	C82	0.710100	0.226900	0.642200
C831	C83	0.182500	0.358600	0.655800
C841	C84	0.933900	0.331700	0.893550
C851	C85	0.232000	0.572800	0.875720
C861	C86	0.560000	0.415700	0.324300
C871	C87	0.817500	0.141400	0.155800
C881	C88	0.375000	0.056300	0.037900
C891	C89	0.768000	0.927200	0.375720
C901	C90	0.664500	0.661100	0.291200
C911	C91	0.525700	0.681300	0.214500
C921	C92	0.867500	0.245300	0.081000
C931	C93	0.933900	0.668300	0.106450
C941	C94	0.375400	0.146000	0.317770
C951	C95	0.490300	0.690000	0.503700
C961	C96	0.743400	0.702000	0.492300
C971	C97	0.420500	0.113000	0.362100
C981	C98	0.342900	0.649000	0.155060
C991	C99	0.806100	0.309800	0.157700
C1001	C100	0.464000	0.453000	0.253100
C1011	C101	0.579500	0.613000	0.137900
C1021	C102	0.375400	0.854000	0.682230
C1031	C103	0.508800	0.274900	0.975660
C1041	C104	0.694700	0.044400	0.821800
C1051	C105	0.424300	0.785000	0.763100
C1061	C106	0.382300	0.316500	0.800150
C1071	C107	0.710100	0.773100	0.357800
C1081	C108	0.615500	0.348200	0.512500
C1091	C109	0.509700	0.190000	0.996300
C1101	C110	0.624600	0.354000	0.817770
C1111	C111	0.830900	0.000000	0.500000
C1121	C112	0.329100	0.469100	0.272800
C1131	C113	0.384500	0.848200	0.987500
C1141	C114	0.838400	0.027900	0.845500
C1151	C115	0.335500	0.838900	0.791200
C1161	C116	0.560000	0.584300	0.675700
C1171	C117	0.817500	0.858600	0.844200
C1181	C118	0.171600	0.265800	0.630700
C1191	C119	0.329100	0.530900	0.727200
C1201	C120	0.615500	0.651800	0.487500
C1211	C121	0.066100	0.831700	0.606450
C1221	C122	0.676000	0.500000	0.500000
C1231	C123	0.332600	0.000000	0.500000
C1241	C124	0.182500	0.641400	0.344200
C1251	C125	0.155300	0.438800	0.626500
C1261	C126	0.657100	0.851000	0.655060
C1271	C127	0.625000	0.556300	0.462100
C1281	C128	0.574000	0.072800	0.848200
C1291	C129	0.536000	0.047000	0.753100
C1301	C130	0.556900	0.867700	0.406630
C1311	C131	0.305300	0.544400	0.678200
C1321	C132	0.536000	0.953000	0.246900
C1331	C133	0.176700	0.107200	0.637070
C1341	C134	0.289900	0.273100	0.142200
C1351	C135	0.426000	0.572800	0.651800
C1361	C136	0.575700	0.285000	0.736900
C1371	C137	0.575700	0.715000	0.263100
C1381	C138	0.667400	0.500000	0.000000
N11	N1	0.647800	0.063300	0.596790
N21	N2	0.863000	0.405400	0.090130
N31	N3	0.614100	0.822600	0.529240
N41	N4	0.647800	0.936700	0.403210
N51	N5	0.385900	0.677400	0.029240
N61	N6	0.352200	0.436700	0.096790
N71	N7	0.137000	0.905400	0.409870
N81	N8	0.560000	0.112800	0.375550
N91	N9	0.421900	0.926800	0.223300
N101	N10	0.614100	0.177400	0.470760
N111	N11	0.385900	0.322600	0.970760
N121	N12	0.863000	0.594600	0.909870
N131	N13	0.578100	0.573200	0.723300
N141	N14	0.421900	0.073200	0.776700
N151	N15	0.137000	0.094600	0.590130
N161	N16	0.352200	0.563300	0.903210
N171	N17	0.560000	0.887200	0.624450
N181	N18	0.440000	0.612800	0.124450
N191	N19	0.578100	0.426800	0.276700
N201	N20	0.440000	0.387200	0.875550
O11	O1	0.189400	0.000000	0.500000
O21	O2	0.057800	0.087100	0.374730
O31	O3	0.810600	0.500000	0.000000
O41	O4	0.392700	0.980520	0.540070
O51	O5	0.028100	0.762800	0.629460
O61	O6	0.115500	0.168840	0.437400
O71	O7	0.686700	0.000000	0.500000
O81	O8	0.607300	0.519480	0.040070
O91	O9	0.607300	0.480520	0.959930
O101	O10	0.109000	0.531290	0.037640
O111	O11	0.115500	0.831160	0.562600
O121	O12	0.971900	0.737200	0.129460
O131	O13	0.313300	0.500000	0.000000
O141	O14	0.057800	0.912900	0.625270
O151	O15	0.884500	0.668840	0.062600
O161	O16	0.942200	0.587100	0.125270
O171	O17	0.971900	0.262800	0.870540
O181	O18	0.109000	0.468710	0.962360
O191	O19	0.884500	0.331160	0.937400
O201	O20	0.942200	0.412900	0.874730
O211	O21	0.891000	0.031290	0.462360
O221	O22	0.392700	0.019480	0.459930
O231	O23	0.891000	0.968710	0.537640
O241	O24	0.028100	0.237200	0.370540
