data_KOSKAG_freeONLY_PM
_symmetry_space_group_name_H-M	'P1'
_cell_length_a	6.810500
_cell_length_b	15.125200
_cell_length_c	15.125200
_cell_angle_alpha	62.211500
_cell_angle_beta	81.367800
_cell_angle_gamma	98.632200
_symmetry_Int_Tables_number 1

loop_
_symmetry_equiv_pos_as_xyz
'x,y,z'

loop_
_atom_site_label
_atom_site_type_symbol
_atom_site_fract_x
_atom_site_fract_y
_atom_site_fract_z
Co11	Co1	0.106900	0.716300	0.700600
Co21	Co2	0.390600	0.283700	0.416900
Co31	Co3	0.390600	0.583100	0.716300
Co41	Co4	0.807500	0.700600	0.583100
Co51	Co5	0.807500	0.416900	0.299400
Co61	Co6	0.106900	0.299400	0.283700
H11	H1	0.244050	0.000000	0.485850
H21	H2	0.729900	0.485850	0.514150
H31	H3	0.244050	0.514150	0.000000
H41	H4	0.112600	0.569400	0.430600
H51	H5	0.543200	0.430600	0.000000
H61	H6	0.543200	0.000000	0.569400
C11	C1	0.677850	0.444250	0.000000
C21	C2	0.949700	0.906200	0.560200
C31	C3	0.316100	0.583300	0.510800
C41	C4	0.509900	0.560200	0.533600
C51	C5	0.233600	0.555750	0.444250
C61	C6	0.826900	0.510800	0.905900
C71	C7	0.949700	0.439800	0.093800
C81	C8	0.203400	0.453500	0.360600
C91	C9	0.677850	0.000000	0.555750
C101	C10	0.043500	0.093800	0.466400
C111	C11	0.749900	0.546500	0.814100
C121	C12	0.732800	0.416700	0.094100
C131	C13	0.732800	0.905900	0.583300
C141	C14	0.593600	0.498600	0.501400
C151	C15	0.564000	0.814100	0.639400
C161	C16	0.095000	0.000000	0.498600
C171	C17	0.749900	0.185900	0.453500
C181	C18	0.564000	0.360600	0.185900
C191	C19	0.043500	0.533600	0.906200
C201	C20	0.095000	0.501400	0.000000
C211	C21	0.509900	0.466400	0.439800
C221	C22	0.316100	0.489200	0.416700
C231	C23	0.826900	0.094100	0.489200
C241	C24	0.203400	0.639400	0.546500
O11	O1	0.256400	0.382400	0.343800
O21	O2	0.564400	0.180600	0.490200
O31	O3	0.181900	0.603400	0.817300
O41	O4	0.578500	0.396600	0.420700
O51	O5	0.383800	0.819400	0.670800
O61	O6	0.874000	0.617600	0.726200
O71	O7	0.600200	0.343800	0.273800
O81	O8	0.054600	0.490200	0.329200
O91	O9	0.383800	0.329200	0.180600
O101	O10	0.600200	0.726200	0.656200
O111	O11	0.256400	0.656200	0.617600
O121	O12	0.874000	0.273800	0.382400
O131	O13	0.999200	0.817300	0.579300
O141	O14	0.054600	0.670800	0.509800
O151	O15	0.181900	0.182700	0.396600
O161	O16	0.578500	0.579300	0.603400
O171	O17	0.564400	0.509800	0.819400
O181	O18	0.999200	0.420700	0.182700
