data_KOSKIO01_freeONLY_PM
_symmetry_space_group_name_H-M	'P1'
_cell_length_a	6.790400
_cell_length_b	15.118100
_cell_length_c	15.118100
_cell_angle_alpha	62.200700
_cell_angle_beta	81.389300
_cell_angle_gamma	98.610700
_symmetry_Int_Tables_number 1

loop_
_symmetry_equiv_pos_as_xyz
'x,y,z'

loop_
_atom_site_label
_atom_site_type_symbol
_atom_site_fract_x
_atom_site_fract_y
_atom_site_fract_z
Co11	Co1	0.115370	0.719830	0.702720
Co21	Co2	0.115370	0.297280	0.280170
Co31	Co3	0.395540	0.577450	0.719830
Co41	Co4	0.395540	0.280170	0.422550
Co51	Co5	0.818090	0.422550	0.297280
Co61	Co6	0.818090	0.702720	0.577450
H11	H1	0.729000	0.463500	0.536500
H21	H2	0.523000	0.000000	0.561000
H31	H3	0.523000	0.439000	0.000000
H41	H4	0.084000	0.561000	0.439000
H51	H5	0.265500	0.000000	0.463500
H61	H6	0.265500	0.536500	0.000000
C11	C1	0.830300	0.505400	0.906500
C21	C2	0.736800	0.411900	0.093500
C31	C3	0.830300	0.093500	0.494600
C41	C4	0.686300	0.439900	0.000000
C51	C5	0.745300	0.539800	0.814900
C61	C6	0.095600	0.000000	0.496200
C71	C7	0.686300	0.000000	0.560100
C81	C8	0.560200	0.814900	0.645300
C91	C9	0.205500	0.645300	0.539800
C101	C10	0.205500	0.460200	0.354700
C111	C11	0.505300	0.465600	0.438700
C121	C12	0.944000	0.438700	0.095700
C131	C13	0.095600	0.503800	0.000000
C141	C14	0.736800	0.906500	0.588100
C151	C15	0.745300	0.185100	0.460200
C161	C16	0.944000	0.904300	0.561300
C171	C17	0.246400	0.560100	0.439900
C181	C18	0.039700	0.534400	0.904300
C191	C19	0.560200	0.354700	0.185100
C201	C20	0.039700	0.095700	0.465600
C211	C21	0.505300	0.561300	0.534400
C221	C22	0.324900	0.494600	0.411900
C231	C23	0.591800	0.496200	0.503800
C241	C24	0.324900	0.588100	0.505400
O11	O1	0.863400	0.613000	0.728800
O21	O2	0.997100	0.817800	0.585500
O31	O3	0.250400	0.387000	0.341800
O41	O4	0.582600	0.585500	0.596700
O51	O5	0.050700	0.671300	0.502200
O61	O6	0.582600	0.403300	0.414500
O71	O7	0.250400	0.658200	0.613000
O81	O8	0.050700	0.497800	0.328700
O91	O9	0.379400	0.826500	0.671300
O101	O10	0.552900	0.502200	0.826500
O111	O11	0.179300	0.596700	0.817800
O121	O12	0.592200	0.728800	0.658200
O131	O13	0.552900	0.173500	0.497800
O141	O14	0.863400	0.271200	0.387000
O151	O15	0.379400	0.328700	0.173500
O161	O16	0.997100	0.414500	0.182200
O171	O17	0.179300	0.182200	0.403300
O181	O18	0.592200	0.341800	0.271200
