data_KOSKEK_freeONLY_PM
_symmetry_space_group_name_H-M	'P1'
_cell_length_a	6.811600
_cell_length_b	15.120400
_cell_length_c	15.120400
_cell_angle_alpha	62.213600
_cell_angle_beta	81.363600
_cell_angle_gamma	98.636400
_symmetry_Int_Tables_number 1

loop_
_symmetry_equiv_pos_as_xyz
'x,y,z'

loop_
_atom_site_label
_atom_site_type_symbol
_atom_site_fract_x
_atom_site_fract_y
_atom_site_fract_z
Co11	Co1	0.806800	0.698000	0.585600
Co21	Co2	0.108800	0.302000	0.283600
Co31	Co3	0.392400	0.585600	0.716400
Co41	Co4	0.806800	0.414400	0.302000
Co51	Co5	0.108800	0.716400	0.698000
Co61	Co6	0.392400	0.283600	0.414400
H11	H1	0.256050	0.517150	0.000000
H21	H2	0.256050	0.000000	0.482850
H31	H3	0.536550	0.000000	0.577350
H41	H4	0.536550	0.422650	0.000000
H51	H5	0.738900	0.482850	0.517150
H61	H6	0.113900	0.577350	0.422650
C11	C1	0.748500	0.548200	0.813100
C21	C2	0.683500	0.000000	0.556500
C31	C3	0.309100	0.581200	0.513200
C41	C4	0.946100	0.906100	0.558000
C51	C5	0.580900	0.499350	0.500650
C61	C6	0.748500	0.186900	0.451800
C71	C7	0.727900	0.905600	0.581200
C81	C8	0.240000	0.556500	0.443500
C91	C9	0.561600	0.813100	0.638700
C101	C10	0.727900	0.418800	0.094400
C111	C11	0.561600	0.361300	0.186900
C121	C12	0.683500	0.443500	0.000000
C131	C13	0.040000	0.535900	0.906100
C141	C14	0.040000	0.093900	0.464100
C151	C15	0.200300	0.638700	0.548200
C161	C16	0.081550	0.500650	0.000000
C171	C17	0.504100	0.464100	0.442000
C181	C18	0.309100	0.486800	0.418800
C191	C19	0.200300	0.451800	0.361300
C201	C20	0.946100	0.442000	0.093900
C211	C21	0.081550	0.000000	0.499350
C221	C22	0.822300	0.094400	0.486800
C231	C23	0.822300	0.513200	0.905600
C241	C24	0.504100	0.558000	0.535900
O11	O1	0.563800	0.511000	0.820900
O21	O2	0.254400	0.383200	0.343100
O31	O3	0.176100	0.180500	0.398000
O41	O4	0.574100	0.398000	0.421500
O51	O5	0.871200	0.616800	0.726300
O61	O6	0.052800	0.489000	0.331900
O71	O7	0.995600	0.819500	0.578500
O81	O8	0.384700	0.820900	0.668100
O91	O9	0.254400	0.656900	0.616800
O101	O10	0.052800	0.668100	0.511000
O111	O11	0.597500	0.343100	0.273700
O121	O12	0.574100	0.578500	0.602000
O131	O13	0.176100	0.602000	0.819500
O141	O14	0.384700	0.331900	0.179100
O151	O15	0.597500	0.726300	0.656900
O161	O16	0.563800	0.179100	0.489000
O171	O17	0.995600	0.421500	0.180500
O181	O18	0.871200	0.273700	0.383200
