data_KOSLUB_freeONLY_PM
_symmetry_space_group_name_H-M	'P1'
_cell_length_a	6.729200
_cell_length_b	15.061900
_cell_length_c	15.061900
_cell_angle_alpha	62.177600
_cell_angle_beta	81.435400
_cell_angle_gamma	98.564600
_symmetry_Int_Tables_number 1

loop_
_symmetry_equiv_pos_as_xyz
'x,y,z'

loop_
_atom_site_label
_atom_site_type_symbol
_atom_site_fract_x
_atom_site_fract_y
_atom_site_fract_z
Ni11	Ni1	0.116300	0.718700	0.704200
Ni21	Ni2	0.116300	0.295800	0.281300
Ni31	Ni3	0.820500	0.422900	0.295800
Ni41	Ni4	0.820500	0.704200	0.577100
Ni51	Ni5	0.397600	0.281300	0.422900
Ni61	Ni6	0.397600	0.577100	0.718700
H11	H1	0.534400	0.000000	0.571800
H21	H2	0.259500	0.518500	0.000000
H31	H3	0.741000	0.481500	0.518500
H41	H4	0.259500	0.000000	0.481500
H51	H5	0.534400	0.428200	0.000000
H61	H6	0.106200	0.571800	0.428200
C11	C1	0.556900	0.354900	0.186200
C21	C2	0.743100	0.186200	0.458900
C31	C3	0.588300	0.501450	0.498550
C41	C4	0.202000	0.645100	0.541100
C51	C5	0.202000	0.458900	0.354900
C61	C6	0.743100	0.541100	0.813800
C71	C7	0.730700	0.413100	0.092000
C81	C8	0.685900	0.441700	0.000000
C91	C9	0.041100	0.536100	0.901800
C101	C10	0.942900	0.437900	0.098200
C111	C11	0.086850	0.498550	0.000000
C121	C12	0.822700	0.092000	0.494900
C131	C13	0.685900	0.000000	0.558300
C141	C14	0.041100	0.098200	0.463900
C151	C15	0.086850	0.000000	0.501450
C161	C16	0.730700	0.908000	0.586900
C171	C17	0.317600	0.586900	0.505100
C181	C18	0.244200	0.558300	0.441700
C191	C19	0.556900	0.813800	0.645100
C201	C20	0.942900	0.901800	0.562100
C211	C21	0.317600	0.494900	0.413100
C221	C22	0.822700	0.505100	0.908000
C231	C23	0.505000	0.463900	0.437900
C241	C24	0.505000	0.562100	0.536100
O11	O1	0.582000	0.405600	0.412600
O21	O2	0.593900	0.727500	0.657800
O31	O3	0.176400	0.181800	0.405600
O41	O4	0.553200	0.501000	0.827400
O51	O5	0.866400	0.614700	0.727500
O61	O6	0.052200	0.671600	0.501000
O71	O7	0.176400	0.594400	0.818200
O81	O8	0.582000	0.587400	0.594400
O91	O9	0.251700	0.657800	0.614700
O101	O10	0.553200	0.172600	0.499000
O111	O11	0.251700	0.385300	0.342200
O121	O12	0.380600	0.328400	0.172600
O131	O13	0.994600	0.818200	0.587400
O141	O14	0.593900	0.342200	0.272500
O151	O15	0.994600	0.412600	0.181800
O161	O16	0.866400	0.272500	0.385300
O171	O17	0.380600	0.827400	0.671600
O181	O18	0.052200	0.499000	0.328400
