data_KOXFUA_freeONLY_PM
_symmetry_space_group_name_H-M	'P1'
_cell_length_a	18.369000
_cell_length_b	17.305000
_cell_length_c	28.133000
_cell_angle_alpha	90.000000
_cell_angle_beta	91.083000
_cell_angle_gamma	90.000000
_symmetry_Int_Tables_number 1

loop_
_symmetry_equiv_pos_as_xyz
'x,y,z'

loop_
_atom_site_label
_atom_site_type_symbol
_atom_site_fract_x
_atom_site_fract_y
_atom_site_fract_z
Cd11	Cd1	0.440300	0.737610	0.524420
Cl11	Cl1	0.540950	0.626990	0.531460
Cl21	Cl2	0.347910	0.850100	0.518190
O11	O1	0.587140	0.894250	0.303850
O21	O2	0.774850	0.084480	0.297570
O31	O3	0.761350	0.885470	0.246340
O41	O4	0.589010	0.090990	0.250170
N11	N1	0.511300	0.805600	0.469460
N21	N2	0.887000	0.165100	0.462170
N31	N3	0.866700	0.821200	0.080550
N41	N4	0.506310	0.198100	0.084760
C11	C1	0.475900	0.160000	0.119970
H11	H1	0.425900	0.164300	0.123500
C21	C2	0.514400	0.114100	0.151760
H21	H2	0.490600	0.089900	0.176600
C31	C3	0.589800	0.104500	0.146260
C41	C4	0.578800	0.191900	0.080470
H31	H3	0.601300	0.220200	0.056800
C51	C5	0.621100	0.146000	0.109230
H41	H4	0.670900	0.142400	0.104200
C61	C6	0.517900	0.882000	0.474790
H51	H5	0.493000	0.905900	0.499200
C71	C7	0.560200	0.927100	0.445460
H61	H6	0.565500	0.979700	0.451300
C81	C8	0.594400	0.893200	0.407700
C91	C9	0.586400	0.814000	0.401720
H71	H7	0.608400	0.789000	0.376500
C101	C10	0.545800	0.772800	0.433460
H81	H8	0.542200	0.719600	0.429600
C111	C11	0.640900	0.941800	0.377100
C121	C12	0.692900	0.988500	0.399330
H91	H9	0.696800	0.988300	0.432300
C131	C13	0.739500	0.035700	0.373640
C141	C14	0.732800	0.036200	0.324260
C151	C15	0.635900	0.942000	0.327770
C161	C16	0.680700	0.988600	0.300970
C171	C17	0.511500	0.916300	0.308760
H101	H10	0.500600	0.921100	0.341900
H111	H11	0.480800	0.877600	0.294500
H121	H12	0.503200	0.965000	0.293200
C181	C18	0.847700	0.055100	0.290530
H131	H13	0.871800	0.048200	0.320800
H141	H14	0.874700	0.091200	0.271900
H151	H15	0.845000	0.006400	0.274300
C191	C19	0.794300	0.081800	0.401280
C201	C20	0.836400	0.045300	0.436490
H161	H16	0.834000	0.992000	0.440300
C211	C21	0.881400	0.088500	0.465370
H171	H17	0.909500	0.063100	0.488400
C221	C22	0.848200	0.200200	0.427490
H181	H18	0.852400	0.253500	0.424300
C231	C23	0.802400	0.160800	0.396160
H191	H19	0.777500	0.187100	0.372100
C241	C24	0.677100	0.989800	0.248130
C251	C25	0.719900	0.939900	0.221930
C261	C26	0.723300	0.945200	0.172420
C271	C27	0.679900	0.000600	0.149730
H201	H20	0.681600	0.004800	0.116800
C281	C28	0.634200	0.049800	0.174500
C291	C29	0.634000	0.044500	0.223830
C301	C30	0.612600	0.169100	0.255110
H211	H21	0.657500	0.170600	0.273100
H221	H22	0.576300	0.198400	0.271300
H231	H23	0.620000	0.191000	0.224200
C311	C31	0.728100	0.809600	0.246400
H241	H24	0.680500	0.812900	0.259700
H251	H25	0.757700	0.774900	0.265100
H261	H26	0.724200	0.790700	0.214400
C321	C32	0.772500	0.897800	0.142770
C331	C33	0.844200	0.879600	0.156630
H271	H27	0.861700	0.892200	0.186900
C341	C34	0.888300	0.842700	0.124650
H281	H28	0.936100	0.832000	0.134100
C351	C35	0.797200	0.835900	0.068250
H291	H29	0.780200	0.819400	0.038600
C361	C36	0.749700	0.874300	0.097410
H301	H30	0.702400	0.884600	0.086800
Cd21	Cd2	0.940300	0.237610	0.524420
Cl31	Cl3	0.040950	0.126990	0.531460
Cl41	Cl4	0.847910	0.350100	0.518190
O51	O5	0.087140	0.394250	0.303850
O61	O6	0.274850	0.584480	0.297570
O71	O7	0.261350	0.385470	0.246340
O81	O8	0.089010	0.590990	0.250170
N51	N5	0.011300	0.305600	0.469460
N61	N6	0.387000	0.665100	0.462170
N71	N7	0.366700	0.321200	0.080550
N81	N8	0.006310	0.698100	0.084760
C371	C37	0.975900	0.660000	0.119970
H311	H31	0.925900	0.664300	0.123500
C381	C38	0.014400	0.614100	0.151760
H321	H32	0.990600	0.589900	0.176600
C391	C39	0.089800	0.604500	0.146260
C401	C40	0.078800	0.691900	0.080470
H331	H33	0.101300	0.720200	0.056800
C411	C41	0.121100	0.646000	0.109230
H341	H34	0.170900	0.642400	0.104200
C421	C42	0.017900	0.382000	0.474790
H351	H35	0.993000	0.405900	0.499200
C431	C43	0.060200	0.427100	0.445460
H361	H36	0.065500	0.479700	0.451300
C441	C44	0.094400	0.393200	0.407700
C451	C45	0.086400	0.314000	0.401720
H371	H37	0.108400	0.289000	0.376500
C461	C46	0.045800	0.272800	0.433460
H381	H38	0.042200	0.219600	0.429600
C471	C47	0.140900	0.441800	0.377100
C481	C48	0.192900	0.488500	0.399330
H391	H39	0.196800	0.488300	0.432300
C491	C49	0.239500	0.535700	0.373640
C501	C50	0.232800	0.536200	0.324260
C511	C51	0.135900	0.442000	0.327770
C521	C52	0.180700	0.488600	0.300970
C531	C53	0.011500	0.416300	0.308760
H401	H40	0.000600	0.421100	0.341900
H411	H41	0.980800	0.377600	0.294500
H421	H42	0.003200	0.465000	0.293200
C541	C54	0.347700	0.555100	0.290530
H431	H43	0.371800	0.548200	0.320800
H441	H44	0.374700	0.591200	0.271900
H451	H45	0.345000	0.506400	0.274300
C551	C55	0.294300	0.581800	0.401280
C561	C56	0.336400	0.545300	0.436490
H461	H46	0.334000	0.492000	0.440300
C571	C57	0.381400	0.588500	0.465370
H471	H47	0.409500	0.563100	0.488400
C581	C58	0.348200	0.700200	0.427490
H481	H48	0.352400	0.753500	0.424300
C591	C59	0.302400	0.660800	0.396160
H491	H49	0.277500	0.687100	0.372100
C601	C60	0.177100	0.489800	0.248130
C611	C61	0.219900	0.439900	0.221930
C621	C62	0.223300	0.445200	0.172420
C631	C63	0.179900	0.500600	0.149730
H501	H50	0.181600	0.504800	0.116800
C641	C64	0.134200	0.549800	0.174500
C651	C65	0.134000	0.544500	0.223830
C661	C66	0.112600	0.669100	0.255110
H511	H51	0.157500	0.670600	0.273100
H521	H52	0.076300	0.698400	0.271300
H531	H53	0.120000	0.691000	0.224200
C671	C67	0.228100	0.309600	0.246400
H541	H54	0.180500	0.312900	0.259700
H551	H55	0.257700	0.274900	0.265100
H561	H56	0.224200	0.290700	0.214400
C681	C68	0.272500	0.397800	0.142770
C691	C69	0.344200	0.379600	0.156630
H571	H57	0.361700	0.392200	0.186900
C701	C70	0.388300	0.342700	0.124650
H581	H58	0.436100	0.332000	0.134100
C711	C71	0.297200	0.335900	0.068250
H591	H59	0.280200	0.319400	0.038600
C721	C72	0.249700	0.374300	0.097410
H601	H60	0.202400	0.384600	0.086800
Cd31	Cd3	0.440300	0.262390	0.024420
Cl51	Cl5	0.540950	0.373010	0.031460
Cl61	Cl6	0.347910	0.149900	0.018190
O91	O9	0.587140	0.105750	0.803850
O101	O10	0.774850	0.915520	0.797570
O111	O11	0.761350	0.114530	0.746340
O121	O12	0.589010	0.909010	0.750170
N91	N9	0.511300	0.194400	0.969460
N101	N10	0.887000	0.834900	0.962170
N111	N11	0.866700	0.178800	0.580550
N121	N12	0.506310	0.801900	0.584760
C731	C73	0.475900	0.840000	0.619970
H611	H61	0.425900	0.835700	0.623500
C741	C74	0.514400	0.885900	0.651760
H621	H62	0.490600	0.910100	0.676600
C751	C75	0.589800	0.895500	0.646260
C761	C76	0.578800	0.808100	0.580470
H631	H63	0.601300	0.779800	0.556800
C771	C77	0.621100	0.854000	0.609230
H641	H64	0.670900	0.857600	0.604200
C781	C78	0.517900	0.118000	0.974790
H651	H65	0.493000	0.094100	0.999200
C791	C79	0.560200	0.072900	0.945460
H661	H66	0.565500	0.020300	0.951300
C801	C80	0.594400	0.106800	0.907700
C811	C81	0.586400	0.186000	0.901720
H671	H67	0.608400	0.211000	0.876500
C821	C82	0.545800	0.227200	0.933460
H681	H68	0.542200	0.280400	0.929600
C831	C83	0.640900	0.058200	0.877100
C841	C84	0.692900	0.011500	0.899330
H691	H69	0.696800	0.011700	0.932300
C851	C85	0.739500	0.964300	0.873640
C861	C86	0.732800	0.963800	0.824260
C871	C87	0.635900	0.058000	0.827770
C881	C88	0.680700	0.011400	0.800970
C891	C89	0.511500	0.083700	0.808760
H701	H70	0.500600	0.078900	0.841900
H711	H71	0.480800	0.122400	0.794500
H721	H72	0.503200	0.035000	0.793200
C901	C90	0.847700	0.944900	0.790530
H731	H73	0.871800	0.951800	0.820800
H741	H74	0.874700	0.908800	0.771900
H751	H75	0.845000	0.993600	0.774300
C911	C91	0.794300	0.918200	0.901280
C921	C92	0.836400	0.954700	0.936490
H761	H76	0.834000	0.008000	0.940300
C931	C93	0.881400	0.911500	0.965370
H771	H77	0.909500	0.936900	0.988400
C941	C94	0.848200	0.799800	0.927490
H781	H78	0.852400	0.746500	0.924300
C951	C95	0.802400	0.839200	0.896160
H791	H79	0.777500	0.812900	0.872100
C961	C96	0.677100	0.010200	0.748130
C971	C97	0.719900	0.060100	0.721930
C981	C98	0.723300	0.054800	0.672420
C991	C99	0.679900	0.999400	0.649730
H801	H80	0.681600	0.995200	0.616800
C1001	C100	0.634200	0.950200	0.674500
C1011	C101	0.634000	0.955500	0.723830
C1021	C102	0.612600	0.830900	0.755110
H811	H81	0.657500	0.829400	0.773100
H821	H82	0.576300	0.801600	0.771300
H831	H83	0.620000	0.809000	0.724200
C1031	C103	0.728100	0.190400	0.746400
H841	H84	0.680500	0.187100	0.759700
H851	H85	0.757700	0.225100	0.765100
H861	H86	0.724200	0.209300	0.714400
C1041	C104	0.772500	0.102200	0.642770
C1051	C105	0.844200	0.120400	0.656630
H871	H87	0.861700	0.107800	0.686900
C1061	C106	0.888300	0.157300	0.624650
H881	H88	0.936100	0.168000	0.634100
C1071	C107	0.797200	0.164100	0.568250
H891	H89	0.780200	0.180600	0.538600
C1081	C108	0.749700	0.125700	0.597410
H901	H90	0.702400	0.115400	0.586800
Cd41	Cd4	0.940300	0.762390	0.024420
Cl71	Cl7	0.040950	0.873010	0.031460
Cl81	Cl8	0.847910	0.649900	0.018190
O131	O13	0.087140	0.605750	0.803850
O141	O14	0.274850	0.415520	0.797570
O151	O15	0.261350	0.614530	0.746340
O161	O16	0.089010	0.409010	0.750170
N131	N13	0.011300	0.694400	0.969460
N141	N14	0.387000	0.334900	0.962170
N151	N15	0.366700	0.678800	0.580550
N161	N16	0.006310	0.301900	0.584760
C1091	C109	0.975900	0.340000	0.619970
H911	H91	0.925900	0.335700	0.623500
C1101	C110	0.014400	0.385900	0.651760
H921	H92	0.990600	0.410100	0.676600
C1111	C111	0.089800	0.395500	0.646260
C1121	C112	0.078800	0.308100	0.580470
H931	H93	0.101300	0.279800	0.556800
C1131	C113	0.121100	0.354000	0.609230
H941	H94	0.170900	0.357600	0.604200
C1141	C114	0.017900	0.618000	0.974790
H951	H95	0.993000	0.594100	0.999200
C1151	C115	0.060200	0.572900	0.945460
H961	H96	0.065500	0.520300	0.951300
C1161	C116	0.094400	0.606800	0.907700
C1171	C117	0.086400	0.686000	0.901720
H971	H97	0.108400	0.711000	0.876500
C1181	C118	0.045800	0.727200	0.933460
H981	H98	0.042200	0.780400	0.929600
C1191	C119	0.140900	0.558200	0.877100
C1201	C120	0.192900	0.511500	0.899330
H991	H99	0.196800	0.511700	0.932300
C1211	C121	0.239500	0.464300	0.873640
C1221	C122	0.232800	0.463800	0.824260
C1231	C123	0.135900	0.558000	0.827770
C1241	C124	0.180700	0.511400	0.800970
C1251	C125	0.011500	0.583700	0.808760
H1001	H100	0.000600	0.578900	0.841900
H1011	H101	0.980800	0.622400	0.794500
H1021	H102	0.003200	0.535000	0.793200
C1261	C126	0.347700	0.444900	0.790530
H1031	H103	0.371800	0.451800	0.820800
H1041	H104	0.374700	0.408800	0.771900
H1051	H105	0.345000	0.493600	0.774300
C1271	C127	0.294300	0.418200	0.901280
C1281	C128	0.336400	0.454700	0.936490
H1061	H106	0.334000	0.508000	0.940300
C1291	C129	0.381400	0.411500	0.965370
H1071	H107	0.409500	0.436900	0.988400
C1301	C130	0.348200	0.299800	0.927490
H1081	H108	0.352400	0.246500	0.924300
C1311	C131	0.302400	0.339200	0.896160
H1091	H109	0.277500	0.312900	0.872100
C1321	C132	0.177100	0.510200	0.748130
C1331	C133	0.219900	0.560100	0.721930
C1341	C134	0.223300	0.554800	0.672420
C1351	C135	0.179900	0.499400	0.649730
H1101	H110	0.181600	0.495200	0.616800
C1361	C136	0.134200	0.450200	0.674500
C1371	C137	0.134000	0.455500	0.723830
C1381	C138	0.112600	0.330900	0.755110
H1111	H111	0.157500	0.329400	0.773100
H1121	H112	0.076300	0.301600	0.771300
H1131	H113	0.120000	0.309000	0.724200
C1391	C139	0.228100	0.690400	0.746400
H1141	H114	0.180500	0.687100	0.759700
H1151	H115	0.257700	0.725100	0.765100
H1161	H116	0.224200	0.709300	0.714400
C1401	C140	0.272500	0.602200	0.642770
C1411	C141	0.344200	0.620400	0.656630
H1171	H117	0.361700	0.607800	0.686900
C1421	C142	0.388300	0.657300	0.624650
H1181	H118	0.436100	0.668000	0.634100
C1431	C143	0.297200	0.664100	0.568250
H1191	H119	0.280200	0.680600	0.538600
C1441	C144	0.249700	0.625700	0.597410
H1201	H120	0.202400	0.615400	0.586800
Cd51	Cd5	0.559700	0.737610	0.975580
Cl91	Cl9	0.459050	0.626990	0.968540
Cl101	Cl10	0.652090	0.850100	0.981810
O171	O17	0.412860	0.894250	0.196150
O181	O18	0.225150	0.084480	0.202430
O191	O19	0.238650	0.885470	0.253660
O201	O20	0.410990	0.090990	0.249830
N171	N17	0.488700	0.805600	0.030540
N181	N18	0.113000	0.165100	0.037830
N191	N19	0.133300	0.821200	0.419450
N201	N20	0.493690	0.198100	0.415240
C1451	C145	0.524100	0.160000	0.380030
H1211	H121	0.574100	0.164300	0.376500
C1461	C146	0.485600	0.114100	0.348240
H1221	H122	0.509400	0.089900	0.323400
C1471	C147	0.410200	0.104500	0.353740
C1481	C148	0.421200	0.191900	0.419530
H1231	H123	0.398700	0.220200	0.443200
C1491	C149	0.378900	0.146000	0.390770
H1241	H124	0.329100	0.142400	0.395800
C1501	C150	0.482100	0.882000	0.025210
H1251	H125	0.507000	0.905900	0.000800
C1511	C151	0.439800	0.927100	0.054540
H1261	H126	0.434500	0.979700	0.048700
C1521	C152	0.405600	0.893200	0.092300
C1531	C153	0.413600	0.814000	0.098280
H1271	H127	0.391600	0.789000	0.123500
C1541	C154	0.454200	0.772800	0.066540
H1281	H128	0.457800	0.719600	0.070400
C1551	C155	0.359100	0.941800	0.122900
C1561	C156	0.307100	0.988500	0.100670
H1291	H129	0.303200	0.988300	0.067700
C1571	C157	0.260500	0.035700	0.126360
C1581	C158	0.267200	0.036200	0.175740
C1591	C159	0.364100	0.942000	0.172230
C1601	C160	0.319300	0.988600	0.199030
C1611	C161	0.488500	0.916300	0.191240
H1301	H130	0.499400	0.921100	0.158100
H1311	H131	0.519200	0.877600	0.205500
H1321	H132	0.496800	0.965000	0.206800
C1621	C162	0.152300	0.055100	0.209470
H1331	H133	0.128200	0.048200	0.179200
H1341	H134	0.125300	0.091200	0.228100
H1351	H135	0.155000	0.006400	0.225700
C1631	C163	0.205700	0.081800	0.098720
C1641	C164	0.163600	0.045300	0.063510
H1361	H136	0.166000	0.992000	0.059700
C1651	C165	0.118600	0.088500	0.034630
H1371	H137	0.090500	0.063100	0.011600
C1661	C166	0.151800	0.200200	0.072510
H1381	H138	0.147600	0.253500	0.075700
C1671	C167	0.197600	0.160800	0.103840
H1391	H139	0.222500	0.187100	0.127900
C1681	C168	0.322900	0.989800	0.251870
C1691	C169	0.280100	0.939900	0.278070
C1701	C170	0.276700	0.945200	0.327580
C1711	C171	0.320100	0.000600	0.350270
H1401	H140	0.318400	0.004800	0.383200
C1721	C172	0.365800	0.049800	0.325500
C1731	C173	0.366000	0.044500	0.276170
C1741	C174	0.387400	0.169100	0.244890
H1411	H141	0.342500	0.170600	0.226900
H1421	H142	0.423700	0.198400	0.228700
H1431	H143	0.380000	0.191000	0.275800
C1751	C175	0.271900	0.809600	0.253600
H1441	H144	0.319500	0.812900	0.240300
H1451	H145	0.242300	0.774900	0.234900
H1461	H146	0.275800	0.790700	0.285600
C1761	C176	0.227500	0.897800	0.357230
C1771	C177	0.155800	0.879600	0.343370
H1471	H147	0.138300	0.892200	0.313100
C1781	C178	0.111700	0.842700	0.375350
H1481	H148	0.063900	0.832000	0.365900
C1791	C179	0.202800	0.835900	0.431750
H1491	H149	0.219800	0.819400	0.461400
C1801	C180	0.250300	0.874300	0.402590
H1501	H150	0.297600	0.884600	0.413200
Cd61	Cd6	0.059700	0.237610	0.975580
Cl111	Cl11	0.959050	0.126990	0.968540
Cl121	Cl12	0.152090	0.350100	0.981810
O211	O21	0.912860	0.394250	0.196150
O221	O22	0.725150	0.584480	0.202430
O231	O23	0.738650	0.385470	0.253660
O241	O24	0.910990	0.590990	0.249830
N211	N21	0.988700	0.305600	0.030540
N221	N22	0.613000	0.665100	0.037830
N231	N23	0.633300	0.321200	0.419450
N241	N24	0.993690	0.698100	0.415240
C1811	C181	0.024100	0.660000	0.380030
H1511	H151	0.074100	0.664300	0.376500
C1821	C182	0.985600	0.614100	0.348240
H1521	H152	0.009400	0.589900	0.323400
C1831	C183	0.910200	0.604500	0.353740
C1841	C184	0.921200	0.691900	0.419530
H1531	H153	0.898700	0.720200	0.443200
C1851	C185	0.878900	0.646000	0.390770
H1541	H154	0.829100	0.642400	0.395800
C1861	C186	0.982100	0.382000	0.025210
H1551	H155	0.007000	0.405900	0.000800
C1871	C187	0.939800	0.427100	0.054540
H1561	H156	0.934500	0.479700	0.048700
C1881	C188	0.905600	0.393200	0.092300
C1891	C189	0.913600	0.314000	0.098280
H1571	H157	0.891600	0.289000	0.123500
C1901	C190	0.954200	0.272800	0.066540
H1581	H158	0.957800	0.219600	0.070400
C1911	C191	0.859100	0.441800	0.122900
C1921	C192	0.807100	0.488500	0.100670
H1591	H159	0.803200	0.488300	0.067700
C1931	C193	0.760500	0.535700	0.126360
C1941	C194	0.767200	0.536200	0.175740
C1951	C195	0.864100	0.442000	0.172230
C1961	C196	0.819300	0.488600	0.199030
C1971	C197	0.988500	0.416300	0.191240
H1601	H160	0.999400	0.421100	0.158100
H1611	H161	0.019200	0.377600	0.205500
H1621	H162	0.996800	0.465000	0.206800
C1981	C198	0.652300	0.555100	0.209470
H1631	H163	0.628200	0.548200	0.179200
H1641	H164	0.625300	0.591200	0.228100
H1651	H165	0.655000	0.506400	0.225700
C1991	C199	0.705700	0.581800	0.098720
C2001	C200	0.663600	0.545300	0.063510
H1661	H166	0.666000	0.492000	0.059700
C2011	C201	0.618600	0.588500	0.034630
H1671	H167	0.590500	0.563100	0.011600
C2021	C202	0.651800	0.700200	0.072510
H1681	H168	0.647600	0.753500	0.075700
C2031	C203	0.697600	0.660800	0.103840
H1691	H169	0.722500	0.687100	0.127900
C2041	C204	0.822900	0.489800	0.251870
C2051	C205	0.780100	0.439900	0.278070
C2061	C206	0.776700	0.445200	0.327580
C2071	C207	0.820100	0.500600	0.350270
H1701	H170	0.818400	0.504800	0.383200
C2081	C208	0.865800	0.549800	0.325500
C2091	C209	0.866000	0.544500	0.276170
C2101	C210	0.887400	0.669100	0.244890
H1711	H171	0.842500	0.670600	0.226900
H1721	H172	0.923700	0.698400	0.228700
H1731	H173	0.880000	0.691000	0.275800
C2111	C211	0.771900	0.309600	0.253600
H1741	H174	0.819500	0.312900	0.240300
H1751	H175	0.742300	0.274900	0.234900
H1761	H176	0.775800	0.290700	0.285600
C2121	C212	0.727500	0.397800	0.357230
C2131	C213	0.655800	0.379600	0.343370
H1771	H177	0.638300	0.392200	0.313100
C2141	C214	0.611700	0.342700	0.375350
H1781	H178	0.563900	0.332000	0.365900
C2151	C215	0.702800	0.335900	0.431750
H1791	H179	0.719800	0.319400	0.461400
C2161	C216	0.750300	0.374300	0.402590
H1801	H180	0.797600	0.384600	0.413200
Cd71	Cd7	0.559700	0.262390	0.475580
Cl131	Cl13	0.459050	0.373010	0.468540
Cl141	Cl14	0.652090	0.149900	0.481810
O251	O25	0.412860	0.105750	0.696150
O261	O26	0.225150	0.915520	0.702430
O271	O27	0.238650	0.114530	0.753660
O281	O28	0.410990	0.909010	0.749830
N251	N25	0.488700	0.194400	0.530540
N261	N26	0.113000	0.834900	0.537830
N271	N27	0.133300	0.178800	0.919450
N281	N28	0.493690	0.801900	0.915240
C2171	C217	0.524100	0.840000	0.880030
H1811	H181	0.574100	0.835700	0.876500
C2181	C218	0.485600	0.885900	0.848240
H1821	H182	0.509400	0.910100	0.823400
C2191	C219	0.410200	0.895500	0.853740
C2201	C220	0.421200	0.808100	0.919530
H1831	H183	0.398700	0.779800	0.943200
C2211	C221	0.378900	0.854000	0.890770
H1841	H184	0.329100	0.857600	0.895800
C2221	C222	0.482100	0.118000	0.525210
H1851	H185	0.507000	0.094100	0.500800
C2231	C223	0.439800	0.072900	0.554540
H1861	H186	0.434500	0.020300	0.548700
C2241	C224	0.405600	0.106800	0.592300
C2251	C225	0.413600	0.186000	0.598280
H1871	H187	0.391600	0.211000	0.623500
C2261	C226	0.454200	0.227200	0.566540
H1881	H188	0.457800	0.280400	0.570400
C2271	C227	0.359100	0.058200	0.622900
C2281	C228	0.307100	0.011500	0.600670
H1891	H189	0.303200	0.011700	0.567700
C2291	C229	0.260500	0.964300	0.626360
C2301	C230	0.267200	0.963800	0.675740
C2311	C231	0.364100	0.058000	0.672230
C2321	C232	0.319300	0.011400	0.699030
C2331	C233	0.488500	0.083700	0.691240
H1901	H190	0.499400	0.078900	0.658100
H1911	H191	0.519200	0.122400	0.705500
H1921	H192	0.496800	0.035000	0.706800
C2341	C234	0.152300	0.944900	0.709470
H1931	H193	0.128200	0.951800	0.679200
H1941	H194	0.125300	0.908800	0.728100
H1951	H195	0.155000	0.993600	0.725700
C2351	C235	0.205700	0.918200	0.598720
C2361	C236	0.163600	0.954700	0.563510
H1961	H196	0.166000	0.008000	0.559700
C2371	C237	0.118600	0.911500	0.534630
H1971	H197	0.090500	0.936900	0.511600
C2381	C238	0.151800	0.799800	0.572510
H1981	H198	0.147600	0.746500	0.575700
C2391	C239	0.197600	0.839200	0.603840
H1991	H199	0.222500	0.812900	0.627900
C2401	C240	0.322900	0.010200	0.751870
C2411	C241	0.280100	0.060100	0.778070
C2421	C242	0.276700	0.054800	0.827580
C2431	C243	0.320100	0.999400	0.850270
H2001	H200	0.318400	0.995200	0.883200
C2441	C244	0.365800	0.950200	0.825500
C2451	C245	0.366000	0.955500	0.776170
C2461	C246	0.387400	0.830900	0.744890
H2011	H201	0.342500	0.829400	0.726900
H2021	H202	0.423700	0.801600	0.728700
H2031	H203	0.380000	0.809000	0.775800
C2471	C247	0.271900	0.190400	0.753600
H2041	H204	0.319500	0.187100	0.740300
H2051	H205	0.242300	0.225100	0.734900
H2061	H206	0.275800	0.209300	0.785600
C2481	C248	0.227500	0.102200	0.857230
C2491	C249	0.155800	0.120400	0.843370
H2071	H207	0.138300	0.107800	0.813100
C2501	C250	0.111700	0.157300	0.875350
H2081	H208	0.063900	0.168000	0.865900
C2511	C251	0.202800	0.164100	0.931750
H2091	H209	0.219800	0.180600	0.961400
C2521	C252	0.250300	0.125700	0.902590
H2101	H210	0.297600	0.115400	0.913200
Cd81	Cd8	0.059700	0.762390	0.475580
Cl151	Cl15	0.959050	0.873010	0.468540
Cl161	Cl16	0.152090	0.649900	0.481810
O291	O29	0.912860	0.605750	0.696150
O301	O30	0.725150	0.415520	0.702430
O311	O31	0.738650	0.614530	0.753660
O321	O32	0.910990	0.409010	0.749830
N291	N29	0.988700	0.694400	0.530540
N301	N30	0.613000	0.334900	0.537830
N311	N31	0.633300	0.678800	0.919450
N321	N32	0.993690	0.301900	0.915240
C2531	C253	0.024100	0.340000	0.880030
H2111	H211	0.074100	0.335700	0.876500
C2541	C254	0.985600	0.385900	0.848240
H2121	H212	0.009400	0.410100	0.823400
C2551	C255	0.910200	0.395500	0.853740
C2561	C256	0.921200	0.308100	0.919530
H2131	H213	0.898700	0.279800	0.943200
C2571	C257	0.878900	0.354000	0.890770
H2141	H214	0.829100	0.357600	0.895800
C2581	C258	0.982100	0.618000	0.525210
H2151	H215	0.007000	0.594100	0.500800
C2591	C259	0.939800	0.572900	0.554540
H2161	H216	0.934500	0.520300	0.548700
C2601	C260	0.905600	0.606800	0.592300
C2611	C261	0.913600	0.686000	0.598280
H2171	H217	0.891600	0.711000	0.623500
C2621	C262	0.954200	0.727200	0.566540
H2181	H218	0.957800	0.780400	0.570400
C2631	C263	0.859100	0.558200	0.622900
C2641	C264	0.807100	0.511500	0.600670
H2191	H219	0.803200	0.511700	0.567700
C2651	C265	0.760500	0.464300	0.626360
C2661	C266	0.767200	0.463800	0.675740
C2671	C267	0.864100	0.558000	0.672230
C2681	C268	0.819300	0.511400	0.699030
C2691	C269	0.988500	0.583700	0.691240
H2201	H220	0.999400	0.578900	0.658100
H2211	H221	0.019200	0.622400	0.705500
H2221	H222	0.996800	0.535000	0.706800
C2701	C270	0.652300	0.444900	0.709470
H2231	H223	0.628200	0.451800	0.679200
H2241	H224	0.625300	0.408800	0.728100
H2251	H225	0.655000	0.493600	0.725700
C2711	C271	0.705700	0.418200	0.598720
C2721	C272	0.663600	0.454700	0.563510
H2261	H226	0.666000	0.508000	0.559700
C2731	C273	0.618600	0.411500	0.534630
H2271	H227	0.590500	0.436900	0.511600
C2741	C274	0.651800	0.299800	0.572510
H2281	H228	0.647600	0.246500	0.575700
C2751	C275	0.697600	0.339200	0.603840
H2291	H229	0.722500	0.312900	0.627900
C2761	C276	0.822900	0.510200	0.751870
C2771	C277	0.780100	0.560100	0.778070
C2781	C278	0.776700	0.554800	0.827580
C2791	C279	0.820100	0.499400	0.850270
H2301	H230	0.818400	0.495200	0.883200
C2801	C280	0.865800	0.450200	0.825500
C2811	C281	0.866000	0.455500	0.776170
C2821	C282	0.887400	0.330900	0.744890
H2311	H231	0.842500	0.329400	0.726900
H2321	H232	0.923700	0.301600	0.728700
H2331	H233	0.880000	0.309000	0.775800
C2831	C283	0.771900	0.690400	0.753600
H2341	H234	0.819500	0.687100	0.740300
H2351	H235	0.742300	0.725100	0.734900
H2361	H236	0.775800	0.709300	0.785600
C2841	C284	0.727500	0.602200	0.857230
C2851	C285	0.655800	0.620400	0.843370
H2371	H237	0.638300	0.607800	0.813100
C2861	C286	0.611700	0.657300	0.875350
H2381	H238	0.563900	0.668000	0.865900
C2871	C287	0.702800	0.664100	0.931750
H2391	H239	0.719800	0.680600	0.961400
C2881	C288	0.750300	0.625700	0.902590
H2401	H240	0.797600	0.615400	0.913200
