data_KOXGIP_freeONLY_PM
_symmetry_space_group_name_H-M	'P1'
_cell_length_a	17.098000
_cell_length_b	26.435000
_cell_length_c	12.838000
_cell_angle_alpha	90.000000
_cell_angle_beta	129.166000
_cell_angle_gamma	90.000000
_symmetry_Int_Tables_number 1

loop_
_symmetry_equiv_pos_as_xyz
'x,y,z'

loop_
_atom_site_label
_atom_site_type_symbol
_atom_site_fract_x
_atom_site_fract_y
_atom_site_fract_z
O11	O1	0.179400	0.817900	0.408200
O21	O2	0.016500	0.761900	0.080200
N11	N1	0.358200	0.985900	0.605200
N21	N2	0.010700	0.587900	0.896600
C11	C1	0.353200	0.950500	0.527300
H11	H1	0.409000	0.945800	0.531500
C21	C2	0.268100	0.920000	0.439200
H21	H2	0.268300	0.895700	0.387000
C31	C3	0.185200	0.926300	0.430700
C41	C4	0.190100	0.964400	0.509200
H31	H3	0.134100	0.971100	0.503400
C51	C5	0.275600	0.992100	0.594200
H41	H4	0.276700	0.016600	0.647200
C61	C6	0.090900	0.897300	0.334700
C71	C7	0.090000	0.844600	0.331500
C81	C8	0.008900	0.735200	0.163200
C91	C9	0.116600	0.763300	0.120200
H51	H5	0.163000	0.776600	0.209600
H61	H6	0.116500	0.784500	0.059400
H71	H7	0.136800	0.729700	0.118100
C101	C10	0.218800	0.809100	0.543300
H81	H8	0.234600	0.840800	0.589000
H91	H9	0.278800	0.788900	0.588900
H101	H10	0.169400	0.791500	0.542900
C111	C11	0.075500	0.581200	0.028200
H111	H11	0.120300	0.554200	0.062400
C121	C12	0.078800	0.611800	0.114100
H121	H12	0.127300	0.606000	0.205900
C131	C13	0.012900	0.651600	0.071700
C141	C14	0.946900	0.660100	0.931100
H131	H13	0.903000	0.687600	0.894600
C151	C15	0.948600	0.627700	0.850000
H141	H14	0.904400	0.633400	0.757800
C161	C16	0.007900	0.682100	0.163300
O31	O3	0.679400	0.317900	0.408200
O41	O4	0.516500	0.261900	0.080200
N31	N3	0.858200	0.485900	0.605200
N41	N4	0.510700	0.087900	0.896600
C171	C17	0.853200	0.450500	0.527300
H151	H15	0.909000	0.445800	0.531500
C181	C18	0.768100	0.420000	0.439200
H161	H16	0.768300	0.395700	0.387000
C191	C19	0.685200	0.426300	0.430700
C201	C20	0.690100	0.464400	0.509200
H171	H17	0.634100	0.471100	0.503400
C211	C21	0.775600	0.492100	0.594200
H181	H18	0.776700	0.516600	0.647200
C221	C22	0.590900	0.397300	0.334700
C231	C23	0.590000	0.344600	0.331500
C241	C24	0.508900	0.235200	0.163200
C251	C25	0.616600	0.263300	0.120200
H191	H19	0.663000	0.276600	0.209600
H201	H20	0.616500	0.284500	0.059400
H211	H21	0.636800	0.229700	0.118100
C261	C26	0.718800	0.309100	0.543300
H221	H22	0.734600	0.340800	0.589000
H231	H23	0.778800	0.288900	0.588900
H241	H24	0.669400	0.291500	0.542900
C271	C27	0.575500	0.081200	0.028200
H251	H25	0.620300	0.054200	0.062400
C281	C28	0.578800	0.111800	0.114100
H261	H26	0.627300	0.106000	0.205900
C291	C29	0.512900	0.151600	0.071700
C301	C30	0.446900	0.160100	0.931100
H271	H27	0.403000	0.187600	0.894600
C311	C31	0.448600	0.127700	0.850000
H281	H28	0.404400	0.133400	0.757800
C321	C32	0.507900	0.182100	0.163300
O51	O5	0.820600	0.817900	0.091800
O61	O6	0.983500	0.761900	0.419800
N51	N5	0.641800	0.985900	0.894800
N61	N6	0.989300	0.587900	0.603400
C331	C33	0.646800	0.950500	0.972700
H291	H29	0.591000	0.945800	0.968500
C341	C34	0.731900	0.920000	0.060800
H301	H30	0.731700	0.895700	0.113000
C351	C35	0.814800	0.926300	0.069300
C361	C36	0.809900	0.964400	0.990800
H311	H31	0.865900	0.971100	0.996600
C371	C37	0.724400	0.992100	0.905800
H321	H32	0.723300	0.016600	0.852800
C381	C38	0.909100	0.897300	0.165300
C391	C39	0.910000	0.844600	0.168500
C401	C40	0.991100	0.735200	0.336800
C411	C41	0.883400	0.763300	0.379800
H331	H33	0.837000	0.776600	0.290400
H341	H34	0.883500	0.784500	0.440600
H351	H35	0.863200	0.729700	0.381900
C421	C42	0.781200	0.809100	0.956700
H361	H36	0.765400	0.840800	0.911000
H371	H37	0.721200	0.788900	0.911100
H381	H38	0.830600	0.791500	0.957100
C431	C43	0.924500	0.581200	0.471800
H391	H39	0.879700	0.554200	0.437600
C441	C44	0.921200	0.611800	0.385900
H401	H40	0.872700	0.606000	0.294100
C451	C45	0.987100	0.651600	0.428300
C461	C46	0.053100	0.660100	0.568900
H411	H41	0.097000	0.687600	0.605400
C471	C47	0.051400	0.627700	0.650000
H421	H42	0.095600	0.633400	0.742200
C481	C48	0.992100	0.682100	0.336700
O71	O7	0.320600	0.317900	0.091800
O81	O8	0.483500	0.261900	0.419800
N71	N7	0.141800	0.485900	0.894800
N81	N8	0.489300	0.087900	0.603400
C491	C49	0.146800	0.450500	0.972700
H431	H43	0.091000	0.445800	0.968500
C501	C50	0.231900	0.420000	0.060800
H441	H44	0.231700	0.395700	0.113000
C511	C51	0.314800	0.426300	0.069300
C521	C52	0.309900	0.464400	0.990800
H451	H45	0.365900	0.471100	0.996600
C531	C53	0.224400	0.492100	0.905800
H461	H46	0.223300	0.516600	0.852800
C541	C54	0.409100	0.397300	0.165300
C551	C55	0.410000	0.344600	0.168500
C561	C56	0.491100	0.235200	0.336800
C571	C57	0.383400	0.263300	0.379800
H471	H47	0.337000	0.276600	0.290400
H481	H48	0.383500	0.284500	0.440600
H491	H49	0.363200	0.229700	0.381900
C581	C58	0.281200	0.309100	0.956700
H501	H50	0.265400	0.340800	0.911000
H511	H51	0.221200	0.288900	0.911100
H521	H52	0.330600	0.291500	0.957100
C591	C59	0.424500	0.081200	0.471800
H531	H53	0.379700	0.054200	0.437600
C601	C60	0.421200	0.111800	0.385900
H541	H54	0.372700	0.106000	0.294100
C611	C61	0.487100	0.151600	0.428300
C621	C62	0.553100	0.160100	0.568900
H551	H55	0.597000	0.187600	0.605400
C631	C63	0.551400	0.127700	0.650000
H561	H56	0.595600	0.133400	0.742200
C641	C64	0.492100	0.182100	0.336700
Ag11	Ag1	0.500000	0.032430	0.750000
Ag21	Ag2	0.000000	0.532430	0.750000
C651	C65	0.000000	0.922400	0.250000
H571	H57	0.000000	0.957600	0.250000
C661	C66	0.000000	0.817300	0.250000
C671	C67	0.000000	0.760500	0.250000
C681	C68	0.000000	0.658400	0.250000
H581	H58	0.000000	0.623200	0.250000
C691	C69	0.500000	0.422400	0.250000
H591	H59	0.500000	0.457600	0.250000
C701	C70	0.500000	0.317300	0.250000
C711	C71	0.500000	0.260500	0.250000
C721	C72	0.500000	0.158400	0.250000
H601	H60	0.500000	0.123200	0.250000
O91	O9	0.820600	0.182100	0.591800
O101	O10	0.983500	0.238100	0.919800
N91	N9	0.641800	0.014100	0.394800
N101	N10	0.989300	0.412100	0.103400
C731	C73	0.646800	0.049500	0.472700
H611	H61	0.591000	0.054200	0.468500
C741	C74	0.731900	0.080000	0.560800
H621	H62	0.731700	0.104300	0.613000
C751	C75	0.814800	0.073700	0.569300
C761	C76	0.809900	0.035600	0.490800
H631	H63	0.865900	0.028900	0.496600
C771	C77	0.724400	0.007900	0.405800
H641	H64	0.723300	0.983400	0.352800
C781	C78	0.909100	0.102700	0.665300
C791	C79	0.910000	0.155400	0.668500
C801	C80	0.991100	0.264800	0.836800
C811	C81	0.883400	0.236700	0.879800
H651	H65	0.837000	0.223400	0.790400
H661	H66	0.883500	0.215500	0.940600
H671	H67	0.863200	0.270300	0.881900
C821	C82	0.781200	0.190900	0.456700
H681	H68	0.765400	0.159200	0.411000
H691	H69	0.721200	0.211100	0.411100
H701	H70	0.830600	0.208500	0.457100
C831	C83	0.924500	0.418800	0.971800
H711	H71	0.879700	0.445800	0.937600
C841	C84	0.921200	0.388200	0.885900
H721	H72	0.872700	0.394000	0.794100
C851	C85	0.987100	0.348400	0.928300
C861	C86	0.053100	0.339900	0.068900
H731	H73	0.097000	0.312400	0.105400
C871	C87	0.051400	0.372300	0.150000
H741	H74	0.095600	0.366600	0.242200
C881	C88	0.992100	0.317900	0.836700
O111	O11	0.320600	0.682100	0.591800
O121	O12	0.483500	0.738100	0.919800
N111	N11	0.141800	0.514100	0.394800
N121	N12	0.489300	0.912100	0.103400
C891	C89	0.146800	0.549500	0.472700
H751	H75	0.091000	0.554200	0.468500
C901	C90	0.231900	0.580000	0.560800
H761	H76	0.231700	0.604300	0.613000
C911	C91	0.314800	0.573700	0.569300
C921	C92	0.309900	0.535600	0.490800
H771	H77	0.365900	0.528900	0.496600
C931	C93	0.224400	0.507900	0.405800
H781	H78	0.223300	0.483400	0.352800
C941	C94	0.409100	0.602700	0.665300
C951	C95	0.410000	0.655400	0.668500
C961	C96	0.491100	0.764800	0.836800
C971	C97	0.383400	0.736700	0.879800
H791	H79	0.337000	0.723400	0.790400
H801	H80	0.383500	0.715500	0.940600
H811	H81	0.363200	0.770300	0.881900
C981	C98	0.281200	0.690900	0.456700
H821	H82	0.265400	0.659200	0.411000
H831	H83	0.221200	0.711100	0.411100
H841	H84	0.330600	0.708500	0.457100
C991	C99	0.424500	0.918800	0.971800
H851	H85	0.379700	0.945800	0.937600
C1001	C100	0.421200	0.888200	0.885900
H861	H86	0.372700	0.894000	0.794100
C1011	C101	0.487100	0.848400	0.928300
C1021	C102	0.553100	0.839900	0.068900
H871	H87	0.597000	0.812400	0.105400
C1031	C103	0.551400	0.872300	0.150000
H881	H88	0.595600	0.866600	0.242200
C1041	C104	0.492100	0.817900	0.836700
O131	O13	0.179400	0.182100	0.908200
O141	O14	0.016500	0.238100	0.580200
N131	N13	0.358200	0.014100	0.105200
N141	N14	0.010700	0.412100	0.396600
C1051	C105	0.353200	0.049500	0.027300
H891	H89	0.409000	0.054200	0.031500
C1061	C106	0.268100	0.080000	0.939200
H901	H90	0.268300	0.104300	0.887000
C1071	C107	0.185200	0.073700	0.930700
C1081	C108	0.190100	0.035600	0.009200
H911	H91	0.134100	0.028900	0.003400
C1091	C109	0.275600	0.007900	0.094200
H921	H92	0.276700	0.983400	0.147200
C1101	C110	0.090900	0.102700	0.834700
C1111	C111	0.090000	0.155400	0.831500
C1121	C112	0.008900	0.264800	0.663200
C1131	C113	0.116600	0.236700	0.620200
H931	H93	0.163000	0.223400	0.709600
H941	H94	0.116500	0.215500	0.559400
H951	H95	0.136800	0.270300	0.618100
C1141	C114	0.218800	0.190900	0.043300
H961	H96	0.234600	0.159200	0.089000
H971	H97	0.278800	0.211100	0.088900
H981	H98	0.169400	0.208500	0.042900
C1151	C115	0.075500	0.418800	0.528200
H991	H99	0.120300	0.445800	0.562400
C1161	C116	0.078800	0.388200	0.614100
H1001	H100	0.127300	0.394000	0.705900
C1171	C117	0.012900	0.348400	0.571700
C1181	C118	0.946900	0.339900	0.431100
H1011	H101	0.903000	0.312400	0.394600
C1191	C119	0.948600	0.372300	0.350000
H1021	H102	0.904400	0.366600	0.257800
C1201	C120	0.007900	0.317900	0.663300
O151	O15	0.679400	0.682100	0.908200
O161	O16	0.516500	0.738100	0.580200
N151	N15	0.858200	0.514100	0.105200
N161	N16	0.510700	0.912100	0.396600
C1211	C121	0.853200	0.549500	0.027300
H1031	H103	0.909000	0.554200	0.031500
C1221	C122	0.768100	0.580000	0.939200
H1041	H104	0.768300	0.604300	0.887000
C1231	C123	0.685200	0.573700	0.930700
C1241	C124	0.690100	0.535600	0.009200
H1051	H105	0.634100	0.528900	0.003400
C1251	C125	0.775600	0.507900	0.094200
H1061	H106	0.776700	0.483400	0.147200
C1261	C126	0.590900	0.602700	0.834700
C1271	C127	0.590000	0.655400	0.831500
C1281	C128	0.508900	0.764800	0.663200
C1291	C129	0.616600	0.736700	0.620200
H1071	H107	0.663000	0.723400	0.709600
H1081	H108	0.616500	0.715500	0.559400
H1091	H109	0.636800	0.770300	0.618100
C1301	C130	0.718800	0.690900	0.043300
H1101	H110	0.734600	0.659200	0.089000
H1111	H111	0.778800	0.711100	0.088900
H1121	H112	0.669400	0.708500	0.042900
C1311	C131	0.575500	0.918800	0.528200
H1131	H113	0.620300	0.945800	0.562400
C1321	C132	0.578800	0.888200	0.614100
H1141	H114	0.627300	0.894000	0.705900
C1331	C133	0.512900	0.848400	0.571700
C1341	C134	0.446900	0.839900	0.431100
H1151	H115	0.403000	0.812400	0.394600
C1351	C135	0.448600	0.872300	0.350000
H1161	H116	0.404400	0.866600	0.257800
C1361	C136	0.507900	0.817900	0.663300
Ag31	Ag3	0.500000	0.967570	0.250000
Ag41	Ag4	0.000000	0.467570	0.250000
C1371	C137	0.000000	0.077600	0.750000
H1171	H117	0.000000	0.042400	0.750000
C1381	C138	0.000000	0.182700	0.750000
C1391	C139	0.000000	0.239500	0.750000
C1401	C140	0.000000	0.341600	0.750000
H1181	H118	0.000000	0.376800	0.750000
C1411	C141	0.500000	0.577600	0.750000
H1191	H119	0.500000	0.542400	0.750000
C1421	C142	0.500000	0.682700	0.750000
C1431	C143	0.500000	0.739500	0.750000
C1441	C144	0.500000	0.841600	0.750000
H1201	H120	0.500000	0.876800	0.750000
