data_KOZSOJ_freeONLY_PM
_symmetry_space_group_name_H-M	'P1'
_cell_length_a	32.425000
_cell_length_b	32.425000
_cell_length_c	9.340000
_cell_angle_alpha	90.000000
_cell_angle_beta	90.000000
_cell_angle_gamma	120.000000
_symmetry_Int_Tables_number 1

loop_
_symmetry_equiv_pos_as_xyz
'x,y,z'

loop_
_atom_site_label
_atom_site_type_symbol
_atom_site_fract_x
_atom_site_fract_y
_atom_site_fract_z
N11	N1	0.535130	0.002090	0.178300
N21	N2	0.498890	0.057600	0.069500
N31	N3	0.376400	0.137280	0.758300
C11	C1	0.556210	0.975210	0.204300
C21	C2	0.584300	0.991300	0.333700
H11	H1	0.601700	0.978000	0.376000
C31	C3	0.581300	0.028300	0.382500
H21	H2	0.596700	0.046800	0.465000
C41	C4	0.550630	0.034960	0.287400
C51	C5	0.541960	0.073510	0.297900
C61	C6	0.516740	0.082230	0.196000
C71	C7	0.504570	0.119400	0.209100
H31	H3	0.513100	0.141700	0.285100
C81	C8	0.478750	0.116200	0.091900
H41	H4	0.465700	0.136000	0.070000
C91	C9	0.474610	0.077700	0.006600
C101	C10	0.448120	0.062090	0.879400
C111	C11	0.423380	0.088130	0.835300
C121	C12	0.439600	0.120600	0.726500
H51	H5	0.467300	0.126900	0.674500
C131	C13	0.415400	0.144080	0.693100
H61	H6	0.427600	0.166800	0.617700
C141	C14	0.360700	0.105600	0.865800
H71	H7	0.333000	0.100200	0.916400
C151	C15	0.382550	0.080400	0.906100
H81	H8	0.369800	0.057900	0.982000
C161	C16	0.559820	0.104660	0.427800
C171	C17	0.543030	0.087400	0.562900
H91	H9	0.519700	0.054800	0.574100
C181	C18	0.559300	0.116500	0.683500
H101	H10	0.548100	0.102900	0.775400
C191	C19	0.590600	0.163700	0.672900
C201	C20	0.607800	0.181200	0.536700
H111	H11	0.630600	0.214000	0.526200
C211	C21	0.592900	0.152500	0.415200
H121	H12	0.605500	0.165800	0.324000
C221	C22	0.608800	0.194800	0.805600
H131	H13	0.582700	0.184800	0.874700
H141	H14	0.620800	0.228100	0.779000
H151	H15	0.634600	0.191600	0.848800
N41	N4	0.201800	0.335420	0.511630
N51	N5	0.165560	0.390930	0.402830
N61	N6	0.043070	0.470610	0.091630
C231	C23	0.222880	0.308540	0.537630
C241	C24	0.250970	0.324630	0.667030
H161	H16	0.268370	0.311330	0.709330
C251	C25	0.247970	0.361630	0.715830
H171	H17	0.263370	0.380130	0.798330
C261	C26	0.217300	0.368290	0.620730
C271	C27	0.208630	0.406840	0.631230
C281	C28	0.183410	0.415560	0.529330
C291	C29	0.171240	0.452730	0.542430
H181	H18	0.179770	0.475030	0.618430
C301	C30	0.145420	0.449530	0.425230
H191	H19	0.132370	0.469330	0.403330
C311	C31	0.141280	0.411030	0.339930
C321	C32	0.114790	0.395420	0.212730
C331	C33	0.090050	0.421460	0.168630
C341	C34	0.106270	0.453930	0.059830
H201	H20	0.133970	0.460230	0.007830
C351	C35	0.082070	0.477410	0.026430
H211	H21	0.094270	0.500130	0.951030
C361	C36	0.027370	0.438930	0.199130
H221	H22	0.999670	0.433530	0.249730
C371	C37	0.049220	0.413730	0.239430
H231	H23	0.036470	0.391230	0.315330
C381	C38	0.226490	0.437990	0.761130
C391	C39	0.209700	0.420730	0.896230
H241	H24	0.186370	0.388130	0.907430
C401	C40	0.225970	0.449830	0.016830
H251	H25	0.214770	0.436230	0.108730
C411	C41	0.257270	0.497030	0.006230
C421	C42	0.274470	0.514530	0.870030
H261	H26	0.297270	0.547330	0.859530
C431	C43	0.259570	0.485830	0.748530
H271	H27	0.272170	0.499130	0.657330
C441	C44	0.275470	0.528130	0.138930
H281	H28	0.249370	0.518130	0.208030
H291	H29	0.287470	0.561430	0.112330
H301	H30	0.301270	0.524930	0.182130
N71	N7	0.868460	0.668760	0.844970
N81	N8	0.832220	0.724270	0.736170
N91	N9	0.709730	0.803950	0.424970
C451	C45	0.889540	0.641880	0.870970
C461	C46	0.917630	0.657970	0.000370
H311	H31	0.935030	0.644670	0.042670
C471	C47	0.914630	0.694970	0.049170
H321	H32	0.930030	0.713470	0.131670
C481	C48	0.883960	0.701630	0.954070
C491	C49	0.875290	0.740180	0.964570
C501	C50	0.850070	0.748900	0.862670
C511	C51	0.837900	0.786070	0.875770
H331	H33	0.846430	0.808370	0.951770
C521	C52	0.812080	0.782870	0.758570
H341	H34	0.799030	0.802670	0.736670
C531	C53	0.807940	0.744370	0.673270
C541	C54	0.781450	0.728760	0.546070
C551	C55	0.756710	0.754800	0.501970
C561	C56	0.772930	0.787270	0.393170
H351	H35	0.800630	0.793570	0.341170
C571	C57	0.748730	0.810750	0.359770
H361	H36	0.760930	0.833470	0.284370
C581	C58	0.694030	0.772270	0.532470
H371	H37	0.666330	0.766870	0.583070
C591	C59	0.715880	0.747070	0.572770
H381	H38	0.703130	0.724570	0.648670
C601	C60	0.893150	0.771330	0.094470
C611	C61	0.876360	0.754070	0.229570
H391	H39	0.853030	0.721470	0.240770
C621	C62	0.892630	0.783170	0.350170
H401	H40	0.881430	0.769570	0.442070
C631	C63	0.923930	0.830370	0.339570
C641	C64	0.941130	0.847870	0.203370
H411	H41	0.963930	0.880670	0.192870
C651	C65	0.926230	0.819170	0.081870
H421	H42	0.938830	0.832470	0.990670
C661	C66	0.942130	0.861470	0.472270
H431	H43	0.916030	0.851470	0.541370
H441	H44	0.954130	0.894770	0.445670
H451	H45	0.967930	0.858270	0.515470
N101	N10	0.997910	0.533040	0.178300
N111	N11	0.942400	0.441290	0.069500
N121	N12	0.862720	0.239120	0.758300
C671	C67	0.024790	0.581000	0.204300
C681	C68	0.008700	0.593000	0.333700
H461	H46	0.022000	0.623700	0.376000
C691	C69	0.971700	0.553000	0.382500
H471	H47	0.953200	0.549900	0.465000
C701	C70	0.965040	0.515670	0.287400
C711	C71	0.926490	0.468450	0.297900
C721	C72	0.917770	0.434510	0.196000
C731	C73	0.880600	0.385170	0.209100
H481	H48	0.858300	0.371400	0.285100
C741	C74	0.883800	0.362550	0.091900
H491	H49	0.864000	0.329700	0.070000
C751	C75	0.922300	0.396910	0.006600
C761	C76	0.937910	0.386030	0.879400
C771	C77	0.911870	0.335250	0.835300
C781	C78	0.879400	0.319000	0.726500
H501	H50	0.873100	0.340400	0.674500
C791	C79	0.855920	0.271320	0.693100
H511	H51	0.833200	0.260800	0.617700
C801	C80	0.894400	0.255100	0.865800
H521	H52	0.899800	0.232800	0.916400
C811	C81	0.919600	0.302150	0.906100
H531	H53	0.942100	0.311900	0.982000
C821	C82	0.895340	0.455160	0.427800
C831	C83	0.912600	0.455630	0.562900
H541	H54	0.945200	0.464900	0.574100
C841	C84	0.883500	0.442800	0.683500
H551	H55	0.897100	0.445200	0.775400
C851	C85	0.836300	0.426900	0.672900
C861	C86	0.818800	0.426600	0.536700
H561	H56	0.786000	0.416600	0.526200
C871	C87	0.847500	0.440400	0.415200
H571	H57	0.834200	0.439700	0.324000
C881	C88	0.805200	0.414000	0.805600
H581	H58	0.815200	0.397900	0.874700
H591	H59	0.771900	0.392700	0.779000
H601	H60	0.808400	0.443000	0.848800
N131	N13	0.664580	0.866370	0.511630
N141	N14	0.609070	0.774620	0.402830
N151	N15	0.529390	0.572450	0.091630
C891	C89	0.691460	0.914330	0.537630
C901	C90	0.675370	0.926330	0.667030
H611	H61	0.688670	0.957030	0.709330
C911	C91	0.638370	0.886330	0.715830
H621	H62	0.619870	0.883230	0.798330
C921	C92	0.631710	0.849000	0.620730
C931	C93	0.593160	0.801780	0.631230
C941	C94	0.584440	0.767840	0.529330
C951	C95	0.547270	0.718500	0.542430
H631	H63	0.524970	0.704730	0.618430
C961	C96	0.550470	0.695880	0.425230
H641	H64	0.530670	0.663030	0.403330
C971	C97	0.588970	0.730240	0.339930
C981	C98	0.604580	0.719360	0.212730
C991	C99	0.578540	0.668580	0.168630
C1001	C100	0.546070	0.652330	0.059830
H651	H65	0.539770	0.673730	0.007830
C1011	C101	0.522590	0.604650	0.026430
H661	H66	0.499870	0.594130	0.951030
C1021	C102	0.561070	0.588430	0.199130
H671	H67	0.566470	0.566130	0.249730
C1031	C103	0.586270	0.635480	0.239430
H681	H68	0.608770	0.645230	0.315330
C1041	C104	0.562010	0.788490	0.761130
C1051	C105	0.579270	0.788960	0.896230
H691	H69	0.611870	0.798230	0.907430
C1061	C106	0.550170	0.776130	0.016830
H701	H70	0.563770	0.778530	0.108730
C1071	C107	0.502970	0.760230	0.006230
C1081	C108	0.485470	0.759930	0.870030
H711	H71	0.452670	0.749930	0.859530
C1091	C109	0.514170	0.773730	0.748530
H721	H72	0.500870	0.773030	0.657330
C1101	C110	0.471870	0.747330	0.138930
H731	H73	0.481870	0.731230	0.208030
H741	H74	0.438570	0.726030	0.112330
H751	H75	0.475070	0.776330	0.182130
N161	N16	0.331240	0.199710	0.844970
N171	N17	0.275730	0.107960	0.736170
N181	N18	0.196050	0.905790	0.424970
C1111	C111	0.358120	0.247670	0.870970
C1121	C112	0.342030	0.259670	0.000370
H761	H76	0.355330	0.290370	0.042670
C1131	C113	0.305030	0.219670	0.049170
H771	H77	0.286530	0.216570	0.131670
C1141	C114	0.298370	0.182340	0.954070
C1151	C115	0.259820	0.135120	0.964570
C1161	C116	0.251100	0.101180	0.862670
C1171	C117	0.213930	0.051840	0.875770
H781	H78	0.191630	0.038070	0.951770
C1181	C118	0.217130	0.029220	0.758570
H791	H79	0.197330	0.996370	0.736670
C1191	C119	0.255630	0.063580	0.673270
C1201	C120	0.271240	0.052700	0.546070
C1211	C121	0.245200	0.001920	0.501970
C1221	C122	0.212730	0.985670	0.393170
H801	H80	0.206430	0.007070	0.341170
C1231	C123	0.189250	0.937990	0.359770
H811	H81	0.166530	0.927470	0.284370
C1241	C124	0.227730	0.921770	0.532470
H821	H82	0.233130	0.899470	0.583070
C1251	C125	0.252930	0.968820	0.572770
H831	H83	0.275430	0.978570	0.648670
C1261	C126	0.228670	0.121830	0.094470
C1271	C127	0.245930	0.122300	0.229570
H841	H84	0.278530	0.131570	0.240770
C1281	C128	0.216830	0.109470	0.350170
H851	H85	0.230430	0.111870	0.442070
C1291	C129	0.169630	0.093570	0.339570
C1301	C130	0.152130	0.093270	0.203370
H861	H86	0.119330	0.083270	0.192870
C1311	C131	0.180830	0.107070	0.081870
H871	H87	0.167530	0.106370	0.990670
C1321	C132	0.138530	0.080670	0.472270
H881	H88	0.148530	0.064570	0.541370
H891	H89	0.105230	0.059370	0.445670
H901	H90	0.141730	0.109670	0.515470
N191	N19	0.466960	0.464870	0.178300
N201	N20	0.558710	0.501110	0.069500
N211	N21	0.760880	0.623600	0.758300
C1331	C133	0.419000	0.443790	0.204300
C1341	C134	0.407000	0.415700	0.333700
H911	H91	0.376300	0.398300	0.376000
C1351	C135	0.447000	0.418700	0.382500
H921	H92	0.450100	0.403300	0.465000
C1361	C136	0.484330	0.449370	0.287400
C1371	C137	0.531550	0.458040	0.297900
C1381	C138	0.565490	0.483260	0.196000
C1391	C139	0.614830	0.495430	0.209100
H931	H93	0.628600	0.486900	0.285100
C1401	C140	0.637450	0.521250	0.091900
H941	H94	0.670300	0.534300	0.070000
C1411	C141	0.603090	0.525390	0.006600
C1421	C142	0.613970	0.551880	0.879400
C1431	C143	0.664750	0.576620	0.835300
C1441	C144	0.681000	0.560400	0.726500
H951	H95	0.659600	0.532700	0.674500
C1451	C145	0.728680	0.584600	0.693100
H961	H96	0.739200	0.572400	0.617700
C1461	C146	0.744900	0.639300	0.865800
H971	H97	0.767200	0.667000	0.916400
C1471	C147	0.697850	0.617450	0.906100
H981	H98	0.688100	0.630200	0.982000
C1481	C148	0.544840	0.440180	0.427800
C1491	C149	0.544370	0.456970	0.562900
H991	H99	0.535100	0.480300	0.574100
C1501	C150	0.557200	0.440700	0.683500
H1001	H100	0.554800	0.451900	0.775400
C1511	C151	0.573100	0.409400	0.672900
C1521	C152	0.573400	0.392200	0.536700
H1011	H101	0.583400	0.369400	0.526200
C1531	C153	0.559600	0.407100	0.415200
H1021	H102	0.560300	0.394500	0.324000
C1541	C154	0.586000	0.391200	0.805600
H1031	H103	0.602100	0.417300	0.874700
H1041	H104	0.607300	0.379200	0.779000
H1051	H105	0.557000	0.365400	0.848800
N221	N22	0.133630	0.798200	0.511630
N231	N23	0.225380	0.834440	0.402830
N241	N24	0.427550	0.956930	0.091630
C1551	C155	0.085670	0.777120	0.537630
C1561	C156	0.073670	0.749030	0.667030
H1061	H106	0.042970	0.731630	0.709330
C1571	C157	0.113670	0.752030	0.715830
H1071	H107	0.116770	0.736630	0.798330
C1581	C158	0.151000	0.782700	0.620730
C1591	C159	0.198220	0.791370	0.631230
C1601	C160	0.232160	0.816590	0.529330
C1611	C161	0.281500	0.828760	0.542430
H1081	H108	0.295270	0.820230	0.618430
C1621	C162	0.304120	0.854580	0.425230
H1091	H109	0.336970	0.867630	0.403330
C1631	C163	0.269760	0.858720	0.339930
C1641	C164	0.280640	0.885210	0.212730
C1651	C165	0.331420	0.909950	0.168630
C1661	C166	0.347670	0.893730	0.059830
H1101	H110	0.326270	0.866030	0.007830
C1671	C167	0.395350	0.917930	0.026430
H1111	H111	0.405870	0.905730	0.951030
C1681	C168	0.411570	0.972630	0.199130
H1121	H112	0.433870	0.000330	0.249730
C1691	C169	0.364520	0.950780	0.239430
H1131	H113	0.354770	0.963530	0.315330
C1701	C170	0.211510	0.773510	0.761130
C1711	C171	0.211040	0.790300	0.896230
H1141	H114	0.201770	0.813630	0.907430
C1721	C172	0.223870	0.774030	0.016830
H1151	H115	0.221470	0.785230	0.108730
C1731	C173	0.239770	0.742730	0.006230
C1741	C174	0.240070	0.725530	0.870030
H1161	H116	0.250070	0.702730	0.859530
C1751	C175	0.226270	0.740430	0.748530
H1171	H117	0.226970	0.727830	0.657330
C1761	C176	0.252670	0.724530	0.138930
H1181	H118	0.268770	0.750630	0.208030
H1191	H119	0.273970	0.712530	0.112330
H1201	H120	0.223670	0.698730	0.182130
N251	N25	0.800290	0.131540	0.844970
N261	N26	0.892040	0.167780	0.736170
N271	N27	0.094210	0.290270	0.424970
C1771	C177	0.752330	0.110460	0.870970
C1781	C178	0.740330	0.082370	0.000370
H1211	H121	0.709630	0.064970	0.042670
C1791	C179	0.780330	0.085370	0.049170
H1221	H122	0.783430	0.069970	0.131670
C1801	C180	0.817660	0.116040	0.954070
C1811	C181	0.864880	0.124710	0.964570
C1821	C182	0.898820	0.149930	0.862670
C1831	C183	0.948160	0.162100	0.875770
H1231	H123	0.961930	0.153570	0.951770
C1841	C184	0.970780	0.187920	0.758570
H1241	H124	0.003630	0.200970	0.736670
C1851	C185	0.936420	0.192060	0.673270
C1861	C186	0.947300	0.218550	0.546070
C1871	C187	0.998080	0.243290	0.501970
C1881	C188	0.014330	0.227070	0.393170
H1251	H125	0.992930	0.199370	0.341170
C1891	C189	0.062010	0.251270	0.359770
H1261	H126	0.072530	0.239070	0.284370
C1901	C190	0.078230	0.305970	0.532470
H1271	H127	0.100530	0.333670	0.583070
C1911	C191	0.031180	0.284120	0.572770
H1281	H128	0.021430	0.296870	0.648670
C1921	C192	0.878170	0.106850	0.094470
C1931	C193	0.877700	0.123640	0.229570
H1291	H129	0.868430	0.146970	0.240770
C1941	C194	0.890530	0.107370	0.350170
H1301	H130	0.888130	0.118570	0.442070
C1951	C195	0.906430	0.076070	0.339570
C1961	C196	0.906730	0.058870	0.203370
H1311	H131	0.916730	0.036070	0.192870
C1971	C197	0.892930	0.073770	0.081870
H1321	H132	0.893630	0.061170	0.990670
C1981	C198	0.919330	0.057870	0.472270
H1331	H133	0.935430	0.083970	0.541370
H1341	H134	0.940630	0.045870	0.445670
H1351	H135	0.890330	0.032070	0.515470
N281	N28	0.464870	0.997910	0.821700
N291	N29	0.501110	0.942400	0.930500
N301	N30	0.623600	0.862720	0.241700
C1991	C199	0.443790	0.024790	0.795700
C2001	C200	0.415700	0.008700	0.666300
H1361	H136	0.398300	0.022000	0.624000
C2011	C201	0.418700	0.971700	0.617500
H1371	H137	0.403300	0.953200	0.535000
C2021	C202	0.449370	0.965040	0.712600
C2031	C203	0.458040	0.926490	0.702100
C2041	C204	0.483260	0.917770	0.804000
C2051	C205	0.495430	0.880600	0.790900
H1381	H138	0.486900	0.858300	0.714900
C2061	C206	0.521250	0.883800	0.908100
H1391	H139	0.534300	0.864000	0.930000
C2071	C207	0.525390	0.922300	0.993400
C2081	C208	0.551880	0.937910	0.120600
C2091	C209	0.576620	0.911870	0.164700
C2101	C210	0.560400	0.879400	0.273500
H1401	H140	0.532700	0.873100	0.325500
C2111	C211	0.584600	0.855920	0.306900
H1411	H141	0.572400	0.833200	0.382300
C2121	C212	0.639300	0.894400	0.134200
H1421	H142	0.667000	0.899800	0.083600
C2131	C213	0.617450	0.919600	0.093900
H1431	H143	0.630200	0.942100	0.018000
C2141	C214	0.440180	0.895340	0.572200
C2151	C215	0.456970	0.912600	0.437100
H1441	H144	0.480300	0.945200	0.425900
C2161	C216	0.440700	0.883500	0.316500
H1451	H145	0.451900	0.897100	0.224600
C2171	C217	0.409400	0.836300	0.327100
C2181	C218	0.392200	0.818800	0.463300
H1461	H146	0.369400	0.786000	0.473800
C2191	C219	0.407100	0.847500	0.584800
H1471	H147	0.394500	0.834200	0.676000
C2201	C220	0.391200	0.805200	0.194400
H1481	H148	0.417300	0.815200	0.125300
H1491	H149	0.379200	0.771900	0.221000
H1501	H150	0.365400	0.808400	0.151200
N311	N31	0.131540	0.331240	0.155030
N321	N32	0.167780	0.275730	0.263830
N331	N33	0.290270	0.196050	0.575030
C2211	C221	0.110460	0.358120	0.129030
C2221	C222	0.082370	0.342030	0.999630
H1511	H151	0.064970	0.355330	0.957330
C2231	C223	0.085370	0.305030	0.950830
H1521	H152	0.069970	0.286530	0.868330
C2241	C224	0.116040	0.298370	0.045930
C2251	C225	0.124710	0.259820	0.035430
C2261	C226	0.149930	0.251100	0.137330
C2271	C227	0.162100	0.213930	0.124230
H1531	H153	0.153570	0.191630	0.048230
C2281	C228	0.187920	0.217130	0.241430
H1541	H154	0.200970	0.197330	0.263330
C2291	C229	0.192060	0.255630	0.326730
C2301	C230	0.218550	0.271240	0.453930
C2311	C231	0.243290	0.245200	0.498030
C2321	C232	0.227070	0.212730	0.606830
H1551	H155	0.199370	0.206430	0.658830
C2331	C233	0.251270	0.189250	0.640230
H1561	H156	0.239070	0.166530	0.715630
C2341	C234	0.305970	0.227730	0.467530
H1571	H157	0.333670	0.233130	0.416930
C2351	C235	0.284120	0.252930	0.427230
H1581	H158	0.296870	0.275430	0.351330
C2361	C236	0.106850	0.228670	0.905530
C2371	C237	0.123640	0.245930	0.770430
H1591	H159	0.146970	0.278530	0.759230
C2381	C238	0.107370	0.216830	0.649830
H1601	H160	0.118570	0.230430	0.557930
C2391	C239	0.076070	0.169630	0.660430
C2401	C240	0.058870	0.152130	0.796630
H1611	H161	0.036070	0.119330	0.807130
C2411	C241	0.073770	0.180830	0.918130
H1621	H162	0.061170	0.167530	0.009330
C2421	C242	0.057870	0.138530	0.527730
H1631	H163	0.083970	0.148530	0.458630
H1641	H164	0.045870	0.105230	0.554330
H1651	H165	0.032070	0.141730	0.484530
N341	N34	0.798200	0.664580	0.488370
N351	N35	0.834440	0.609070	0.597170
N361	N36	0.956930	0.529390	0.908370
C2431	C243	0.777120	0.691460	0.462370
C2441	C244	0.749030	0.675370	0.332970
H1661	H166	0.731630	0.688670	0.290670
C2451	C245	0.752030	0.638370	0.284170
H1671	H167	0.736630	0.619870	0.201670
C2461	C246	0.782700	0.631710	0.379270
C2471	C247	0.791370	0.593160	0.368770
C2481	C248	0.816590	0.584440	0.470670
C2491	C249	0.828760	0.547270	0.457570
H1681	H168	0.820230	0.524970	0.381570
C2501	C250	0.854580	0.550470	0.574770
H1691	H169	0.867630	0.530670	0.596670
C2511	C251	0.858720	0.588970	0.660070
C2521	C252	0.885210	0.604580	0.787270
C2531	C253	0.909950	0.578540	0.831370
C2541	C254	0.893730	0.546070	0.940170
H1701	H170	0.866030	0.539770	0.992170
C2551	C255	0.917930	0.522590	0.973570
H1711	H171	0.905730	0.499870	0.048970
C2561	C256	0.972630	0.561070	0.800870
H1721	H172	0.000330	0.566470	0.750270
C2571	C257	0.950780	0.586270	0.760570
H1731	H173	0.963530	0.608770	0.684670
C2581	C258	0.773510	0.562010	0.238870
C2591	C259	0.790300	0.579270	0.103770
H1741	H174	0.813630	0.611870	0.092570
C2601	C260	0.774030	0.550170	0.983170
H1751	H175	0.785230	0.563770	0.891270
C2611	C261	0.742730	0.502970	0.993770
C2621	C262	0.725530	0.485470	0.129970
H1761	H176	0.702730	0.452670	0.140470
C2631	C263	0.740430	0.514170	0.251470
H1771	H177	0.727830	0.500870	0.342670
C2641	C264	0.724530	0.471870	0.861070
H1781	H178	0.750630	0.481870	0.791970
H1791	H179	0.712530	0.438570	0.887670
H1801	H180	0.698730	0.475070	0.817870
N371	N37	0.002090	0.466960	0.821700
N381	N38	0.057600	0.558710	0.930500
N391	N39	0.137280	0.760880	0.241700
C2651	C265	0.975210	0.419000	0.795700
C2661	C266	0.991300	0.407000	0.666300
H1811	H181	0.978000	0.376300	0.624000
C2671	C267	0.028300	0.447000	0.617500
H1821	H182	0.046800	0.450100	0.535000
C2681	C268	0.034960	0.484330	0.712600
C2691	C269	0.073510	0.531550	0.702100
C2701	C270	0.082230	0.565490	0.804000
C2711	C271	0.119400	0.614830	0.790900
H1831	H183	0.141700	0.628600	0.714900
C2721	C272	0.116200	0.637450	0.908100
H1841	H184	0.136000	0.670300	0.930000
C2731	C273	0.077700	0.603090	0.993400
C2741	C274	0.062090	0.613970	0.120600
C2751	C275	0.088130	0.664750	0.164700
C2761	C276	0.120600	0.681000	0.273500
H1851	H185	0.126900	0.659600	0.325500
C2771	C277	0.144080	0.728680	0.306900
H1861	H186	0.166800	0.739200	0.382300
C2781	C278	0.105600	0.744900	0.134200
H1871	H187	0.100200	0.767200	0.083600
C2791	C279	0.080400	0.697850	0.093900
H1881	H188	0.057900	0.688100	0.018000
C2801	C280	0.104660	0.544840	0.572200
C2811	C281	0.087400	0.544370	0.437100
H1891	H189	0.054800	0.535100	0.425900
C2821	C282	0.116500	0.557200	0.316500
H1901	H190	0.102900	0.554800	0.224600
C2831	C283	0.163700	0.573100	0.327100
C2841	C284	0.181200	0.573400	0.463300
H1911	H191	0.214000	0.583400	0.473800
C2851	C285	0.152500	0.559600	0.584800
H1921	H192	0.165800	0.560300	0.676000
C2861	C286	0.194800	0.586000	0.194400
H1931	H193	0.184800	0.602100	0.125300
H1941	H194	0.228100	0.607300	0.221000
H1951	H195	0.191600	0.557000	0.151200
N401	N40	0.668760	0.800290	0.155030
N411	N41	0.724270	0.892040	0.263830
N421	N42	0.803950	0.094210	0.575030
C2871	C287	0.641880	0.752330	0.129030
C2881	C288	0.657970	0.740330	0.999630
H1961	H196	0.644670	0.709630	0.957330
C2891	C289	0.694970	0.780330	0.950830
H1971	H197	0.713470	0.783430	0.868330
C2901	C290	0.701630	0.817660	0.045930
C2911	C291	0.740180	0.864880	0.035430
C2921	C292	0.748900	0.898820	0.137330
C2931	C293	0.786070	0.948160	0.124230
H1981	H198	0.808370	0.961930	0.048230
C2941	C294	0.782870	0.970780	0.241430
H1991	H199	0.802670	0.003630	0.263330
C2951	C295	0.744370	0.936420	0.326730
C2961	C296	0.728760	0.947300	0.453930
C2971	C297	0.754800	0.998080	0.498030
C2981	C298	0.787270	0.014330	0.606830
H2001	H200	0.793570	0.992930	0.658830
C2991	C299	0.810750	0.062010	0.640230
H2011	H201	0.833470	0.072530	0.715630
C3001	C300	0.772270	0.078230	0.467530
H2021	H202	0.766870	0.100530	0.416930
C3011	C301	0.747070	0.031180	0.427230
H2031	H203	0.724570	0.021430	0.351330
C3021	C302	0.771330	0.878170	0.905530
C3031	C303	0.754070	0.877700	0.770430
H2041	H204	0.721470	0.868430	0.759230
C3041	C304	0.783170	0.890530	0.649830
H2051	H205	0.769570	0.888130	0.557930
C3051	C305	0.830370	0.906430	0.660430
C3061	C306	0.847870	0.906730	0.796630
H2061	H206	0.880670	0.916730	0.807130
C3071	C307	0.819170	0.892930	0.918130
H2071	H207	0.832470	0.893630	0.009330
C3081	C308	0.861470	0.919330	0.527730
H2081	H208	0.851470	0.935430	0.458630
H2091	H209	0.894770	0.940630	0.554330
H2101	H210	0.858270	0.890330	0.484530
N431	N43	0.335420	0.133630	0.488370
N441	N44	0.390930	0.225380	0.597170
N451	N45	0.470610	0.427550	0.908370
C3091	C309	0.308540	0.085670	0.462370
C3101	C310	0.324630	0.073670	0.332970
H2111	H211	0.311330	0.042970	0.290670
C3111	C311	0.361630	0.113670	0.284170
H2121	H212	0.380130	0.116770	0.201670
C3121	C312	0.368290	0.151000	0.379270
C3131	C313	0.406840	0.198220	0.368770
C3141	C314	0.415560	0.232160	0.470670
C3151	C315	0.452730	0.281500	0.457570
H2131	H213	0.475030	0.295270	0.381570
C3161	C316	0.449530	0.304120	0.574770
H2141	H214	0.469330	0.336970	0.596670
C3171	C317	0.411030	0.269760	0.660070
C3181	C318	0.395420	0.280640	0.787270
C3191	C319	0.421460	0.331420	0.831370
C3201	C320	0.453930	0.347670	0.940170
H2151	H215	0.460230	0.326270	0.992170
C3211	C321	0.477410	0.395350	0.973570
H2161	H216	0.500130	0.405870	0.048970
C3221	C322	0.438930	0.411570	0.800870
H2171	H217	0.433530	0.433870	0.750270
C3231	C323	0.413730	0.364520	0.760570
H2181	H218	0.391230	0.354770	0.684670
C3241	C324	0.437990	0.211510	0.238870
C3251	C325	0.420730	0.211040	0.103770
H2191	H219	0.388130	0.201770	0.092570
C3261	C326	0.449830	0.223870	0.983170
H2201	H220	0.436230	0.221470	0.891270
C3271	C327	0.497030	0.239770	0.993770
C3281	C328	0.514530	0.240070	0.129970
H2211	H221	0.547330	0.250070	0.140470
C3291	C329	0.485830	0.226270	0.251470
H2221	H222	0.499130	0.226970	0.342670
C3301	C330	0.528130	0.252670	0.861070
H2231	H223	0.518130	0.268770	0.791970
H2241	H224	0.561430	0.273970	0.887670
H2251	H225	0.524930	0.223670	0.817870
N461	N46	0.533040	0.535130	0.821700
N471	N47	0.441290	0.498890	0.930500
N481	N48	0.239120	0.376400	0.241700
C3311	C331	0.581000	0.556210	0.795700
C3321	C332	0.593000	0.584300	0.666300
H2261	H226	0.623700	0.601700	0.624000
C3331	C333	0.553000	0.581300	0.617500
H2271	H227	0.549900	0.596700	0.535000
C3341	C334	0.515670	0.550630	0.712600
C3351	C335	0.468450	0.541960	0.702100
C3361	C336	0.434510	0.516740	0.804000
C3371	C337	0.385170	0.504570	0.790900
H2281	H228	0.371400	0.513100	0.714900
C3381	C338	0.362550	0.478750	0.908100
H2291	H229	0.329700	0.465700	0.930000
C3391	C339	0.396910	0.474610	0.993400
C3401	C340	0.386030	0.448120	0.120600
C3411	C341	0.335250	0.423380	0.164700
C3421	C342	0.319000	0.439600	0.273500
H2301	H230	0.340400	0.467300	0.325500
C3431	C343	0.271320	0.415400	0.306900
H2311	H231	0.260800	0.427600	0.382300
C3441	C344	0.255100	0.360700	0.134200
H2321	H232	0.232800	0.333000	0.083600
C3451	C345	0.302150	0.382550	0.093900
H2331	H233	0.311900	0.369800	0.018000
C3461	C346	0.455160	0.559820	0.572200
C3471	C347	0.455630	0.543030	0.437100
H2341	H234	0.464900	0.519700	0.425900
C3481	C348	0.442800	0.559300	0.316500
H2351	H235	0.445200	0.548100	0.224600
C3491	C349	0.426900	0.590600	0.327100
C3501	C350	0.426600	0.607800	0.463300
H2361	H236	0.416600	0.630600	0.473800
C3511	C351	0.440400	0.592900	0.584800
H2371	H237	0.439700	0.605500	0.676000
C3521	C352	0.414000	0.608800	0.194400
H2381	H238	0.397900	0.582700	0.125300
H2391	H239	0.392700	0.620800	0.221000
H2401	H240	0.443000	0.634600	0.151200
N491	N49	0.199710	0.868460	0.155030
N501	N50	0.107960	0.832220	0.263830
N511	N51	0.905790	0.709730	0.575030
C3531	C353	0.247670	0.889540	0.129030
C3541	C354	0.259670	0.917630	0.999630
H2411	H241	0.290370	0.935030	0.957330
C3551	C355	0.219670	0.914630	0.950830
H2421	H242	0.216570	0.930030	0.868330
C3561	C356	0.182340	0.883960	0.045930
C3571	C357	0.135120	0.875290	0.035430
C3581	C358	0.101180	0.850070	0.137330
C3591	C359	0.051840	0.837900	0.124230
H2431	H243	0.038070	0.846430	0.048230
C3601	C360	0.029220	0.812080	0.241430
H2441	H244	0.996370	0.799030	0.263330
C3611	C361	0.063580	0.807940	0.326730
C3621	C362	0.052700	0.781450	0.453930
C3631	C363	0.001920	0.756710	0.498030
C3641	C364	0.985670	0.772930	0.606830
H2451	H245	0.007070	0.800630	0.658830
C3651	C365	0.937990	0.748730	0.640230
H2461	H246	0.927470	0.760930	0.715630
C3661	C366	0.921770	0.694030	0.467530
H2471	H247	0.899470	0.666330	0.416930
C3671	C367	0.968820	0.715880	0.427230
H2481	H248	0.978570	0.703130	0.351330
C3681	C368	0.121830	0.893150	0.905530
C3691	C369	0.122300	0.876360	0.770430
H2491	H249	0.131570	0.853030	0.759230
C3701	C370	0.109470	0.892630	0.649830
H2501	H250	0.111870	0.881430	0.557930
C3711	C371	0.093570	0.923930	0.660430
C3721	C372	0.093270	0.941130	0.796630
H2511	H251	0.083270	0.963930	0.807130
C3731	C373	0.107070	0.926230	0.918130
H2521	H252	0.106370	0.938830	0.009330
C3741	C374	0.080670	0.942130	0.527730
H2531	H253	0.064570	0.916030	0.458630
H2541	H254	0.059370	0.954130	0.554330
H2551	H255	0.109670	0.967930	0.484530
N521	N52	0.866370	0.201800	0.488370
N531	N53	0.774620	0.165560	0.597170
N541	N54	0.572450	0.043070	0.908370
C3751	C375	0.914330	0.222880	0.462370
C3761	C376	0.926330	0.250970	0.332970
H2561	H256	0.957030	0.268370	0.290670
C3771	C377	0.886330	0.247970	0.284170
H2571	H257	0.883230	0.263370	0.201670
C3781	C378	0.849000	0.217300	0.379270
C3791	C379	0.801780	0.208630	0.368770
C3801	C380	0.767840	0.183410	0.470670
C3811	C381	0.718500	0.171240	0.457570
H2581	H258	0.704730	0.179770	0.381570
C3821	C382	0.695880	0.145420	0.574770
H2591	H259	0.663030	0.132370	0.596670
C3831	C383	0.730240	0.141280	0.660070
C3841	C384	0.719360	0.114790	0.787270
C3851	C385	0.668580	0.090050	0.831370
C3861	C386	0.652330	0.106270	0.940170
H2601	H260	0.673730	0.133970	0.992170
C3871	C387	0.604650	0.082070	0.973570
H2611	H261	0.594130	0.094270	0.048970
C3881	C388	0.588430	0.027370	0.800870
H2621	H262	0.566130	0.999670	0.750270
C3891	C389	0.635480	0.049220	0.760570
H2631	H263	0.645230	0.036470	0.684670
C3901	C390	0.788490	0.226490	0.238870
C3911	C391	0.788960	0.209700	0.103770
H2641	H264	0.798230	0.186370	0.092570
C3921	C392	0.776130	0.225970	0.983170
H2651	H265	0.778530	0.214770	0.891270
C3931	C393	0.760230	0.257270	0.993770
C3941	C394	0.759930	0.274470	0.129970
H2661	H266	0.749930	0.297270	0.140470
C3951	C395	0.773730	0.259570	0.251470
H2671	H267	0.773030	0.272170	0.342670
C3961	C396	0.747330	0.275470	0.861070
H2681	H268	0.731230	0.249370	0.791970
H2691	H269	0.726030	0.287470	0.887670
H2701	H270	0.776330	0.301270	0.817870
Co11	Co1	0.500000	0.000000	0.000000
Co21	Co2	0.166670	0.333330	0.333330
Co31	Co3	0.833330	0.666670	0.666670
Co41	Co4	0.000000	0.500000	0.000000
Co51	Co5	0.666670	0.833330	0.333330
Co61	Co6	0.333330	0.166670	0.666670
Co71	Co7	0.500000	0.500000	0.000000
Co81	Co8	0.166670	0.833330	0.333330
Co91	Co9	0.833330	0.166670	0.666670
