data_KOZSID_freeONLY_PM
_symmetry_space_group_name_H-M	'P1'
_cell_length_a	32.721000
_cell_length_b	32.721000
_cell_length_c	9.316000
_cell_angle_alpha	90.000000
_cell_angle_beta	90.000000
_cell_angle_gamma	120.000000
_symmetry_Int_Tables_number 1

loop_
_symmetry_equiv_pos_as_xyz
'x,y,z'

loop_
_atom_site_label
_atom_site_type_symbol
_atom_site_fract_x
_atom_site_fract_y
_atom_site_fract_z
N11	N1	0.533160	0.997860	0.821200
N21	N2	0.441740	0.943250	0.929100
N31	N3	0.240450	0.863210	0.238200
C11	C1	0.580790	0.025050	0.794800
C21	C2	0.593080	0.008730	0.666800
H11	H1	0.623700	0.021500	0.625900
C31	C3	0.553160	0.972080	0.616700
H21	H2	0.550100	0.954100	0.533200
C41	C4	0.515750	0.965020	0.712800
C51	C5	0.469360	0.927960	0.700600
C61	C6	0.434960	0.918470	0.803600
C71	C7	0.386050	0.882020	0.789700
H31	H3	0.372500	0.860000	0.713400
C81	C8	0.363460	0.885320	0.905000
H41	H4	0.330800	0.866100	0.925400
C91	C9	0.397670	0.923270	0.992500
C101	C10	0.386850	0.938370	0.119200
C111	C11	0.336150	0.913010	0.163300
C121	C12	0.319910	0.879960	0.272900
H51	H5	0.341200	0.873700	0.324700
C131	C13	0.272360	0.856270	0.305700
H61	H6	0.261800	0.833600	0.381000
C141	C14	0.256420	0.895190	0.133400
H71	H7	0.234400	0.900800	0.083800
C151	C15	0.303250	0.920680	0.092500
H81	H8	0.312800	0.943100	0.016900
C161	C16	0.455810	0.896200	0.571900
C171	C17	0.442250	0.849050	0.585600
H91	H9	0.441900	0.836500	0.677800
C181	C18	0.429050	0.819560	0.465200
H101	H10	0.420000	0.787300	0.476700
C191	C19	0.428970	0.836820	0.329700
C201	C20	0.442510	0.884040	0.316700
H111	H11	0.442600	0.896500	0.224500
C211	C21	0.455920	0.913480	0.435000
H121	H12	0.465300	0.945800	0.422900
C221	C22	0.416040	0.805540	0.197400
H131	H13	0.403300	0.817400	0.123500
H141	H14	0.392200	0.773200	0.223000
H151	H15	0.444200	0.805900	0.160500
N41	N4	0.199830	0.331190	0.154530
N51	N5	0.108410	0.276580	0.262430
N61	N6	0.907120	0.196540	0.571530
C231	C23	0.247460	0.358380	0.128130
C241	C24	0.259750	0.342060	0.000130
H161	H16	0.290370	0.354830	0.959230
C251	C25	0.219830	0.305410	0.950030
H171	H17	0.216770	0.287430	0.866530
C261	C26	0.182420	0.298350	0.046130
C271	C27	0.136030	0.261290	0.033930
C281	C28	0.101630	0.251800	0.136930
C291	C29	0.052720	0.215350	0.123030
H181	H18	0.039170	0.193330	0.046730
C301	C30	0.030130	0.218650	0.238330
H191	H19	0.997470	0.199430	0.258730
C311	C31	0.064340	0.256600	0.325830
C321	C32	0.053520	0.271700	0.452530
C331	C33	0.002820	0.246340	0.496630
C341	C34	0.986580	0.213290	0.606230
H201	H20	0.007870	0.207030	0.658030
C351	C35	0.939030	0.189600	0.639030
H211	H21	0.928470	0.166930	0.714330
C361	C36	0.923090	0.228520	0.466730
H221	H22	0.901070	0.234130	0.417130
C371	C37	0.969920	0.254010	0.425830
H231	H23	0.979470	0.276430	0.350230
C381	C38	0.122480	0.229530	0.905230
C391	C39	0.108920	0.182380	0.918930
H241	H24	0.108570	0.169830	0.011130
C401	C40	0.095720	0.152890	0.798530
H251	H25	0.086670	0.120630	0.810030
C411	C41	0.095640	0.170150	0.663030
C421	C42	0.109180	0.217370	0.650030
H261	H26	0.109270	0.229830	0.557830
C431	C43	0.122590	0.246810	0.768330
H271	H27	0.131970	0.279130	0.756230
C441	C44	0.082710	0.138870	0.530730
H281	H28	0.069970	0.150730	0.456830
H291	H29	0.058870	0.106530	0.556330
H301	H30	0.110870	0.139230	0.493830
N71	N7	0.866490	0.664530	0.487870
N81	N8	0.775070	0.609920	0.595770
N91	N9	0.573780	0.529880	0.904870
C451	C45	0.914120	0.691720	0.461470
C461	C46	0.926410	0.675400	0.333470
H311	H31	0.957030	0.688170	0.292570
C471	C47	0.886490	0.638750	0.283370
H321	H32	0.883430	0.620770	0.199870
C481	C48	0.849080	0.631690	0.379470
C491	C49	0.802690	0.594630	0.367270
C501	C50	0.768290	0.585140	0.470270
C511	C51	0.719380	0.548690	0.456370
H331	H33	0.705830	0.526670	0.380070
C521	C52	0.696790	0.551990	0.571670
H341	H34	0.664130	0.532770	0.592070
C531	C53	0.731000	0.589940	0.659170
C541	C54	0.720180	0.605040	0.785870
C551	C55	0.669480	0.579680	0.829970
C561	C56	0.653240	0.546630	0.939570
H351	H35	0.674530	0.540370	0.991370
C571	C57	0.605690	0.522940	0.972370
H361	H36	0.595130	0.500270	0.047670
C581	C58	0.589750	0.561860	0.800070
H371	H37	0.567730	0.567470	0.750470
C591	C59	0.636580	0.587350	0.759170
H381	H38	0.646130	0.609770	0.683570
C601	C60	0.789140	0.562870	0.238570
C611	C61	0.775580	0.515720	0.252270
H391	H39	0.775230	0.503170	0.344470
C621	C62	0.762380	0.486230	0.131870
H401	H40	0.753330	0.453970	0.143370
C631	C63	0.762300	0.503490	0.996370
C641	C64	0.775840	0.550710	0.983370
H411	H41	0.775930	0.563170	0.891170
C651	C65	0.789250	0.580150	0.101670
H421	H42	0.798630	0.612470	0.089570
C661	C66	0.749370	0.472210	0.864070
H431	H43	0.736630	0.484070	0.790170
H441	H44	0.725530	0.439870	0.889670
H451	H45	0.777530	0.472570	0.827170
N101	N10	0.002140	0.535300	0.821200
N111	N11	0.056750	0.498490	0.929100
N121	N12	0.136790	0.377240	0.238200
C671	C67	0.974950	0.555740	0.794800
C681	C68	0.991270	0.584350	0.666800
H461	H46	0.978500	0.602200	0.625900
C691	C69	0.027920	0.581080	0.616700
H471	H47	0.045900	0.596000	0.533200
C701	C70	0.034980	0.550730	0.712800
C711	C71	0.072040	0.541400	0.700600
C721	C72	0.081530	0.516490	0.803600
C731	C73	0.117980	0.504030	0.789700
H481	H48	0.140000	0.512500	0.713400
C741	C74	0.114680	0.478140	0.905000
H491	H49	0.133900	0.464700	0.925400
C751	C75	0.076730	0.474400	0.992500
C761	C76	0.061630	0.448480	0.119200
C771	C77	0.086990	0.423140	0.163300
C781	C78	0.120040	0.439950	0.272900
H501	H50	0.126300	0.467500	0.324700
C791	C79	0.143730	0.416090	0.305700
H511	H51	0.166400	0.428200	0.381000
C801	C80	0.104810	0.361230	0.133400
H521	H52	0.099200	0.333600	0.083800
C811	C81	0.079320	0.382570	0.092500
H531	H53	0.056900	0.369700	0.016900
C821	C82	0.103800	0.559610	0.571900
C831	C83	0.150950	0.593200	0.585600
H541	H54	0.163500	0.605400	0.677800
C841	C84	0.180440	0.609490	0.465200
H551	H55	0.212700	0.632700	0.476700
C851	C85	0.163180	0.592150	0.329700
C861	C86	0.115960	0.558470	0.316700
H561	H56	0.103500	0.546100	0.224500
C871	C87	0.086520	0.542440	0.435000
H571	H57	0.054200	0.519500	0.422900
C881	C88	0.194460	0.610500	0.197400
H581	H58	0.182600	0.585900	0.123500
H591	H59	0.226800	0.619000	0.223000
H601	H60	0.194100	0.638300	0.160500
N131	N13	0.668810	0.868630	0.154530
N141	N14	0.723420	0.831820	0.262430
N151	N15	0.803460	0.710570	0.571530
C891	C89	0.641620	0.889070	0.128130
C901	C90	0.657940	0.917680	0.000130
H611	H61	0.645170	0.935530	0.959230
C911	C91	0.694590	0.914410	0.950030
H621	H62	0.712570	0.929330	0.866530
C921	C92	0.701650	0.884060	0.046130
C931	C93	0.738710	0.874730	0.033930
C941	C94	0.748200	0.849820	0.136930
C951	C95	0.784650	0.837360	0.123030
H631	H63	0.806670	0.845830	0.046730
C961	C96	0.781350	0.811470	0.238330
H641	H64	0.800570	0.798030	0.258730
C971	C97	0.743400	0.807730	0.325830
C981	C98	0.728300	0.781810	0.452530
C991	C99	0.753660	0.756470	0.496630
C1001	C100	0.786710	0.773280	0.606230
H651	H65	0.792970	0.800830	0.658030
C1011	C101	0.810400	0.749420	0.639030
H661	H66	0.833070	0.761530	0.714330
C1021	C102	0.771480	0.694560	0.466730
H671	H67	0.765870	0.666930	0.417130
C1031	C103	0.745990	0.715900	0.425830
H681	H68	0.723570	0.703030	0.350230
C1041	C104	0.770470	0.892940	0.905230
C1051	C105	0.817620	0.926530	0.918930
H691	H69	0.830170	0.938730	0.011130
C1061	C106	0.847110	0.942820	0.798530
H701	H70	0.879370	0.966030	0.810030
C1071	C107	0.829850	0.925480	0.663030
C1081	C108	0.782630	0.891800	0.650030
H711	H71	0.770170	0.879430	0.557830
C1091	C109	0.753190	0.875770	0.768330
H721	H72	0.720870	0.852830	0.756230
C1101	C110	0.861130	0.943830	0.530730
H731	H73	0.849270	0.919230	0.456830
H741	H74	0.893470	0.952330	0.556330
H751	H75	0.860770	0.971630	0.493830
N161	N16	0.335470	0.201970	0.487870
N171	N17	0.390080	0.165160	0.595770
N181	N18	0.470120	0.043910	0.904870
C1111	C111	0.308280	0.222410	0.461470
C1121	C112	0.324600	0.251020	0.333470
H761	H76	0.311830	0.268870	0.292570
C1131	C113	0.361250	0.247750	0.283370
H771	H77	0.379230	0.262670	0.199870
C1141	C114	0.368310	0.217400	0.379470
C1151	C115	0.405370	0.208070	0.367270
C1161	C116	0.414860	0.183160	0.470270
C1171	C117	0.451310	0.170700	0.456370
H781	H78	0.473330	0.179170	0.380070
C1181	C118	0.448010	0.144810	0.571670
H791	H79	0.467230	0.131370	0.592070
C1191	C119	0.410060	0.141070	0.659170
C1201	C120	0.394960	0.115150	0.785870
C1211	C121	0.420320	0.089810	0.829970
C1221	C122	0.453370	0.106620	0.939570
H801	H80	0.459630	0.134170	0.991370
C1231	C123	0.477060	0.082760	0.972370
H811	H81	0.499730	0.094870	0.047670
C1241	C124	0.438140	0.027900	0.800070
H821	H82	0.432530	0.000270	0.750470
C1251	C125	0.412650	0.049240	0.759170
H831	H83	0.390230	0.036370	0.683570
C1261	C126	0.437130	0.226280	0.238570
C1271	C127	0.484280	0.259870	0.252270
H841	H84	0.496830	0.272070	0.344470
C1281	C128	0.513770	0.276160	0.131870
H851	H85	0.546030	0.299370	0.143370
C1291	C129	0.496510	0.258820	0.996370
C1301	C130	0.449290	0.225140	0.983370
H861	H86	0.436830	0.212770	0.891170
C1311	C131	0.419850	0.209110	0.101670
H871	H87	0.387530	0.186170	0.089570
C1321	C132	0.527790	0.277170	0.864070
H881	H88	0.515930	0.252570	0.790170
H891	H89	0.560130	0.285670	0.889670
H901	H90	0.527430	0.304970	0.827170
N191	N19	0.464700	0.466840	0.821200
N201	N20	0.501510	0.558260	0.929100
N211	N21	0.622760	0.759550	0.238200
C1331	C133	0.444260	0.419210	0.794800
C1341	C134	0.415650	0.406920	0.666800
H911	H91	0.397800	0.376300	0.625900
C1351	C135	0.418920	0.446840	0.616700
H921	H92	0.404000	0.449900	0.533200
C1361	C136	0.449270	0.484250	0.712800
C1371	C137	0.458600	0.530640	0.700600
C1381	C138	0.483510	0.565040	0.803600
C1391	C139	0.495970	0.613950	0.789700
H931	H93	0.487500	0.627500	0.713400
C1401	C140	0.521860	0.636540	0.905000
H941	H94	0.535300	0.669200	0.925400
C1411	C141	0.525600	0.602330	0.992500
C1421	C142	0.551520	0.613150	0.119200
C1431	C143	0.576860	0.663850	0.163300
C1441	C144	0.560050	0.680090	0.272900
H951	H95	0.532500	0.658800	0.324700
C1451	C145	0.583910	0.727640	0.305700
H961	H96	0.571800	0.738200	0.381000
C1461	C146	0.638770	0.743580	0.133400
H971	H97	0.666400	0.765600	0.083800
C1471	C147	0.617430	0.696750	0.092500
H981	H98	0.630300	0.687200	0.016900
C1481	C148	0.440390	0.544190	0.571900
C1491	C149	0.406800	0.557750	0.585600
H991	H99	0.394600	0.558100	0.677800
C1501	C150	0.390510	0.570950	0.465200
H1001	H100	0.367300	0.580000	0.476700
C1511	C151	0.407850	0.571030	0.329700
C1521	C152	0.441530	0.557490	0.316700
H1011	H101	0.453900	0.557400	0.224500
C1531	C153	0.457560	0.544080	0.435000
H1021	H102	0.480500	0.534700	0.422900
C1541	C154	0.389500	0.583960	0.197400
H1031	H103	0.414100	0.596700	0.123500
H1041	H104	0.381000	0.607800	0.223000
H1051	H105	0.361700	0.555800	0.160500
N221	N22	0.131370	0.800170	0.154530
N231	N23	0.168180	0.891590	0.262430
N241	N24	0.289430	0.092880	0.571530
C1551	C155	0.110930	0.752540	0.128130
C1561	C156	0.082320	0.740250	0.000130
H1061	H106	0.064470	0.709630	0.959230
C1571	C157	0.085590	0.780170	0.950030
H1071	H107	0.070670	0.783230	0.866530
C1581	C158	0.115940	0.817580	0.046130
C1591	C159	0.125270	0.863970	0.033930
C1601	C160	0.150180	0.898370	0.136930
C1611	C161	0.162640	0.947280	0.123030
H1081	H108	0.154170	0.960830	0.046730
C1621	C162	0.188530	0.969870	0.238330
H1091	H109	0.201970	0.002530	0.258730
C1631	C163	0.192270	0.935660	0.325830
C1641	C164	0.218190	0.946480	0.452530
C1651	C165	0.243530	0.997180	0.496630
C1661	C166	0.226720	0.013420	0.606230
H1101	H110	0.199170	0.992130	0.658030
C1671	C167	0.250580	0.060970	0.639030
H1111	H111	0.238470	0.071530	0.714330
C1681	C168	0.305440	0.076910	0.466730
H1121	H112	0.333070	0.098930	0.417130
C1691	C169	0.284100	0.030080	0.425830
H1131	H113	0.296970	0.020530	0.350230
C1701	C170	0.107060	0.877520	0.905230
C1711	C171	0.073470	0.891080	0.918930
H1141	H114	0.061270	0.891430	0.011130
C1721	C172	0.057180	0.904280	0.798530
H1151	H115	0.033970	0.913330	0.810030
C1731	C173	0.074520	0.904360	0.663030
C1741	C174	0.108200	0.890820	0.650030
H1161	H116	0.120570	0.890730	0.557830
C1751	C175	0.124230	0.877410	0.768330
H1171	H117	0.147170	0.868030	0.756230
C1761	C176	0.056170	0.917290	0.530730
H1181	H118	0.080770	0.930030	0.456830
H1191	H119	0.047670	0.941130	0.556330
H1201	H120	0.028370	0.889130	0.493830
N251	N25	0.798030	0.133510	0.487870
N261	N26	0.834840	0.224930	0.595770
N271	N27	0.956090	0.426220	0.904870
C1771	C177	0.777590	0.085880	0.461470
C1781	C178	0.748980	0.073590	0.333470
H1211	H121	0.731130	0.042970	0.292570
C1791	C179	0.752250	0.113510	0.283370
H1221	H122	0.737330	0.116570	0.199870
C1801	C180	0.782600	0.150920	0.379470
C1811	C181	0.791930	0.197310	0.367270
C1821	C182	0.816840	0.231710	0.470270
C1831	C183	0.829300	0.280620	0.456370
H1231	H123	0.820830	0.294170	0.380070
C1841	C184	0.855190	0.303210	0.571670
H1241	H124	0.868630	0.335870	0.592070
C1851	C185	0.858930	0.269000	0.659170
C1861	C186	0.884850	0.279820	0.785870
C1871	C187	0.910190	0.330520	0.829970
C1881	C188	0.893380	0.346760	0.939570
H1251	H125	0.865830	0.325470	0.991370
C1891	C189	0.917240	0.394310	0.972370
H1261	H126	0.905130	0.404870	0.047670
C1901	C190	0.972100	0.410250	0.800070
H1271	H127	0.999730	0.432270	0.750470
C1911	C191	0.950760	0.363420	0.759170
H1281	H128	0.963630	0.353870	0.683570
C1921	C192	0.773720	0.210860	0.238570
C1931	C193	0.740130	0.224420	0.252270
H1291	H129	0.727930	0.224770	0.344470
C1941	C194	0.723840	0.237620	0.131870
H1301	H130	0.700630	0.246670	0.143370
C1951	C195	0.741180	0.237700	0.996370
C1961	C196	0.774860	0.224160	0.983370
H1311	H131	0.787230	0.224070	0.891170
C1971	C197	0.790890	0.210750	0.101670
H1321	H132	0.813830	0.201370	0.089570
C1981	C198	0.722830	0.250630	0.864070
H1331	H133	0.747430	0.263370	0.790170
H1341	H134	0.714330	0.274470	0.889670
H1351	H135	0.695030	0.222470	0.827170
N281	N28	0.466840	0.002140	0.178800
N291	N29	0.558260	0.056750	0.070900
N301	N30	0.759550	0.136790	0.761800
C1991	C199	0.419210	0.974950	0.205200
C2001	C200	0.406920	0.991270	0.333200
H1361	H136	0.376300	0.978500	0.374100
C2011	C201	0.446840	0.027920	0.383300
H1371	H137	0.449900	0.045900	0.466800
C2021	C202	0.484250	0.034980	0.287200
C2031	C203	0.530640	0.072040	0.299400
C2041	C204	0.565040	0.081530	0.196400
C2051	C205	0.613950	0.117980	0.210300
H1381	H138	0.627500	0.140000	0.286600
C2061	C206	0.636540	0.114680	0.095000
H1391	H139	0.669200	0.133900	0.074600
C2071	C207	0.602330	0.076730	0.007500
C2081	C208	0.613150	0.061630	0.880800
C2091	C209	0.663850	0.086990	0.836700
C2101	C210	0.680090	0.120040	0.727100
H1401	H140	0.658800	0.126300	0.675300
C2111	C211	0.727640	0.143730	0.694300
H1411	H141	0.738200	0.166400	0.619000
C2121	C212	0.743580	0.104810	0.866600
H1421	H142	0.765600	0.099200	0.916200
C2131	C213	0.696750	0.079320	0.907500
H1431	H143	0.687200	0.056900	0.983100
C2141	C214	0.544190	0.103800	0.428100
C2151	C215	0.557750	0.150950	0.414400
H1441	H144	0.558100	0.163500	0.322200
C2161	C216	0.570950	0.180440	0.534800
H1451	H145	0.580000	0.212700	0.523300
C2171	C217	0.571030	0.163180	0.670300
C2181	C218	0.557490	0.115960	0.683300
H1461	H146	0.557400	0.103500	0.775500
C2191	C219	0.544080	0.086520	0.565000
H1471	H147	0.534700	0.054200	0.577100
C2201	C220	0.583960	0.194460	0.802600
H1481	H148	0.596700	0.182600	0.876500
H1491	H149	0.607800	0.226800	0.777000
H1501	H150	0.555800	0.194100	0.839500
N311	N31	0.133510	0.335470	0.512130
N321	N32	0.224930	0.390080	0.404230
N331	N33	0.426220	0.470120	0.095130
C2211	C221	0.085880	0.308280	0.538530
C2221	C222	0.073590	0.324600	0.666530
H1511	H151	0.042970	0.311830	0.707430
C2231	C223	0.113510	0.361250	0.716630
H1521	H152	0.116570	0.379230	0.800130
C2241	C224	0.150920	0.368310	0.620530
C2251	C225	0.197310	0.405370	0.632730
C2261	C226	0.231710	0.414860	0.529730
C2271	C227	0.280620	0.451310	0.543630
H1531	H153	0.294170	0.473330	0.619930
C2281	C228	0.303210	0.448010	0.428330
H1541	H154	0.335870	0.467230	0.407930
C2291	C229	0.269000	0.410060	0.340830
C2301	C230	0.279820	0.394960	0.214130
C2311	C231	0.330520	0.420320	0.170030
C2321	C232	0.346760	0.453370	0.060430
H1551	H155	0.325470	0.459630	0.008630
C2331	C233	0.394310	0.477060	0.027630
H1561	H156	0.404870	0.499730	0.952330
C2341	C234	0.410250	0.438140	0.199930
H1571	H157	0.432270	0.432530	0.249530
C2351	C235	0.363420	0.412650	0.240830
H1581	H158	0.353870	0.390230	0.316430
C2361	C236	0.210860	0.437130	0.761430
C2371	C237	0.224420	0.484280	0.747730
H1591	H159	0.224770	0.496830	0.655530
C2381	C238	0.237620	0.513770	0.868130
H1601	H160	0.246670	0.546030	0.856630
C2391	C239	0.237700	0.496510	0.003630
C2401	C240	0.224160	0.449290	0.016630
H1611	H161	0.224070	0.436830	0.108830
C2411	C241	0.210750	0.419850	0.898330
H1621	H162	0.201370	0.387530	0.910430
C2421	C242	0.250630	0.527790	0.135930
H1631	H163	0.263370	0.515930	0.209830
H1641	H164	0.274470	0.560130	0.110330
H1651	H165	0.222470	0.527430	0.172830
N341	N34	0.800170	0.668810	0.845470
N351	N35	0.891590	0.723420	0.737570
N361	N36	0.092880	0.803460	0.428470
C2431	C243	0.752540	0.641620	0.871870
C2441	C244	0.740250	0.657940	0.999870
H1661	H166	0.709630	0.645170	0.040770
C2451	C245	0.780170	0.694590	0.049970
H1671	H167	0.783230	0.712570	0.133470
C2461	C246	0.817580	0.701650	0.953870
C2471	C247	0.863970	0.738710	0.966070
C2481	C248	0.898370	0.748200	0.863070
C2491	C249	0.947280	0.784650	0.876970
H1681	H168	0.960830	0.806670	0.953270
C2501	C250	0.969870	0.781350	0.761670
H1691	H169	0.002530	0.800570	0.741270
C2511	C251	0.935660	0.743400	0.674170
C2521	C252	0.946480	0.728300	0.547470
C2531	C253	0.997180	0.753660	0.503370
C2541	C254	0.013420	0.786710	0.393770
H1701	H170	0.992130	0.792970	0.341970
C2551	C255	0.060970	0.810400	0.360970
H1711	H171	0.071530	0.833070	0.285670
C2561	C256	0.076910	0.771480	0.533270
H1721	H172	0.098930	0.765870	0.582870
C2571	C257	0.030080	0.745990	0.574170
H1731	H173	0.020530	0.723570	0.649770
C2581	C258	0.877520	0.770470	0.094770
C2591	C259	0.891080	0.817620	0.081070
H1741	H174	0.891430	0.830170	0.988870
C2601	C260	0.904280	0.847110	0.201470
H1751	H175	0.913330	0.879370	0.189970
C2611	C261	0.904360	0.829850	0.336970
C2621	C262	0.890820	0.782630	0.349970
H1761	H176	0.890730	0.770170	0.442170
C2631	C263	0.877410	0.753190	0.231670
H1771	H177	0.868030	0.720870	0.243770
C2641	C264	0.917290	0.861130	0.469270
H1781	H178	0.930030	0.849270	0.543170
H1791	H179	0.941130	0.893470	0.443670
H1801	H180	0.889130	0.860770	0.506170
N371	N37	0.997860	0.464700	0.178800
N381	N38	0.943250	0.501510	0.070900
N391	N39	0.863210	0.622760	0.761800
C2651	C265	0.025050	0.444260	0.205200
C2661	C266	0.008730	0.415650	0.333200
H1811	H181	0.021500	0.397800	0.374100
C2671	C267	0.972080	0.418920	0.383300
H1821	H182	0.954100	0.404000	0.466800
C2681	C268	0.965020	0.449270	0.287200
C2691	C269	0.927960	0.458600	0.299400
C2701	C270	0.918470	0.483510	0.196400
C2711	C271	0.882020	0.495970	0.210300
H1831	H183	0.860000	0.487500	0.286600
C2721	C272	0.885320	0.521860	0.095000
H1841	H184	0.866100	0.535300	0.074600
C2731	C273	0.923270	0.525600	0.007500
C2741	C274	0.938370	0.551520	0.880800
C2751	C275	0.913010	0.576860	0.836700
C2761	C276	0.879960	0.560050	0.727100
H1851	H185	0.873700	0.532500	0.675300
C2771	C277	0.856270	0.583910	0.694300
H1861	H186	0.833600	0.571800	0.619000
C2781	C278	0.895190	0.638770	0.866600
H1871	H187	0.900800	0.666400	0.916200
C2791	C279	0.920680	0.617430	0.907500
H1881	H188	0.943100	0.630300	0.983100
C2801	C280	0.896200	0.440390	0.428100
C2811	C281	0.849050	0.406800	0.414400
H1891	H189	0.836500	0.394600	0.322200
C2821	C282	0.819560	0.390510	0.534800
H1901	H190	0.787300	0.367300	0.523300
C2831	C283	0.836820	0.407850	0.670300
C2841	C284	0.884040	0.441530	0.683300
H1911	H191	0.896500	0.453900	0.775500
C2851	C285	0.913480	0.457560	0.565000
H1921	H192	0.945800	0.480500	0.577100
C2861	C286	0.805540	0.389500	0.802600
H1931	H193	0.817400	0.414100	0.876500
H1941	H194	0.773200	0.381000	0.777000
H1951	H195	0.805900	0.361700	0.839500
N401	N40	0.664530	0.798030	0.512130
N411	N41	0.609920	0.834840	0.404230
N421	N42	0.529880	0.956090	0.095130
C2871	C287	0.691720	0.777590	0.538530
C2881	C288	0.675400	0.748980	0.666530
H1961	H196	0.688170	0.731130	0.707430
C2891	C289	0.638750	0.752250	0.716630
H1971	H197	0.620770	0.737330	0.800130
C2901	C290	0.631690	0.782600	0.620530
C2911	C291	0.594630	0.791930	0.632730
C2921	C292	0.585140	0.816840	0.529730
C2931	C293	0.548690	0.829300	0.543630
H1981	H198	0.526670	0.820830	0.619930
C2941	C294	0.551990	0.855190	0.428330
H1991	H199	0.532770	0.868630	0.407930
C2951	C295	0.589940	0.858930	0.340830
C2961	C296	0.605040	0.884850	0.214130
C2971	C297	0.579680	0.910190	0.170030
C2981	C298	0.546630	0.893380	0.060430
H2001	H200	0.540370	0.865830	0.008630
C2991	C299	0.522940	0.917240	0.027630
H2011	H201	0.500270	0.905130	0.952330
C3001	C300	0.561860	0.972100	0.199930
H2021	H202	0.567470	0.999730	0.249530
C3011	C301	0.587350	0.950760	0.240830
H2031	H203	0.609770	0.963630	0.316430
C3021	C302	0.562870	0.773720	0.761430
C3031	C303	0.515720	0.740130	0.747730
H2041	H204	0.503170	0.727930	0.655530
C3041	C304	0.486230	0.723840	0.868130
H2051	H205	0.453970	0.700630	0.856630
C3051	C305	0.503490	0.741180	0.003630
C3061	C306	0.550710	0.774860	0.016630
H2061	H206	0.563170	0.787230	0.108830
C3071	C307	0.580150	0.790890	0.898330
H2071	H207	0.612470	0.813830	0.910430
C3081	C308	0.472210	0.722830	0.135930
H2081	H208	0.484070	0.747430	0.209830
H2091	H209	0.439870	0.714330	0.110330
H2101	H210	0.472570	0.695030	0.172830
N431	N43	0.331190	0.131370	0.845470
N441	N44	0.276580	0.168180	0.737570
N451	N45	0.196540	0.289430	0.428470
C3091	C309	0.358380	0.110930	0.871870
C3101	C310	0.342060	0.082320	0.999870
H2111	H211	0.354830	0.064470	0.040770
C3111	C311	0.305410	0.085590	0.049970
H2121	H212	0.287430	0.070670	0.133470
C3121	C312	0.298350	0.115940	0.953870
C3131	C313	0.261290	0.125270	0.966070
C3141	C314	0.251800	0.150180	0.863070
C3151	C315	0.215350	0.162640	0.876970
H2131	H213	0.193330	0.154170	0.953270
C3161	C316	0.218650	0.188530	0.761670
H2141	H214	0.199430	0.201970	0.741270
C3171	C317	0.256600	0.192270	0.674170
C3181	C318	0.271700	0.218190	0.547470
C3191	C319	0.246340	0.243530	0.503370
C3201	C320	0.213290	0.226720	0.393770
H2151	H215	0.207030	0.199170	0.341970
C3211	C321	0.189600	0.250580	0.360970
H2161	H216	0.166930	0.238470	0.285670
C3221	C322	0.228520	0.305440	0.533270
H2171	H217	0.234130	0.333070	0.582870
C3231	C323	0.254010	0.284100	0.574170
H2181	H218	0.276430	0.296970	0.649770
C3241	C324	0.229530	0.107060	0.094770
C3251	C325	0.182380	0.073470	0.081070
H2191	H219	0.169830	0.061270	0.988870
C3261	C326	0.152890	0.057180	0.201470
H2201	H220	0.120630	0.033970	0.189970
C3271	C327	0.170150	0.074520	0.336970
C3281	C328	0.217370	0.108200	0.349970
H2211	H221	0.229830	0.120570	0.442170
C3291	C329	0.246810	0.124230	0.231670
H2221	H222	0.279130	0.147170	0.243770
C3301	C330	0.138870	0.056170	0.469270
H2231	H223	0.150730	0.080770	0.543170
H2241	H224	0.106530	0.047670	0.443670
H2251	H225	0.139230	0.028370	0.506170
N461	N46	0.535300	0.533160	0.178800
N471	N47	0.498490	0.441740	0.070900
N481	N48	0.377240	0.240450	0.761800
C3311	C331	0.555740	0.580790	0.205200
C3321	C332	0.584350	0.593080	0.333200
H2261	H226	0.602200	0.623700	0.374100
C3331	C333	0.581080	0.553160	0.383300
H2271	H227	0.596000	0.550100	0.466800
C3341	C334	0.550730	0.515750	0.287200
C3351	C335	0.541400	0.469360	0.299400
C3361	C336	0.516490	0.434960	0.196400
C3371	C337	0.504030	0.386050	0.210300
H2281	H228	0.512500	0.372500	0.286600
C3381	C338	0.478140	0.363460	0.095000
H2291	H229	0.464700	0.330800	0.074600
C3391	C339	0.474400	0.397670	0.007500
C3401	C340	0.448480	0.386850	0.880800
C3411	C341	0.423140	0.336150	0.836700
C3421	C342	0.439950	0.319910	0.727100
H2301	H230	0.467500	0.341200	0.675300
C3431	C343	0.416090	0.272360	0.694300
H2311	H231	0.428200	0.261800	0.619000
C3441	C344	0.361230	0.256420	0.866600
H2321	H232	0.333600	0.234400	0.916200
C3451	C345	0.382570	0.303250	0.907500
H2331	H233	0.369700	0.312800	0.983100
C3461	C346	0.559610	0.455810	0.428100
C3471	C347	0.593200	0.442250	0.414400
H2341	H234	0.605400	0.441900	0.322200
C3481	C348	0.609490	0.429050	0.534800
H2351	H235	0.632700	0.420000	0.523300
C3491	C349	0.592150	0.428970	0.670300
C3501	C350	0.558470	0.442510	0.683300
H2361	H236	0.546100	0.442600	0.775500
C3511	C351	0.542440	0.455920	0.565000
H2371	H237	0.519500	0.465300	0.577100
C3521	C352	0.610500	0.416040	0.802600
H2381	H238	0.585900	0.403300	0.876500
H2391	H239	0.619000	0.392200	0.777000
H2401	H240	0.638300	0.444200	0.839500
N491	N49	0.201970	0.866490	0.512130
N501	N50	0.165160	0.775070	0.404230
N511	N51	0.043910	0.573780	0.095130
C3531	C353	0.222410	0.914120	0.538530
C3541	C354	0.251020	0.926410	0.666530
H2411	H241	0.268870	0.957030	0.707430
C3551	C355	0.247750	0.886490	0.716630
H2421	H242	0.262670	0.883430	0.800130
C3561	C356	0.217400	0.849080	0.620530
C3571	C357	0.208070	0.802690	0.632730
C3581	C358	0.183160	0.768290	0.529730
C3591	C359	0.170700	0.719380	0.543630
H2431	H243	0.179170	0.705830	0.619930
C3601	C360	0.144810	0.696790	0.428330
H2441	H244	0.131370	0.664130	0.407930
C3611	C361	0.141070	0.731000	0.340830
C3621	C362	0.115150	0.720180	0.214130
C3631	C363	0.089810	0.669480	0.170030
C3641	C364	0.106620	0.653240	0.060430
H2451	H245	0.134170	0.674530	0.008630
C3651	C365	0.082760	0.605690	0.027630
H2461	H246	0.094870	0.595130	0.952330
C3661	C366	0.027900	0.589750	0.199930
H2471	H247	0.000270	0.567730	0.249530
C3671	C367	0.049240	0.636580	0.240830
H2481	H248	0.036370	0.646130	0.316430
C3681	C368	0.226280	0.789140	0.761430
C3691	C369	0.259870	0.775580	0.747730
H2491	H249	0.272070	0.775230	0.655530
C3701	C370	0.276160	0.762380	0.868130
H2501	H250	0.299370	0.753330	0.856630
C3711	C371	0.258820	0.762300	0.003630
C3721	C372	0.225140	0.775840	0.016630
H2511	H251	0.212770	0.775930	0.108830
C3731	C373	0.209110	0.789250	0.898330
H2521	H252	0.186170	0.798630	0.910430
C3741	C374	0.277170	0.749370	0.135930
H2531	H253	0.252570	0.736630	0.209830
H2541	H254	0.285670	0.725530	0.110330
H2551	H255	0.304970	0.777530	0.172830
N521	N52	0.868630	0.199830	0.845470
N531	N53	0.831820	0.108410	0.737570
N541	N54	0.710570	0.907120	0.428470
C3751	C375	0.889070	0.247460	0.871870
C3761	C376	0.917680	0.259750	0.999870
H2561	H256	0.935530	0.290370	0.040770
C3771	C377	0.914410	0.219830	0.049970
H2571	H257	0.929330	0.216770	0.133470
C3781	C378	0.884060	0.182420	0.953870
C3791	C379	0.874730	0.136030	0.966070
C3801	C380	0.849820	0.101630	0.863070
C3811	C381	0.837360	0.052720	0.876970
H2581	H258	0.845830	0.039170	0.953270
C3821	C382	0.811470	0.030130	0.761670
H2591	H259	0.798030	0.997470	0.741270
C3831	C383	0.807730	0.064340	0.674170
C3841	C384	0.781810	0.053520	0.547470
C3851	C385	0.756470	0.002820	0.503370
C3861	C386	0.773280	0.986580	0.393770
H2601	H260	0.800830	0.007870	0.341970
C3871	C387	0.749420	0.939030	0.360970
H2611	H261	0.761530	0.928470	0.285670
C3881	C388	0.694560	0.923090	0.533270
H2621	H262	0.666930	0.901070	0.582870
C3891	C389	0.715900	0.969920	0.574170
H2631	H263	0.703030	0.979470	0.649770
C3901	C390	0.892940	0.122480	0.094770
C3911	C391	0.926530	0.108920	0.081070
H2641	H264	0.938730	0.108570	0.988870
C3921	C392	0.942820	0.095720	0.201470
H2651	H265	0.966030	0.086670	0.189970
C3931	C393	0.925480	0.095640	0.336970
C3941	C394	0.891800	0.109180	0.349970
H2661	H266	0.879430	0.109270	0.442170
C3951	C395	0.875770	0.122590	0.231670
H2671	H267	0.852830	0.131970	0.243770
C3961	C396	0.943830	0.082710	0.469270
H2681	H268	0.919230	0.069970	0.543170
H2691	H269	0.952330	0.058870	0.443670
H2701	H270	0.971630	0.110870	0.506170
Co11	Co1	0.500000	0.000000	0.000000
Co21	Co2	0.166670	0.333330	0.333330
Co31	Co3	0.833330	0.666670	0.666670
Co41	Co4	0.000000	0.500000	0.000000
Co51	Co5	0.666670	0.833330	0.333330
Co61	Co6	0.333330	0.166670	0.666670
Co71	Co7	0.500000	0.500000	0.000000
Co81	Co8	0.166670	0.833330	0.333330
Co91	Co9	0.833330	0.166670	0.666670
