data_KUFVAK_freeONLY_PM
_symmetry_space_group_name_H-M	'P1'
_cell_length_a	14.460000
_cell_length_b	13.063000
_cell_length_c	22.054000
_cell_angle_alpha	90.000000
_cell_angle_beta	125.160000
_cell_angle_gamma	90.000000
_symmetry_Int_Tables_number 1

loop_
_symmetry_equiv_pos_as_xyz
'x,y,z'

loop_
_atom_site_label
_atom_site_type_symbol
_atom_site_fract_x
_atom_site_fract_y
_atom_site_fract_z
Mn11	Mn1	0.227330	0.557720	0.727070
Mn21	Mn2	0.295070	0.729150	0.868790
O11	O1	0.236800	0.589100	0.885450
O21	O2	0.444600	0.704400	0.983500
H11	H1	0.424700	0.694600	0.014300
H21	H2	0.490600	0.757900	0.999900
O31	O3	0.155200	0.502100	0.779300
O41	O4	0.853300	0.259400	0.741440
O51	O5	0.902900	0.160000	0.837600
O61	O6	0.203000	0.056900	0.149760
O71	O7	0.356900	0.081800	0.261080
O81	O8	0.644100	0.343500	0.281800
O91	O9	0.628700	0.362100	0.177280
O101	O10	0.210500	0.818700	0.906300
O111	O11	0.373500	0.863400	0.861000
N11	N1	0.135600	0.859000	0.968100
N21	N2	0.485100	0.989900	0.868600
C11	C1	0.183400	0.514100	0.844300
C21	C2	0.151300	0.429000	0.874800
C31	C3	0.224100	0.402400	0.949000
H31	H3	0.288300	0.441800	0.980300
C41	C4	0.202700	0.317500	0.977900
C51	C5	0.101700	0.264500	0.929900
H41	H4	0.084800	0.208200	0.947700
C61	C6	0.025600	0.293700	0.856000
C71	C7	0.918200	0.233400	0.807400
C81	C8	0.051900	0.373900	0.827900
H51	H5	0.003600	0.391100	0.778000
C91	C9	0.284300	0.283800	0.055400
C101	C10	0.396200	0.318400	0.097200
H61	H6	0.420300	0.361200	0.075200
C111	C11	0.472200	0.290100	0.170800
C121	C12	0.588400	0.332500	0.213200
C131	C13	0.438500	0.224800	0.204200
H71	H7	0.488400	0.207900	0.254100
C141	C14	0.329200	0.184300	0.162300
C151	C15	0.295100	0.103800	0.193900
C161	C16	0.253800	0.215600	0.089600
H81	H8	0.180300	0.190200	0.062600
C171	C17	0.442500	0.916800	0.883400
H91	H9	0.490800	0.904600	0.934100
C181	C18	0.583600	0.045000	0.918200
H101	H10	0.641100	0.026600	0.911200
H111	H11	0.609200	0.029200	0.968100
H121	H12	0.568300	0.116900	0.909400
C191	C19	0.428600	0.023300	0.794800
H131	H13	0.467800	0.998700	0.774400
H141	H14	0.426700	0.096700	0.793400
H151	H15	0.352700	0.997200	0.766200
C201	C20	0.194400	0.801100	0.951500
H161	H16	0.225500	0.741000	0.978500
C211	C21	0.132800	0.834700	0.031400
H171	H17	0.064100	0.798900	0.014700
H181	H18	0.136100	0.896900	0.055800
H191	H19	0.196500	0.792400	0.065500
C221	C22	0.073100	0.945900	0.923100
H201	H20	0.095000	0.005600	0.953900
H211	H21	0.993600	0.933900	0.898500
H221	H22	0.088900	0.956400	0.886800
Mn31	Mn3	0.772670	0.057720	0.772930
Mn41	Mn4	0.704930	0.229150	0.631210
O121	O12	0.763200	0.089100	0.614550
O131	O13	0.555400	0.204400	0.516500
H231	H23	0.575300	0.194600	0.485700
H241	H24	0.509400	0.257900	0.500100
O141	O14	0.844800	0.002100	0.720700
O151	O15	0.146700	0.759400	0.758560
O161	O16	0.097100	0.660000	0.662400
O171	O17	0.797000	0.556900	0.350240
O181	O18	0.643100	0.581800	0.238920
O191	O19	0.355900	0.843500	0.218200
O201	O20	0.371300	0.862100	0.322720
O211	O21	0.789500	0.318700	0.593700
O221	O22	0.626500	0.363400	0.639000
N31	N3	0.864400	0.359000	0.531900
N41	N4	0.514900	0.489900	0.631400
C231	C23	0.816600	0.014100	0.655700
C241	C24	0.848700	0.929000	0.625200
C251	C25	0.775900	0.902400	0.551000
H251	H25	0.711700	0.941800	0.519700
C261	C26	0.797300	0.817500	0.522100
C271	C27	0.898300	0.764500	0.570100
H261	H26	0.915200	0.708200	0.552300
C281	C28	0.974400	0.793700	0.644000
C291	C29	0.081800	0.733400	0.692600
C301	C30	0.948100	0.873900	0.672100
H271	H27	0.996400	0.891100	0.722000
C311	C31	0.715700	0.783800	0.444600
C321	C32	0.603800	0.818400	0.402800
H281	H28	0.579700	0.861200	0.424800
C331	C33	0.527800	0.790100	0.329200
C341	C34	0.411600	0.832500	0.286800
C351	C35	0.561500	0.724800	0.295800
H291	H29	0.511600	0.707900	0.245900
C361	C36	0.670800	0.684300	0.337700
C371	C37	0.704900	0.603800	0.306100
C381	C38	0.746200	0.715600	0.410400
H301	H30	0.819700	0.690200	0.437400
C391	C39	0.557500	0.416800	0.616600
H311	H31	0.509200	0.404600	0.565900
C401	C40	0.416400	0.545000	0.581800
H321	H32	0.358900	0.526600	0.588800
H331	H33	0.390800	0.529200	0.531900
H341	H34	0.431700	0.616900	0.590600
C411	C41	0.571400	0.523300	0.705200
H351	H35	0.532200	0.498700	0.725600
H361	H36	0.573300	0.596700	0.706600
H371	H37	0.647300	0.497200	0.733800
C421	C42	0.805600	0.301100	0.548500
H381	H38	0.774500	0.241000	0.521500
C431	C43	0.867200	0.334700	0.468600
H391	H39	0.935900	0.298900	0.485300
H401	H40	0.863900	0.396900	0.444200
H411	H41	0.803500	0.292400	0.434500
C441	C44	0.926900	0.445900	0.576900
H421	H42	0.905000	0.505600	0.546100
H431	H43	0.006400	0.433900	0.601500
H441	H44	0.911100	0.456400	0.613200
Mn51	Mn5	0.772670	0.442280	0.272930
Mn61	Mn6	0.704930	0.270850	0.131210
O231	O23	0.763200	0.410900	0.114550
O241	O24	0.555400	0.295600	0.016500
H451	H45	0.575300	0.305400	0.985700
H461	H46	0.509400	0.242100	0.000100
O251	O25	0.844800	0.497900	0.220700
O261	O26	0.146700	0.740600	0.258560
O271	O27	0.097100	0.840000	0.162400
O281	O28	0.797000	0.943100	0.850240
O291	O29	0.643100	0.918200	0.738920
O301	O30	0.355900	0.656500	0.718200
O311	O31	0.371300	0.637900	0.822720
O321	O32	0.789500	0.181300	0.093700
O331	O33	0.626500	0.136600	0.139000
N51	N5	0.864400	0.141000	0.031900
N61	N6	0.514900	0.010100	0.131400
C451	C45	0.816600	0.485900	0.155700
C461	C46	0.848700	0.571000	0.125200
C471	C47	0.775900	0.597600	0.051000
H471	H47	0.711700	0.558200	0.019700
C481	C48	0.797300	0.682500	0.022100
C491	C49	0.898300	0.735500	0.070100
H481	H48	0.915200	0.791800	0.052300
C501	C50	0.974400	0.706300	0.144000
C511	C51	0.081800	0.766600	0.192600
C521	C52	0.948100	0.626100	0.172100
H491	H49	0.996400	0.608900	0.222000
C531	C53	0.715700	0.716200	0.944600
C541	C54	0.603800	0.681600	0.902800
H501	H50	0.579700	0.638800	0.924800
C551	C55	0.527800	0.709900	0.829200
C561	C56	0.411600	0.667500	0.786800
C571	C57	0.561500	0.775200	0.795800
H511	H51	0.511600	0.792100	0.745900
C581	C58	0.670800	0.815700	0.837700
C591	C59	0.704900	0.896200	0.806100
C601	C60	0.746200	0.784400	0.910400
H521	H52	0.819700	0.809800	0.937400
C611	C61	0.557500	0.083200	0.116600
H531	H53	0.509200	0.095400	0.065900
C621	C62	0.416400	0.955000	0.081800
H541	H54	0.358900	0.973400	0.088800
H551	H55	0.390800	0.970800	0.031900
H561	H56	0.431700	0.883100	0.090600
C631	C63	0.571400	0.976700	0.205200
H571	H57	0.532200	0.001300	0.225600
H581	H58	0.573300	0.903300	0.206600
H591	H59	0.647300	0.002800	0.233800
C641	C64	0.805600	0.198900	0.048500
H601	H60	0.774500	0.259000	0.021500
C651	C65	0.867200	0.165300	0.968600
H611	H61	0.935900	0.201100	0.985300
H621	H62	0.863900	0.103100	0.944200
H631	H63	0.803500	0.207600	0.934500
C661	C66	0.926900	0.054100	0.076900
H641	H64	0.905000	0.994400	0.046100
H651	H65	0.006400	0.066100	0.101500
H661	H66	0.911100	0.043600	0.113200
Mn71	Mn7	0.227330	0.942280	0.227070
Mn81	Mn8	0.295070	0.770850	0.368790
O341	O34	0.236800	0.910900	0.385450
O351	O35	0.444600	0.795600	0.483500
H671	H67	0.424700	0.805400	0.514300
H681	H68	0.490600	0.742100	0.499900
O361	O36	0.155200	0.997900	0.279300
O371	O37	0.853300	0.240600	0.241440
O381	O38	0.902900	0.340000	0.337600
O391	O39	0.203000	0.443100	0.649760
O401	O40	0.356900	0.418200	0.761080
O411	O41	0.644100	0.156500	0.781800
O421	O42	0.628700	0.137900	0.677280
O431	O43	0.210500	0.681300	0.406300
O441	O44	0.373500	0.636600	0.361000
N71	N7	0.135600	0.641000	0.468100
N81	N8	0.485100	0.510100	0.368600
C671	C67	0.183400	0.985900	0.344300
C681	C68	0.151300	0.071000	0.374800
C691	C69	0.224100	0.097600	0.449000
H691	H69	0.288300	0.058200	0.480300
C701	C70	0.202700	0.182500	0.477900
C711	C71	0.101700	0.235500	0.429900
H701	H70	0.084800	0.291800	0.447700
C721	C72	0.025600	0.206300	0.356000
C731	C73	0.918200	0.266600	0.307400
C741	C74	0.051900	0.126100	0.327900
H711	H71	0.003600	0.108900	0.278000
C751	C75	0.284300	0.216200	0.555400
C761	C76	0.396200	0.181600	0.597200
H721	H72	0.420300	0.138800	0.575200
C771	C77	0.472200	0.209900	0.670800
C781	C78	0.588400	0.167500	0.713200
C791	C79	0.438500	0.275200	0.704200
H731	H73	0.488400	0.292100	0.754100
C801	C80	0.329200	0.315700	0.662300
C811	C81	0.295100	0.396200	0.693900
C821	C82	0.253800	0.284400	0.589600
H741	H74	0.180300	0.309800	0.562600
C831	C83	0.442500	0.583200	0.383400
H751	H75	0.490800	0.595400	0.434100
C841	C84	0.583600	0.455000	0.418200
H761	H76	0.641100	0.473400	0.411200
H771	H77	0.609200	0.470800	0.468100
H781	H78	0.568300	0.383100	0.409400
C851	C85	0.428600	0.476700	0.294800
H791	H79	0.467800	0.501300	0.274400
H801	H80	0.426700	0.403300	0.293400
H811	H81	0.352700	0.502800	0.266200
C861	C86	0.194400	0.698900	0.451500
H821	H82	0.225500	0.759000	0.478500
C871	C87	0.132800	0.665300	0.531400
H831	H83	0.064100	0.701100	0.514700
H841	H84	0.136100	0.603100	0.555800
H851	H85	0.196500	0.707600	0.565500
C881	C88	0.073100	0.554100	0.423100
H861	H86	0.095000	0.494400	0.453900
H871	H87	0.993600	0.566100	0.398500
H881	H88	0.088900	0.543600	0.386800
