data_KUJNOT_freeONLY_PM
_symmetry_space_group_name_H-M	'P1'
_cell_length_a	28.472700
_cell_length_b	28.472700
_cell_length_c	28.472700
_cell_angle_alpha	96.529400
_cell_angle_beta	116.305000
_cell_angle_gamma	116.305000
_symmetry_Int_Tables_number 1

loop_
_symmetry_equiv_pos_as_xyz
'x,y,z'

loop_
_atom_site_label
_atom_site_type_symbol
_atom_site_fract_x
_atom_site_fract_y
_atom_site_fract_z
Zn11	Zn1	0.281330	0.070160	0.461560
Zn21	Zn2	0.366180	0.109260	0.394960
Zn31	Zn3	0.390470	0.142270	0.612380
Zn41	Zn4	0.203030	0.919330	0.426640
Zn51	Zn5	0.168570	0.110050	0.416370
Zn61	Zn6	0.781330	0.319770	0.211160
Zn71	Zn7	0.866180	0.471220	0.256920
Zn81	Zn8	0.890470	0.278080	0.248200
Zn91	Zn9	0.703030	0.276390	0.283700
Zn101	Zn10	0.668560	0.252190	0.058520
H11	H1	0.587000	0.273500	0.347700
H21	H2	0.514200	0.242500	0.370900
H31	H3	0.475400	0.086800	0.321200
H41	H4	0.548100	0.117800	0.297900
H51	H5	0.434700	0.205700	0.799000
H61	H6	0.494700	0.229500	0.894600
H71	H7	0.616200	0.209400	0.877400
H81	H8	0.556100	0.185500	0.781600
H91	H9	0.019700	0.001400	0.349100
H101	H10	0.931600	0.911000	0.310400
H111	H11	0.942000	0.835600	0.316000
H121	H12	0.040400	0.850600	0.360200
H131	H13	0.523800	0.207700	0.483900
H141	H14	0.621900	0.270900	0.567600
H151	H15	0.632400	0.282100	0.654500
H161	H16	0.544800	0.230000	0.657600
H171	H17	0.407300	0.057900	0.685600
H181	H18	0.393000	0.976800	0.702600
H191	H19	0.317900	0.888700	0.629000
H201	H20	0.257100	0.881800	0.538300
H211	H21	0.330900	0.180600	0.310700
H221	H22	0.279300	0.218100	0.258800
H231	H23	0.198200	0.214000	0.262200
H241	H24	0.168700	0.172400	0.317500
H251	H25	0.204600	0.217000	0.516600
H261	H26	0.251000	0.283300	0.604300
H271	H27	0.337000	0.296100	0.683300
H281	H28	0.376400	0.242400	0.674400
H291	H29	0.198600	0.847800	0.319800
H301	H30	0.221200	0.829400	0.254000
H311	H31	0.287300	0.903700	0.242000
H321	H32	0.330900	0.996400	0.295900
H331	H33	0.087000	0.739300	0.313500
H341	H34	0.014200	0.643300	0.271700
H351	H35	0.975400	0.654200	0.388600
H361	H36	0.048100	0.750200	0.430300
H371	H37	0.934700	0.135700	0.229000
H381	H38	0.994700	0.100100	0.265200
H391	H39	0.116200	0.238800	0.406800
H401	H40	0.056100	0.274500	0.370600
H411	H41	0.519700	0.170600	0.018300
H421	H42	0.431600	0.121200	0.020600
H431	H43	0.442000	0.126000	0.106400
H441	H44	0.540400	0.180200	0.189800
H451	H45	0.023800	0.539900	0.316100
H461	H46	0.121900	0.554300	0.351000
H471	H47	0.132400	0.477900	0.350300
H481	H48	0.044800	0.387200	0.314800
H491	H49	0.907300	0.221700	0.349400
H501	H50	0.893000	0.190400	0.416200
H511	H51	0.817900	0.188900	0.429200
H521	H52	0.757100	0.218800	0.375300
H531	H53	0.830900	0.520200	0.150300
H541	H54	0.779300	0.520500	0.061200
H551	H55	0.698200	0.436000	0.984200
H561	H56	0.668700	0.351200	0.996300
H571	H57	0.704600	0.188000	0.987600
H581	H58	0.751000	0.146700	0.967700
H591	H59	0.837000	0.153700	0.040900
H601	H60	0.876400	0.202000	0.134000
H611	H61	0.698600	0.378800	0.350800
H621	H62	0.721200	0.467200	0.391800
H631	H63	0.787300	0.545300	0.383600
H641	H64	0.830900	0.535000	0.334500
C11	C1	0.574260	0.198510	0.320590
C21	C2	0.564230	0.235550	0.342320
C31	C3	0.521100	0.217160	0.356120
C41	C4	0.488070	0.161810	0.348280
C51	C5	0.498120	0.124780	0.326560
C61	C6	0.541220	0.143150	0.312730
C71	C7	0.622500	0.219800	0.305500
C81	C8	0.438300	0.140800	0.363100
C91	C9	0.489760	0.193350	0.781290
C101	C10	0.471560	0.206420	0.814900
C111	C11	0.507180	0.220590	0.871730
C121	C12	0.561040	0.221690	0.894950
C131	C13	0.579260	0.208620	0.861360
C141	C14	0.543640	0.194470	0.804530
C151	C15	0.450200	0.175800	0.717600
C161	C16	0.600100	0.236140	0.958440
C171	C17	0.088730	0.934900	0.381030
C181	C18	0.082550	0.979910	0.377680
C191	C19	0.023860	0.970980	0.351320
C201	C20	0.971350	0.917080	0.328290
C211	C21	0.977540	0.872090	0.331630
C221	C22	0.036230	0.881000	0.358010
C231	C23	0.481930	0.187750	0.572800
C241	C24	0.475660	0.181060	0.520720
C251	C25	0.528080	0.212210	0.518750
C261	C26	0.586790	0.250030	0.568840
C271	C27	0.593080	0.256740	0.620920
C281	C28	0.540640	0.225590	0.622870
C291	C29	0.295830	0.965590	0.557720
C301	C30	0.340710	0.018230	0.601700
C311	C31	0.377020	0.022430	0.655870
C321	C32	0.368470	0.974000	0.666070
C331	C33	0.323580	0.921410	0.622030
C341	C34	0.287290	0.917190	0.567900
C351	C35	0.232080	0.151640	0.347060
C361	C36	0.280470	0.154100	0.345050
C371	C37	0.298120	0.178930	0.312090
C381	C38	0.267400	0.201310	0.281150
C391	C39	0.219020	0.198850	0.283170
C401	C40	0.201350	0.174020	0.316110
C411	C41	0.314000	0.197600	0.590220
C421	C42	0.262710	0.190030	0.543100
C431	C43	0.239250	0.222140	0.548450
C441	C44	0.267000	0.261820	0.600880
C451	C45	0.318280	0.269380	0.647960
C461	C46	0.341770	0.237250	0.642620
C471	C47	0.290670	0.977360	0.339970
C481	C48	0.251150	0.932950	0.347080
C491	C49	0.225170	0.877640	0.314930
C501	C50	0.238720	0.866720	0.275640
C511	C51	0.278220	0.911120	0.268520
C521	C52	0.304200	0.966430	0.300670
C531	C53	0.074260	0.753670	0.375750
C541	C54	0.064230	0.721910	0.328680
C551	C55	0.021100	0.664980	0.303940
C561	C56	0.988070	0.639790	0.326260
C571	C57	0.998120	0.671560	0.373340
C581	C58	0.041220	0.728490	0.398070
C591	C59	0.122500	0.817000	0.402700
C601	C60	0.938300	0.575200	0.297500
C611	C61	0.989760	0.208470	0.296410
C621	C62	0.971560	0.156660	0.265140
C631	C63	0.007180	0.135450	0.286590
C641	C64	0.061040	0.166090	0.339350
C651	C65	0.079260	0.217900	0.370640
C661	C66	0.043640	0.239110	0.349170
C671	C67	0.950200	0.232600	0.274400
C681	C68	0.100100	0.141660	0.363960
C691	C69	0.588730	0.207700	0.153830
C701	C70	0.582550	0.204870	0.102640
C711	C71	0.523860	0.172540	0.052880
C721	C72	0.471350	0.143060	0.054270
C731	C73	0.477540	0.145910	0.105450
C741	C74	0.536230	0.178220	0.155230
C751	C75	0.981930	0.409130	0.294180
C761	C76	0.975660	0.454940	0.294600
C771	C77	0.028080	0.509330	0.315870
C781	C78	0.086790	0.517950	0.336760
C791	C79	0.093080	0.472160	0.336340
C801	C80	0.040640	0.417770	0.315050
C811	C81	0.795830	0.238110	0.330240
C821	C82	0.840710	0.239010	0.322480
C831	C83	0.877020	0.221150	0.354590
C841	C84	0.868470	0.202400	0.394470
C851	C85	0.823580	0.201550	0.402170
C861	C86	0.787290	0.219390	0.370100
C871	C87	0.732080	0.385020	0.080440
C881	C88	0.780470	0.435420	0.126370
C891	C89	0.798120	0.486030	0.119190
C901	C90	0.767400	0.486250	0.066090
C911	C91	0.719020	0.435850	0.020170
C921	C92	0.701350	0.385240	0.027330
C931	C93	0.814000	0.223780	0.116400
C941	C94	0.762710	0.219610	0.072680
C951	C95	0.739250	0.190800	0.017110
C961	C96	0.767000	0.166120	0.005180
C971	C97	0.818280	0.170320	0.048900
C981	C98	0.841770	0.199150	0.104520
C991	C99	0.790670	0.450700	0.313310
C1001	C100	0.751150	0.404070	0.318200
C1011	C101	0.725170	0.410240	0.347530
C1021	C102	0.738720	0.463080	0.372000
C1031	C103	0.778220	0.509700	0.367100
C1041	C104	0.804200	0.503530	0.337770
N11	N1	0.140470	0.027960	0.401410
N21	N2	0.180730	0.012650	0.419580
N31	N3	0.424510	0.155140	0.561850
N41	N4	0.151240	0.956720	0.407860
N51	N5	0.384730	0.128510	0.505720
N61	N6	0.415310	0.142780	0.480330
N71	N7	0.340210	0.057600	0.579170
N81	N8	0.298110	0.029410	0.524240
N91	N9	0.269300	0.973650	0.509490
N101	N10	0.301810	0.129560	0.378810
N111	N11	0.266790	0.112480	0.400430
N121	N12	0.224230	0.125320	0.382150
N131	N13	0.326670	0.160970	0.573320
N141	N14	0.283960	0.132280	0.517080
N151	N15	0.245270	0.149320	0.498450
N161	N16	0.308560	0.025850	0.376550
N171	N17	0.280720	0.011500	0.404260
N181	N18	0.246430	0.955490	0.387760
N191	N19	0.640470	0.239060	0.112510
N201	N20	0.680730	0.261150	0.168080
N211	N21	0.924510	0.362660	0.269370
N221	N22	0.651240	0.243380	0.194520
N231	N23	0.884730	0.379010	0.256220
N241	N24	0.915310	0.434980	0.272530
N251	N25	0.840210	0.261040	0.282610
N261	N26	0.798110	0.273870	0.268700
N271	N27	0.769300	0.259810	0.295650
N281	N28	0.801810	0.423000	0.172250
N291	N29	0.766790	0.366360	0.154310
N301	N30	0.724230	0.342080	0.098910
N311	N31	0.826670	0.253350	0.165700
N321	N32	0.783960	0.266880	0.151680
N331	N33	0.745270	0.246820	0.095950
N341	N34	0.808560	0.432010	0.282710
N351	N35	0.780720	0.376460	0.269220
N361	N36	0.746430	0.358670	0.290940
O11	O1	0.638100	0.189280	0.292180
O21	O2	0.644630	0.269060	0.305990
O31	O3	0.417580	0.095630	0.366250
O41	O4	0.424960	0.172080	0.376720
O51	O5	0.470310	0.172100	0.688810
O61	O6	0.395160	0.162770	0.694130
O71	O7	0.651080	0.240220	0.979120
O81	O8	0.582490	0.243400	0.988010
O91	O9	0.138100	0.845920	0.448820
O101	O10	0.144630	0.838640	0.375570
O111	O11	0.917580	0.551330	0.321950
O121	O12	0.924960	0.548240	0.252880
O131	O13	0.970310	0.281500	0.298210
O141	O14	0.895160	0.201030	0.232390
O151	O15	0.151080	0.171960	0.410860
O161	O16	0.082490	0.094480	0.339090
Zn111	Zn11	0.218670	0.680230	0.788840
Zn121	Zn12	0.133820	0.528780	0.743080
Zn131	Zn13	0.109530	0.721920	0.751800
Zn141	Zn14	0.296970	0.723610	0.716300
Zn151	Zn15	0.331440	0.747810	0.941480
Zn161	Zn16	0.718670	0.929840	0.538440
Zn171	Zn17	0.633820	0.890740	0.605040
Zn181	Zn18	0.609530	0.857730	0.387620
Zn191	Zn19	0.796970	0.080670	0.573360
Zn201	Zn20	0.831440	0.889960	0.583640
H651	H65	0.913000	0.260700	0.686500
H661	H66	0.985800	0.356700	0.728300
H671	H67	0.024600	0.345800	0.611400
H681	H68	0.951900	0.249800	0.569700
H691	H69	0.065300	0.864300	0.771000
H701	H70	0.005300	0.899900	0.734800
H711	H71	0.883800	0.761200	0.593200
H721	H72	0.943900	0.725500	0.629400
H731	H73	0.480300	0.829400	0.981700
H741	H74	0.568400	0.878800	0.979400
H751	H75	0.558000	0.874000	0.893600
H761	H76	0.459600	0.819800	0.810200
H771	H77	0.976200	0.460100	0.683900
H781	H78	0.878100	0.445700	0.649000
H791	H79	0.867600	0.522100	0.649700
H801	H80	0.955200	0.612800	0.685200
H811	H81	0.092700	0.778300	0.650600
H821	H82	0.107000	0.809600	0.583800
H831	H83	0.182100	0.811100	0.570800
H841	H84	0.242900	0.781200	0.624700
H851	H85	0.169100	0.479800	0.849700
H861	H86	0.220700	0.479500	0.938800
H871	H87	0.301800	0.564000	0.015800
H881	H88	0.331300	0.648800	0.003700
H891	H89	0.295400	0.812000	0.012400
H901	H90	0.249000	0.853300	0.032300
H911	H91	0.163000	0.846300	0.959100
H921	H92	0.123600	0.798000	0.866000
H931	H93	0.301400	0.621200	0.649200
H941	H94	0.278800	0.532800	0.608200
H951	H95	0.212700	0.454700	0.616400
H961	H96	0.169100	0.465000	0.665500
H971	H97	0.413000	0.726500	0.652300
H981	H98	0.485800	0.757500	0.629100
H991	H99	0.524600	0.913200	0.678800
H1001	H100	0.451900	0.882200	0.702100
H1011	H101	0.565300	0.794300	0.201000
H1021	H102	0.505300	0.770500	0.105400
H1031	H103	0.383800	0.790600	0.122600
H1041	H104	0.443900	0.814500	0.218400
H1051	H105	0.980300	0.998600	0.650900
H1061	H106	0.068400	0.089000	0.689600
H1071	H107	0.058000	0.164400	0.684000
H1081	H108	0.959600	0.149400	0.639800
H1091	H109	0.476200	0.792300	0.516100
H1101	H110	0.378100	0.729100	0.432400
H1111	H111	0.367600	0.717900	0.345500
H1121	H112	0.455200	0.770000	0.342400
H1131	H113	0.592700	0.942100	0.314400
H1141	H114	0.607000	0.023200	0.297400
H1151	H115	0.682100	0.111300	0.371000
H1161	H116	0.742900	0.118200	0.461700
H1171	H117	0.669100	0.819400	0.689300
H1181	H118	0.720700	0.781900	0.741200
H1191	H119	0.801800	0.786000	0.737800
H1201	H120	0.831300	0.827600	0.682500
H1211	H121	0.795400	0.783000	0.483400
H1221	H122	0.749000	0.716700	0.395700
H1231	H123	0.663000	0.703900	0.316700
H1241	H124	0.623600	0.757600	0.325600
H1251	H125	0.801400	0.152200	0.680200
H1261	H126	0.778800	0.170600	0.746000
H1271	H127	0.712700	0.096300	0.758000
H1281	H128	0.669100	0.003600	0.704100
C1051	C105	0.925740	0.246330	0.624250
C1061	C106	0.935770	0.278090	0.671320
C1071	C107	0.978900	0.335020	0.696060
C1081	C108	0.011930	0.360210	0.673740
C1091	C109	0.001880	0.328440	0.626660
C1101	C110	0.958780	0.271510	0.601930
C1111	C111	0.877500	0.183000	0.597300
C1121	C112	0.061700	0.424800	0.702500
C1131	C113	0.010240	0.791530	0.703590
C1141	C114	0.028440	0.843340	0.734860
C1151	C115	0.992820	0.864550	0.713410
C1161	C116	0.938960	0.833910	0.660650
C1171	C117	0.920740	0.782100	0.629360
C1181	C118	0.956360	0.760890	0.650830
C1191	C119	0.049800	0.767400	0.725600
C1201	C120	0.899900	0.858340	0.636040
C1211	C121	0.411270	0.792300	0.846170
C1221	C122	0.417450	0.795130	0.897360
C1231	C123	0.476140	0.827460	0.947120
C1241	C124	0.528650	0.856940	0.945730
C1251	C125	0.522460	0.854090	0.894550
C1261	C126	0.463770	0.821780	0.844770
C1271	C127	0.018070	0.590870	0.705820
C1281	C128	0.024340	0.545060	0.705400
C1291	C129	0.971920	0.490670	0.684130
C1301	C130	0.913210	0.482050	0.663240
C1311	C131	0.906920	0.527840	0.663660
C1321	C132	0.959360	0.582230	0.684950
C1331	C133	0.204170	0.761890	0.669760
C1341	C134	0.159290	0.760990	0.677520
C1351	C135	0.122980	0.778850	0.645410
C1361	C136	0.131530	0.797600	0.605530
C1371	C137	0.176420	0.798450	0.597830
C1381	C138	0.212710	0.780610	0.629900
C1391	C139	0.267920	0.614980	0.919560
C1401	C140	0.219530	0.564580	0.873630
C1411	C141	0.201880	0.513970	0.880810
C1421	C142	0.232600	0.513750	0.933910
C1431	C143	0.280980	0.564150	0.979830
C1441	C144	0.298650	0.614760	0.972670
C1451	C145	0.186000	0.776220	0.883600
C1461	C146	0.237290	0.780390	0.927320
C1471	C147	0.260750	0.809200	0.982890
C1481	C148	0.233000	0.833880	0.994820
C1491	C149	0.181720	0.829680	0.951100
C1501	C150	0.158230	0.800850	0.895480
C1511	C151	0.209330	0.549300	0.686690
C1521	C152	0.248850	0.595930	0.681800
C1531	C153	0.274830	0.589760	0.652470
C1541	C154	0.261280	0.536920	0.628000
C1551	C155	0.221780	0.490300	0.632900
C1561	C156	0.195800	0.496470	0.662230
C1571	C157	0.425740	0.801490	0.679410
C1581	C158	0.435770	0.764450	0.657680
C1591	C159	0.478900	0.782840	0.643880
C1601	C160	0.511930	0.838190	0.651720
C1611	C161	0.501880	0.875220	0.673440
C1621	C162	0.458780	0.856850	0.687270
C1631	C163	0.377500	0.780200	0.694500
C1641	C164	0.561700	0.859200	0.636900
C1651	C165	0.510240	0.806650	0.218710
C1661	C166	0.528440	0.793580	0.185100
C1671	C167	0.492820	0.779410	0.128270
C1681	C168	0.438960	0.778310	0.105050
C1691	C169	0.420740	0.791380	0.138640
C1701	C170	0.456360	0.805530	0.195470
C1711	C171	0.549800	0.824200	0.282400
C1721	C172	0.399900	0.763860	0.041560
C1731	C173	0.911270	0.065100	0.618970
C1741	C174	0.917450	0.020090	0.622320
C1751	C175	0.976140	0.029020	0.648680
C1761	C176	0.028650	0.082920	0.671710
C1771	C177	0.022460	0.127910	0.668370
C1781	C178	0.963770	0.119000	0.641990
C1791	C179	0.518070	0.812250	0.427200
C1801	C180	0.524340	0.818940	0.479280
C1811	C181	0.471920	0.787790	0.481250
C1821	C182	0.413210	0.749970	0.431160
C1831	C183	0.406920	0.743260	0.379080
C1841	C184	0.459360	0.774410	0.377130
C1851	C185	0.704170	0.034410	0.442280
C1861	C186	0.659290	0.981770	0.398300
C1871	C187	0.622980	0.977570	0.344130
C1881	C188	0.631530	0.026000	0.333930
C1891	C189	0.676420	0.078590	0.377970
C1901	C190	0.712710	0.082810	0.432100
C1911	C191	0.767920	0.848360	0.652940
C1921	C192	0.719530	0.845900	0.654950
C1931	C193	0.701880	0.821070	0.687910
C1941	C194	0.732600	0.798690	0.718850
C1951	C195	0.780980	0.801150	0.716830
C1961	C196	0.798650	0.825980	0.683890
C1971	C197	0.686000	0.802400	0.409780
C1981	C198	0.737290	0.809970	0.456900
C1991	C199	0.760750	0.777860	0.451550
C2001	C200	0.733000	0.738180	0.399120
C2011	C201	0.681720	0.730620	0.352040
C2021	C202	0.658230	0.762750	0.357380
C2031	C203	0.709330	0.022640	0.660030
C2041	C204	0.748850	0.067050	0.652920
C2051	C205	0.774830	0.122360	0.685070
C2061	C206	0.761280	0.133280	0.724360
C2071	C207	0.721780	0.088880	0.731480
C2081	C208	0.695800	0.033570	0.699330
N371	N37	0.359530	0.760940	0.887490
N381	N38	0.319270	0.738850	0.831920
N391	N39	0.075490	0.637340	0.730630
N401	N40	0.348760	0.756620	0.805480
N411	N41	0.115270	0.620990	0.743780
N421	N42	0.084690	0.565020	0.727470
N431	N43	0.159790	0.738960	0.717390
N441	N44	0.201890	0.726130	0.731300
N451	N45	0.230700	0.740190	0.704350
N461	N46	0.198190	0.577000	0.827750
N471	N47	0.233210	0.633640	0.845690
N481	N48	0.275770	0.657920	0.901090
N491	N49	0.173330	0.746650	0.834300
N501	N50	0.216040	0.733120	0.848320
N511	N51	0.254730	0.753180	0.904050
N521	N52	0.191440	0.567990	0.717290
N531	N53	0.219280	0.623540	0.730780
N541	N54	0.253570	0.641330	0.709060
N551	N55	0.859530	0.972040	0.598590
N561	N56	0.819270	0.987350	0.580420
N571	N57	0.575490	0.844860	0.438150
N581	N58	0.848760	0.043280	0.592140
N591	N59	0.615270	0.871490	0.494280
N601	N60	0.584690	0.857220	0.519670
N611	N61	0.659790	0.942400	0.420830
N621	N62	0.701890	0.970590	0.475760
N631	N63	0.730700	0.026350	0.490510
N641	N64	0.698190	0.870440	0.621190
N651	N65	0.733210	0.887520	0.599570
N661	N66	0.775770	0.874680	0.617850
N671	N67	0.673330	0.839030	0.426680
N681	N68	0.716040	0.867720	0.482920
N691	N69	0.754730	0.850680	0.501550
N701	N70	0.691440	0.974150	0.623450
N711	N71	0.719280	0.988500	0.595740
N721	N72	0.753570	0.044510	0.612240
O171	O17	0.861900	0.154080	0.551180
O181	O18	0.855370	0.161360	0.624430
O191	O19	0.082420	0.448670	0.678050
O201	O20	0.075040	0.451760	0.747120
O211	O21	0.029690	0.718500	0.701790
O221	O22	0.104840	0.798970	0.767610
O231	O23	0.848920	0.828040	0.589140
O241	O24	0.917510	0.905520	0.660910
O251	O25	0.361900	0.810720	0.707820
O261	O26	0.355370	0.730940	0.694010
O271	O27	0.582420	0.904370	0.633750
O281	O28	0.575040	0.827920	0.623280
O291	O29	0.529690	0.827900	0.311190
O301	O30	0.604840	0.837230	0.305870
O311	O31	0.348920	0.759780	0.020880
O321	O32	0.417510	0.756600	0.011990
Zn211	Zn21	0.391390	0.461560	0.680220
Zn221	Zn22	0.285700	0.394960	0.528780
Zn231	Zn23	0.470110	0.612380	0.721910
Zn241	Zn24	0.507310	0.426640	0.723610
Zn251	Zn25	0.306330	0.416370	0.747810
Zn261	Zn26	0.891390	0.211160	0.929830
Zn271	Zn27	0.785700	0.256920	0.890740
Zn281	Zn28	0.970110	0.248200	0.857720
Zn291	Zn29	0.007310	0.283700	0.080670
Zn301	Zn30	0.806330	0.058530	0.889960
H1291	H129	0.074200	0.347700	0.260700
H1301	H130	0.128400	0.370900	0.356700
H1311	H131	0.234400	0.321200	0.345800
H1321	H132	0.180100	0.297900	0.249800
H1331	H133	0.593300	0.799000	0.864300
H1341	H134	0.665100	0.894600	0.899900
H1351	H135	0.668000	0.877400	0.761200
H1361	H136	0.596100	0.781600	0.725500
H1371	H137	0.347700	0.349100	0.829400
H1381	H138	0.399400	0.310400	0.878800
H1391	H139	0.480400	0.316000	0.874000
H1401	H140	0.509600	0.360200	0.819800
H1411	H141	0.276200	0.483900	0.460100
H1421	H142	0.296700	0.567600	0.445700
H1431	H143	0.372400	0.654500	0.522100
H1441	H144	0.427600	0.657600	0.612800
H1451	H145	0.627700	0.685600	0.778300
H1461	H146	0.725800	0.702600	0.809600
H1471	H147	0.740300	0.629000	0.811100
H1481	H148	0.656500	0.538300	0.781200
H1491	H149	0.130100	0.310700	0.479800
H1501	H150	0.040700	0.258800	0.479500
H1511	H151	0.048200	0.262200	0.564000
H1521	H152	0.145100	0.317500	0.648800
H1531	H153	0.299600	0.516600	0.812000
H1541	H154	0.321000	0.604300	0.853300
H1551	H155	0.387200	0.683300	0.846300
H1561	H156	0.432000	0.674400	0.798000
H1571	H157	0.472000	0.319800	0.621200
H1581	H158	0.424600	0.254000	0.532800
H1591	H159	0.338300	0.242000	0.454700
H1601	H160	0.299500	0.295900	0.465000
H1611	H161	0.574200	0.313500	0.726500
H1621	H162	0.628400	0.271700	0.757500
H1631	H163	0.734400	0.388600	0.913200
H1641	H164	0.680100	0.430300	0.882200
H1651	H165	0.093300	0.229000	0.794300
H1661	H166	0.165100	0.265200	0.770500
H1671	H167	0.168000	0.406800	0.790600
H1681	H168	0.096100	0.370600	0.814500
H1691	H169	0.847700	0.018300	0.998600
H1701	H170	0.899400	0.020600	0.089000
H1711	H171	0.980400	0.106400	0.164400
H1721	H172	0.009600	0.189800	0.149400
H1731	H173	0.776200	0.316100	0.792300
H1741	H174	0.796700	0.351000	0.729100
H1751	H175	0.872400	0.350300	0.717900
H1761	H176	0.927600	0.314800	0.770000
H1771	H177	0.127700	0.349400	0.942100
H1781	H178	0.225800	0.416200	0.023200
H1791	H179	0.240300	0.429200	0.111300
H1801	H180	0.156500	0.375300	0.118200
H1811	H181	0.630100	0.150300	0.819400
H1821	H182	0.540700	0.061200	0.781900
H1831	H183	0.548200	0.984200	0.786000
H1841	H184	0.645100	0.996300	0.827600
H1851	H185	0.799600	0.987600	0.783000
H1861	H186	0.821000	0.967700	0.716700
H1871	H187	0.887200	0.040900	0.703900
H1881	H188	0.932000	0.134000	0.757600
H1891	H189	0.972000	0.350800	0.152200
H1901	H190	0.924600	0.391800	0.170600
H1911	H191	0.838300	0.383600	0.096300
H1921	H192	0.799500	0.334500	0.003600
C2091	C209	0.122080	0.320590	0.246330
C2101	C210	0.106770	0.342320	0.278090
C2111	C211	0.138960	0.356120	0.335020
C2121	C212	0.186470	0.348280	0.360210
C2131	C213	0.201780	0.326560	0.328440
C2141	C214	0.169580	0.312730	0.271510
C2151	C215	0.085700	0.305500	0.183000
C2161	C216	0.222300	0.363100	0.424800
C2171	C217	0.587940	0.781290	0.791530
C2181	C218	0.608480	0.814900	0.843340
C2191	C219	0.651140	0.871730	0.864550
C2201	C220	0.673260	0.894950	0.833910
C2211	C221	0.652740	0.861360	0.782100
C2221	C222	0.610060	0.804530	0.760890
C2231	C223	0.541800	0.717600	0.767400
C2241	C224	0.722300	0.958440	0.858340
C2251	C225	0.446130	0.381030	0.792300
C2261	C226	0.397770	0.377680	0.795130
C2271	C227	0.380340	0.351320	0.827460
C2281	C228	0.411210	0.328290	0.856940
C2291	C229	0.459540	0.331630	0.854090
C2301	C230	0.477010	0.358010	0.821780
C2311	C231	0.385050	0.572800	0.590870
C2321	C232	0.339660	0.520720	0.545060
C2331	C233	0.306540	0.518750	0.490670
C2341	C234	0.318810	0.568840	0.482050
C2351	C235	0.364180	0.620920	0.527840
C2361	C236	0.397280	0.622870	0.582230
C2371	C237	0.592130	0.557720	0.761890
C2381	C238	0.583470	0.601700	0.760990
C2391	C239	0.633440	0.655870	0.778850
C2401	C240	0.692070	0.666070	0.797600
C2411	C241	0.700620	0.622030	0.798450
C2421	C242	0.650710	0.567900	0.780610
C2431	C243	0.195420	0.347060	0.614980
C2441	C244	0.190950	0.345050	0.564580
C2451	C245	0.133160	0.312090	0.513970
C2461	C246	0.079840	0.281150	0.513750
C2471	C247	0.084320	0.283170	0.564150
C2481	C248	0.142090	0.316110	0.614760
C2491	C249	0.392620	0.590220	0.776220
C2501	C250	0.353070	0.543100	0.780390
C2511	C251	0.326310	0.548450	0.809200
C2521	C252	0.339060	0.600880	0.833880
C2531	C253	0.378580	0.647960	0.829680
C2541	C254	0.405370	0.642620	0.800850
C2551	C255	0.362610	0.339970	0.549300
C2561	C256	0.414130	0.347080	0.595930
C2571	C257	0.437290	0.314930	0.589760
C2581	C258	0.408920	0.275640	0.536920
C2591	C259	0.357400	0.268520	0.490300
C2601	C260	0.334240	0.300670	0.496470
C2611	C261	0.622080	0.375750	0.801490
C2621	C262	0.606770	0.328680	0.764450
C2631	C263	0.638960	0.303940	0.782840
C2641	C264	0.686470	0.326260	0.838190
C2651	C265	0.701780	0.373340	0.875220
C2661	C266	0.669580	0.398070	0.856850
C2671	C267	0.585700	0.402700	0.780200
C2681	C268	0.722300	0.297500	0.859200
C2691	C269	0.087940	0.296410	0.806650
C2701	C270	0.108480	0.265140	0.793580
C2711	C271	0.151140	0.286590	0.779410
C2721	C272	0.173260	0.339350	0.778310
C2731	C273	0.152740	0.370640	0.791380
C2741	C274	0.110060	0.349170	0.805530
C2751	C275	0.041800	0.274400	0.824200
C2761	C276	0.222300	0.363960	0.763860
C2771	C277	0.946130	0.153830	0.065100
C2781	C278	0.897770	0.102640	0.020090
C2791	C279	0.880340	0.052880	0.029020
C2801	C280	0.911210	0.054270	0.082920
C2811	C281	0.959540	0.105450	0.127910
C2821	C282	0.977010	0.155230	0.119000
C2831	C283	0.885050	0.294180	0.812250
C2841	C284	0.839660	0.294600	0.818940
C2851	C285	0.806540	0.315870	0.787790
C2861	C286	0.818810	0.336760	0.749970
C2871	C287	0.864180	0.336340	0.743260
C2881	C288	0.897280	0.315050	0.774410
C2891	C289	0.092130	0.330240	0.034410
C2901	C290	0.083470	0.322480	0.981770
C2911	C291	0.133440	0.354590	0.977570
C2921	C292	0.192070	0.394470	0.026000
C2931	C293	0.200620	0.402170	0.078590
C2941	C294	0.150710	0.370100	0.082810
C2951	C295	0.695420	0.080440	0.848360
C2961	C296	0.690950	0.126370	0.845900
C2971	C297	0.633160	0.119190	0.821070
C2981	C298	0.579840	0.066090	0.798690
C2991	C299	0.584320	0.020170	0.801150
C3001	C300	0.642090	0.027330	0.825980
C3011	C301	0.892620	0.116400	0.802400
C3021	C302	0.853070	0.072680	0.809970
C3031	C303	0.826310	0.017110	0.777860
C3041	C304	0.839060	0.005180	0.738180
C3051	C305	0.878580	0.048900	0.730620
C3061	C306	0.905370	0.104520	0.762750
C3071	C307	0.862610	0.313310	0.022640
C3081	C308	0.914130	0.318200	0.067050
C3091	C309	0.937290	0.347530	0.122360
C3101	C310	0.908920	0.372000	0.133280
C3111	C311	0.857400	0.367100	0.088880
C3121	C312	0.834240	0.337770	0.033570
N731	N73	0.373450	0.401410	0.760940
N741	N74	0.406930	0.419580	0.738850
N751	N75	0.406710	0.561850	0.637340
N761	N76	0.451140	0.407860	0.756620
N771	N77	0.377210	0.505720	0.620990
N781	N78	0.337550	0.480330	0.565020
N791	N79	0.521570	0.579170	0.738960
N801	N80	0.494830	0.524240	0.726130
N811	N81	0.535840	0.509490	0.740190
N821	N82	0.249250	0.378810	0.577000
N831	N83	0.287950	0.400430	0.633640
N841	N84	0.256830	0.382150	0.657920
N851	N85	0.412350	0.573320	0.746650
N861	N86	0.384800	0.517080	0.733120
N871	N87	0.349130	0.498450	0.753180
N881	N88	0.350700	0.376550	0.567990
N891	N89	0.392760	0.404260	0.623540
N901	N90	0.432270	0.387760	0.641330
N911	N91	0.873450	0.112510	0.972040
N921	N92	0.906930	0.168080	0.987350
N931	N93	0.906710	0.269370	0.844860
N941	N94	0.951140	0.194520	0.043280
N951	N95	0.877210	0.256220	0.871490
N961	N96	0.837550	0.272530	0.857220
N971	N97	0.021570	0.282610	0.942400
N981	N98	0.994830	0.268700	0.970590
N991	N99	0.035840	0.295650	0.026350
N1001	N100	0.749250	0.172250	0.870440
N1011	N101	0.787950	0.154310	0.887520
N1021	N102	0.756830	0.098910	0.874680
N1031	N103	0.912350	0.165700	0.839030
N1041	N104	0.884800	0.151680	0.867720
N1051	N105	0.849130	0.095950	0.850680
N1061	N106	0.850700	0.282710	0.974150
N1071	N107	0.892760	0.269220	0.988500
N1081	N108	0.932270	0.290940	0.044510
O331	O33	0.102900	0.292180	0.154080
O341	O34	0.036930	0.305990	0.161360
O351	O35	0.270620	0.366250	0.448670
O361	O36	0.204640	0.376720	0.451760
O371	O37	0.516710	0.688810	0.718500
O381	O38	0.531360	0.694130	0.798970
O391	O39	0.738900	0.979120	0.828040
O401	O40	0.744610	0.988010	0.905520
O411	O41	0.602900	0.448820	0.810720
O421	O42	0.536930	0.375570	0.730940
O431	O43	0.770620	0.321950	0.904370
O441	O44	0.704640	0.252880	0.827920
O451	O45	0.016710	0.298210	0.827900
O461	O46	0.031360	0.232390	0.837230
O471	O47	0.238900	0.410860	0.759780
O481	O48	0.244610	0.339090	0.756600
Zn311	Zn31	0.108610	0.788840	0.070170
Zn321	Zn32	0.214300	0.743080	0.109260
Zn331	Zn33	0.029890	0.751800	0.142280
Zn341	Zn34	0.992690	0.716300	0.919330
Zn351	Zn35	0.193670	0.941470	0.110040
Zn361	Zn36	0.608610	0.538440	0.319780
Zn371	Zn37	0.714300	0.605040	0.471220
Zn381	Zn38	0.529890	0.387620	0.278090
Zn391	Zn39	0.492690	0.573360	0.276390
Zn401	Zn40	0.693670	0.583630	0.252190
H1931	H193	0.425800	0.686500	0.273500
H1941	H194	0.371600	0.728300	0.242500
H1951	H195	0.265600	0.611400	0.086800
H1961	H196	0.319900	0.569700	0.117800
H1971	H197	0.906700	0.771000	0.205700
H1981	H198	0.834900	0.734800	0.229500
H1991	H199	0.832000	0.593200	0.209400
H2001	H200	0.903900	0.629400	0.185500
H2011	H201	0.152300	0.981700	0.001400
H2021	H202	0.100600	0.979400	0.911000
H2031	H203	0.019600	0.893600	0.835600
H2041	H204	0.990400	0.810200	0.850600
H2051	H205	0.223800	0.683900	0.207700
H2061	H206	0.203300	0.649000	0.270900
H2071	H207	0.127600	0.649700	0.282100
H2081	H208	0.072400	0.685200	0.230000
H2091	H209	0.872300	0.650600	0.057900
H2101	H210	0.774200	0.583800	0.976800
H2111	H211	0.759700	0.570800	0.888700
H2121	H212	0.843500	0.624700	0.881800
H2131	H213	0.369900	0.849700	0.180600
H2141	H214	0.459300	0.938800	0.218100
H2151	H215	0.451800	0.015800	0.214000
H2161	H216	0.354900	0.003700	0.172400
H2171	H217	0.200400	0.012400	0.217000
H2181	H218	0.179000	0.032300	0.283300
H2191	H219	0.112800	0.959100	0.296100
H2201	H220	0.068000	0.866000	0.242400
H2211	H221	0.028000	0.649200	0.847800
H2221	H222	0.075400	0.608200	0.829400
H2231	H223	0.161700	0.616400	0.903700
H2241	H224	0.200500	0.665500	0.996400
H2251	H225	0.925800	0.652300	0.739300
H2261	H226	0.871600	0.629100	0.643300
H2271	H227	0.765600	0.678800	0.654200
H2281	H228	0.819900	0.702100	0.750200
H2291	H229	0.406700	0.201000	0.135700
H2301	H230	0.334900	0.105400	0.100100
H2311	H231	0.332000	0.122600	0.238800
H2321	H232	0.403900	0.218400	0.274500
H2331	H233	0.652300	0.650900	0.170600
H2341	H234	0.600600	0.689600	0.121200
H2351	H235	0.519600	0.684000	0.126000
H2361	H236	0.490400	0.639800	0.180200
H2371	H237	0.723800	0.516100	0.539900
H2381	H238	0.703300	0.432400	0.554300
H2391	H239	0.627600	0.345500	0.477900
H2401	H240	0.572400	0.342400	0.387200
H2411	H241	0.372300	0.314400	0.221700
H2421	H242	0.274200	0.297400	0.190400
H2431	H243	0.259700	0.371000	0.188900
H2441	H244	0.343500	0.461700	0.218800
H2451	H245	0.869900	0.689300	0.520200
H2461	H246	0.959300	0.741200	0.520500
H2471	H247	0.951800	0.737800	0.436000
H2481	H248	0.854900	0.682500	0.351200
H2491	H249	0.700400	0.483400	0.188000
H2501	H250	0.679000	0.395700	0.146700
H2511	H251	0.612800	0.316700	0.153700
H2521	H252	0.568000	0.325600	0.202000
H2531	H253	0.528000	0.680200	0.378800
H2541	H254	0.575400	0.746000	0.467200
H2551	H255	0.661700	0.758000	0.545300
H2561	H256	0.700500	0.704100	0.535000
C3131	C313	0.377920	0.624250	0.198510
C3141	C314	0.393230	0.671320	0.235550
C3151	C315	0.361040	0.696060	0.217160
C3161	C316	0.313530	0.673740	0.161810
C3171	C317	0.298220	0.626660	0.124780
C3181	C318	0.330420	0.601930	0.143150
C3191	C319	0.414300	0.597300	0.219800
C3201	C320	0.277700	0.702500	0.140800
C3211	C321	0.912060	0.703590	0.193350
C3221	C322	0.891520	0.734860	0.206420
C3231	C323	0.848860	0.713410	0.220590
C3241	C324	0.826740	0.660650	0.221690
C3251	C325	0.847260	0.629360	0.208620
C3261	C326	0.889940	0.650830	0.194470
C3271	C327	0.958200	0.725600	0.175800
C3281	C328	0.777700	0.636040	0.236140
C3291	C329	0.053870	0.846170	0.934900
C3301	C330	0.102230	0.897360	0.979910
C3311	C331	0.119660	0.947120	0.970980
C3321	C332	0.088790	0.945730	0.917080
C3331	C333	0.040460	0.894550	0.872090
C3341	C334	0.022990	0.844770	0.881000
C3351	C335	0.114950	0.705820	0.187750
C3361	C336	0.160340	0.705400	0.181060
C3371	C337	0.193460	0.684130	0.212210
C3381	C338	0.181190	0.663240	0.250030
C3391	C339	0.135820	0.663660	0.256740
C3401	C340	0.102720	0.684950	0.225590
C3411	C341	0.907870	0.669760	0.965590
C3421	C342	0.916530	0.677520	0.018230
C3431	C343	0.866560	0.645410	0.022430
C3441	C344	0.807930	0.605530	0.974000
C3451	C345	0.799380	0.597830	0.921410
C3461	C346	0.849290	0.629900	0.917190
C3471	C347	0.304580	0.919560	0.151640
C3481	C348	0.309050	0.873630	0.154100
C3491	C349	0.366840	0.880810	0.178930
C3501	C350	0.420160	0.933910	0.201310
C3511	C351	0.415680	0.979830	0.198850
C3521	C352	0.357910	0.972670	0.174020
C3531	C353	0.107380	0.883600	0.197600
C3541	C354	0.146930	0.927320	0.190030
C3551	C355	0.173690	0.982890	0.222140
C3561	C356	0.160940	0.994820	0.261820
C3571	C357	0.121420	0.951100	0.269380
C3581	C358	0.094630	0.895480	0.237250
C3591	C359	0.137390	0.686690	0.977360
C3601	C360	0.085870	0.681800	0.932950
C3611	C361	0.062710	0.652470	0.877640
C3621	C362	0.091080	0.628000	0.866720
C3631	C363	0.142600	0.632900	0.911120
C3641	C364	0.165760	0.662230	0.966430
C3651	C365	0.877920	0.679410	0.753670
C3661	C366	0.893230	0.657680	0.721910
C3671	C367	0.861040	0.643880	0.664980
C3681	C368	0.813530	0.651720	0.639790
C3691	C369	0.798220	0.673440	0.671560
C3701	C370	0.830420	0.687270	0.728490
C3711	C371	0.914300	0.694500	0.817000
C3721	C372	0.777700	0.636900	0.575200
C3731	C373	0.412060	0.218710	0.208470
C3741	C374	0.391520	0.185100	0.156660
C3751	C375	0.348860	0.128270	0.135450
C3761	C376	0.326740	0.105050	0.166090
C3771	C377	0.347260	0.138640	0.217900
C3781	C378	0.389940	0.195470	0.239110
C3791	C379	0.458200	0.282400	0.232600
C3801	C380	0.277700	0.041560	0.141660
C3811	C381	0.553870	0.618970	0.207700
C3821	C382	0.602230	0.622320	0.204870
C3831	C383	0.619660	0.648680	0.172540
C3841	C384	0.588790	0.671710	0.143060
C3851	C385	0.540460	0.668370	0.145910
C3861	C386	0.522990	0.641990	0.178220
C3871	C387	0.614950	0.427200	0.409130
C3881	C388	0.660340	0.479280	0.454940
C3891	C389	0.693460	0.481250	0.509330
C3901	C390	0.681190	0.431160	0.517950
C3911	C391	0.635820	0.379080	0.472160
C3921	C392	0.602720	0.377130	0.417770
C3931	C393	0.407870	0.442280	0.238110
C3941	C394	0.416530	0.398300	0.239010
C3951	C395	0.366560	0.344130	0.221150
C3961	C396	0.307930	0.333930	0.202400
C3971	C397	0.299380	0.377970	0.201550
C3981	C398	0.349290	0.432100	0.219390
C3991	C399	0.804580	0.652940	0.385020
C4001	C400	0.809050	0.654950	0.435420
C4011	C401	0.866840	0.687910	0.486030
C4021	C402	0.920160	0.718850	0.486250
C4031	C403	0.915680	0.716830	0.435850
C4041	C404	0.857910	0.683890	0.385240
C4051	C405	0.607380	0.409780	0.223780
C4061	C406	0.646930	0.456900	0.219610
C4071	C407	0.673690	0.451550	0.190800
C4081	C408	0.660940	0.399120	0.166120
C4091	C409	0.621420	0.352040	0.170320
C4101	C410	0.594630	0.357380	0.199150
C4111	C411	0.637390	0.660030	0.450700
C4121	C412	0.585870	0.652920	0.404070
C4131	C413	0.562710	0.685070	0.410240
C4141	C414	0.591080	0.724360	0.463080
C4151	C415	0.642600	0.731480	0.509700
C4161	C416	0.665760	0.699330	0.503530
N1091	N109	0.126550	0.887490	0.027960
N1101	N110	0.093070	0.831920	0.012650
N1111	N111	0.093290	0.730630	0.155140
N1121	N112	0.048860	0.805480	0.956720
N1131	N113	0.122790	0.743780	0.128510
N1141	N114	0.162450	0.727470	0.142780
N1151	N115	0.978430	0.717390	0.057600
N1161	N116	0.005170	0.731300	0.029410
N1171	N117	0.964160	0.704350	0.973650
N1181	N118	0.250750	0.827750	0.129560
N1191	N119	0.212050	0.845690	0.112480
N1201	N120	0.243170	0.901090	0.125320
N1211	N121	0.087650	0.834300	0.160970
N1221	N122	0.115200	0.848320	0.132280
N1231	N123	0.150870	0.904050	0.149320
N1241	N124	0.149300	0.717290	0.025850
N1251	N125	0.107240	0.730780	0.011500
N1261	N126	0.067730	0.709060	0.955490
N1271	N127	0.626550	0.598590	0.239060
N1281	N128	0.593070	0.580420	0.261150
N1291	N129	0.593290	0.438150	0.362660
N1301	N130	0.548860	0.592140	0.243380
N1311	N131	0.622790	0.494280	0.379010
N1321	N132	0.662450	0.519670	0.434980
N1331	N133	0.478430	0.420830	0.261040
N1341	N134	0.505170	0.475760	0.273870
N1351	N135	0.464160	0.490510	0.259810
N1361	N136	0.750750	0.621190	0.423000
N1371	N137	0.712050	0.599570	0.366360
N1381	N138	0.743170	0.617850	0.342080
N1391	N139	0.587650	0.426680	0.253350
N1401	N140	0.615200	0.482920	0.266880
N1411	N141	0.650870	0.501550	0.246820
N1421	N142	0.649300	0.623450	0.432010
N1431	N143	0.607240	0.595740	0.376460
N1441	N144	0.567730	0.612240	0.358670
O491	O49	0.397100	0.551180	0.189280
O501	O50	0.463070	0.624430	0.269060
O511	O51	0.229380	0.678050	0.095630
O521	O52	0.295360	0.747120	0.172080
O531	O53	0.983290	0.701790	0.172100
O541	O54	0.968640	0.767610	0.162770
O551	O55	0.761100	0.589140	0.240220
O561	O56	0.755390	0.660910	0.243400
O571	O57	0.897100	0.707820	0.845920
O581	O58	0.963070	0.694010	0.838640
O591	O59	0.729380	0.633750	0.551330
O601	O60	0.795360	0.623280	0.548240
O611	O61	0.483290	0.311190	0.281500
O621	O62	0.468640	0.305870	0.201030
O631	O63	0.261100	0.020880	0.171960
O641	O64	0.255390	0.011990	0.094480
