data_KUJPAH_freeONLY_PM
_symmetry_space_group_name_H-M	'P1'
_cell_length_a	36.132700
_cell_length_b	36.132800
_cell_length_c	36.132800
_cell_angle_alpha	60.142800
_cell_angle_beta	89.752500
_cell_angle_gamma	119.857000
_symmetry_Int_Tables_number 1

loop_
_symmetry_equiv_pos_as_xyz
'x,y,z'

loop_
_atom_site_label
_atom_site_type_symbol
_atom_site_fract_x
_atom_site_fract_y
_atom_site_fract_z
Zn11	Zn1	0.244160	0.616410	0.877930
Zn21	Zn2	0.201630	0.531920	0.841010
Zn31	Zn3	0.366290	0.701640	0.830590
Zn41	Zn4	0.209470	0.540040	0.998950
Zn51	Zn5	0.199610	0.693570	0.838960
Zn61	Zn6	0.994340	0.116410	0.627750
Zn71	Zn7	0.872930	0.031920	0.669710
Zn81	Zn8	0.032230	0.201640	0.664650
Zn91	Zn9	0.038990	0.040040	0.669430
Zn101	Zn10	0.032530	0.193570	0.506040
H11	H1	0.149600	0.562400	0.050400
H21	H2	0.111300	0.595900	0.057800
H31	H3	0.105600	0.654600	0.993800
H41	H4	0.138500	0.680000	0.922300
H51	H5	0.410500	0.827800	0.755100
H61	H6	0.416400	0.905400	0.709000
H71	H7	0.352100	0.905500	0.714000
H81	H8	0.281800	0.828000	0.765400
H91	H9	0.122000	0.534600	0.790200
H101	H10	0.074200	0.557000	0.761200
H111	H11	0.074100	0.620600	0.761100
H121	H12	0.121700	0.661900	0.790000
H131	H13	0.419700	0.687300	0.908600
H141	H14	0.430100	0.657400	0.978500
H151	H15	0.367900	0.596000	0.044300
H161	H16	0.295600	0.564600	0.040400
H171	H17	0.282200	0.548400	0.772400
H181	H18	0.352700	0.578500	0.733600
H191	H19	0.417400	0.643900	0.731100
H201	H20	0.411500	0.679200	0.767500
H211	H21	0.151200	0.403100	0.924900
H221	H22	0.119700	0.326800	0.996700
H231	H23	0.121200	0.329700	0.059300
H241	H24	0.154200	0.408700	0.050100
H251	H25	0.113800	0.269000	0.363000
H261	H26	0.144200	0.324900	0.284900
H271	H27	0.076800	0.385700	0.284300
H281	H28	0.046400	0.329600	0.362400
H291	H29	0.116300	0.340900	0.218000
H301	H30	0.146700	0.396900	0.140400
H311	H31	0.184700	0.516600	0.147500
H321	H32	0.154300	0.460600	0.225100
H331	H33	0.107000	0.375800	0.853000
H341	H34	0.079400	0.324700	0.826500
H351	H35	0.153700	0.450900	0.700600
H361	H36	0.181300	0.502100	0.727000
H371	H37	0.069600	0.350300	0.660300
H381	H38	0.096200	0.402200	0.686400
H391	H39	0.093200	0.290200	0.797800
H401	H40	0.066500	0.238100	0.771800
H411	H41	0.112800	0.062400	0.587200
H421	H42	0.153700	0.095900	0.515400
H431	H43	0.148400	0.154600	0.451000
H441	H44	0.102300	0.180000	0.458500
H451	H45	0.082900	0.327800	0.582700
H461	H46	0.114400	0.405400	0.511000
H471	H47	0.119500	0.405500	0.446600
H481	H48	0.093400	0.328000	0.453800
H491	H49	0.824800	0.034600	0.587400
H501	H50	0.818200	0.057000	0.517200
H511	H51	0.881700	0.120600	0.453500
H521	H52	0.951900	0.161900	0.459800
H531	H53	0.095900	0.187300	0.732400
H541	H54	0.135900	0.157400	0.772700
H551	H55	0.140300	0.096000	0.771900
H561	H56	0.105000	0.064600	0.731000
H571	H57	0.820800	0.048400	0.733800
H581	H58	0.812100	0.078500	0.774200
H591	H59	0.875000	0.143900	0.773500
H601	H60	0.946700	0.179200	0.732300
H611	H61	0.828000	0.903100	0.748100
H621	H62	0.823500	0.826800	0.792900
H631	H63	0.889000	0.829700	0.791500
H641	H64	0.958800	0.908700	0.745500
H651	H65	0.132000	0.769000	0.844800
H661	H66	0.109800	0.824900	0.819300
H671	H67	0.170000	0.885700	0.691100
H681	H68	0.192000	0.829600	0.716800
H691	H69	0.058900	0.840900	0.775400
H701	H70	0.037300	0.896900	0.749800
H711	H71	0.164100	0.016600	0.668100
H721	H72	0.185700	0.960600	0.693700
H731	H73	0.728800	0.875800	0.731200
H741	H74	0.651200	0.824700	0.754700
H751	H75	0.651500	0.950900	0.702800
H761	H76	0.729100	0.002100	0.679200
H771	H77	0.510600	0.850300	0.719300
H781	H78	0.588600	0.902200	0.694000
H791	H79	0.588000	0.790200	0.803000
H801	H80	0.509900	0.738100	0.828400
C11	C1	0.163730	0.636400	0.943470
C21	C2	0.167120	0.601100	0.981980
C31	C3	0.147400	0.585900	0.024900
C41	C4	0.124300	0.606000	0.029300
C51	C5	0.120900	0.641300	0.990800
C61	C6	0.140600	0.656500	0.947900
C71	C7	0.303900	0.781200	0.791100
C81	C8	0.342600	0.781200	0.788000
C91	C9	0.384850	0.827800	0.757150
C101	C10	0.388500	0.874500	0.729400
C111	C11	0.349700	0.874600	0.732500
C121	C12	0.307510	0.828000	0.763290
C131	C13	0.150240	0.622800	0.807360
C141	C14	0.150300	0.584900	0.807400
C151	C15	0.121900	0.560300	0.790200
C161	C16	0.093460	0.573700	0.772840
C171	C17	0.093400	0.611600	0.772800
C181	C18	0.121790	0.636200	0.790010
C191	C19	0.314200	0.607000	0.972200
C201	C20	0.351400	0.643800	0.932800
C211	C21	0.394800	0.662700	0.935100
C221	C22	0.401000	0.644700	0.976900
C231	C23	0.363800	0.608100	0.016300
C241	C24	0.320440	0.589200	0.013960
C251	C25	0.343340	0.634900	0.791760
C261	C26	0.304600	0.595730	0.793270
C271	C27	0.308200	0.574700	0.771500
C281	C28	0.350320	0.592700	0.748180
C291	C29	0.389040	0.631800	0.746760
C301	C30	0.385500	0.652800	0.768500
C311	C31	0.172440	0.453240	0.981940
C321	C32	0.171520	0.451520	0.944520
C331	C33	0.151790	0.404190	0.950060
C341	C34	0.132970	0.358590	0.993020
C351	C35	0.133890	0.360340	0.030430
C361	C36	0.153610	0.407620	0.024910
C371	C37	0.077130	0.293840	0.370310
C381	C38	0.106400	0.292460	0.347140
C391	C39	0.124610	0.325900	0.300490
C401	C40	0.113500	0.360800	0.276900
C411	C41	0.084280	0.362200	0.300120
C421	C42	0.066090	0.328700	0.346810
C431	C43	0.132380	0.395350	0.228990
C441	C44	0.130100	0.376400	0.203700
C451	C45	0.148300	0.409800	0.157500
C461	C46	0.168720	0.462200	0.136480
C471	C47	0.170960	0.481100	0.161740
C481	C48	0.152760	0.447700	0.207940
C491	C49	0.058640	0.259750	0.418310
C501	C50	0.187020	0.496400	0.088580
C511	C51	0.146760	0.443700	0.792540
C521	C52	0.116500	0.391100	0.822000
C531	C53	0.100130	0.360700	0.806370
C541	C54	0.113920	0.382900	0.761180
C551	C55	0.144200	0.435600	0.731600
C561	C56	0.160560	0.466000	0.747240
C571	C57	0.065500	0.289200	0.713500
C581	C58	0.074400	0.338100	0.688100
C591	C59	0.090200	0.369200	0.703600
C601	C60	0.097300	0.351300	0.744600
C611	C61	0.088400	0.302300	0.770100
C621	C62	0.072600	0.271300	0.754500
C631	C63	0.049290	0.257500	0.697410
C641	C64	0.164140	0.475400	0.809060
C651	C65	0.079870	0.136400	0.527330
C661	C66	0.083080	0.101100	0.566020
C671	C67	0.110800	0.085900	0.561500
C681	C68	0.135300	0.106000	0.518300
C691	C69	0.132100	0.141300	0.479600
C701	C70	0.104400	0.156500	0.484100
C711	C71	0.072300	0.281200	0.522700
C721	C72	0.069200	0.281200	0.561400
C731	C73	0.084950	0.327800	0.557050
C741	C74	0.103900	0.374500	0.514000
C751	C75	0.107100	0.374600	0.475100
C761	C76	0.091290	0.328000	0.479510
C771	C77	0.930160	0.122800	0.527440
C781	C78	0.892300	0.084900	0.565400
C791	C79	0.850500	0.060300	0.561600
C801	C80	0.846540	0.073700	0.519760
C811	C81	0.884400	0.111600	0.481800
C821	C82	0.926210	0.136200	0.485590
C831	C83	0.079200	0.107000	0.707200
C841	C84	0.076600	0.143800	0.707600
C851	C85	0.097800	0.162700	0.732100
C861	C86	0.121600	0.144700	0.756300
C871	C87	0.124400	0.108100	0.755700
C881	C88	0.103160	0.089200	0.731240
C891	C89	0.926660	0.134900	0.708440
C901	C90	0.889000	0.095730	0.708870
C911	C91	0.846200	0.074700	0.733500
C921	C92	0.840880	0.092700	0.757620
C931	C93	0.878560	0.131800	0.757240
C941	C94	0.921300	0.152800	0.732700
C951	C95	0.935180	0.953240	0.719200
C961	C96	0.896040	0.951520	0.720000
C971	C97	0.854250	0.904190	0.747600
C981	C98	0.851610	0.858590	0.774380
C991	C99	0.890770	0.860340	0.773550
C1001	C100	0.932530	0.907620	0.745990
C1011	C101	0.164150	0.793840	0.783290
C1021	C102	0.139600	0.792460	0.813940
C1031	C103	0.126390	0.825900	0.798710
C1041	C104	0.137700	0.860800	0.752700
C1051	C105	0.162320	0.862200	0.722080
C1061	C106	0.175510	0.828700	0.737390
C1071	C107	0.124340	0.895350	0.737030
C1081	C108	0.080100	0.876400	0.753700
C1091	C109	0.067300	0.909800	0.738500
C1101	C110	0.098680	0.962200	0.706520
C1111	C111	0.142840	0.981100	0.689860
C1121	C112	0.155640	0.947700	0.705060
C1131	C113	0.178060	0.759750	0.798890
C1141	C114	0.084980	0.996400	0.690620
C1151	C115	0.736240	0.943700	0.703060
C1161	C116	0.713100	0.891100	0.725400
C1171	C117	0.667070	0.860700	0.739430
C1181	C118	0.644080	0.882900	0.731020
C1191	C119	0.667200	0.935600	0.708600
C1201	C120	0.713240	0.966000	0.694560
C1211	C121	0.502700	0.789200	0.776300
C1221	C122	0.526200	0.838100	0.736300
C1231	C123	0.572800	0.869200	0.721000
C1241	C124	0.595900	0.851300	0.746000
C1251	C125	0.572400	0.802300	0.786100
C1261	C126	0.525800	0.771300	0.801300
C1271	C127	0.454910	0.757500	0.791790
C1281	C128	0.784460	0.975400	0.688740
N11	N1	0.187000	0.646100	0.907300
N21	N2	0.202820	0.616700	0.921080
N31	N3	0.191680	0.590300	0.966220
N41	N4	0.268040	0.729900	0.818060
N51	N5	0.285690	0.703150	0.831840
N61	N6	0.329530	0.731400	0.815070
N71	N7	0.180590	0.640000	0.825210
N81	N8	0.196610	0.611090	0.838840
N91	N9	0.181050	0.578490	0.826300
N101	N10	0.334840	0.650500	0.899660
N111	N11	0.290820	0.622410	0.916830
N121	N12	0.277050	0.593700	0.961650
N131	N13	0.330780	0.647690	0.815930
N141	N14	0.285710	0.617370	0.832120
N151	N15	0.270260	0.586410	0.819930
N161	N16	0.193450	0.502540	0.966710
N171	N17	0.205340	0.530400	0.922460
N181	N18	0.191960	0.501010	0.908210
N191	N19	0.053400	0.146100	0.540900
N201	N20	0.037780	0.116700	0.586120
N211	N21	0.056520	0.090300	0.601380
N221	N22	0.047960	0.229900	0.538140
N231	N23	0.034990	0.203150	0.582540
N241	N24	0.046470	0.231400	0.598130
N251	N25	0.965210	0.140000	0.540590
N261	N26	0.949930	0.111090	0.585520
N271	N27	0.904790	0.078490	0.602560
N281	N28	0.050160	0.150500	0.684340
N291	N29	0.039240	0.122410	0.668410
N301	N30	0.055350	0.093700	0.683350
N311	N31	0.963620	0.147690	0.683090
N321	N32	0.949490	0.117370	0.668340
N331	N33	0.906340	0.086410	0.683850
N341	N34	0.969250	0.002540	0.690910
N351	N35	0.952860	0.030400	0.674940
N361	N36	0.909220	0.001010	0.690950
O11	O1	0.027170	0.254900	0.439530
O21	O2	0.072750	0.233500	0.441350
O31	O3	0.181700	0.481200	0.063500
O41	O4	0.210500	0.545400	0.067700
O51	O5	0.199260	0.520900	0.784840
O61	O6	0.145530	0.459400	0.847870
O71	O7	0.043100	0.213900	0.717400
O81	O8	0.039800	0.271600	0.661600
O91	O9	0.194430	0.754900	0.772270
O101	O10	0.174850	0.733500	0.839250
O111	O11	0.044700	0.981200	0.700500
O121	O12	0.113100	0.045400	0.665100
O131	O13	0.805740	0.020900	0.678360
O141	O14	0.807270	0.959400	0.686130
O151	O15	0.431300	0.713900	0.829200
O161	O16	0.433200	0.771600	0.768200
Zn111	Zn11	0.225560	0.335200	0.101100
Zn121	Zn12	0.220860	0.326750	0.942910
Zn131	Zn13	0.063700	0.164800	0.109640
Zn141	Zn14	0.230340	0.173250	0.105890
Zn151	Zn15	0.390360	0.826660	0.274440
Zn161	Zn16	0.394110	0.663770	0.279140
Zn171	Zn17	0.398900	0.673340	0.436300
Zn181	Zn18	0.557090	0.836230	0.269660
Zn191	Zn19	0.185210	0.250000	0.064790
Zn201	Zn20	0.435210	0.750000	0.314790
H811	H81	0.276200	0.458800	0.891800
H821	H82	0.308100	0.537900	0.882600
H831	H83	0.308300	0.540600	0.945300
H841	H84	0.276400	0.464100	0.017300
H851	H85	0.136600	0.303500	0.898700
H861	H86	0.064500	0.267300	0.893200
H871	H87	0.001200	0.202900	0.958500
H881	H88	0.009900	0.174800	0.029100
H891	H89	0.285800	0.519100	0.280500
H901	H90	0.261200	0.469400	0.252800
H911	H91	0.376200	0.575700	0.149300
H921	H92	0.400800	0.625400	0.177000
H931	H93	0.348000	0.543400	0.119600
H941	H94	0.324400	0.494400	0.091200
H951	H95	0.226700	0.372100	0.208600
H961	H96	0.250200	0.421100	0.237100
H971	H97	0.287100	0.311700	0.896600
H981	H98	0.328900	0.285200	0.882500
H991	H99	0.017700	0.187900	0.168800
H1001	H100	0.006200	0.213300	0.212500
H1011	H101	0.149400	0.041200	0.182600
H1021	H102	0.079500	0.962100	0.229800
H1031	H103	0.014100	0.959400	0.232300
H1041	H104	0.018600	0.035900	0.187700
H1051	H105	0.297800	0.196500	0.166900
H1061	H106	0.339500	0.232700	0.202800
H1071	H107	0.338600	0.297100	0.201700
H1081	H108	0.296100	0.325200	0.164900
H1091	H109	0.700400	0.980900	0.233300
H1101	H110	0.777800	0.030600	0.208200
H1111	H111	0.775000	0.924300	0.199500
H1121	H112	0.697600	0.874600	0.224600
H1131	H113	0.837000	0.956600	0.195400
H1141	H114	0.914400	0.005600	0.170000
H1151	H115	0.919300	0.127900	0.145400
H1161	H116	0.841800	0.078900	0.170900
H1171	H117	0.291700	0.188300	0.024600
H1181	H118	0.332300	0.214800	0.956300
H1191	H119	0.143300	0.312100	0.170200
H1201	H120	0.074200	0.286700	0.207100
H1211	H121	0.317400	0.668000	0.223800
H1221	H122	0.270200	0.690700	0.191900
H1231	H123	0.267700	0.753600	0.191700
H1241	H124	0.312300	0.793700	0.223600
H1251	H125	0.333100	0.535300	0.363400
H1261	H126	0.297200	0.457700	0.435500
H1271	H127	0.298300	0.459700	0.498800
H1281	H128	0.335100	0.539000	0.490100
H1291	H129	0.266700	0.066300	0.214200
H1301	H130	0.291800	0.014000	0.238800
H1311	H131	0.300500	0.025500	0.123800
H1321	H132	0.275400	0.077800	0.099200
H1331	H133	0.304600	0.967600	0.152000
H1341	H134	0.330000	0.915600	0.175600
H1351	H135	0.354600	0.935300	0.273300
H1361	H136	0.329100	0.987300	0.249800
H1371	H137	0.475400	0.683700	0.212900
H1381	H138	0.543700	0.711400	0.171100
H1391	H139	0.329800	0.686500	0.482300
H1401	H140	0.292900	0.718700	0.493800
H1411	H141	0.608200	0.832000	0.350600
H1421	H142	0.617400	0.809300	0.420500
H1431	H143	0.554700	0.746400	0.485900
H1441	H144	0.482700	0.706300	0.481400
H1451	H145	0.601300	0.964700	0.202200
H1461	H146	0.606800	0.042300	0.160500
H1471	H147	0.541500	0.040300	0.161400
H1481	H148	0.470900	0.961000	0.203900
H1491	H149	0.219500	0.433700	0.799600
H1501	H150	0.247200	0.486000	0.722200
H1511	H151	0.350700	0.474500	0.725000
H1521	H152	0.323000	0.422200	0.802400
H1531	H153	0.380400	0.532400	0.663000
H1541	H154	0.408800	0.584400	0.585600
H1551	H155	0.291400	0.564700	0.580700
H1561	H156	0.262900	0.512700	0.658200
H1571	H157	0.603400	0.816300	0.208300
H1581	H158	0.617500	0.788600	0.167700
H1591	H159	0.331200	0.813500	0.356700
H1601	H160	0.287500	0.781300	0.425800
C1291	C129	0.257360	0.415740	0.997600
C1301	C130	0.257290	0.414170	0.960040
C1311	C131	0.276300	0.459890	0.916930
C1321	C132	0.295360	0.507230	0.911430
C1331	C133	0.295430	0.508790	0.949040
C1341	C134	0.276420	0.463050	0.992150
C1351	C135	0.116470	0.260900	0.967230
C1361	C136	0.111220	0.277800	0.924780
C1371	C137	0.068000	0.256000	0.921600
C1381	C138	0.030100	0.217500	0.960600
C1391	C139	0.035240	0.200600	0.002960
C1401	C140	0.078420	0.222300	0.006280
C1411	C141	0.345600	0.576800	0.231400
C1421	C142	0.304170	0.530600	0.253830
C1431	C143	0.289620	0.501200	0.237380
C1441	C144	0.316400	0.517900	0.198500
C1451	C145	0.357820	0.564200	0.175980
C1461	C146	0.372370	0.593600	0.192430
C1471	C147	0.301250	0.486700	0.181050
C1481	C148	0.323300	0.508500	0.137800
C1491	C149	0.309360	0.479500	0.120940
C1501	C150	0.273370	0.428700	0.147330
C1511	C151	0.251300	0.406900	0.190600
C1521	C152	0.265260	0.435900	0.207440
C1531	C153	0.361440	0.608100	0.248660
C1541	C154	0.259200	0.398900	0.129300
C1551	C155	0.265940	0.268540	0.964000
C1561	C156	0.288900	0.286800	0.921300
C1571	C157	0.314300	0.271900	0.911800
C1581	C158	0.085130	0.230650	0.145820
C1591	C159	0.043080	0.212790	0.169910
C1601	C160	0.035260	0.228600	0.195340
C1611	C161	0.086660	0.084260	0.158380
C1621	C162	0.125790	0.085830	0.156880
C1631	C163	0.123180	0.040110	0.183590
C1641	C164	0.081340	0.992770	0.211870
C1651	C165	0.042170	0.991210	0.213360
C1661	C166	0.044800	0.036950	0.186630
C1671	C167	0.271870	0.239100	0.144430
C1681	C168	0.297420	0.222200	0.166580
C1691	C169	0.322400	0.244000	0.188000
C1701	C170	0.321900	0.282500	0.187400
C1711	C171	0.296440	0.299400	0.165360
C1721	C172	0.271420	0.277700	0.143880
C1731	C173	0.691800	0.923200	0.231200
C1741	C174	0.715570	0.969400	0.226430
C1751	C175	0.761420	0.998800	0.211580
C1761	C176	0.783600	0.982100	0.201500
C1771	C177	0.759820	0.935800	0.206380
C1781	C178	0.713970	0.906400	0.221230
C1791	C179	0.832250	0.013300	0.185450
C1801	C180	0.853700	0.991500	0.185200
C1811	C181	0.899560	0.020500	0.170140
C1821	C182	0.923970	0.071300	0.155330
C1831	C183	0.902500	0.093100	0.155600
C1841	C184	0.856660	0.064100	0.170640
C1851	C185	0.643240	0.891900	0.246660
C1861	C186	0.971800	0.101100	0.139700
C1871	C187	0.267460	0.231460	0.002600
C1881	C188	0.291900	0.213200	0.997900
C1891	C189	0.316300	0.228100	0.957600
C1901	C190	0.123530	0.269350	0.145520
C1911	C191	0.117300	0.287210	0.169710
C1921	C192	0.076060	0.271400	0.193340
C1931	C193	0.341620	0.754960	0.242640
C1941	C194	0.343120	0.717330	0.242710
C1951	C195	0.316410	0.693230	0.223700
C1961	C196	0.288130	0.706790	0.204640
C1971	C197	0.286640	0.744470	0.204570
C1981	C198	0.313370	0.768570	0.223580
C1991	C199	0.355570	0.583700	0.383530
C2001	C200	0.333420	0.536000	0.388780
C2011	C201	0.312000	0.489600	0.432000
C2021	C202	0.312600	0.490700	0.469900
C2031	C203	0.334640	0.538200	0.464760
C2041	C204	0.356120	0.584700	0.421580
C2051	C205	0.268800	0.077000	0.154400
C2061	C206	0.273570	0.058000	0.195830
C2071	C207	0.288420	0.027000	0.210380
C2081	C208	0.298500	0.014900	0.183600
C2091	C209	0.293620	0.033800	0.142180
C2101	C210	0.278770	0.064800	0.127630
C2111	C211	0.314550	0.982300	0.198750
C2121	C212	0.314800	0.961100	0.176700
C2131	C213	0.329860	0.930300	0.190640
C2141	C214	0.344670	0.920700	0.226630
C2151	C215	0.344400	0.941900	0.248700
C2161	C216	0.329360	0.972700	0.234740
C2171	C217	0.253340	0.110100	0.138560
C2181	C218	0.360300	0.888500	0.240800
C2191	C219	0.497400	0.729940	0.234060
C2201	C220	0.502100	0.710200	0.211100
C2211	C221	0.542400	0.726100	0.185700
C2221	C222	0.354480	0.730950	0.414870
C2231	C223	0.330290	0.712990	0.456920
C2241	C224	0.306660	0.730600	0.464740
C2251	C225	0.502400	0.745040	0.413340
C2261	C226	0.539960	0.782670	0.374210
C2271	C227	0.583070	0.806770	0.376820
C2281	C228	0.588570	0.793210	0.418660
C2291	C229	0.550960	0.755530	0.457830
C2301	C230	0.507850	0.731430	0.455200
C2311	C231	0.532770	0.916300	0.228130
C2321	C232	0.575220	0.964000	0.202580
C2331	C233	0.578400	0.010400	0.177600
C2341	C234	0.539400	0.009300	0.178100
C2351	C235	0.497040	0.961800	0.203560
C2361	C236	0.493720	0.915300	0.228580
C2371	C237	0.268600	0.423000	0.808200
C2381	C238	0.246170	0.442000	0.784430
C2391	C239	0.262620	0.473000	0.738580
C2401	C240	0.301500	0.485100	0.716400
C2411	C241	0.324020	0.466200	0.740180
C2421	C242	0.307570	0.435200	0.786030
C2431	C243	0.318950	0.517700	0.667750
C2441	C244	0.362200	0.538900	0.646300
C2451	C245	0.379060	0.569700	0.600440
C2461	C246	0.352670	0.579300	0.576030
C2471	C247	0.309400	0.558100	0.597500
C2481	C248	0.292560	0.527300	0.643340
C2491	C249	0.251340	0.389900	0.856760
C2501	C250	0.370700	0.611500	0.528200
C2511	C251	0.536000	0.770060	0.232540
C2521	C252	0.578700	0.789800	0.208100
C2531	C253	0.588200	0.773900	0.183700
C2541	C254	0.354180	0.769050	0.376470
C2551	C255	0.330090	0.787010	0.382700
C2561	C256	0.304660	0.769400	0.423940
N371	N37	0.237410	0.366210	0.034180
N381	N38	0.224800	0.335620	0.020100
N391	N39	0.236630	0.363460	0.974290
N401	N40	0.153330	0.274700	0.979970
N411	N41	0.139190	0.246040	0.024210
N421	N42	0.095550	0.213500	0.041950
N431	N43	0.241410	0.279700	0.976690
N441	N44	0.098800	0.221280	0.121760
N451	N45	0.099610	0.133790	0.128800
N461	N46	0.144280	0.164380	0.110820
N471	N47	0.162250	0.136540	0.126830
N481	N48	0.245330	0.225300	0.121370
N491	N49	0.229750	0.253960	0.106850
N501	N50	0.244550	0.286500	0.117950
N511	N51	0.243610	0.220300	0.038290
N521	N52	0.156960	0.278720	0.122480
N531	N53	0.371200	0.771590	0.262590
N541	N54	0.389180	0.744900	0.275200
N551	N55	0.373170	0.710920	0.263370
N561	N56	0.378630	0.633300	0.346670
N571	N57	0.393150	0.663400	0.360810
N581	N58	0.382050	0.637500	0.404450
N591	N59	0.461710	0.718100	0.258590
N601	N60	0.377520	0.720560	0.401200
N611	N61	0.465820	0.728410	0.400390
N621	N62	0.479900	0.755100	0.355720
N631	N63	0.525710	0.789080	0.337750
N641	N64	0.520030	0.866700	0.254670
N651	N65	0.475790	0.836600	0.270250
N661	N66	0.458050	0.862500	0.255450
N671	N67	0.523310	0.781900	0.256390
N681	N68	0.378240	0.779440	0.343040
N691	N69	0.228470	0.250000	0.021530
N701	N70	0.142500	0.250000	0.107500
N711	N71	0.478470	0.750000	0.271530
N721	N72	0.392500	0.750000	0.357500
O171	O17	0.340350	0.592200	0.286450
O181	O18	0.246600	0.391600	0.109400
O191	O19	0.230200	0.336700	0.166900
O201	O20	0.397500	0.652900	0.226000
O211	O21	0.621350	0.907800	0.251850
O221	O22	0.999000	0.108400	0.145000
O231	O23	0.996400	0.163300	0.106500
O241	O24	0.621100	0.847100	0.255400
O251	O25	0.248150	0.126800	0.159650
O261	O26	0.355000	0.856000	0.253400
O271	O27	0.393500	0.897100	0.269800
O281	O28	0.244600	0.123500	0.102500
O291	O29	0.213550	0.373200	0.878650
O301	O30	0.390600	0.644000	0.501000
O311	O31	0.333100	0.602900	0.503600
O321	O32	0.274000	0.376500	0.878900
Zn211	Zn21	0.005660	0.883590	0.372250
Zn221	Zn22	0.127070	0.968080	0.330290
Zn231	Zn23	0.967770	0.798360	0.335350
Zn241	Zn24	0.961010	0.959960	0.330570
Zn251	Zn25	0.967470	0.806430	0.493960
Zn261	Zn26	0.755840	0.383590	0.122070
Zn271	Zn27	0.798370	0.468080	0.158990
Zn281	Zn28	0.633710	0.298360	0.169410
Zn291	Zn29	0.790530	0.459960	0.001050
Zn301	Zn30	0.800390	0.306430	0.161040
H1611	H161	0.887200	0.937600	0.412800
H1621	H162	0.846300	0.904100	0.484600
H1631	H163	0.851600	0.845400	0.549000
H1641	H164	0.897700	0.820000	0.541500
H1651	H165	0.917100	0.672200	0.417300
H1661	H166	0.885600	0.594600	0.489000
H1671	H167	0.880500	0.594500	0.553400
H1681	H168	0.906600	0.672000	0.546200
H1691	H169	0.175200	0.965400	0.412600
H1701	H170	0.181800	0.943000	0.482800
H1711	H171	0.118300	0.879400	0.546500
H1721	H172	0.048100	0.838100	0.540200
H1731	H173	0.904100	0.812700	0.267600
H1741	H174	0.864100	0.842600	0.227300
H1751	H175	0.859700	0.904000	0.228100
H1761	H176	0.895000	0.935400	0.269000
H1771	H177	0.179200	0.951600	0.266200
H1781	H178	0.187900	0.921500	0.225800
H1791	H179	0.125000	0.856100	0.226500
H1801	H180	0.053300	0.820800	0.267700
H1811	H181	0.172000	0.096900	0.251900
H1821	H182	0.176500	0.173200	0.207100
H1831	H183	0.111000	0.170300	0.208500
H1841	H184	0.041200	0.091300	0.254500
H1851	H185	0.868000	0.231000	0.155200
H1861	H186	0.890200	0.175100	0.180700
H1871	H187	0.830000	0.114300	0.308900
H1881	H188	0.808000	0.170400	0.283200
H1891	H189	0.941100	0.159100	0.224600
H1901	H190	0.962700	0.103100	0.250200
H1911	H191	0.835900	0.983400	0.331900
H1921	H192	0.814300	0.039400	0.306300
H1931	H193	0.271200	0.124200	0.268800
H1941	H194	0.348800	0.175300	0.245300
H1951	H195	0.348500	0.049100	0.297200
H1961	H196	0.270900	0.997900	0.320800
H1971	H197	0.489400	0.149700	0.280700
H1981	H198	0.411400	0.097800	0.306000
H1991	H199	0.412000	0.209800	0.197000
H2001	H200	0.490100	0.261900	0.171600
H2011	H201	0.850400	0.437600	0.949600
H2021	H202	0.888700	0.404100	0.942200
H2031	H203	0.894400	0.345400	0.006200
H2041	H204	0.861500	0.320000	0.077700
H2051	H205	0.589500	0.172200	0.244900
H2061	H206	0.583600	0.094600	0.291000
H2071	H207	0.647900	0.094500	0.286000
H2081	H208	0.718200	0.172000	0.234600
H2091	H209	0.878000	0.465400	0.209800
H2101	H210	0.925800	0.443000	0.238800
H2111	H211	0.925900	0.379400	0.238900
H2121	H212	0.878300	0.338100	0.210000
H2131	H213	0.580300	0.312700	0.091400
H2141	H214	0.569900	0.342600	0.021500
H2151	H215	0.632100	0.404000	0.955700
H2161	H216	0.704400	0.435400	0.959600
H2171	H217	0.717800	0.451600	0.227600
H2181	H218	0.647300	0.421500	0.266400
H2191	H219	0.582600	0.356100	0.268900
H2201	H220	0.588500	0.320800	0.232500
H2211	H221	0.848800	0.596900	0.075100
H2221	H222	0.880300	0.673200	0.003300
H2231	H223	0.878800	0.670300	0.940700
H2241	H224	0.845800	0.591300	0.949900
H2251	H225	0.886200	0.731000	0.637000
H2261	H226	0.855800	0.675100	0.715100
H2271	H227	0.923200	0.614300	0.715700
H2281	H228	0.953600	0.670400	0.637600
H2291	H229	0.883700	0.659100	0.782000
H2301	H230	0.853300	0.603100	0.859600
H2311	H231	0.815300	0.483400	0.852500
H2321	H232	0.845700	0.539400	0.774900
H2331	H233	0.893000	0.624200	0.147000
H2341	H234	0.920600	0.675300	0.173500
H2351	H235	0.846300	0.549100	0.299400
H2361	H236	0.818700	0.497900	0.273000
H2371	H237	0.930400	0.649700	0.339700
H2381	H238	0.903800	0.597800	0.313600
H2391	H239	0.906800	0.709800	0.202200
H2401	H240	0.933500	0.761900	0.228200
C2571	C257	0.920130	0.863600	0.472670
C2581	C258	0.916920	0.898900	0.433980
C2591	C259	0.889200	0.914100	0.438500
C2601	C260	0.864700	0.894000	0.481700
C2611	C261	0.867900	0.858700	0.520400
C2621	C262	0.895600	0.843500	0.515900
C2631	C263	0.927700	0.718800	0.477300
C2641	C264	0.930800	0.718800	0.438600
C2651	C265	0.915050	0.672200	0.442950
C2661	C266	0.896100	0.625500	0.486000
C2671	C267	0.892900	0.625400	0.524900
C2681	C268	0.908710	0.672000	0.520490
C2691	C269	0.069840	0.877200	0.472560
C2701	C270	0.107700	0.915100	0.434600
C2711	C271	0.149500	0.939700	0.438400
C2721	C272	0.153460	0.926300	0.480240
C2731	C273	0.115600	0.888400	0.518200
C2741	C274	0.073790	0.863800	0.514410
C2751	C275	0.920800	0.893000	0.292800
C2761	C276	0.923400	0.856200	0.292400
C2771	C277	0.902200	0.837300	0.267900
C2781	C278	0.878400	0.855300	0.243700
C2791	C279	0.875600	0.891900	0.244300
C2801	C280	0.896840	0.910800	0.268760
C2811	C281	0.073340	0.865100	0.291560
C2821	C282	0.111000	0.904270	0.291130
C2831	C283	0.153800	0.925300	0.266500
C2841	C284	0.159120	0.907300	0.242380
C2851	C285	0.121440	0.868200	0.242760
C2861	C286	0.078700	0.847200	0.267300
C2871	C287	0.064820	0.046760	0.280800
C2881	C288	0.103960	0.048480	0.280000
C2891	C289	0.145750	0.095810	0.252400
C2901	C290	0.148390	0.141410	0.225620
C2911	C291	0.109230	0.139660	0.226450
C2921	C292	0.067470	0.092380	0.254010
C2931	C293	0.835850	0.206160	0.216710
C2941	C294	0.860400	0.207540	0.186060
C2951	C295	0.873610	0.174100	0.201290
C2961	C296	0.862300	0.139200	0.247300
C2971	C297	0.837680	0.137800	0.277920
C2981	C298	0.824490	0.171300	0.262610
C2991	C299	0.875660	0.104650	0.262970
C3001	C300	0.919900	0.123600	0.246300
C3011	C301	0.932700	0.090200	0.261500
C3021	C302	0.901320	0.037800	0.293480
C3031	C303	0.857160	0.018900	0.310140
C3041	C304	0.844360	0.052300	0.294940
C3051	C305	0.821940	0.240250	0.201110
C3061	C306	0.915020	0.003600	0.309380
C3071	C307	0.263760	0.056300	0.296940
C3081	C308	0.286900	0.108900	0.274600
C3091	C309	0.332930	0.139300	0.260570
C3101	C310	0.355920	0.117100	0.268980
C3111	C311	0.332800	0.064400	0.291400
C3121	C312	0.286760	0.034000	0.305440
C3131	C313	0.497300	0.210800	0.223700
C3141	C314	0.473800	0.161900	0.263700
C3151	C315	0.427200	0.130800	0.279000
C3161	C316	0.404100	0.148700	0.254000
C3171	C317	0.427600	0.197700	0.213900
C3181	C318	0.474200	0.228700	0.198700
C3191	C319	0.545090	0.242500	0.208210
C3201	C320	0.215540	0.024600	0.311260
C3211	C321	0.836270	0.363600	0.056530
C3221	C322	0.832880	0.398900	0.018020
C3231	C323	0.852600	0.414100	0.975100
C3241	C324	0.875700	0.394000	0.970700
C3251	C325	0.879100	0.358700	0.009200
C3261	C326	0.859400	0.343500	0.052100
C3271	C327	0.696100	0.218800	0.208900
C3281	C328	0.657400	0.218800	0.212000
C3291	C329	0.615150	0.172200	0.242850
C3301	C330	0.611500	0.125500	0.270600
C3311	C331	0.650300	0.125400	0.267500
C3321	C332	0.692490	0.172000	0.236710
C3331	C333	0.849760	0.377200	0.192640
C3341	C334	0.849700	0.415100	0.192600
C3351	C335	0.878100	0.439700	0.209800
C3361	C336	0.906540	0.426300	0.227160
C3371	C337	0.906600	0.388400	0.227200
C3381	C338	0.878210	0.363800	0.209990
C3391	C339	0.685800	0.393000	0.027800
C3401	C340	0.648600	0.356200	0.067200
C3411	C341	0.605200	0.337300	0.064900
C3421	C342	0.599000	0.355300	0.023100
C3431	C343	0.636200	0.391900	0.983700
C3441	C344	0.679560	0.410800	0.986040
C3451	C345	0.656660	0.365100	0.208240
C3461	C346	0.695400	0.404270	0.206730
C3471	C347	0.691800	0.425300	0.228500
C3481	C348	0.649680	0.407300	0.251820
C3491	C349	0.610960	0.368200	0.253240
C3501	C350	0.614500	0.347200	0.231500
C3511	C351	0.827560	0.546760	0.018060
C3521	C352	0.828480	0.548480	0.055480
C3531	C353	0.848210	0.595810	0.049940
C3541	C354	0.867030	0.641410	0.006980
C3551	C355	0.866110	0.639660	0.969570
C3561	C356	0.846390	0.592380	0.975090
C3571	C357	0.922870	0.706160	0.629690
C3581	C358	0.893600	0.707540	0.652860
C3591	C359	0.875390	0.674100	0.699510
C3601	C360	0.886500	0.639200	0.723100
C3611	C361	0.915720	0.637800	0.699880
C3621	C362	0.933910	0.671300	0.653190
C3631	C363	0.867620	0.604650	0.771010
C3641	C364	0.869900	0.623600	0.796300
C3651	C365	0.851700	0.590200	0.842500
C3661	C366	0.831280	0.537800	0.863520
C3671	C367	0.829040	0.518900	0.838260
C3681	C368	0.847240	0.552300	0.792060
C3691	C369	0.941360	0.740250	0.581690
C3701	C370	0.812980	0.503600	0.911420
C3711	C371	0.853240	0.556300	0.207460
C3721	C372	0.883500	0.608900	0.178000
C3731	C373	0.899870	0.639300	0.193630
C3741	C374	0.886080	0.617100	0.238820
C3751	C375	0.855800	0.564400	0.268400
C3761	C376	0.839440	0.534000	0.252760
C3771	C377	0.934500	0.710800	0.286500
C3781	C378	0.925600	0.661900	0.311900
C3791	C379	0.909800	0.630800	0.296400
C3801	C380	0.902700	0.648700	0.255400
C3811	C381	0.911600	0.697700	0.229900
C3821	C382	0.927400	0.728700	0.245500
C3831	C383	0.950710	0.742500	0.302590
C3841	C384	0.835860	0.524600	0.190940
N731	N73	0.946600	0.853900	0.459100
N741	N74	0.962220	0.883300	0.413880
N751	N75	0.943480	0.909700	0.398620
N761	N76	0.952040	0.770100	0.461860
N771	N77	0.965010	0.796850	0.417460
N781	N78	0.953530	0.768600	0.401870
N791	N79	0.034790	0.860000	0.459410
N801	N80	0.050070	0.888910	0.414480
N811	N81	0.095210	0.921510	0.397440
N821	N82	0.949840	0.849500	0.315660
N831	N83	0.960760	0.877590	0.331590
N841	N84	0.944650	0.906300	0.316650
N851	N85	0.036380	0.852310	0.316910
N861	N86	0.050510	0.882630	0.331660
N871	N87	0.093660	0.913590	0.316150
N881	N88	0.030750	0.997460	0.309090
N891	N89	0.047140	0.969600	0.325060
N901	N90	0.090780	0.998990	0.309050
N911	N91	0.813000	0.353900	0.092700
N921	N92	0.797180	0.383300	0.078920
N931	N93	0.808320	0.409700	0.033780
N941	N94	0.731960	0.270100	0.181940
N951	N95	0.714310	0.296850	0.168160
N961	N96	0.670470	0.268600	0.184930
N971	N97	0.819410	0.360000	0.174790
N981	N98	0.803390	0.388910	0.161160
N991	N99	0.818950	0.421510	0.173700
N1001	N100	0.665160	0.349500	0.100340
N1011	N101	0.709180	0.377590	0.083170
N1021	N102	0.722950	0.406300	0.038350
N1031	N103	0.669220	0.352310	0.184070
N1041	N104	0.714290	0.382630	0.167880
N1051	N105	0.729740	0.413590	0.180070
N1061	N106	0.806550	0.497460	0.033290
N1071	N107	0.794660	0.469600	0.077540
N1081	N108	0.808040	0.498990	0.091790
O331	O33	0.805570	0.245100	0.227730
O341	O34	0.825150	0.266500	0.160750
O351	O35	0.955300	0.018800	0.299500
O361	O36	0.886900	0.954600	0.334900
O371	O37	0.194260	0.979100	0.321640
O381	O38	0.192730	0.040600	0.313870
O391	O39	0.568700	0.286100	0.170800
O401	O40	0.566800	0.228400	0.231800
O411	O41	0.972830	0.745100	0.560470
O421	O42	0.927250	0.766500	0.558650
O431	O43	0.818300	0.518800	0.936500
O441	O44	0.789500	0.454600	0.932300
O451	O45	0.800740	0.479100	0.215160
O461	O46	0.854470	0.540600	0.152130
O471	O47	0.956900	0.786100	0.282600
O481	O48	0.960200	0.728400	0.338400
Zn311	Zn31	0.127750	0.622090	0.255840
Zn321	Zn32	0.169710	0.542640	0.298370
Zn331	Zn33	0.164650	0.696880	0.133710
Zn341	Zn34	0.169430	0.708420	0.290530
Zn351	Zn35	0.006040	0.538570	0.300390
Zn361	Zn36	0.377930	0.122090	0.505660
Zn371	Zn37	0.341010	0.042640	0.627070
Zn381	Zn38	0.330590	0.196880	0.467770
Zn391	Zn39	0.498950	0.208420	0.461010
Zn401	Zn40	0.338960	0.038570	0.467470
H2411	H241	0.087200	0.700000	0.350400
H2421	H242	0.015400	0.669100	0.388700
H2431	H243	0.951000	0.599400	0.394400
H2441	H244	0.958500	0.560800	0.361500
H2451	H245	0.082700	0.665600	0.089500
H2461	H246	0.011000	0.625400	0.083600
H2471	H247	0.946600	0.566100	0.147900
H2481	H248	0.953800	0.547200	0.218200
H2491	H249	0.087400	0.412200	0.378000
H2501	H250	0.017200	0.335400	0.425800
H2511	H251	0.953500	0.335200	0.425900
H2521	H252	0.959800	0.411700	0.378300
H2531	H253	0.232400	0.828300	0.080300
H2541	H254	0.272700	0.908600	0.069900
H2551	H255	0.271900	0.912200	0.132100
H2561	H256	0.231000	0.836000	0.204400
H2571	H257	0.233800	0.554600	0.217800
H2581	H258	0.274200	0.586300	0.147300
H2591	H259	0.273500	0.648500	0.082600
H2601	H260	0.232300	0.679000	0.088500
H2611	H261	0.248100	0.576100	0.348800
H2621	H262	0.292900	0.616400	0.380300
H2631	H263	0.291500	0.680500	0.378800
H2641	H264	0.245500	0.704300	0.345800
H2651	H265	0.344800	0.976800	0.386200
H2661	H266	0.319300	0.929100	0.355800
H2671	H267	0.191100	0.861100	0.423200
H2681	H268	0.216800	0.908800	0.453600
H2691	H269	0.275400	0.834300	0.383700
H2701	H270	0.249800	0.787100	0.353300
H2711	H271	0.168100	0.832200	0.315300
H2721	H272	0.193700	0.879400	0.345700
H2731	H273	0.231200	0.460000	0.393000
H2741	H274	0.254700	0.405900	0.420600
H2751	H275	0.202800	0.354300	0.346300
H2761	H276	0.179200	0.408300	0.318700
H2771	H277	0.219300	0.229900	0.430400
H2781	H278	0.194000	0.282600	0.403800
H2791	H279	0.303000	0.391000	0.406800
H2801	H280	0.328400	0.338300	0.433500
H2811	H281	0.550400	0.200000	0.387200
H2821	H282	0.557800	0.169100	0.346300
H2831	H283	0.493800	0.099400	0.351600
H2841	H284	0.422300	0.060800	0.397700
H2851	H285	0.255100	0.165600	0.417100
H2861	H286	0.209000	0.125400	0.385600
H2871	H287	0.214000	0.066100	0.380500
H2881	H288	0.265400	0.047200	0.406600
H2891	H289	0.290200	0.912200	0.675200
H2901	H290	0.261200	0.835400	0.681800
H2911	H291	0.261100	0.835200	0.618300
H2921	H292	0.290000	0.911700	0.548100
H2931	H293	0.408600	0.328300	0.404100
H2941	H294	0.478500	0.408600	0.364100
H2951	H295	0.544300	0.412200	0.359700
H2961	H296	0.540400	0.336000	0.395000
H2971	H297	0.272400	0.054600	0.679200
H2981	H298	0.233600	0.086300	0.687900
H2991	H299	0.231100	0.148500	0.625000
H3001	H300	0.267500	0.179000	0.553300
H3011	H301	0.424900	0.076100	0.672000
H3021	H302	0.496700	0.116400	0.676500
H3031	H303	0.559300	0.180500	0.611000
H3041	H304	0.550100	0.204300	0.541200
H3051	H305	0.863000	0.476800	0.368000
H3061	H306	0.784900	0.429100	0.390200
H3071	H307	0.784300	0.361100	0.330000
H3081	H308	0.862400	0.408800	0.308000
H3091	H309	0.718000	0.334300	0.441100
H3101	H310	0.640400	0.287100	0.462700
H3111	H311	0.647500	0.332200	0.335900
H3121	H312	0.725100	0.379400	0.314300
H3131	H313	0.353000	0.960000	0.771200
H3141	H314	0.326500	0.905900	0.848800
H3151	H315	0.200600	0.854300	0.848500
H3161	H316	0.227000	0.908300	0.770900
H3171	H317	0.160300	0.729900	0.989400
H3181	H318	0.186400	0.782600	0.911400
H3191	H319	0.297800	0.891000	0.912000
H3201	H320	0.271800	0.838300	0.990100
C3851	C385	0.027330	0.607200	0.336270
C3861	C386	0.066020	0.649100	0.332880
C3871	C387	0.061500	0.672300	0.352600
C3881	C388	0.018300	0.653600	0.375700
C3891	C389	0.979600	0.611700	0.379100
C3901	C390	0.984100	0.588500	0.359400
C3911	C391	0.022700	0.595000	0.196100
C3921	C392	0.061400	0.630600	0.157400
C3931	C393	0.057050	0.642000	0.115150
C3941	C394	0.014000	0.617900	0.111500
C3951	C395	0.975100	0.582200	0.150300
C3961	C396	0.979510	0.570800	0.192490
C3971	C397	0.027440	0.457600	0.349760
C3981	C398	0.065400	0.457700	0.349700
C3991	C399	0.061600	0.412100	0.378100
C4001	C400	0.019760	0.366300	0.406540
C4011	C401	0.981800	0.366200	0.406600
C4021	C402	0.985590	0.411800	0.378210
C4031	C403	0.207200	0.786400	0.185800
C4041	C404	0.207600	0.784200	0.148600
C4051	C405	0.232100	0.829900	0.105200
C4061	C406	0.256300	0.877900	0.099000
C4071	C407	0.255700	0.880100	0.136200
C4081	C408	0.231240	0.834400	0.179560
C4091	C409	0.208440	0.635100	0.156660
C4101	C410	0.208870	0.597870	0.195400
C4111	C411	0.233500	0.579700	0.191800
C4121	C412	0.257620	0.598500	0.149680
C4131	C413	0.257240	0.635800	0.110960
C4141	C414	0.232700	0.654000	0.114500
C4151	C415	0.219200	0.654380	0.327560
C4161	C416	0.220000	0.616040	0.328480
C4171	C417	0.247600	0.601850	0.348210
C4181	C418	0.274380	0.625990	0.367030
C4191	C419	0.273550	0.664320	0.366110
C4201	C420	0.245990	0.678520	0.346390
C4211	C421	0.283290	0.947440	0.422870
C4221	C422	0.313940	0.953540	0.393600
C4231	C423	0.298710	0.925100	0.375390
C4241	C424	0.252700	0.890400	0.386500
C4251	C425	0.222080	0.884400	0.415720
C4261	C426	0.237390	0.912900	0.433910
C4271	C427	0.237030	0.861370	0.367620
C4281	C428	0.253700	0.833800	0.369900
C4291	C429	0.238500	0.805800	0.351700
C4301	C430	0.206520	0.805200	0.331280
C4311	C431	0.189860	0.832700	0.329040
C4321	C432	0.205060	0.860700	0.347240
C4331	C433	0.298890	0.976950	0.441360
C4341	C434	0.190620	0.775600	0.312980
C4351	C435	0.203060	0.439300	0.353240
C4361	C436	0.225400	0.438500	0.383500
C4371	C437	0.239430	0.406500	0.399870
C4381	C438	0.231020	0.375100	0.386080
C4391	C439	0.208600	0.375800	0.355800
C4401	C440	0.194560	0.407800	0.339440
C4411	C441	0.276300	0.279000	0.434500
C4421	C442	0.236300	0.262500	0.425600
C4431	C443	0.221000	0.293800	0.409800
C4441	C444	0.246000	0.341900	0.402700
C4451	C445	0.286100	0.358500	0.411600
C4461	C446	0.301300	0.327100	0.427400
C4471	C447	0.291790	0.246700	0.450710
C4481	C448	0.188740	0.473200	0.335860
C4491	C449	0.443470	0.107200	0.420130
C4501	C450	0.481980	0.149100	0.416920
C4511	C451	0.524900	0.172300	0.389200
C4521	C452	0.529300	0.153600	0.364700
C4531	C453	0.490800	0.111700	0.367900
C4541	C454	0.447900	0.088500	0.395600
C4551	C455	0.291100	0.095000	0.427700
C4561	C456	0.288000	0.130600	0.430800
C4571	C457	0.257150	0.142000	0.415050
C4581	C458	0.229400	0.117900	0.396100
C4591	C459	0.232500	0.082200	0.392900
C4601	C460	0.263290	0.070800	0.408710
C4611	C461	0.307360	0.957600	0.569840
C4621	C462	0.307400	0.957700	0.607700
C4631	C463	0.290200	0.912100	0.649500
C4641	C464	0.272840	0.866300	0.653460
C4651	C465	0.272800	0.866200	0.615600
C4661	C466	0.290010	0.911800	0.573790
C4671	C467	0.472200	0.286400	0.420800
C4681	C468	0.432800	0.284200	0.423400
C4691	C469	0.435100	0.329900	0.402200
C4701	C470	0.476900	0.377900	0.378400
C4711	C471	0.516300	0.380100	0.375600
C4721	C472	0.513960	0.334400	0.396840
C4731	C473	0.291760	0.135100	0.573340
C4741	C474	0.293270	0.097870	0.611000
C4751	C475	0.271500	0.079700	0.653800
C4761	C476	0.248180	0.098500	0.659120
C4771	C477	0.246760	0.135800	0.621440
C4781	C478	0.268500	0.154000	0.578700
C4791	C479	0.481940	0.154380	0.564820
C4801	C480	0.444520	0.116040	0.603960
C4811	C481	0.450060	0.101850	0.645750
C4821	C482	0.493020	0.125990	0.648390
C4831	C483	0.530430	0.164320	0.609230
C4841	C484	0.524910	0.178520	0.567470
C4851	C485	0.870310	0.447440	0.335850
C4861	C486	0.847140	0.453540	0.360400
C4871	C487	0.800490	0.425100	0.373610
C4881	C488	0.776900	0.390400	0.362300
C4891	C489	0.800120	0.384400	0.337680
C4901	C490	0.846810	0.412900	0.324490
C4911	C491	0.728990	0.361370	0.375660
C4921	C492	0.703700	0.333800	0.419900
C4931	C493	0.657500	0.305800	0.432700
C4941	C494	0.636480	0.305200	0.401320
C4951	C495	0.661740	0.332700	0.357160
C4961	C496	0.707940	0.360700	0.344360
C4971	C497	0.918310	0.476950	0.321940
C4981	C498	0.588580	0.275600	0.415020
C4991	C499	0.292540	0.939300	0.763760
C5001	C500	0.322000	0.938500	0.786900
C5011	C501	0.306370	0.906500	0.832930
C5021	C502	0.261180	0.875100	0.855920
C5031	C503	0.231600	0.875800	0.832800
C5041	C504	0.247240	0.907800	0.786760
C5051	C505	0.213500	0.779000	0.997300
C5061	C506	0.188100	0.762500	0.973800
C5071	C507	0.203600	0.793800	0.927200
C5081	C508	0.244600	0.841900	0.904100
C5091	C509	0.270100	0.858500	0.927600
C5101	C510	0.254500	0.827100	0.974200
C5111	C511	0.197410	0.746700	0.045090
C5121	C512	0.309060	0.973200	0.715540
N1091	N109	0.040900	0.594300	0.313000
N1101	N110	0.086120	0.623900	0.297180
N1111	N111	0.101380	0.657900	0.308320
N1121	N112	0.038140	0.586100	0.231960
N1131	N113	0.082540	0.617530	0.214310
N1141	N114	0.098130	0.644600	0.170470
N1151	N115	0.040590	0.505800	0.319410
N1161	N116	0.085520	0.535450	0.303390
N1171	N117	0.102560	0.507350	0.318950
N1181	N118	0.184340	0.734500	0.165160
N1191	N119	0.168410	0.707650	0.209180
N1201	N120	0.183350	0.738700	0.222950
N1211	N121	0.183090	0.646710	0.169220
N1221	N122	0.168340	0.617830	0.214290
N1231	N123	0.183850	0.590190	0.229740
N1241	N124	0.190910	0.660160	0.306550
N1251	N125	0.174940	0.627800	0.294660
N1261	N126	0.190950	0.600170	0.308040
N1271	N127	0.407300	0.094300	0.446600
N1281	N128	0.421080	0.123900	0.462220
N1291	N129	0.466220	0.157900	0.443480
N1301	N130	0.318060	0.086100	0.452040
N1311	N131	0.331840	0.117530	0.465010
N1321	N132	0.315070	0.144600	0.453530
N1331	N133	0.325210	0.005800	0.534790
N1341	N134	0.338840	0.035450	0.550070
N1351	N135	0.326300	0.007350	0.595210
N1361	N136	0.399660	0.234500	0.449840
N1371	N137	0.416830	0.207650	0.460760
N1381	N138	0.461650	0.238700	0.444650
N1391	N139	0.315930	0.146710	0.536380
N1401	N140	0.332120	0.117830	0.550510
N1411	N141	0.319930	0.090190	0.593660
N1421	N142	0.466710	0.160160	0.530750
N1431	N143	0.422460	0.127800	0.547140
N1441	N144	0.408210	0.100170	0.590780
O491	O49	0.272270	0.966700	0.472830
O501	O50	0.339250	0.014100	0.427250
O511	O51	0.200500	0.745200	0.318300
O521	O52	0.165100	0.778200	0.289500
O531	O53	0.178360	0.484100	0.300740
O541	O54	0.186130	0.493400	0.354470
O551	O55	0.329200	0.260500	0.456900
O561	O56	0.268200	0.201400	0.460200
O571	O57	0.939530	0.466700	0.305570
O581	O58	0.941350	0.514100	0.325150
O591	O59	0.563500	0.245200	0.455300
O601	O60	0.567700	0.278200	0.386900
O611	O61	0.284840	0.984100	0.694260
O621	O62	0.347870	0.993400	0.692730
O631	O63	0.217400	0.760500	0.068700
O641	O64	0.161600	0.701400	0.066800
Zn411	Zn41	0.622070	0.877910	0.494340
Zn421	Zn42	0.658990	0.957360	0.372930
Zn431	Zn43	0.669410	0.803120	0.532230
Zn441	Zn44	0.501050	0.791580	0.538990
Zn451	Zn45	0.661040	0.961430	0.532530
Zn461	Zn46	0.872250	0.377910	0.744160
Zn471	Zn47	0.830290	0.457360	0.701630
Zn481	Zn48	0.835350	0.303120	0.866290
Zn491	Zn49	0.830570	0.291580	0.709470
Zn501	Zn50	0.993960	0.461430	0.699610
H3211	H321	0.449600	0.800000	0.612800
H3221	H322	0.442200	0.830900	0.653700
H3231	H323	0.506200	0.900600	0.648400
H3241	H324	0.577700	0.939200	0.602300
H3251	H325	0.744900	0.834400	0.582900
H3261	H326	0.791000	0.874600	0.614400
H3271	H327	0.786000	0.933900	0.619500
H3281	H328	0.734600	0.952800	0.593400
H3291	H329	0.709800	0.087800	0.324800
H3301	H330	0.738800	0.164600	0.318200
H3311	H331	0.738900	0.164800	0.381700
H3321	H332	0.710000	0.088300	0.451900
H3331	H333	0.591400	0.671700	0.595900
H3341	H334	0.521500	0.591400	0.635900
H3351	H335	0.455700	0.587800	0.640300
H3361	H336	0.459600	0.664000	0.605000
H3371	H337	0.727600	0.945400	0.320800
H3381	H338	0.766400	0.913700	0.312100
H3391	H339	0.768900	0.851500	0.375000
H3401	H340	0.732500	0.821000	0.446700
H3411	H341	0.575100	0.923900	0.328000
H3421	H342	0.503300	0.883600	0.323500
H3431	H343	0.440700	0.819500	0.389000
H3441	H344	0.449900	0.795700	0.458800
H3451	H345	0.137000	0.523200	0.632000
H3461	H346	0.215100	0.570900	0.609800
H3471	H347	0.215700	0.638900	0.670000
H3481	H348	0.137600	0.591200	0.692000
H3491	H349	0.282000	0.665700	0.558900
H3501	H350	0.359600	0.712900	0.537300
H3511	H351	0.352500	0.667800	0.664100
H3521	H352	0.274900	0.620600	0.685700
H3531	H353	0.647000	0.040000	0.228800
H3541	H354	0.673500	0.094100	0.151200
H3551	H355	0.799400	0.145700	0.151500
H3561	H356	0.773000	0.091700	0.229100
H3571	H357	0.839700	0.270100	0.010600
H3581	H358	0.813600	0.217400	0.088600
H3591	H359	0.702200	0.109000	0.088000
H3601	H360	0.728200	0.161700	0.009900
H3611	H361	0.912800	0.300000	0.649600
H3621	H362	0.984600	0.330900	0.611300
H3631	H363	0.049000	0.400600	0.605600
H3641	H364	0.041500	0.439200	0.638500
H3651	H365	0.917300	0.334400	0.910500
H3661	H366	0.989000	0.374600	0.916400
H3671	H367	0.053400	0.433900	0.852100
H3681	H368	0.046200	0.452800	0.781800
H3691	H369	0.912600	0.587800	0.622000
H3701	H370	0.982800	0.664600	0.574200
H3711	H371	0.046500	0.664800	0.574100
H3721	H372	0.040200	0.588300	0.621700
H3731	H373	0.767600	0.171700	0.919700
H3741	H374	0.727300	0.091400	0.930100
H3751	H375	0.728100	0.087800	0.867900
H3761	H376	0.769000	0.164000	0.795600
H3771	H377	0.766200	0.445400	0.782200
H3781	H378	0.725800	0.413700	0.852700
H3791	H379	0.726500	0.351500	0.917400
H3801	H380	0.767700	0.321000	0.911500
H3811	H381	0.751900	0.423900	0.651200
H3821	H382	0.707100	0.383600	0.619700
H3831	H383	0.708500	0.319500	0.621200
H3841	H384	0.754500	0.295700	0.654200
H3851	H385	0.655200	0.023200	0.613800
H3861	H386	0.680700	0.070900	0.644200
H3871	H387	0.808900	0.138900	0.576800
H3881	H388	0.783200	0.091200	0.546400
H3891	H389	0.724600	0.165700	0.616300
H3901	H390	0.750200	0.212900	0.646700
H3911	H391	0.831900	0.167800	0.684700
H3921	H392	0.806300	0.120600	0.654300
H3931	H393	0.768800	0.540000	0.607000
H3941	H394	0.745300	0.594100	0.579400
H3951	H395	0.797200	0.645700	0.653700
H3961	H396	0.820800	0.591700	0.681300
H3971	H397	0.780700	0.770100	0.569600
H3981	H398	0.806000	0.717400	0.596200
H3991	H399	0.697000	0.609000	0.593200
H4001	H400	0.671600	0.661700	0.566500
C5131	C513	0.556530	0.892800	0.579870
C5141	C514	0.518020	0.850900	0.583080
C5151	C515	0.475100	0.827700	0.610800
C5161	C516	0.470700	0.846400	0.635300
C5171	C517	0.509200	0.888300	0.632100
C5181	C518	0.552100	0.911500	0.604400
C5191	C519	0.708900	0.905000	0.572300
C5201	C520	0.712000	0.869400	0.569200
C5211	C521	0.742850	0.858000	0.584950
C5221	C522	0.770600	0.882100	0.603900
C5231	C523	0.767500	0.917800	0.607100
C5241	C524	0.736710	0.929200	0.591290
C5251	C525	0.692640	0.042400	0.430160
C5261	C526	0.692600	0.042300	0.392300
C5271	C527	0.709800	0.087900	0.350500
C5281	C528	0.727160	0.133700	0.346540
C5291	C529	0.727200	0.133800	0.384400
C5301	C530	0.709990	0.088200	0.426210
C5311	C531	0.527800	0.713600	0.579200
C5321	C532	0.567200	0.715800	0.576600
C5331	C533	0.564900	0.670100	0.597800
C5341	C534	0.523100	0.622100	0.621600
C5351	C535	0.483700	0.619900	0.624400
C5361	C536	0.486040	0.665600	0.603160
C5371	C537	0.708240	0.864900	0.426660
C5381	C538	0.706730	0.902130	0.389000
C5391	C539	0.728500	0.920300	0.346200
C5401	C540	0.751820	0.901500	0.340880
C5411	C541	0.753240	0.864200	0.378560
C5421	C542	0.731500	0.846000	0.421300
C5431	C543	0.518060	0.845620	0.435180
C5441	C544	0.555480	0.883960	0.396040
C5451	C545	0.549940	0.898150	0.354250
C5461	C546	0.506980	0.874010	0.351610
C5471	C547	0.469570	0.835680	0.390770
C5481	C548	0.475090	0.821480	0.432530
C5491	C549	0.129690	0.552560	0.664150
C5501	C550	0.152860	0.546460	0.639600
C5511	C551	0.199510	0.574900	0.626390
C5521	C552	0.223100	0.609600	0.637700
C5531	C553	0.199880	0.615600	0.662320
C5541	C554	0.153190	0.587100	0.675510
C5551	C555	0.271010	0.638630	0.624340
C5561	C556	0.296300	0.666200	0.580100
C5571	C557	0.342500	0.694200	0.567300
C5581	C558	0.363520	0.694800	0.598680
C5591	C559	0.338260	0.667300	0.642840
C5601	C560	0.292060	0.639300	0.655640
C5611	C561	0.081690	0.523050	0.678060
C5621	C562	0.411420	0.724400	0.584980
C5631	C563	0.707460	0.060700	0.236240
C5641	C564	0.678000	0.061500	0.213100
C5651	C565	0.693630	0.093500	0.167070
C5661	C566	0.738820	0.124900	0.144080
C5671	C567	0.768400	0.124200	0.167200
C5681	C568	0.752760	0.092200	0.213240
C5691	C569	0.786500	0.221000	0.002700
C5701	C570	0.811900	0.237500	0.026200
C5711	C571	0.796400	0.206200	0.072800
C5721	C572	0.755400	0.158100	0.095900
C5731	C573	0.729900	0.141500	0.072400
C5741	C574	0.745500	0.172900	0.025800
C5751	C575	0.802590	0.253300	0.954910
C5761	C576	0.690940	0.026800	0.284460
C5771	C577	0.972670	0.392800	0.663730
C5781	C578	0.933980	0.350900	0.667120
C5791	C579	0.938500	0.327700	0.647400
C5801	C580	0.981700	0.346400	0.624300
C5811	C581	0.020400	0.388300	0.620900
C5821	C582	0.015900	0.411500	0.640600
C5831	C583	0.977300	0.405000	0.803900
C5841	C584	0.938600	0.369400	0.842600
C5851	C585	0.942950	0.358000	0.884850
C5861	C586	0.986000	0.382100	0.888500
C5871	C587	0.024900	0.417800	0.849700
C5881	C588	0.020490	0.429200	0.807510
C5891	C589	0.972560	0.542400	0.650240
C5901	C590	0.934600	0.542300	0.650300
C5911	C591	0.938400	0.587900	0.621900
C5921	C592	0.980240	0.633700	0.593460
C5931	C593	0.018200	0.633800	0.593400
C5941	C594	0.014410	0.588200	0.621790
C5951	C595	0.792800	0.213600	0.814200
C5961	C596	0.792400	0.215800	0.851400
C5971	C597	0.767900	0.170100	0.894800
C5981	C598	0.743700	0.122100	0.901000
C5991	C599	0.744300	0.119900	0.863800
C6001	C600	0.768760	0.165600	0.820440
C6011	C601	0.791560	0.364900	0.843340
C6021	C602	0.791130	0.402130	0.804600
C6031	C603	0.766500	0.420300	0.808200
C6041	C604	0.742380	0.401500	0.850320
C6051	C605	0.742760	0.364200	0.889040
C6061	C606	0.767300	0.346000	0.885500
C6071	C607	0.780800	0.345620	0.672440
C6081	C608	0.780000	0.383960	0.671520
C6091	C609	0.752400	0.398150	0.651790
C6101	C610	0.725620	0.374010	0.632970
C6111	C611	0.726450	0.335680	0.633890
C6121	C612	0.754010	0.321480	0.653610
C6131	C613	0.716710	0.052560	0.577130
C6141	C614	0.686060	0.046460	0.606400
C6151	C615	0.701290	0.074900	0.624610
C6161	C616	0.747300	0.109600	0.613500
C6171	C617	0.777920	0.115600	0.584280
C6181	C618	0.762610	0.087100	0.566090
C6191	C619	0.762970	0.138630	0.632380
C6201	C620	0.746300	0.166200	0.630100
C6211	C621	0.761500	0.194200	0.648300
C6221	C622	0.793480	0.194800	0.668720
C6231	C623	0.810140	0.167300	0.670960
C6241	C624	0.794940	0.139300	0.652760
C6251	C625	0.701110	0.023050	0.558640
C6261	C626	0.809380	0.224400	0.687020
C6271	C627	0.796940	0.560700	0.646760
C6281	C628	0.774600	0.561500	0.616500
C6291	C629	0.760570	0.593500	0.600130
C6301	C630	0.768980	0.624900	0.613920
C6311	C631	0.791400	0.624200	0.644200
C6321	C632	0.805440	0.592200	0.660560
C6331	C633	0.723700	0.721000	0.565500
C6341	C634	0.763700	0.737500	0.574400
C6351	C635	0.779000	0.706200	0.590200
C6361	C636	0.754000	0.658100	0.597300
C6371	C637	0.713900	0.641500	0.588400
C6381	C638	0.698700	0.672900	0.572600
C6391	C639	0.708210	0.753300	0.549290
C6401	C640	0.811260	0.526800	0.664140
N1451	N145	0.592700	0.905700	0.553400
N1461	N146	0.578920	0.876100	0.537780
N1471	N147	0.533780	0.842100	0.556520
N1481	N148	0.681940	0.913900	0.547960
N1491	N149	0.668160	0.882470	0.534990
N1501	N150	0.684930	0.855400	0.546470
N1511	N151	0.674790	0.994200	0.465210
N1521	N152	0.661160	0.964550	0.449930
N1531	N153	0.673700	0.992650	0.404790
N1541	N154	0.600340	0.765500	0.550160
N1551	N155	0.583170	0.792350	0.539240
N1561	N156	0.538350	0.761300	0.555350
N1571	N157	0.684070	0.853290	0.463620
N1581	N158	0.667880	0.882170	0.449490
N1591	N159	0.680070	0.909810	0.406340
N1601	N160	0.533290	0.839840	0.469250
N1611	N161	0.577540	0.872200	0.452860
N1621	N162	0.591790	0.899830	0.409220
N1631	N163	0.959100	0.405700	0.687000
N1641	N164	0.913880	0.376100	0.702820
N1651	N165	0.898620	0.342100	0.691680
N1661	N166	0.961860	0.413900	0.768040
N1671	N167	0.917460	0.382470	0.785690
N1681	N168	0.901870	0.355400	0.829530
N1691	N169	0.959410	0.494200	0.680590
N1701	N170	0.914480	0.464550	0.696610
N1711	N171	0.897440	0.492650	0.681050
N1721	N172	0.815660	0.265500	0.834840
N1731	N173	0.831590	0.292350	0.790820
N1741	N174	0.816650	0.261300	0.777050
N1751	N175	0.816910	0.353290	0.830780
N1761	N176	0.831660	0.382170	0.785710
N1771	N177	0.816150	0.409810	0.770260
N1781	N178	0.809090	0.339840	0.693450
N1791	N179	0.825060	0.372200	0.705340
N1801	N180	0.809050	0.399830	0.691960
O651	O65	0.060470	0.533300	0.694430
O661	O66	0.058650	0.485900	0.674850
O671	O67	0.436500	0.754800	0.544700
O681	O68	0.432300	0.721800	0.613100
O691	O69	0.715160	0.015900	0.305740
O701	O70	0.652130	0.006600	0.307270
O711	O71	0.782600	0.239500	0.931300
O721	O72	0.838400	0.298600	0.933200
O731	O73	0.727730	0.033300	0.527170
O741	O74	0.660750	0.985900	0.572750
O751	O75	0.799500	0.254800	0.681700
O761	O76	0.834900	0.221800	0.710500
O771	O77	0.821640	0.515900	0.699260
O781	O78	0.813870	0.506600	0.645530
O791	O79	0.670800	0.739500	0.543100
O801	O80	0.731800	0.798600	0.539800
Zn511	Zn51	0.774440	0.664800	0.898900
Zn521	Zn52	0.779140	0.673250	0.057090
Zn531	Zn53	0.936300	0.835200	0.890360
Zn541	Zn54	0.769660	0.826750	0.894110
Zn551	Zn55	0.609640	0.173340	0.725560
Zn561	Zn56	0.605890	0.336230	0.720860
Zn571	Zn57	0.601100	0.326660	0.563700
Zn581	Zn58	0.442910	0.163770	0.730340
Zn591	Zn59	0.814790	0.750000	0.935210
Zn601	Zn60	0.564790	0.250000	0.685210
H4011	H401	0.723800	0.541200	0.108200
H4021	H402	0.691900	0.462100	0.117400
H4031	H403	0.691700	0.459400	0.054700
H4041	H404	0.723600	0.535900	0.982700
H4051	H405	0.863400	0.696500	0.101300
H4061	H406	0.935500	0.732700	0.106800
H4071	H407	0.998800	0.797100	0.041500
H4081	H408	0.990100	0.825200	0.970900
H4091	H409	0.714200	0.480900	0.719500
H4101	H410	0.738800	0.530600	0.747200
H4111	H411	0.623800	0.424300	0.850700
H4121	H412	0.599200	0.374600	0.823000
H4131	H413	0.652000	0.456600	0.880400
H4141	H414	0.675600	0.505600	0.908800
H4151	H415	0.773300	0.627900	0.791400
H4161	H416	0.749800	0.578900	0.762900
H4171	H417	0.712900	0.688300	0.103400
H4181	H418	0.671100	0.714800	0.117500
H4191	H419	0.982300	0.812100	0.831200
H4201	H420	0.993800	0.786700	0.787500
H4211	H421	0.850600	0.958800	0.817400
H4221	H422	0.920500	0.037900	0.770200
H4231	H423	0.985900	0.040600	0.767700
H4241	H424	0.981400	0.964100	0.812300
H4251	H425	0.702200	0.803500	0.833100
H4261	H426	0.660500	0.767300	0.797200
H4271	H427	0.661400	0.702900	0.798300
H4281	H428	0.703900	0.674800	0.835100
H4291	H429	0.299600	0.019100	0.766700
H4301	H430	0.222200	0.969400	0.791800
H4311	H431	0.225000	0.075700	0.800500
H4321	H432	0.302400	0.125400	0.775400
H4331	H433	0.163000	0.043400	0.804600
H4341	H434	0.085600	0.994400	0.830000
H4351	H435	0.080700	0.872100	0.854600
H4361	H436	0.158200	0.921100	0.829100
H4371	H437	0.708300	0.811700	0.975400
H4381	H438	0.667700	0.785200	0.043700
H4391	H439	0.856700	0.687900	0.829800
H4401	H440	0.925800	0.713300	0.792900
H4411	H441	0.682600	0.332000	0.776200
H4421	H442	0.729800	0.309300	0.808100
H4431	H443	0.732300	0.246400	0.808300
H4441	H444	0.687700	0.206300	0.776400
H4451	H445	0.666900	0.464700	0.636600
H4461	H446	0.702800	0.542300	0.564500
H4471	H447	0.701700	0.540300	0.501200
H4481	H448	0.664900	0.461000	0.509900
H4491	H449	0.733300	0.933700	0.785800
H4501	H450	0.708200	0.986000	0.761200
H4511	H451	0.699500	0.974500	0.876200
H4521	H452	0.724600	0.922200	0.900800
H4531	H453	0.695400	0.032400	0.848000
H4541	H454	0.670000	0.084400	0.824400
H4551	H455	0.645400	0.064700	0.726700
H4561	H456	0.670900	0.012700	0.750200
H4571	H457	0.524600	0.316300	0.787100
H4581	H458	0.456300	0.288600	0.828900
H4591	H459	0.670200	0.313500	0.517700
H4601	H460	0.707100	0.281300	0.506200
H4611	H461	0.391800	0.168000	0.649400
H4621	H462	0.382600	0.190700	0.579500
H4631	H463	0.445300	0.253600	0.514100
H4641	H464	0.517300	0.293700	0.518600
H4651	H465	0.398700	0.035300	0.797800
H4661	H466	0.393200	0.957700	0.839500
H4671	H467	0.458500	0.959700	0.838600
H4681	H468	0.529100	0.039000	0.796100
H4691	H469	0.780500	0.566300	0.200400
H4701	H470	0.752800	0.514000	0.277800
H4711	H471	0.649300	0.525500	0.275000
H4721	H472	0.677000	0.577800	0.197600
H4731	H473	0.619600	0.467600	0.337000
H4741	H474	0.591200	0.415600	0.414400
H4751	H475	0.708600	0.435300	0.419300
H4761	H476	0.737100	0.487300	0.341800
H4771	H477	0.396600	0.183700	0.791700
H4781	H478	0.382500	0.211400	0.832300
H4791	H479	0.668800	0.186500	0.643300
H4801	H480	0.712500	0.218700	0.574200
C6411	C641	0.742640	0.584260	0.002400
C6421	C642	0.742710	0.585830	0.039960
C6431	C643	0.723700	0.540110	0.083070
C6441	C644	0.704640	0.492770	0.088570
C6451	C645	0.704570	0.491210	0.050960
C6461	C646	0.723580	0.536950	0.007850
C6471	C647	0.883530	0.739100	0.032770
C6481	C648	0.888780	0.722200	0.075220
C6491	C649	0.932000	0.744000	0.078400
C6501	C650	0.969900	0.782500	0.039400
C6511	C651	0.964760	0.799400	0.997040
C6521	C652	0.921580	0.777700	0.993720
C6531	C653	0.654400	0.423200	0.768600
C6541	C654	0.695830	0.469400	0.746170
C6551	C655	0.710380	0.498800	0.762620
C6561	C656	0.683600	0.482100	0.801500
C6571	C657	0.642180	0.435800	0.824020
C6581	C658	0.627630	0.406400	0.807570
C6591	C659	0.698750	0.513300	0.818950
C6601	C660	0.676700	0.491500	0.862200
C6611	C661	0.690640	0.520500	0.879060
C6621	C662	0.726630	0.571300	0.852670
C6631	C663	0.748700	0.593100	0.809400
C6641	C664	0.734740	0.564100	0.792560
C6651	C665	0.638560	0.391900	0.751340
C6661	C666	0.740800	0.601100	0.870700
C6671	C667	0.734060	0.731460	0.036000
C6681	C668	0.711100	0.713200	0.078700
C6691	C669	0.685700	0.728100	0.088200
C6701	C670	0.914870	0.769350	0.854180
C6711	C671	0.956920	0.787210	0.830090
C6721	C672	0.964740	0.771400	0.804660
C6731	C673	0.913340	0.915740	0.841620
C6741	C674	0.874210	0.914170	0.843120
C6751	C675	0.876820	0.959890	0.816410
C6761	C676	0.918660	0.007230	0.788130
C6771	C677	0.957830	0.008790	0.786640
C6781	C678	0.955200	0.963050	0.813370
C6791	C679	0.728130	0.760900	0.855570
C6801	C680	0.702580	0.777800	0.833420
C6811	C681	0.677600	0.756000	0.812000
C6821	C682	0.678100	0.717500	0.812600
C6831	C683	0.703560	0.700600	0.834640
C6841	C684	0.728580	0.722300	0.856120
C6851	C685	0.308200	0.076800	0.768800
C6861	C686	0.284430	0.030600	0.773570
C6871	C687	0.238580	0.001200	0.788420
C6881	C688	0.216400	0.017900	0.798500
C6891	C689	0.240180	0.064200	0.793620
C6901	C690	0.286030	0.093600	0.778770
C6911	C691	0.167750	0.986700	0.814550
C6921	C692	0.146300	0.008500	0.814800
C6931	C693	0.100440	0.979500	0.829860
C6941	C694	0.076030	0.928700	0.844670
C6951	C695	0.097500	0.906900	0.844400
C6961	C696	0.143340	0.935900	0.829360
C6971	C697	0.356760	0.108100	0.753340
C6981	C698	0.028200	0.898900	0.860300
C6991	C699	0.732540	0.768540	0.997400
C7001	C700	0.708100	0.786800	0.002100
C7011	C701	0.683700	0.771900	0.042400
C7021	C702	0.876470	0.730650	0.854480
C7031	C703	0.882700	0.712790	0.830290
C7041	C704	0.923940	0.728600	0.806660
C7051	C705	0.658380	0.245040	0.757360
C7061	C706	0.656880	0.282670	0.757290
C7071	C707	0.683590	0.306770	0.776300
C7081	C708	0.711870	0.293210	0.795360
C7091	C709	0.713360	0.255530	0.795430
C7101	C710	0.686630	0.231430	0.776420
C7111	C711	0.644430	0.416300	0.616470
C7121	C712	0.666580	0.464000	0.611220
C7131	C713	0.688000	0.510400	0.568000
C7141	C714	0.687400	0.509300	0.530100
C7151	C715	0.665360	0.461800	0.535240
C7161	C716	0.643880	0.415300	0.578420
C7171	C717	0.731200	0.923000	0.845600
C7181	C718	0.726430	0.942000	0.804170
C7191	C719	0.711580	0.973000	0.789620
C7201	C720	0.701500	0.985100	0.816400
C7211	C721	0.706380	0.966200	0.857820
C7221	C722	0.721230	0.935200	0.872370
C7231	C723	0.685450	0.017700	0.801250
C7241	C724	0.685200	0.038900	0.823300
C7251	C725	0.670140	0.069700	0.809360
C7261	C726	0.655330	0.079300	0.773370
C7271	C727	0.655600	0.058100	0.751300
C7281	C728	0.670640	0.027300	0.765260
C7291	C729	0.746660	0.889900	0.861440
C7301	C730	0.639700	0.111500	0.759200
C7311	C731	0.502600	0.270060	0.765940
C7321	C732	0.497900	0.289800	0.788900
C7331	C733	0.457600	0.273900	0.814300
C7341	C734	0.645520	0.269050	0.585130
C7351	C735	0.669710	0.287010	0.543080
C7361	C736	0.693340	0.269400	0.535260
C7371	C737	0.497600	0.254960	0.586660
C7381	C738	0.460040	0.217330	0.625790
C7391	C739	0.416930	0.193230	0.623180
C7401	C740	0.411430	0.206790	0.581340
C7411	C741	0.449040	0.244470	0.542170
C7421	C742	0.492150	0.268570	0.544800
C7431	C743	0.467230	0.083700	0.771870
C7441	C744	0.424780	0.036000	0.797420
C7451	C745	0.421600	0.989600	0.822400
C7461	C746	0.460600	0.990700	0.821900
C7471	C747	0.502960	0.038200	0.796440
C7481	C748	0.506280	0.084700	0.771420
C7491	C749	0.731400	0.577000	0.191800
C7501	C750	0.753830	0.558000	0.215570
C7511	C751	0.737380	0.527000	0.261420
C7521	C752	0.698500	0.514900	0.283600
C7531	C753	0.675980	0.533800	0.259820
C7541	C754	0.692430	0.564800	0.213970
C7551	C755	0.681050	0.482300	0.332250
C7561	C756	0.637800	0.461100	0.353700
C7571	C757	0.620940	0.430300	0.399560
C7581	C758	0.647330	0.420700	0.423970
C7591	C759	0.690600	0.441900	0.402500
C7601	C760	0.707440	0.472700	0.356660
C7611	C761	0.748660	0.610100	0.143240
C7621	C762	0.629300	0.388500	0.471800
C7631	C763	0.464000	0.229940	0.767460
C7641	C764	0.421300	0.210200	0.791900
C7651	C765	0.411800	0.226100	0.816300
C7661	C766	0.645820	0.230950	0.623530
C7671	C767	0.669910	0.212990	0.617300
C7681	C768	0.695340	0.230600	0.576060
N1811	N181	0.762590	0.633790	0.965820
N1821	N182	0.775200	0.664380	0.979900
N1831	N183	0.763370	0.636540	0.025710
N1841	N184	0.846670	0.725300	0.020030
N1851	N185	0.860810	0.753960	0.975790
N1861	N186	0.904450	0.786500	0.958050
N1871	N187	0.758590	0.720300	0.023310
N1881	N188	0.901200	0.778720	0.878240
N1891	N189	0.900390	0.866210	0.871200
N1901	N190	0.855720	0.835620	0.889180
N1911	N191	0.837750	0.863460	0.873170
N1921	N192	0.754670	0.774700	0.878630
N1931	N193	0.770250	0.746040	0.893150
N1941	N194	0.755450	0.713500	0.882050
N1951	N195	0.756390	0.779700	0.961710
N1961	N196	0.843040	0.721280	0.877520
N1971	N197	0.628800	0.228410	0.737410
N1981	N198	0.610820	0.255100	0.724800
N1991	N199	0.626830	0.289080	0.736630
N2001	N200	0.621370	0.366700	0.653330
N2011	N201	0.606850	0.336600	0.639190
N2021	N202	0.617950	0.362500	0.595550
N2031	N203	0.538290	0.281900	0.741410
N2041	N204	0.622480	0.279440	0.598800
N2051	N205	0.534180	0.271590	0.599610
N2061	N206	0.520100	0.244900	0.644280
N2071	N207	0.474290	0.210920	0.662250
N2081	N208	0.479970	0.133300	0.745330
N2091	N209	0.524210	0.163400	0.729750
N2101	N210	0.541950	0.137500	0.744550
N2111	N211	0.476690	0.218100	0.743610
N2121	N212	0.621760	0.220560	0.656960
N2131	N213	0.771530	0.750000	0.978470
N2141	N214	0.857500	0.750000	0.892500
N2151	N215	0.521530	0.250000	0.728470
N2161	N216	0.607500	0.250000	0.642500
O811	O81	0.659650	0.407800	0.713550
O821	O82	0.753400	0.608400	0.890600
O831	O83	0.769800	0.663300	0.833100
O841	O84	0.602500	0.347100	0.774000
O851	O85	0.378650	0.092200	0.748150
O861	O86	0.001000	0.891600	0.855000
O871	O87	0.003600	0.836700	0.893500
O881	O88	0.378900	0.152900	0.744600
O891	O89	0.751850	0.873200	0.840350
O901	O90	0.645000	0.144000	0.746600
O911	O91	0.606500	0.102900	0.730200
O921	O92	0.755400	0.876500	0.897500
O931	O93	0.786450	0.626800	0.121350
O941	O94	0.609400	0.356000	0.499000
O951	O95	0.666900	0.397100	0.496400
O961	O96	0.726000	0.623500	0.121100
