data_KUMGOQ_freeONLY_PM
_symmetry_space_group_name_H-M	'P1'
_cell_length_a	9.282300
_cell_length_b	14.575000
_cell_length_c	19.371000
_cell_angle_alpha	90.000000
_cell_angle_beta	98.050000
_cell_angle_gamma	90.000000
_symmetry_Int_Tables_number 1

loop_
_symmetry_equiv_pos_as_xyz
'x,y,z'

loop_
_atom_site_label
_atom_site_type_symbol
_atom_site_fract_x
_atom_site_fract_y
_atom_site_fract_z
W11	W1	0.227140	0.310950	0.349900
Cu11	Cu1	0.116940	0.142240	0.311440
Cu21	Cu2	0.201780	0.364070	0.213910
Cu31	Cu3	0.245570	0.266920	0.483060
S11	S1	0.033730	0.283980	0.271030
S21	S2	0.305700	0.175580	0.398020
S31	S3	0.398690	0.374760	0.300010
S41	S4	0.164650	0.398800	0.434160
N11	N1	0.241200	0.088100	0.232600
N21	N2	0.250000	0.303900	0.129800
N31	N3	0.903400	0.983200	0.312900
N41	N4	0.397800	0.942200	0.019500
N51	N5	0.541300	0.077600	0.037200
C11	C1	0.978600	0.045300	0.318100
C21	C2	0.256100	0.273200	0.075800
C31	C3	0.176000	0.033400	0.182600
H11	H1	0.084500	0.010600	0.187600
C41	C4	0.235200	0.008300	0.124100
H21	H2	0.184800	0.970700	0.090200
C51	C5	0.372300	0.041000	0.117700
C61	C6	0.442600	0.096200	0.169200
H31	H3	0.535800	0.118000	0.166500
C71	C7	0.372600	0.118300	0.224600
H41	H4	0.420000	0.156800	0.258800
C81	C8	0.442200	0.019500	0.054500
W21	W2	0.772860	0.810950	0.150100
Cu41	Cu4	0.883060	0.642240	0.188560
Cu51	Cu5	0.798220	0.864070	0.286090
Cu61	Cu6	0.754430	0.766920	0.016940
S51	S5	0.966270	0.783980	0.228970
S61	S6	0.694300	0.675580	0.101980
S71	S7	0.601310	0.874760	0.199990
S81	S8	0.835350	0.898800	0.065840
N61	N6	0.758800	0.588100	0.267400
N71	N7	0.750000	0.803900	0.370200
N81	N8	0.096600	0.483200	0.187100
N91	N9	0.602200	0.442200	0.480500
N101	N10	0.458700	0.577600	0.462800
C91	C9	0.021400	0.545300	0.181900
C101	C10	0.743900	0.773200	0.424200
C111	C11	0.824000	0.533400	0.317400
H51	H5	0.915500	0.510600	0.312400
C121	C12	0.764800	0.508300	0.375900
H61	H6	0.815200	0.470700	0.409800
C131	C13	0.627700	0.541000	0.382300
C141	C14	0.557400	0.596200	0.330800
H71	H7	0.464200	0.618000	0.333500
C151	C15	0.627400	0.618300	0.275400
H81	H8	0.580000	0.656800	0.241200
C161	C16	0.557800	0.519500	0.445500
W31	W3	0.772860	0.689050	0.650100
Cu71	Cu7	0.883060	0.857760	0.688560
Cu81	Cu8	0.798220	0.635930	0.786090
Cu91	Cu9	0.754430	0.733080	0.516940
S91	S9	0.966270	0.716020	0.728970
S101	S10	0.694300	0.824420	0.601980
S111	S11	0.601310	0.625240	0.699990
S121	S12	0.835350	0.601200	0.565840
N111	N11	0.758800	0.911900	0.767400
N121	N12	0.750000	0.696100	0.870200
N131	N13	0.096600	0.016800	0.687100
N141	N14	0.602200	0.057800	0.980500
N151	N15	0.458700	0.922400	0.962800
C171	C17	0.021400	0.954700	0.681900
C181	C18	0.743900	0.726800	0.924200
C191	C19	0.824000	0.966600	0.817400
H91	H9	0.915500	0.989400	0.812400
C201	C20	0.764800	0.991700	0.875900
H101	H10	0.815200	0.029300	0.909800
C211	C21	0.627700	0.959000	0.882300
C221	C22	0.557400	0.903800	0.830800
H111	H11	0.464200	0.882000	0.833500
C231	C23	0.627400	0.881700	0.775400
H121	H12	0.580000	0.843200	0.741200
C241	C24	0.557800	0.980500	0.945500
W41	W4	0.227140	0.189050	0.849900
Cu101	Cu10	0.116940	0.357760	0.811440
Cu111	Cu11	0.201780	0.135930	0.713910
Cu121	Cu12	0.245570	0.233080	0.983060
S131	S13	0.033730	0.216020	0.771030
S141	S14	0.305700	0.324420	0.898020
S151	S15	0.398690	0.125240	0.800010
S161	S16	0.164650	0.101200	0.934160
N161	N16	0.241200	0.411900	0.732600
N171	N17	0.250000	0.196100	0.629800
N181	N18	0.903400	0.516800	0.812900
N191	N19	0.397800	0.557800	0.519500
N201	N20	0.541300	0.422400	0.537200
C251	C25	0.978600	0.454700	0.818100
C261	C26	0.256100	0.226800	0.575800
C271	C27	0.176000	0.466600	0.682600
H131	H13	0.084500	0.489400	0.687600
C281	C28	0.235200	0.491700	0.624100
H141	H14	0.184800	0.529300	0.590200
C291	C29	0.372300	0.459000	0.617700
C301	C30	0.442600	0.403800	0.669200
H151	H15	0.535800	0.382000	0.666500
C311	C31	0.372600	0.381700	0.724600
H161	H16	0.420000	0.343200	0.758800
C321	C32	0.442200	0.480500	0.554500
