data_KUNRAO_freeONLY_PM
_symmetry_space_group_name_H-M	'P1'
_cell_length_a	30.978000
_cell_length_b	12.620000
_cell_length_c	13.339000
_cell_angle_alpha	90.000000
_cell_angle_beta	90.000000
_cell_angle_gamma	90.000000
_symmetry_Int_Tables_number 1

loop_
_symmetry_equiv_pos_as_xyz
'x,y,z'

loop_
_atom_site_label
_atom_site_type_symbol
_atom_site_fract_x
_atom_site_fract_y
_atom_site_fract_z
Zn11	Zn1	0.202990	0.400420	0.100420
O11	O1	0.146500	0.466600	0.066300
N11	N1	0.218500	0.383600	0.244600
N21	N2	0.216200	0.266000	0.032300
N31	N3	0.249800	0.505900	0.061400
C11	C1	0.118800	0.404600	0.110100
C21	C2	0.195900	0.354900	0.321000
C31	C3	0.256200	0.409500	0.286600
N41	N4	0.252600	0.238400	0.975100
C41	C4	0.194400	0.172600	0.038500
O21	O2	0.126800	0.325000	0.152300
C51	C5	0.073100	0.444800	0.102100
N51	N5	0.216200	0.350700	0.407800
H11	H1	0.166100	0.337700	0.315100
N61	N6	0.255200	0.390400	0.383600
H21	H2	0.280200	0.437800	0.251500
C61	C6	0.249300	0.142900	0.949700
Zn21	Zn2	0.295660	0.345780	0.926890
N71	N7	0.214000	0.096100	0.985500
H31	H3	0.168500	0.162800	0.075700
C71	C7	0.041800	0.402400	0.163100
C81	C8	0.061000	0.523000	0.041400
Zn31	Zn3	0.195330	0.303760	0.543390
Zn41	Zn4	0.301570	0.436540	0.487120
H41	H4	0.269900	0.107500	0.908900
C91	C9	0.999600	0.434500	0.160500
H51	H5	0.049800	0.348400	0.209100
H61	H6	0.083100	0.553800	0.001500
C101	C10	0.018800	0.566100	0.029400
N81	N8	0.211800	0.150200	0.544100
O31	O3	0.139000	0.363500	0.579100
N91	N9	0.238800	0.354200	0.643000
O41	O4	0.140800	0.918000	0.908800
O51	O5	0.136100	0.980000	0.064400
N101	N10	0.221000	0.892800	0.122300
H71	H7	0.978700	0.402700	0.203100
C111	C11	0.987500	0.516700	0.092400
C121	C12	0.007000	0.646100	0.966500
C131	C13	0.194500	0.069200	0.493900
C141	C14	0.246500	0.104400	0.586100
C151	C15	0.118600	0.958600	0.986000
C161	C16	0.200700	0.890700	0.206900
C171	C17	0.943900	0.556200	0.091200
C181	C18	0.965600	0.681900	0.962400
H81	H8	0.028100	0.677600	0.924500
N111	N11	0.216700	0.986500	0.496800
H91	H9	0.167700	0.073900	0.459300
H101	H10	0.266100	0.140400	0.629100
C191	C19	0.071600	0.978500	0.969400
C201	C20	0.261300	0.840400	0.241300
N121	N12	0.224400	0.865800	0.283300
H111	H11	0.170800	0.906200	0.212600
C211	C21	0.934100	0.632800	0.024600
H121	H12	0.922700	0.529100	0.135900
H131	H13	0.957900	0.738500	0.919000
C221	C22	0.051300	0.039700	0.037800
C231	C23	0.048600	0.931600	0.888100
H141	H14	0.285600	0.814900	0.277600
C241	C24	0.888500	0.679400	0.016600
O61	O6	0.141900	0.872000	0.396500
H151	H15	0.066200	0.062400	0.096300
C251	C25	0.006800	0.070700	0.022200
H161	H16	0.063000	0.882700	0.845400
C261	C26	0.006300	0.955700	0.870500
O71	O7	0.878900	0.748700	0.957400
C271	C27	0.985500	0.020800	0.945500
C281	C28	0.985500	0.136400	0.086600
H171	H17	0.991500	0.931300	0.812600
C291	C29	0.941200	0.054600	0.928700
H181	H18	0.000500	0.162300	0.143600
C301	C30	0.942900	0.167400	0.073100
C311	C31	0.921400	0.123300	0.989900
H191	H19	0.925800	0.027100	0.872800
H201	H20	0.929100	0.215700	0.117300
C321	C32	0.872900	0.153000	0.974000
O81	O8	0.852500	0.196600	0.053000
Zn51	Zn5	0.797010	0.599580	0.600420
O91	O9	0.853500	0.533400	0.566300
N131	N13	0.781500	0.616400	0.744600
N141	N14	0.783800	0.734000	0.532300
N151	N15	0.750200	0.494100	0.561400
C331	C33	0.881200	0.595400	0.610100
C341	C34	0.804100	0.645100	0.821000
C351	C35	0.743800	0.590500	0.786600
N161	N16	0.747400	0.761600	0.475100
C361	C36	0.805600	0.827400	0.538500
O101	O10	0.873200	0.675000	0.652300
C371	C37	0.926900	0.555200	0.602100
N171	N17	0.783800	0.649300	0.907800
H211	H21	0.833900	0.662300	0.815100
N181	N18	0.744800	0.609600	0.883600
H221	H22	0.719800	0.562200	0.751500
C381	C38	0.750700	0.857100	0.449700
Zn61	Zn6	0.704340	0.654220	0.426890
N191	N19	0.786000	0.903900	0.485500
H231	H23	0.831500	0.837200	0.575700
C391	C39	0.958200	0.597600	0.663100
C401	C40	0.939000	0.477000	0.541400
Zn71	Zn7	0.804670	0.696240	0.043390
Zn81	Zn8	0.698430	0.563460	0.987120
H241	H24	0.730100	0.892500	0.408900
C411	C41	0.000400	0.565500	0.660500
H251	H25	0.950200	0.651600	0.709100
H261	H26	0.916900	0.446200	0.501500
C421	C42	0.981200	0.433900	0.529400
N201	N20	0.788200	0.849800	0.044100
O111	O11	0.861000	0.636500	0.079100
N211	N21	0.761200	0.645800	0.143000
O121	O12	0.859200	0.082000	0.408800
O131	O13	0.863900	0.020000	0.564400
N221	N22	0.779000	0.107200	0.622300
H271	H27	0.021300	0.597300	0.703100
C431	C43	0.012500	0.483300	0.592400
C441	C44	0.993000	0.353900	0.466500
C451	C45	0.805500	0.930800	0.993900
C461	C46	0.753500	0.895600	0.086100
C471	C47	0.881400	0.041400	0.486000
C481	C48	0.799300	0.109300	0.706900
C491	C49	0.056100	0.443800	0.591200
C501	C50	0.034400	0.318100	0.462400
H281	H28	0.971900	0.322400	0.424500
N231	N23	0.783300	0.013500	0.996800
H291	H29	0.832300	0.926100	0.959300
H301	H30	0.733900	0.859600	0.129100
C511	C51	0.928400	0.021500	0.469400
C521	C52	0.738700	0.159600	0.741300
N241	N24	0.775600	0.134200	0.783300
H311	H31	0.829200	0.093800	0.712600
C531	C53	0.065900	0.367200	0.524600
H321	H32	0.077300	0.470900	0.635900
H331	H33	0.042100	0.261500	0.419000
C541	C54	0.948700	0.960300	0.537800
C551	C55	0.951400	0.068400	0.388100
H341	H34	0.714400	0.185100	0.777600
C561	C56	0.111500	0.320600	0.516600
O141	O14	0.858100	0.128000	0.896500
H351	H35	0.933800	0.937600	0.596300
C571	C57	0.993200	0.929300	0.522200
H361	H36	0.937000	0.117300	0.345400
C581	C58	0.993700	0.044300	0.370500
O151	O15	0.121100	0.251300	0.457400
C591	C59	0.014500	0.979200	0.445500
C601	C60	0.014500	0.863600	0.586600
H371	H37	0.008500	0.068700	0.312600
C611	C61	0.058800	0.945400	0.428700
H381	H38	0.999500	0.837700	0.643600
C621	C62	0.057100	0.832600	0.573100
C631	C63	0.078600	0.876700	0.489900
H391	H39	0.074200	0.972900	0.372800
H401	H40	0.070900	0.784300	0.617300
C641	C64	0.127100	0.847000	0.474000
O161	O16	0.147500	0.803400	0.553000
Zn91	Zn9	0.702990	0.099580	0.100420
O171	O17	0.646500	0.033400	0.066300
N251	N25	0.718500	0.116400	0.244600
N261	N26	0.716200	0.234000	0.032300
N271	N27	0.749800	0.994100	0.061400
C651	C65	0.618800	0.095400	0.110100
C661	C66	0.695900	0.145100	0.321000
C671	C67	0.756200	0.090500	0.286600
N281	N28	0.752600	0.261600	0.975100
C681	C68	0.694400	0.327400	0.038500
O181	O18	0.626800	0.175000	0.152300
C691	C69	0.573100	0.055200	0.102100
N291	N29	0.716200	0.149300	0.407800
H411	H41	0.666100	0.162300	0.315100
N301	N30	0.755200	0.109600	0.383600
H421	H42	0.780200	0.062200	0.251500
C701	C70	0.749300	0.357100	0.949700
Zn101	Zn10	0.795660	0.154220	0.926890
N311	N31	0.714000	0.403900	0.985500
H431	H43	0.668500	0.337200	0.075700
C711	C71	0.541800	0.097600	0.163100
C721	C72	0.561000	0.977000	0.041400
Zn111	Zn11	0.695330	0.196240	0.543390
Zn121	Zn12	0.801570	0.063460	0.487120
H441	H44	0.769900	0.392500	0.908900
C731	C73	0.499600	0.065500	0.160500
H451	H45	0.549800	0.151600	0.209100
H461	H46	0.583100	0.946200	0.001500
C741	C74	0.518800	0.933900	0.029400
N321	N32	0.711800	0.349800	0.544100
O191	O19	0.639000	0.136500	0.579100
N331	N33	0.738800	0.145800	0.643000
O201	O20	0.640800	0.582000	0.908800
O211	O21	0.636100	0.520000	0.064400
N341	N34	0.721000	0.607200	0.122300
H471	H47	0.478700	0.097300	0.203100
C751	C75	0.487500	0.983300	0.092400
C761	C76	0.507000	0.853900	0.966500
C771	C77	0.694500	0.430800	0.493900
C781	C78	0.746500	0.395600	0.586100
C791	C79	0.618600	0.541400	0.986000
C801	C80	0.700700	0.609300	0.206900
C811	C81	0.443900	0.943800	0.091200
C821	C82	0.465600	0.818100	0.962400
H481	H48	0.528100	0.822400	0.924500
N351	N35	0.716700	0.513500	0.496800
H491	H49	0.667700	0.426100	0.459300
H501	H50	0.766100	0.359600	0.629100
C831	C83	0.571600	0.521500	0.969400
C841	C84	0.761300	0.659600	0.241300
N361	N36	0.724400	0.634200	0.283300
H511	H51	0.670800	0.593800	0.212600
C851	C85	0.434100	0.867200	0.024600
H521	H52	0.422700	0.970900	0.135900
H531	H53	0.457900	0.761500	0.919000
C861	C86	0.551300	0.460300	0.037800
C871	C87	0.548600	0.568400	0.888100
H541	H54	0.785600	0.685100	0.277600
C881	C88	0.388500	0.820600	0.016600
O221	O22	0.641900	0.628000	0.396500
H551	H55	0.566200	0.437600	0.096300
C891	C89	0.506800	0.429300	0.022200
H561	H56	0.563000	0.617300	0.845400
C901	C90	0.506300	0.544300	0.870500
O231	O23	0.378900	0.751300	0.957400
C911	C91	0.485500	0.479200	0.945500
C921	C92	0.485500	0.363600	0.086600
H571	H57	0.491500	0.568700	0.812600
C931	C93	0.441200	0.445400	0.928700
H581	H58	0.500500	0.337700	0.143600
C941	C94	0.442900	0.332600	0.073100
C951	C95	0.421400	0.376700	0.989900
H591	H59	0.425800	0.472900	0.872800
H601	H60	0.429100	0.284300	0.117300
C961	C96	0.372900	0.347000	0.974000
O241	O24	0.352500	0.303400	0.053000
Zn131	Zn13	0.297010	0.900420	0.600420
O251	O25	0.353500	0.966600	0.566300
N371	N37	0.281500	0.883600	0.744600
N381	N38	0.283800	0.766000	0.532300
N391	N39	0.250200	0.005900	0.561400
C971	C97	0.381200	0.904600	0.610100
C981	C98	0.304100	0.854900	0.821000
C991	C99	0.243800	0.909500	0.786600
N401	N40	0.247400	0.738400	0.475100
C1001	C100	0.305600	0.672600	0.538500
O261	O26	0.373200	0.825000	0.652300
C1011	C101	0.426900	0.944800	0.602100
N411	N41	0.283800	0.850700	0.907800
H611	H61	0.333900	0.837700	0.815100
N421	N42	0.244800	0.890400	0.883600
H621	H62	0.219800	0.937800	0.751500
C1021	C102	0.250700	0.642900	0.449700
Zn141	Zn14	0.204340	0.845780	0.426890
N431	N43	0.286000	0.596100	0.485500
H631	H63	0.331500	0.662800	0.575700
C1031	C103	0.458200	0.902400	0.663100
C1041	C104	0.439000	0.023000	0.541400
Zn151	Zn15	0.304670	0.803760	0.043390
Zn161	Zn16	0.198430	0.936540	0.987120
H641	H64	0.230100	0.607500	0.408900
C1051	C105	0.500400	0.934500	0.660500
H651	H65	0.450200	0.848400	0.709100
H661	H66	0.416900	0.053800	0.501500
C1061	C106	0.481200	0.066100	0.529400
N441	N44	0.288200	0.650200	0.044100
O271	O27	0.361000	0.863500	0.079100
N451	N45	0.261200	0.854200	0.143000
O281	O28	0.359200	0.418000	0.408800
O291	O29	0.363900	0.480000	0.564400
N461	N46	0.279000	0.392800	0.622300
H671	H67	0.521300	0.902700	0.703100
C1071	C107	0.512500	0.016700	0.592400
C1081	C108	0.493000	0.146100	0.466500
C1091	C109	0.305500	0.569200	0.993900
C1101	C110	0.253500	0.604400	0.086100
C1111	C111	0.381400	0.458600	0.486000
C1121	C112	0.299300	0.390700	0.706900
C1131	C113	0.556100	0.056200	0.591200
C1141	C114	0.534400	0.181900	0.462400
H681	H68	0.471900	0.177600	0.424500
N471	N47	0.283300	0.486500	0.996800
H691	H69	0.332300	0.573900	0.959300
H701	H70	0.233900	0.640400	0.129100
C1151	C115	0.428400	0.478500	0.469400
C1161	C116	0.238700	0.340400	0.741300
N481	N48	0.275600	0.365800	0.783300
H711	H71	0.329200	0.406200	0.712600
C1171	C117	0.565900	0.132800	0.524600
H721	H72	0.577300	0.029100	0.635900
H731	H73	0.542100	0.238500	0.419000
C1181	C118	0.448700	0.539700	0.537800
C1191	C119	0.451400	0.431600	0.388100
H741	H74	0.214400	0.314900	0.777600
C1201	C120	0.611500	0.179400	0.516600
O301	O30	0.358100	0.372000	0.896500
H751	H75	0.433800	0.562400	0.596300
C1211	C121	0.493200	0.570700	0.522200
H761	H76	0.437000	0.382700	0.345400
C1221	C122	0.493700	0.455700	0.370500
O311	O31	0.621100	0.248700	0.457400
C1231	C123	0.514500	0.520800	0.445500
C1241	C124	0.514500	0.636400	0.586600
H771	H77	0.508500	0.431300	0.312600
C1251	C125	0.558800	0.554600	0.428700
H781	H78	0.499500	0.662300	0.643600
C1261	C126	0.557100	0.667400	0.573100
C1271	C127	0.578600	0.623300	0.489900
H791	H79	0.574200	0.527100	0.372800
H801	H80	0.570900	0.715700	0.617300
C1281	C128	0.627100	0.653000	0.474000
O321	O32	0.647500	0.696600	0.553000
