data_KUNWEW_freeONLY_PM
_symmetry_space_group_name_H-M	'P1'
_cell_length_a	10.929000
_cell_length_b	16.594000
_cell_length_c	18.277000
_cell_angle_alpha	63.002000
_cell_angle_beta	72.603400
_cell_angle_gamma	90.000000
_symmetry_Int_Tables_number 1

loop_
_symmetry_equiv_pos_as_xyz
'x,y,z'

loop_
_atom_site_label
_atom_site_type_symbol
_atom_site_fract_x
_atom_site_fract_y
_atom_site_fract_z
Zn11	Zn1	0.574110	0.785440	0.649240
Zn21	Zn2	0.635690	0.477160	0.153420
Zn31	Zn3	0.425890	0.434680	0.350760
Zn41	Zn4	0.364310	0.630580	0.846580
Zn51	Zn5	0.776650	0.285440	0.649240
Zn61	Zn6	0.210890	0.977160	0.153420
Zn71	Zn7	0.223350	0.934680	0.350760
Zn81	Zn8	0.789110	0.130580	0.846580
H11	H1	0.735500	0.491200	0.708400
H21	H2	0.734200	0.318800	0.949000
H31	H3	0.634000	0.566400	0.894400
H41	H4	0.937500	0.990100	0.641000
H51	H5	0.767300	0.858200	0.736200
H61	H6	0.908100	0.010700	0.367400
H71	H7	0.817900	0.997700	0.270600
H81	H8	0.625100	0.900600	0.326000
H91	H9	0.523300	0.824300	0.472200
H101	H10	0.038500	0.095900	0.477800
H111	H11	0.025300	0.055400	0.417200
H121	H12	0.988900	0.181700	0.299800
H131	H13	0.864400	0.291100	0.242600
H141	H14	0.652200	0.236500	0.484000
H151	H15	0.770600	0.125500	0.540800
H161	H16	0.264500	0.199600	0.291600
H171	H17	0.265800	0.267800	0.051000
H181	H18	0.366000	0.460800	0.105600
H191	H19	0.062500	0.631100	0.359000
H201	H20	0.232700	0.594400	0.263800
H211	H21	0.091900	0.378100	0.632600
H221	H22	0.182100	0.268300	0.729400
H231	H23	0.374900	0.226600	0.674000
H241	H24	0.476700	0.296500	0.527800
H251	H25	0.961500	0.573700	0.522200
H261	H26	0.974700	0.472600	0.582800
H271	H27	0.011100	0.481500	0.700200
H281	H28	0.135600	0.533700	0.757400
H291	H29	0.347800	0.720500	0.516000
H301	H30	0.229400	0.666300	0.459200
H311	H31	0.556100	0.991200	0.708400
H321	H32	0.316800	0.818800	0.949000
H331	H33	0.471600	0.066400	0.894400
H341	H34	0.421500	0.490100	0.641000
H351	H35	0.496500	0.358200	0.736200
H361	H36	0.724500	0.510700	0.367400
H371	H37	0.911500	0.497700	0.270600
H381	H38	0.048900	0.400600	0.326000
H391	H39	0.004500	0.324300	0.472200
H401	H40	0.483700	0.595900	0.477800
H411	H41	0.557500	0.555400	0.417200
H421	H42	0.711300	0.681700	0.299800
H431	H43	0.893000	0.791100	0.242600
H441	H44	0.863800	0.736500	0.484000
H451	H45	0.688600	0.625500	0.540800
H461	H46	0.443900	0.699600	0.291600
H471	H47	0.683200	0.767800	0.051000
H481	H48	0.528400	0.960800	0.105600
H491	H49	0.578500	0.131100	0.359000
H501	H50	0.503500	0.094400	0.263800
H511	H51	0.275500	0.878100	0.632600
H521	H52	0.088500	0.768300	0.729400
H531	H53	0.951100	0.726600	0.674000
H541	H54	0.995500	0.796500	0.527800
H551	H55	0.516300	0.073700	0.522200
H561	H56	0.442500	0.972600	0.582800
H571	H57	0.288700	0.981500	0.700200
H581	H58	0.107000	0.033700	0.757400
H591	H59	0.136200	0.220500	0.516000
H601	H60	0.311400	0.166300	0.459200
C11	C1	0.721610	0.477910	0.765780
C21	C2	0.743240	0.394540	0.823520
C31	C3	0.722940	0.375540	0.909120
C41	C4	0.685400	0.442200	0.935200
C51	C5	0.662100	0.523100	0.876800
C61	C6	0.679430	0.541930	0.792740
C71	C7	0.669300	0.423900	0.026600
C81	C8	0.649920	0.631420	0.730960
C91	C9	0.780460	0.323160	0.796480
C101	C10	0.886500	0.962000	0.623800
C111	C11	0.791800	0.889900	0.675800
C121	C12	0.797210	0.930110	0.545180
C131	C13	0.759070	0.927870	0.475060
C141	C14	0.828300	0.974200	0.388000
C151	C15	0.775300	0.965200	0.330400
C161	C16	0.661100	0.908500	0.362800
C171	C17	0.600900	0.863500	0.450600
C181	C18	0.976800	0.070900	0.461800
C191	C19	0.893280	0.143280	0.425040
C201	C20	0.919900	0.192300	0.337000
C211	C21	0.845030	0.257730	0.302540
C221	C22	0.742450	0.272850	0.357500
C231	C23	0.718690	0.224290	0.446620
C241	C24	0.790380	0.159180	0.480640
C251	C25	0.660950	0.342950	0.319900
C261	C26	0.278390	0.243690	0.234220
C271	C27	0.256760	0.218060	0.176480
C281	C28	0.277060	0.284660	0.090880
C291	C29	0.314600	0.377400	0.064800
C301	C30	0.337900	0.399900	0.123200
C311	C31	0.320570	0.334670	0.207260
C321	C32	0.330700	0.450500	0.973400
C331	C33	0.350080	0.362380	0.269040
C341	C34	0.219540	0.119640	0.203520
C351	C35	0.113500	0.585800	0.376200
C361	C36	0.208200	0.565700	0.324200
C371	C37	0.202790	0.475290	0.454820
C381	C38	0.240930	0.402930	0.524940
C391	C39	0.171700	0.362200	0.612000
C401	C40	0.224700	0.295600	0.669600
C411	C41	0.338900	0.271300	0.637200
C421	C42	0.399100	0.314100	0.549400
C431	C43	0.023200	0.532700	0.538200
C441	C44	0.106720	0.568320	0.574960
C451	C45	0.080100	0.529300	0.663000
C461	C46	0.154970	0.560270	0.697460
C471	C47	0.257550	0.630350	0.642500
C481	C48	0.281310	0.670910	0.553380
C491	C49	0.209620	0.639820	0.519360
C501	C50	0.339050	0.662850	0.680100
C511	C51	0.512610	0.977910	0.765780
C521	C52	0.433240	0.894540	0.823520
C531	C53	0.367940	0.875540	0.909120
C541	C54	0.379400	0.942200	0.935200
C551	C55	0.461100	0.023100	0.876800
C561	C56	0.527830	0.041930	0.792740
C571	C57	0.304100	0.923900	0.026600
C581	C58	0.619120	0.131420	0.730960
C591	C59	0.423060	0.823160	0.796480
C601	C60	0.489700	0.462000	0.623800
C611	C61	0.532400	0.389900	0.675800
C621	C62	0.657610	0.430110	0.545180
C631	C63	0.765870	0.427870	0.475060
C641	C64	0.783700	0.474200	0.388000
C651	C65	0.894300	0.465200	0.330400
C661	C66	0.976100	0.408500	0.362800
C671	C67	0.948500	0.363500	0.450600
C681	C68	0.561400	0.570900	0.461800
C691	C69	0.681680	0.643280	0.425040
C701	C70	0.743100	0.692300	0.337000
C711	C71	0.852430	0.757730	0.302540
C721	C72	0.900050	0.772850	0.357500
C731	C73	0.834690	0.724290	0.446620
C741	C74	0.728980	0.659180	0.480640
C751	C75	0.019150	0.842950	0.319900
C761	C76	0.487390	0.743690	0.234220
C771	C77	0.566760	0.718060	0.176480
C781	C78	0.632060	0.784660	0.090880
C791	C79	0.620600	0.877400	0.064800
C801	C80	0.538900	0.899900	0.123200
C811	C81	0.472170	0.834670	0.207260
C821	C82	0.695900	0.950500	0.973400
C831	C83	0.380880	0.862380	0.269040
C841	C84	0.576940	0.619640	0.203520
C851	C85	0.510300	0.085800	0.376200
C861	C86	0.467600	0.065700	0.324200
C871	C87	0.342390	0.975290	0.454820
C881	C88	0.234130	0.902930	0.524940
C891	C89	0.216300	0.862200	0.612000
C901	C90	0.105700	0.795600	0.669600
C911	C91	0.023900	0.771300	0.637200
C921	C92	0.051500	0.814100	0.549400
C931	C93	0.438600	0.032700	0.538200
C941	C94	0.318320	0.068320	0.574960
C951	C95	0.256900	0.029300	0.663000
C961	C96	0.147570	0.060270	0.697460
C971	C97	0.099950	0.130350	0.642500
C981	C98	0.165310	0.170910	0.553380
C991	C99	0.271020	0.139820	0.519360
C1001	C100	0.980850	0.162850	0.680100
N11	N1	0.893480	0.986680	0.539840
N21	N2	0.736520	0.869420	0.627560
N31	N3	0.645770	0.871670	0.508460
N41	N4	0.106520	0.526520	0.460160
N51	N5	0.263480	0.496980	0.372440
N61	N6	0.354230	0.380130	0.491540
N71	N7	0.566680	0.486680	0.539840
N81	N8	0.635920	0.369420	0.627560
N91	N9	0.845770	0.371670	0.508460
N101	N10	0.433320	0.026520	0.460160
N111	N11	0.364080	0.996980	0.372440
N121	N12	0.154230	0.880130	0.491540
O11	O1	0.637330	0.488930	0.043340
O21	O2	0.654300	0.341900	0.087000
O31	O3	0.705160	0.665560	0.651880
O41	O4	0.567900	0.670600	0.764200
O51	O5	0.825870	0.346270	0.716660
O61	O6	0.761260	0.241260	0.857280
O71	O7	0.567550	0.355250	0.370100
O81	O8	0.694590	0.384390	0.237420
O91	O9	0.362670	0.532270	0.956660
O101	O10	0.345700	0.428900	0.913000
O111	O11	0.294840	0.317440	0.348120
O121	O12	0.432100	0.434800	0.235800
O131	O13	0.174130	0.062930	0.283340
O141	O14	0.238740	0.098540	0.142720
O151	O15	0.432450	0.725350	0.629900
O161	O16	0.305410	0.621810	0.762580
O171	O17	0.319330	0.988930	0.043340
O181	O18	0.258700	0.841900	0.087000
O191	O19	0.642960	0.165560	0.651880
O201	O20	0.667900	0.170600	0.764200
O211	O21	0.457470	0.846270	0.716660
O221	O22	0.381460	0.741260	0.857280
O231	O23	0.062350	0.855250	0.370100
O241	O24	0.067990	0.884390	0.237420
O251	O25	0.680670	0.032270	0.956660
O261	O26	0.741300	0.928900	0.913000
O271	O27	0.357040	0.817440	0.348120
O281	O28	0.332100	0.934800	0.235800
O291	O29	0.542530	0.562930	0.283340
O301	O30	0.618540	0.598540	0.142720
O311	O31	0.937650	0.225350	0.629900
O321	O32	0.932010	0.121810	0.762580
