data_KUTDAG_freeONLY_PM
_symmetry_space_group_name_H-M	'P1'
_cell_length_a	14.269700
_cell_length_b	40.363000
_cell_length_c	30.931000
_cell_angle_alpha	90.000000
_cell_angle_beta	102.623000
_cell_angle_gamma	90.000000
_symmetry_Int_Tables_number 1

loop_
_symmetry_equiv_pos_as_xyz
'x,y,z'

loop_
_atom_site_label
_atom_site_type_symbol
_atom_site_fract_x
_atom_site_fract_y
_atom_site_fract_z
Co11	Co1	0.600560	0.604930	0.277340
Co21	Co2	0.828560	0.353530	0.227550
Co31	Co3	0.602240	0.698140	0.777510
Co41	Co4	0.330240	0.448190	0.729240
Cd11	Cd1	0.752890	0.525490	0.006590
Cd21	Cd2	0.248100	0.275340	0.502390
N11	N1	0.498600	0.620700	0.296100
N21	N2	0.514300	0.588200	0.230200
N31	N3	0.707700	0.365170	0.202800
N41	N4	0.771600	0.340100	0.272200
N51	N5	0.506500	0.711500	0.727200
N61	N6	0.493500	0.684520	0.801600
N71	N7	0.278800	0.467200	0.773100
N81	N8	0.205900	0.429000	0.703800
O11	O1	0.717500	0.722720	0.480230
O21	O2	0.560000	0.719150	0.456600
O31	O3	0.693700	0.618720	0.327700
O41	O4	0.706100	0.592860	0.252960
O51	O5	0.641100	0.543820	0.052500
O61	O6	0.796200	0.543300	0.073500
O71	O7	0.650800	0.470500	0.043600
O81	O8	0.814400	0.475000	0.035400
O91	O9	0.880400	0.367150	0.182070
O101	O10	0.958100	0.340920	0.258940
O111	O11	0.187300	0.286500	0.439200
O121	O12	0.042600	0.295900	0.457100
O131	O13	0.802000	0.756900	0.577800
O141	O14	0.646600	0.760300	0.556100
O151	O15	0.699900	0.709900	0.753300
O161	O16	0.685800	0.685160	0.827000
O171	O17	0.555900	0.580700	0.955700
O181	O18	0.722200	0.579100	0.978900
O191	O19	0.542200	0.502750	0.959340
O201	O20	0.677200	0.506300	0.938400
O211	O21	0.447900	0.457890	0.756010
O221	O22	0.384300	0.434400	0.678800
O231	O23	0.283400	0.330900	0.528700
O241	O24	0.136600	0.339300	0.538500
O251	O25	0.452500	0.418700	0.042800
O261	O26	0.893000	0.530950	0.983580
C11	C1	0.641600	0.711370	0.454500
C21	C2	0.653200	0.680730	0.425680
C31	C3	0.743400	0.667890	0.425420
H11	H1	0.796800	0.675100	0.446200
C41	C4	0.753800	0.644270	0.394100
C51	C5	0.674000	0.633510	0.363000
C61	C6	0.583700	0.646350	0.363280
C71	C7	0.573300	0.669960	0.394610
H21	H2	0.512900	0.678600	0.394800
C81	C8	0.841900	0.587460	0.401800
H31	H3	0.809300	0.580900	0.424400
H41	H4	0.905000	0.577800	0.407700
H51	H5	0.806300	0.579900	0.373500
C91	C9	0.850300	0.625720	0.401200
C101	C10	0.898400	0.634200	0.362400
H61	H6	0.904000	0.657800	0.360100
H71	H7	0.860000	0.625700	0.335200
H81	H8	0.961200	0.624400	0.367600
C111	C11	0.926100	0.635500	0.443000
H91	H9	0.932100	0.659200	0.444500
H101	H10	0.986900	0.625800	0.441700
H111	H11	0.906300	0.627500	0.468900
C121	C12	0.506500	0.636800	0.330400
H121	H12	0.447900	0.644100	0.335300
C131	C13	0.407400	0.612300	0.267400
H131	H13	0.404400	0.629200	0.244400
C141	C14	0.313700	0.619200	0.281100
H141	H14	0.311700	0.642100	0.290300
H151	H15	0.308100	0.605100	0.305800
C151	C15	0.228200	0.612100	0.240300
H161	H16	0.167700	0.612400	0.249800
H171	H17	0.226000	0.629100	0.218000
C161	C16	0.243200	0.578800	0.221400
H181	H18	0.186100	0.572700	0.199500
H191	H19	0.252500	0.562400	0.244900
C171	C17	0.330300	0.578400	0.199700
H201	H20	0.328400	0.596900	0.179400
H211	H21	0.334000	0.557800	0.184000
C181	C18	0.416600	0.581900	0.241200
H221	H22	0.419900	0.562300	0.260000
C191	C19	0.527100	0.576500	0.192700
H231	H23	0.474000	0.569300	0.171700
C201	C20	0.621700	0.574450	0.182490
C211	C21	0.706100	0.581320	0.213240
C221	C22	0.794200	0.577800	0.201550
C231	C23	0.798000	0.567400	0.159100
H241	H24	0.857000	0.565000	0.151300
C241	C24	0.713500	0.560500	0.128370
C251	C25	0.625400	0.564050	0.140050
H251	H25	0.568900	0.559500	0.119500
C261	C26	0.889200	0.584370	0.236040
C271	C27	0.894800	0.565400	0.279800
H261	H26	0.955100	0.570000	0.299700
H271	H27	0.889700	0.542000	0.273800
H281	H28	0.843200	0.572300	0.293100
C281	C28	0.975100	0.576100	0.215200
H291	H29	0.033800	0.579100	0.236900
H301	H30	0.974600	0.590500	0.190500
H311	H31	0.970400	0.553500	0.205300
C291	C29	0.902100	0.621180	0.249900
H321	H32	0.960600	0.623800	0.271900
H331	H33	0.848800	0.628200	0.262000
H341	H34	0.904900	0.634500	0.224500
C301	C30	0.718700	0.550600	0.083000
C311	C31	0.734700	0.457400	0.045900
C321	C32	0.774000	0.431210	0.082410
C331	C33	0.716400	0.419740	0.110100
H351	H35	0.654000	0.427600	0.106900
C341	C34	0.752100	0.396500	0.142700
C351	C35	0.845400	0.384700	0.147600
C361	C36	0.902900	0.396200	0.119900
C371	C37	0.867200	0.419430	0.087300
H361	H36	0.905800	0.427100	0.068700
C381	C38	0.992700	0.376740	0.114900
C391	C39	0.066800	0.389000	0.155800
H371	H37	0.045400	0.383400	0.182200
H381	H38	0.073500	0.412600	0.154100
H391	H39	0.127700	0.378700	0.156500
C401	C40	0.979200	0.338900	0.110900
H401	H40	0.952000	0.331000	0.134800
H411	H41	0.040400	0.328500	0.112400
H421	H42	0.937000	0.333700	0.083100
C411	C41	0.036200	0.386900	0.076100
H431	H43	0.049400	0.410200	0.077700
H441	H44	0.991800	0.381900	0.048800
H451	H45	0.094900	0.374900	0.077400
C421	C42	0.687300	0.386200	0.167400
H461	H46	0.624800	0.394100	0.159100
C431	C43	0.629800	0.351200	0.222300
H471	H47	0.624700	0.328300	0.211900
C441	C44	0.537300	0.362000	0.212600
H481	H48	0.512000	0.359700	0.181000
H491	H49	0.536400	0.385400	0.219900
C451	C45	0.471000	0.343400	0.237200
H501	H50	0.467300	0.320200	0.228700
H511	H51	0.406800	0.352700	0.229400
C461	C46	0.510600	0.346400	0.287500
H521	H52	0.506900	0.369200	0.297100
H531	H53	0.474700	0.332400	0.303600
C471	C47	0.614700	0.335100	0.295000
H541	H54	0.644500	0.339100	0.325900
H551	H55	0.614500	0.311300	0.290500
C481	C48	0.668400	0.347800	0.271700
H561	H56	0.672100	0.371000	0.281500
C491	C49	0.825400	0.326800	0.312700
H571	H57	0.789800	0.319600	0.332700
C501	C50	0.923900	0.323280	0.326010
C511	C51	0.986500	0.328970	0.298140
C521	C52	0.084500	0.324000	0.313480
C531	C53	0.119900	0.313300	0.356700
H581	H58	0.185500	0.310000	0.367000
C541	C54	0.057300	0.307600	0.384570
C551	C55	0.959200	0.312610	0.369230
H591	H59	0.917300	0.308800	0.387900
C561	C56	0.153300	0.328240	0.281100
C571	C57	0.161300	0.363900	0.264700
H601	H60	0.206000	0.364500	0.245600
H611	H61	0.183300	0.378200	0.289700
H621	H62	0.099400	0.371200	0.248700
C581	C58	0.115600	0.311700	0.235200
H631	H63	0.160700	0.315400	0.216800
H641	H64	0.054800	0.321300	0.221400
H651	H65	0.107900	0.288400	0.239100
C591	C59	0.251700	0.312000	0.300700
H661	H66	0.294100	0.315500	0.280900
H671	H67	0.243200	0.288700	0.304400
H681	H68	0.279000	0.321900	0.328900
C601	C60	0.092400	0.299400	0.427400
C611	C61	0.720000	0.755100	0.583160
C621	C62	0.709500	0.744150	0.628230
C631	C63	0.794700	0.738790	0.659180
H691	H69	0.853300	0.742700	0.651600
C641	C64	0.792200	0.727600	0.701410
C651	C65	0.704500	0.721700	0.712690
C661	C66	0.619400	0.727100	0.681740
C671	C67	0.621800	0.738310	0.639510
H701	H70	0.564900	0.741900	0.618800
C681	C68	0.887900	0.724830	0.735000
C691	C69	0.977100	0.737800	0.719800
H711	H71	0.979400	0.728200	0.691600
H721	H72	0.034000	0.731800	0.741200
H731	H73	0.973500	0.761500	0.717000
C701	C70	0.902100	0.686970	0.742000
H741	H74	0.900100	0.676400	0.714000
H751	H75	0.851800	0.678200	0.754800
H761	H76	0.963100	0.682800	0.761500
C711	C71	0.235700	0.706200	0.708600
H771	H77	0.185100	0.720500	0.692600
H781	H78	0.226900	0.684100	0.696200
C721	C72	0.894000	0.742100	0.780700
H791	H79	0.840200	0.735400	0.792700
H801	H80	0.892900	0.765700	0.776900
H811	H81	0.952500	0.735700	0.800800
C731	C73	0.527400	0.723000	0.691100
H821	H82	0.475600	0.729200	0.668700
C741	C74	0.407600	0.703300	0.731660
H831	H83	0.397700	0.680400	0.721200
C751	C75	0.335100	0.719900	0.707300
H841	H84	0.342100	0.719900	0.676800
H851	H85	0.338700	0.742700	0.717300
C761	C76	0.237200	0.705900	0.757300
H861	H86	0.177900	0.695900	0.761300
H871	H87	0.237500	0.728700	0.767300
C771	C77	0.320500	0.687900	0.787200
H881	H88	0.317200	0.690600	0.818000
H891	H89	0.317600	0.664400	0.780300
C781	C78	0.405900	0.701500	0.779930
H901	H90	0.410100	0.724200	0.791300
C791	C79	0.495200	0.665430	0.832700
H911	H91	0.437100	0.659600	0.839500
C801	C80	0.587500	0.650650	0.860820
C811	C81	0.677500	0.664190	0.861870
C821	C82	0.755800	0.654670	0.894700
C831	C83	0.744100	0.631600	0.926500
H921	H92	0.796500	0.625300	0.948500
C841	C84	0.654100	0.618090	0.925400
C851	C85	0.575700	0.627600	0.892610
H931	H93	0.515500	0.618500	0.891900
C861	C86	0.856200	0.670980	0.899130
C871	C87	0.840300	0.709100	0.900100
H941	H94	0.900900	0.720300	0.903400
H951	H95	0.812000	0.714700	0.924700
H961	H96	0.798200	0.716000	0.873000
C881	C88	0.902300	0.661300	0.861000
H971	H97	0.963800	0.671900	0.864700
H981	H98	0.861800	0.668200	0.833500
H991	H99	0.910500	0.637700	0.860800
C891	C89	0.926300	0.661600	0.942000
H1001	H100	0.986100	0.672900	0.943500
H1011	H101	0.936800	0.638100	0.942600
H1021	H102	0.900000	0.667900	0.966800
C901	C90	0.592500	0.504100	0.931420
C911	C91	0.644000	0.591680	0.959600
C921	C92	0.553000	0.492370	0.882520
C931	C93	0.454900	0.487340	0.867440
H1031	H103	0.413200	0.491400	0.886100
C941	C94	0.419200	0.476200	0.824470
C951	C95	0.481500	0.470100	0.796580
C961	C96	0.579600	0.475100	0.811660
C971	C97	0.615300	0.486270	0.854630
H1041	H104	0.680900	0.489600	0.864700
C981	C98	0.759000	0.476400	0.805200
H1051	H105	0.800200	0.470200	0.785800
H1061	H106	0.779000	0.465200	0.833000
H1071	H107	0.762500	0.499900	0.810000
C991	C99	0.654300	0.466540	0.783800
C1001	C100	0.650600	0.428970	0.774600
H1081	H108	0.586100	0.422700	0.760700
H1091	H109	0.670500	0.417200	0.802000
H1101	H110	0.692800	0.423700	0.755300
C1011	C101	0.634900	0.485400	0.739800
H1111	H111	0.570900	0.480800	0.723600
H1121	H112	0.680100	0.478500	0.722700
H1131	H113	0.641700	0.508800	0.745500
C1021	C102	0.315100	0.472100	0.811500
H1141	H114	0.277600	0.473200	0.832500
C1031	C103	0.115100	0.474600	0.796600
H1151	H115	0.126500	0.458900	0.820800
H1161	H116	0.132400	0.496700	0.808200
C1041	C104	0.973700	0.443000	0.743800
H1171	H117	0.905600	0.445800	0.731400
H1181	H118	0.980600	0.424200	0.763900
C1051	C105	0.022200	0.434000	0.705800
H1191	H119	0.007500	0.450000	0.681900
H1201	H120	0.003600	0.412000	0.694200
C1061	C106	0.175300	0.414500	0.669300
H1211	H121	0.109800	0.410500	0.659800
C1071	C107	0.173000	0.464900	0.760100
H1221	H122	0.157100	0.483200	0.739000
C1081	C108	0.009500	0.473500	0.770500
H1231	H123	0.969000	0.476800	0.791600
H1241	H124	0.999300	0.492200	0.750500
C1091	C109	0.138500	0.435300	0.731600
H1251	H125	0.146800	0.416600	0.752300
C1101	C110	0.246600	0.402370	0.640970
C1111	C111	0.338200	0.415380	0.644710
C1121	C112	0.393200	0.406070	0.614800
C1131	C113	0.356600	0.383700	0.581100
H1261	H126	0.393500	0.377500	0.561100
C1141	C114	0.265000	0.370730	0.577360
C1151	C115	0.210000	0.380040	0.607290
H1271	H127	0.148700	0.371300	0.604800
C1161	C116	0.564500	0.416500	0.652400
H1281	H128	0.626100	0.423600	0.648100
H1291	H129	0.566400	0.393200	0.658700
H1301	H130	0.549100	0.428500	0.676700
C1171	C117	0.487600	0.423430	0.610100
C1181	C118	0.516300	0.418500	0.565200
H1311	H131	0.576000	0.429600	0.565700
H1321	H132	0.467300	0.427600	0.541900
H1331	H133	0.523300	0.395300	0.560000
C1191	C119	0.481300	0.461360	0.614600
H1341	H134	0.541400	0.471200	0.612500
H1351	H135	0.467500	0.466700	0.642800
H1361	H136	0.431100	0.469800	0.591400
C1201	C120	0.226500	0.342500	0.548800
N91	N9	0.311700	0.391650	0.050300
C1211	C121	0.373500	0.405800	0.025100
H1371	H137	0.354800	0.405400	0.994300
C1221	C122	0.310600	0.405100	0.092200
H1381	H138	0.348700	0.424900	0.096700
H1391	H139	0.336600	0.389300	0.114900
H1401	H140	0.245700	0.410300	0.093700
C1231	C123	0.252400	0.364240	0.033600
H1411	H141	0.215700	0.357800	0.054800
H1421	H142	0.291800	0.346000	0.028400
H1431	H143	0.209600	0.370400	0.006300
N101	N10	0.950200	0.506860	0.925760
C1241	C124	0.940000	0.535800	0.955200
H1441	H144	0.967800	0.556200	0.952100
C1251	C125	0.911100	0.478100	0.948900
H1451	H145	0.891500	0.486200	0.974700
H1461	H146	0.960300	0.461700	0.957400
H1471	H147	0.857000	0.468400	0.928900
C1261	C126	0.992600	0.520900	0.889000
H1481	H148	0.002900	0.544200	0.893500
H1491	H149	0.949100	0.517100	0.861100
H1501	H150	0.052700	0.510100	0.889100
N111	N11	0.456500	0.269560	0.420850
O271	O27	0.385800	0.270500	0.482200
C1271	C127	0.416800	0.285990	0.452610
H1511	H151	0.413100	0.309000	0.451900
C1281	C128	0.467400	0.234710	0.424900
H1521	H152	0.442700	0.227200	0.449700
H1531	H153	0.534300	0.229100	0.429500
H1541	H154	0.432700	0.224300	0.398300
C1291	C129	0.488000	0.289400	0.388200
H1551	H155	0.475800	0.312300	0.393000
H1561	H156	0.453600	0.283000	0.359200
H1571	H157	0.555600	0.286100	0.390600
Co51	Co5	0.100560	0.104930	0.277340
Co61	Co6	0.328560	0.853530	0.227550
Co71	Co7	0.102240	0.198140	0.777510
Co81	Co8	0.830240	0.948190	0.729240
Cd31	Cd3	0.252890	0.025490	0.006590
Cd41	Cd4	0.748100	0.775340	0.502390
N121	N12	0.998600	0.120700	0.296100
N131	N13	0.014300	0.088200	0.230200
N141	N14	0.207700	0.865170	0.202800
N151	N15	0.271600	0.840100	0.272200
N161	N16	0.006500	0.211500	0.727200
N171	N17	0.993500	0.184520	0.801600
N181	N18	0.778800	0.967200	0.773100
N191	N19	0.705900	0.929000	0.703800
O281	O28	0.217500	0.222720	0.480230
O291	O29	0.060000	0.219150	0.456600
O301	O30	0.193700	0.118720	0.327700
O311	O31	0.206100	0.092860	0.252960
O321	O32	0.141100	0.043820	0.052500
O331	O33	0.296200	0.043300	0.073500
O341	O34	0.150800	0.970500	0.043600
O351	O35	0.314400	0.975000	0.035400
O361	O36	0.380400	0.867150	0.182070
O371	O37	0.458100	0.840920	0.258940
O381	O38	0.687300	0.786500	0.439200
O391	O39	0.542600	0.795900	0.457100
O401	O40	0.302000	0.256900	0.577800
O411	O41	0.146600	0.260300	0.556100
O421	O42	0.199900	0.209900	0.753300
O431	O43	0.185800	0.185160	0.827000
O441	O44	0.055900	0.080700	0.955700
O451	O45	0.222200	0.079100	0.978900
O461	O46	0.042200	0.002750	0.959340
O471	O47	0.177200	0.006300	0.938400
O481	O48	0.947900	0.957890	0.756010
O491	O49	0.884300	0.934400	0.678800
O501	O50	0.783400	0.830900	0.528700
O511	O51	0.636600	0.839300	0.538500
O521	O52	0.952500	0.918700	0.042800
O531	O53	0.393000	0.030950	0.983580
C1301	C130	0.141600	0.211370	0.454500
C1311	C131	0.153200	0.180730	0.425680
C1321	C132	0.243400	0.167890	0.425420
H1581	H158	0.296800	0.175100	0.446200
C1331	C133	0.253800	0.144270	0.394100
C1341	C134	0.174000	0.133510	0.363000
C1351	C135	0.083700	0.146350	0.363280
C1361	C136	0.073300	0.169960	0.394610
H1591	H159	0.012900	0.178600	0.394800
C1371	C137	0.341900	0.087460	0.401800
H1601	H160	0.309300	0.080900	0.424400
H1611	H161	0.405000	0.077800	0.407700
H1621	H162	0.306300	0.079900	0.373500
C1381	C138	0.350300	0.125720	0.401200
C1391	C139	0.398400	0.134200	0.362400
H1631	H163	0.404000	0.157800	0.360100
H1641	H164	0.360000	0.125700	0.335200
H1651	H165	0.461200	0.124400	0.367600
C1401	C140	0.426100	0.135500	0.443000
H1661	H166	0.432100	0.159200	0.444500
H1671	H167	0.486900	0.125800	0.441700
H1681	H168	0.406300	0.127500	0.468900
C1411	C141	0.006500	0.136800	0.330400
H1691	H169	0.947900	0.144100	0.335300
C1421	C142	0.907400	0.112300	0.267400
H1701	H170	0.904400	0.129200	0.244400
C1431	C143	0.813700	0.119200	0.281100
H1711	H171	0.811700	0.142100	0.290300
H1721	H172	0.808100	0.105100	0.305800
C1441	C144	0.728200	0.112100	0.240300
H1731	H173	0.667700	0.112400	0.249800
H1741	H174	0.726000	0.129100	0.218000
C1451	C145	0.743200	0.078800	0.221400
H1751	H175	0.686100	0.072700	0.199500
H1761	H176	0.752500	0.062400	0.244900
C1461	C146	0.830300	0.078400	0.199700
H1771	H177	0.828400	0.096900	0.179400
H1781	H178	0.834000	0.057800	0.184000
C1471	C147	0.916600	0.081900	0.241200
H1791	H179	0.919900	0.062300	0.260000
C1481	C148	0.027100	0.076500	0.192700
H1801	H180	0.974000	0.069300	0.171700
C1491	C149	0.121700	0.074450	0.182490
C1501	C150	0.206100	0.081320	0.213240
C1511	C151	0.294200	0.077800	0.201550
C1521	C152	0.298000	0.067400	0.159100
H1811	H181	0.357000	0.065000	0.151300
C1531	C153	0.213500	0.060500	0.128370
C1541	C154	0.125400	0.064050	0.140050
H1821	H182	0.068900	0.059500	0.119500
C1551	C155	0.389200	0.084370	0.236040
C1561	C156	0.394800	0.065400	0.279800
H1831	H183	0.455100	0.070000	0.299700
H1841	H184	0.389700	0.042000	0.273800
H1851	H185	0.343200	0.072300	0.293100
C1571	C157	0.475100	0.076100	0.215200
H1861	H186	0.533800	0.079100	0.236900
H1871	H187	0.474600	0.090500	0.190500
H1881	H188	0.470400	0.053500	0.205300
C1581	C158	0.402100	0.121180	0.249900
H1891	H189	0.460600	0.123800	0.271900
H1901	H190	0.348800	0.128200	0.262000
H1911	H191	0.404900	0.134500	0.224500
C1591	C159	0.218700	0.050600	0.083000
C1601	C160	0.234700	0.957400	0.045900
C1611	C161	0.274000	0.931210	0.082410
C1621	C162	0.216400	0.919740	0.110100
H1921	H192	0.154000	0.927600	0.106900
C1631	C163	0.252100	0.896500	0.142700
C1641	C164	0.345400	0.884700	0.147600
C1651	C165	0.402900	0.896200	0.119900
C1661	C166	0.367200	0.919430	0.087300
H1931	H193	0.405800	0.927100	0.068700
C1671	C167	0.492700	0.876740	0.114900
C1681	C168	0.566800	0.889000	0.155800
H1941	H194	0.545400	0.883400	0.182200
H1951	H195	0.573500	0.912600	0.154100
H1961	H196	0.627700	0.878700	0.156500
C1691	C169	0.479200	0.838900	0.110900
H1971	H197	0.452000	0.831000	0.134800
H1981	H198	0.540400	0.828500	0.112400
H1991	H199	0.437000	0.833700	0.083100
C1701	C170	0.536200	0.886900	0.076100
H2001	H200	0.549400	0.910200	0.077700
H2011	H201	0.491800	0.881900	0.048800
H2021	H202	0.594900	0.874900	0.077400
C1711	C171	0.187300	0.886200	0.167400
H2031	H203	0.124800	0.894100	0.159100
C1721	C172	0.129800	0.851200	0.222300
H2041	H204	0.124700	0.828300	0.211900
C1731	C173	0.037300	0.862000	0.212600
H2051	H205	0.012000	0.859700	0.181000
H2061	H206	0.036400	0.885400	0.219900
C1741	C174	0.971000	0.843400	0.237200
H2071	H207	0.967300	0.820200	0.228700
H2081	H208	0.906800	0.852700	0.229400
C1751	C175	0.010600	0.846400	0.287500
H2091	H209	0.006900	0.869200	0.297100
H2101	H210	0.974700	0.832400	0.303600
C1761	C176	0.114700	0.835100	0.295000
H2111	H211	0.144500	0.839100	0.325900
H2121	H212	0.114500	0.811300	0.290500
C1771	C177	0.168400	0.847800	0.271700
H2131	H213	0.172100	0.871000	0.281500
C1781	C178	0.325400	0.826800	0.312700
H2141	H214	0.289800	0.819600	0.332700
C1791	C179	0.423900	0.823280	0.326010
C1801	C180	0.486500	0.828970	0.298140
C1811	C181	0.584500	0.824000	0.313480
C1821	C182	0.619900	0.813300	0.356700
H2151	H215	0.685500	0.810000	0.367000
C1831	C183	0.557300	0.807600	0.384570
C1841	C184	0.459200	0.812610	0.369230
H2161	H216	0.417300	0.808800	0.387900
C1851	C185	0.653300	0.828240	0.281100
C1861	C186	0.661300	0.863900	0.264700
H2171	H217	0.706000	0.864500	0.245600
H2181	H218	0.683300	0.878200	0.289700
H2191	H219	0.599400	0.871200	0.248700
C1871	C187	0.615600	0.811700	0.235200
H2201	H220	0.660700	0.815400	0.216800
H2211	H221	0.554800	0.821300	0.221400
H2221	H222	0.607900	0.788400	0.239100
C1881	C188	0.751700	0.812000	0.300700
H2231	H223	0.794100	0.815500	0.280900
H2241	H224	0.743200	0.788700	0.304400
H2251	H225	0.779000	0.821900	0.328900
C1891	C189	0.592400	0.799400	0.427400
C1901	C190	0.220000	0.255100	0.583160
C1911	C191	0.209500	0.244150	0.628230
C1921	C192	0.294700	0.238790	0.659180
H2261	H226	0.353300	0.242700	0.651600
C1931	C193	0.292200	0.227600	0.701410
C1941	C194	0.204500	0.221700	0.712690
C1951	C195	0.119400	0.227100	0.681740
C1961	C196	0.121800	0.238310	0.639510
H2271	H227	0.064900	0.241900	0.618800
C1971	C197	0.387900	0.224830	0.735000
C1981	C198	0.477100	0.237800	0.719800
H2281	H228	0.479400	0.228200	0.691600
H2291	H229	0.534000	0.231800	0.741200
H2301	H230	0.473500	0.261500	0.717000
C1991	C199	0.402100	0.186970	0.742000
H2311	H231	0.400100	0.176400	0.714000
H2321	H232	0.351800	0.178200	0.754800
H2331	H233	0.463100	0.182800	0.761500
C2001	C200	0.735700	0.206200	0.708600
H2341	H234	0.685100	0.220500	0.692600
H2351	H235	0.726900	0.184100	0.696200
C2011	C201	0.394000	0.242100	0.780700
H2361	H236	0.340200	0.235400	0.792700
H2371	H237	0.392900	0.265700	0.776900
H2381	H238	0.452500	0.235700	0.800800
C2021	C202	0.027400	0.223000	0.691100
H2391	H239	0.975600	0.229200	0.668700
C2031	C203	0.907600	0.203300	0.731660
H2401	H240	0.897700	0.180400	0.721200
C2041	C204	0.835100	0.219900	0.707300
H2411	H241	0.842100	0.219900	0.676800
H2421	H242	0.838700	0.242700	0.717300
C2051	C205	0.737200	0.205900	0.757300
H2431	H243	0.677900	0.195900	0.761300
H2441	H244	0.737500	0.228700	0.767300
C2061	C206	0.820500	0.187900	0.787200
H2451	H245	0.817200	0.190600	0.818000
H2461	H246	0.817600	0.164400	0.780300
C2071	C207	0.905900	0.201500	0.779930
H2471	H247	0.910100	0.224200	0.791300
C2081	C208	0.995200	0.165430	0.832700
H2481	H248	0.937100	0.159600	0.839500
C2091	C209	0.087500	0.150650	0.860820
C2101	C210	0.177500	0.164190	0.861870
C2111	C211	0.255800	0.154670	0.894700
C2121	C212	0.244100	0.131600	0.926500
H2491	H249	0.296500	0.125300	0.948500
C2131	C213	0.154100	0.118090	0.925400
C2141	C214	0.075700	0.127600	0.892610
H2501	H250	0.015500	0.118500	0.891900
C2151	C215	0.356200	0.170980	0.899130
C2161	C216	0.340300	0.209100	0.900100
H2511	H251	0.400900	0.220300	0.903400
H2521	H252	0.312000	0.214700	0.924700
H2531	H253	0.298200	0.216000	0.873000
C2171	C217	0.402300	0.161300	0.861000
H2541	H254	0.463800	0.171900	0.864700
H2551	H255	0.361800	0.168200	0.833500
H2561	H256	0.410500	0.137700	0.860800
C2181	C218	0.426300	0.161600	0.942000
H2571	H257	0.486100	0.172900	0.943500
H2581	H258	0.436800	0.138100	0.942600
H2591	H259	0.400000	0.167900	0.966800
C2191	C219	0.092500	0.004100	0.931420
C2201	C220	0.144000	0.091680	0.959600
C2211	C221	0.053000	0.992370	0.882520
C2221	C222	0.954900	0.987340	0.867440
H2601	H260	0.913200	0.991400	0.886100
C2231	C223	0.919200	0.976200	0.824470
C2241	C224	0.981500	0.970100	0.796580
C2251	C225	0.079600	0.975100	0.811660
C2261	C226	0.115300	0.986270	0.854630
H2611	H261	0.180900	0.989600	0.864700
C2271	C227	0.259000	0.976400	0.805200
H2621	H262	0.300200	0.970200	0.785800
H2631	H263	0.279000	0.965200	0.833000
H2641	H264	0.262500	0.999900	0.810000
C2281	C228	0.154300	0.966540	0.783800
C2291	C229	0.150600	0.928970	0.774600
H2651	H265	0.086100	0.922700	0.760700
H2661	H266	0.170500	0.917200	0.802000
H2671	H267	0.192800	0.923700	0.755300
C2301	C230	0.134900	0.985400	0.739800
H2681	H268	0.070900	0.980800	0.723600
H2691	H269	0.180100	0.978500	0.722700
H2701	H270	0.141700	0.008800	0.745500
C2311	C231	0.815100	0.972100	0.811500
H2711	H271	0.777600	0.973200	0.832500
C2321	C232	0.615100	0.974600	0.796600
H2721	H272	0.626500	0.958900	0.820800
H2731	H273	0.632400	0.996700	0.808200
C2331	C233	0.473700	0.943000	0.743800
H2741	H274	0.405600	0.945800	0.731400
H2751	H275	0.480600	0.924200	0.763900
C2341	C234	0.522200	0.934000	0.705800
H2761	H276	0.507500	0.950000	0.681900
H2771	H277	0.503600	0.912000	0.694200
C2351	C235	0.675300	0.914500	0.669300
H2781	H278	0.609800	0.910500	0.659800
C2361	C236	0.673000	0.964900	0.760100
H2791	H279	0.657100	0.983200	0.739000
C2371	C237	0.509500	0.973500	0.770500
H2801	H280	0.469000	0.976800	0.791600
H2811	H281	0.499300	0.992200	0.750500
C2381	C238	0.638500	0.935300	0.731600
H2821	H282	0.646800	0.916600	0.752300
C2391	C239	0.746600	0.902370	0.640970
C2401	C240	0.838200	0.915380	0.644710
C2411	C241	0.893200	0.906070	0.614800
C2421	C242	0.856600	0.883700	0.581100
H2831	H283	0.893500	0.877500	0.561100
C2431	C243	0.765000	0.870730	0.577360
C2441	C244	0.710000	0.880040	0.607290
H2841	H284	0.648700	0.871300	0.604800
C2451	C245	0.064500	0.916500	0.652400
H2851	H285	0.126100	0.923600	0.648100
H2861	H286	0.066400	0.893200	0.658700
H2871	H287	0.049100	0.928500	0.676700
C2461	C246	0.987600	0.923430	0.610100
C2471	C247	0.016300	0.918500	0.565200
H2881	H288	0.076000	0.929600	0.565700
H2891	H289	0.967300	0.927600	0.541900
H2901	H290	0.023300	0.895300	0.560000
C2481	C248	0.981300	0.961360	0.614600
H2911	H291	0.041400	0.971200	0.612500
H2921	H292	0.967500	0.966700	0.642800
H2931	H293	0.931100	0.969800	0.591400
C2491	C249	0.726500	0.842500	0.548800
N201	N20	0.811700	0.891650	0.050300
C2501	C250	0.873500	0.905800	0.025100
H2941	H294	0.854800	0.905400	0.994300
C2511	C251	0.810600	0.905100	0.092200
H2951	H295	0.848700	0.924900	0.096700
H2961	H296	0.836600	0.889300	0.114900
H2971	H297	0.745700	0.910300	0.093700
C2521	C252	0.752400	0.864240	0.033600
H2981	H298	0.715700	0.857800	0.054800
H2991	H299	0.791800	0.846000	0.028400
H3001	H300	0.709600	0.870400	0.006300
N211	N21	0.450200	0.006860	0.925760
C2531	C253	0.440000	0.035800	0.955200
H3011	H301	0.467800	0.056200	0.952100
C2541	C254	0.411100	0.978100	0.948900
H3021	H302	0.391500	0.986200	0.974700
H3031	H303	0.460300	0.961700	0.957400
H3041	H304	0.357000	0.968400	0.928900
C2551	C255	0.492600	0.020900	0.889000
H3051	H305	0.502900	0.044200	0.893500
H3061	H306	0.449100	0.017100	0.861100
H3071	H307	0.552700	0.010100	0.889100
N221	N22	0.956500	0.769560	0.420850
O541	O54	0.885800	0.770500	0.482200
C2561	C256	0.916800	0.785990	0.452610
H3081	H308	0.913100	0.809000	0.451900
C2571	C257	0.967400	0.734710	0.424900
H3091	H309	0.942700	0.727200	0.449700
H3101	H310	0.034300	0.729100	0.429500
H3111	H311	0.932700	0.724300	0.398300
C2581	C258	0.988000	0.789400	0.388200
H3121	H312	0.975800	0.812300	0.393000
H3131	H313	0.953600	0.783000	0.359200
H3141	H314	0.055600	0.786100	0.390600
Co91	Co9	0.399440	0.604930	0.722660
Co101	Co10	0.171440	0.353530	0.772450
Co111	Co11	0.397760	0.698140	0.222490
Co121	Co12	0.669760	0.448190	0.270760
Cd51	Cd5	0.247110	0.525490	0.993410
Cd61	Cd6	0.751900	0.275340	0.497610
N231	N23	0.501400	0.620700	0.703900
N241	N24	0.485700	0.588200	0.769800
N251	N25	0.292300	0.365170	0.797200
N261	N26	0.228400	0.340100	0.727800
N271	N27	0.493500	0.711500	0.272800
N281	N28	0.506500	0.684520	0.198400
N291	N29	0.721200	0.467200	0.226900
N301	N30	0.794100	0.429000	0.296200
O551	O55	0.282500	0.722720	0.519770
O561	O56	0.440000	0.719150	0.543400
O571	O57	0.306300	0.618720	0.672300
O581	O58	0.293900	0.592860	0.747040
O591	O59	0.358900	0.543820	0.947500
O601	O60	0.203800	0.543300	0.926500
O611	O61	0.349200	0.470500	0.956400
O621	O62	0.185600	0.475000	0.964600
O631	O63	0.119600	0.367150	0.817930
O641	O64	0.041900	0.340920	0.741060
O651	O65	0.812700	0.286500	0.560800
O661	O66	0.957400	0.295900	0.542900
O671	O67	0.198000	0.756900	0.422200
O681	O68	0.353400	0.760300	0.443900
O691	O69	0.300100	0.709900	0.246700
O701	O70	0.314200	0.685160	0.173000
O711	O71	0.444100	0.580700	0.044300
O721	O72	0.277800	0.579100	0.021100
O731	O73	0.457800	0.502750	0.040660
O741	O74	0.322800	0.506300	0.061600
O751	O75	0.552100	0.457890	0.243990
O761	O76	0.615700	0.434400	0.321200
O771	O77	0.716600	0.330900	0.471300
O781	O78	0.863400	0.339300	0.461500
O791	O79	0.547500	0.418700	0.957200
O801	O80	0.107000	0.530950	0.016420
C2591	C259	0.358400	0.711370	0.545500
C2601	C260	0.346800	0.680730	0.574320
C2611	C261	0.256600	0.667890	0.574580
H3151	H315	0.203200	0.675100	0.553800
C2621	C262	0.246200	0.644270	0.605900
C2631	C263	0.326000	0.633510	0.637000
C2641	C264	0.416300	0.646350	0.636720
C2651	C265	0.426700	0.669960	0.605390
H3161	H316	0.487100	0.678600	0.605200
C2661	C266	0.158100	0.587460	0.598200
H3171	H317	0.190700	0.580900	0.575600
H3181	H318	0.095000	0.577800	0.592300
H3191	H319	0.193700	0.579900	0.626500
C2671	C267	0.149700	0.625720	0.598800
C2681	C268	0.101600	0.634200	0.637600
H3201	H320	0.096000	0.657800	0.639900
H3211	H321	0.140000	0.625700	0.664800
H3221	H322	0.038800	0.624400	0.632400
C2691	C269	0.073900	0.635500	0.557000
H3231	H323	0.067900	0.659200	0.555500
H3241	H324	0.013100	0.625800	0.558300
H3251	H325	0.093700	0.627500	0.531100
C2701	C270	0.493500	0.636800	0.669600
H3261	H326	0.552100	0.644100	0.664700
C2711	C271	0.592600	0.612300	0.732600
H3271	H327	0.595600	0.629200	0.755600
C2721	C272	0.686300	0.619200	0.718900
H3281	H328	0.688300	0.642100	0.709700
H3291	H329	0.691900	0.605100	0.694200
C2731	C273	0.771800	0.612100	0.759700
H3301	H330	0.832300	0.612400	0.750200
H3311	H331	0.774000	0.629100	0.782000
C2741	C274	0.756800	0.578800	0.778600
H3321	H332	0.813900	0.572700	0.800500
H3331	H333	0.747500	0.562400	0.755100
C2751	C275	0.669700	0.578400	0.800300
H3341	H334	0.671600	0.596900	0.820600
H3351	H335	0.666000	0.557800	0.816000
C2761	C276	0.583400	0.581900	0.758800
H3361	H336	0.580100	0.562300	0.740000
C2771	C277	0.472900	0.576500	0.807300
H3371	H337	0.526000	0.569300	0.828300
C2781	C278	0.378300	0.574450	0.817510
C2791	C279	0.293900	0.581320	0.786760
C2801	C280	0.205800	0.577800	0.798450
C2811	C281	0.202000	0.567400	0.840900
H3381	H338	0.143000	0.565000	0.848700
C2821	C282	0.286500	0.560500	0.871630
C2831	C283	0.374600	0.564050	0.859950
H3391	H339	0.431100	0.559500	0.880500
C2841	C284	0.110800	0.584370	0.763960
C2851	C285	0.105200	0.565400	0.720200
H3401	H340	0.044900	0.570000	0.700300
H3411	H341	0.110300	0.542000	0.726200
H3421	H342	0.156800	0.572300	0.706900
C2861	C286	0.024900	0.576100	0.784800
H3431	H343	0.966200	0.579100	0.763100
H3441	H344	0.025400	0.590500	0.809500
H3451	H345	0.029600	0.553500	0.794700
C2871	C287	0.097900	0.621180	0.750100
H3461	H346	0.039400	0.623800	0.728100
H3471	H347	0.151200	0.628200	0.738000
H3481	H348	0.095100	0.634500	0.775500
C2881	C288	0.281300	0.550600	0.917000
C2891	C289	0.265300	0.457400	0.954100
C2901	C290	0.226000	0.431210	0.917590
C2911	C291	0.283600	0.419740	0.889900
H3491	H349	0.346000	0.427600	0.893100
C2921	C292	0.247900	0.396500	0.857300
C2931	C293	0.154600	0.384700	0.852400
C2941	C294	0.097100	0.396200	0.880100
C2951	C295	0.132800	0.419430	0.912700
H3501	H350	0.094200	0.427100	0.931300
C2961	C296	0.007300	0.376740	0.885100
C2971	C297	0.933200	0.389000	0.844200
H3511	H351	0.954600	0.383400	0.817800
H3521	H352	0.926500	0.412600	0.845900
H3531	H353	0.872300	0.378700	0.843500
C2981	C298	0.020800	0.338900	0.889100
H3541	H354	0.048000	0.331000	0.865200
H3551	H355	0.959600	0.328500	0.887600
H3561	H356	0.063000	0.333700	0.916900
C2991	C299	0.963800	0.386900	0.923900
H3571	H357	0.950600	0.410200	0.922300
H3581	H358	0.008200	0.381900	0.951200
H3591	H359	0.905100	0.374900	0.922600
C3001	C300	0.312700	0.386200	0.832600
H3601	H360	0.375200	0.394100	0.840900
C3011	C301	0.370200	0.351200	0.777700
H3611	H361	0.375300	0.328300	0.788100
C3021	C302	0.462700	0.362000	0.787400
H3621	H362	0.488000	0.359700	0.819000
H3631	H363	0.463600	0.385400	0.780100
C3031	C303	0.529000	0.343400	0.762800
H3641	H364	0.532700	0.320200	0.771300
H3651	H365	0.593200	0.352700	0.770600
C3041	C304	0.489400	0.346400	0.712500
H3661	H366	0.493100	0.369200	0.702900
H3671	H367	0.525300	0.332400	0.696400
C3051	C305	0.385300	0.335100	0.705000
H3681	H368	0.355500	0.339100	0.674100
H3691	H369	0.385500	0.311300	0.709500
C3061	C306	0.331600	0.347800	0.728300
H3701	H370	0.327900	0.371000	0.718500
C3071	C307	0.174600	0.326800	0.687300
H3711	H371	0.210200	0.319600	0.667300
C3081	C308	0.076100	0.323280	0.673990
C3091	C309	0.013500	0.328970	0.701860
C3101	C310	0.915500	0.324000	0.686520
C3111	C311	0.880100	0.313300	0.643300
H3721	H372	0.814500	0.310000	0.633000
C3121	C312	0.942700	0.307600	0.615430
C3131	C313	0.040800	0.312610	0.630770
H3731	H373	0.082700	0.308800	0.612100
C3141	C314	0.846700	0.328240	0.718900
C3151	C315	0.838700	0.363900	0.735300
H3741	H374	0.794000	0.364500	0.754400
H3751	H375	0.816700	0.378200	0.710300
H3761	H376	0.900600	0.371200	0.751300
C3161	C316	0.884400	0.311700	0.764800
H3771	H377	0.839300	0.315400	0.783200
H3781	H378	0.945200	0.321300	0.778600
H3791	H379	0.892100	0.288400	0.760900
C3171	C317	0.748300	0.312000	0.699300
H3801	H380	0.705900	0.315500	0.719100
H3811	H381	0.756800	0.288700	0.695600
H3821	H382	0.721000	0.321900	0.671100
C3181	C318	0.907600	0.299400	0.572600
C3191	C319	0.280000	0.755100	0.416840
C3201	C320	0.290500	0.744150	0.371770
C3211	C321	0.205300	0.738790	0.340820
H3831	H383	0.146700	0.742700	0.348400
C3221	C322	0.207800	0.727600	0.298590
C3231	C323	0.295500	0.721700	0.287310
C3241	C324	0.380600	0.727100	0.318260
C3251	C325	0.378200	0.738310	0.360490
H3841	H384	0.435100	0.741900	0.381200
C3261	C326	0.112100	0.724830	0.265000
C3271	C327	0.022900	0.737800	0.280200
H3851	H385	0.020600	0.728200	0.308400
H3861	H386	0.966000	0.731800	0.258800
H3871	H387	0.026500	0.761500	0.283000
C3281	C328	0.097900	0.686970	0.258000
H3881	H388	0.099900	0.676400	0.286000
H3891	H389	0.148200	0.678200	0.245200
H3901	H390	0.036900	0.682800	0.238500
C3291	C329	0.764300	0.706200	0.291400
H3911	H391	0.814900	0.720500	0.307400
H3921	H392	0.773100	0.684100	0.303800
C3301	C330	0.106000	0.742100	0.219300
H3931	H393	0.159800	0.735400	0.207300
H3941	H394	0.107100	0.765700	0.223100
H3951	H395	0.047500	0.735700	0.199200
C3311	C331	0.472600	0.723000	0.308900
H3961	H396	0.524400	0.729200	0.331300
C3321	C332	0.592400	0.703300	0.268340
H3971	H397	0.602300	0.680400	0.278800
C3331	C333	0.664900	0.719900	0.292700
H3981	H398	0.657900	0.719900	0.323200
H3991	H399	0.661300	0.742700	0.282700
C3341	C334	0.762800	0.705900	0.242700
H4001	H400	0.822100	0.695900	0.238700
H4011	H401	0.762500	0.728700	0.232700
C3351	C335	0.679500	0.687900	0.212800
H4021	H402	0.682800	0.690600	0.182000
H4031	H403	0.682400	0.664400	0.219700
C3361	C336	0.594100	0.701500	0.220070
H4041	H404	0.589900	0.724200	0.208700
C3371	C337	0.504800	0.665430	0.167300
H4051	H405	0.562900	0.659600	0.160500
C3381	C338	0.412500	0.650650	0.139180
C3391	C339	0.322500	0.664190	0.138130
C3401	C340	0.244200	0.654670	0.105300
C3411	C341	0.255900	0.631600	0.073500
H4061	H406	0.203500	0.625300	0.051500
C3421	C342	0.345900	0.618090	0.074600
C3431	C343	0.424300	0.627600	0.107390
H4071	H407	0.484500	0.618500	0.108100
C3441	C344	0.143800	0.670980	0.100870
C3451	C345	0.159700	0.709100	0.099900
H4081	H408	0.099100	0.720300	0.096600
H4091	H409	0.188000	0.714700	0.075300
H4101	H410	0.201800	0.716000	0.127000
C3461	C346	0.097700	0.661300	0.139000
H4111	H411	0.036200	0.671900	0.135300
H4121	H412	0.138200	0.668200	0.166500
H4131	H413	0.089500	0.637700	0.139200
C3471	C347	0.073700	0.661600	0.058000
H4141	H414	0.013900	0.672900	0.056500
H4151	H415	0.063200	0.638100	0.057400
H4161	H416	0.100000	0.667900	0.033200
C3481	C348	0.407500	0.504100	0.068580
C3491	C349	0.356000	0.591680	0.040400
C3501	C350	0.447000	0.492370	0.117480
C3511	C351	0.545100	0.487340	0.132560
H4171	H417	0.586800	0.491400	0.113900
C3521	C352	0.580800	0.476200	0.175530
C3531	C353	0.518500	0.470100	0.203420
C3541	C354	0.420400	0.475100	0.188340
C3551	C355	0.384700	0.486270	0.145370
H4181	H418	0.319100	0.489600	0.135300
C3561	C356	0.241000	0.476400	0.194800
H4191	H419	0.199800	0.470200	0.214200
H4201	H420	0.221000	0.465200	0.167000
H4211	H421	0.237500	0.499900	0.190000
C3571	C357	0.345700	0.466540	0.216200
C3581	C358	0.349400	0.428970	0.225400
H4221	H422	0.413900	0.422700	0.239300
H4231	H423	0.329500	0.417200	0.198000
H4241	H424	0.307200	0.423700	0.244700
C3591	C359	0.365100	0.485400	0.260200
H4251	H425	0.429100	0.480800	0.276400
H4261	H426	0.319900	0.478500	0.277300
H4271	H427	0.358300	0.508800	0.254500
C3601	C360	0.684900	0.472100	0.188500
H4281	H428	0.722400	0.473200	0.167500
C3611	C361	0.884900	0.474600	0.203400
H4291	H429	0.873500	0.458900	0.179200
H4301	H430	0.867600	0.496700	0.191800
C3621	C362	0.026300	0.443000	0.256200
H4311	H431	0.094400	0.445800	0.268600
H4321	H432	0.019400	0.424200	0.236100
C3631	C363	0.977800	0.434000	0.294200
H4331	H433	0.992500	0.450000	0.318100
H4341	H434	0.996400	0.412000	0.305800
C3641	C364	0.824700	0.414500	0.330700
H4351	H435	0.890200	0.410500	0.340200
C3651	C365	0.827000	0.464900	0.239900
H4361	H436	0.842900	0.483200	0.261000
C3661	C366	0.990500	0.473500	0.229500
H4371	H437	0.031000	0.476800	0.208400
H4381	H438	0.000700	0.492200	0.249500
C3671	C367	0.861500	0.435300	0.268400
H4391	H439	0.853200	0.416600	0.247700
C3681	C368	0.753400	0.402370	0.359030
C3691	C369	0.661800	0.415380	0.355290
C3701	C370	0.606800	0.406070	0.385200
C3711	C371	0.643400	0.383700	0.418900
H4401	H440	0.606500	0.377500	0.438900
C3721	C372	0.735000	0.370730	0.422640
C3731	C373	0.790000	0.380040	0.392710
H4411	H441	0.851300	0.371300	0.395200
C3741	C374	0.435500	0.416500	0.347600
H4421	H442	0.373900	0.423600	0.351900
H4431	H443	0.433600	0.393200	0.341300
H4441	H444	0.450900	0.428500	0.323300
C3751	C375	0.512400	0.423430	0.389900
C3761	C376	0.483700	0.418500	0.434800
H4451	H445	0.424000	0.429600	0.434300
H4461	H446	0.532700	0.427600	0.458100
H4471	H447	0.476700	0.395300	0.440000
C3771	C377	0.518700	0.461360	0.385400
H4481	H448	0.458600	0.471200	0.387500
H4491	H449	0.532500	0.466700	0.357200
H4501	H450	0.568900	0.469800	0.408600
C3781	C378	0.773500	0.342500	0.451200
N311	N31	0.688300	0.391650	0.949700
C3791	C379	0.626500	0.405800	0.974900
H4511	H451	0.645200	0.405400	0.005700
C3801	C380	0.689400	0.405100	0.907800
H4521	H452	0.651300	0.424900	0.903300
H4531	H453	0.663400	0.389300	0.885100
H4541	H454	0.754300	0.410300	0.906300
C3811	C381	0.747600	0.364240	0.966400
H4551	H455	0.784300	0.357800	0.945200
H4561	H456	0.708200	0.346000	0.971600
H4571	H457	0.790400	0.370400	0.993700
N321	N32	0.049800	0.506860	0.074240
C3821	C382	0.060000	0.535800	0.044800
H4581	H458	0.032200	0.556200	0.047900
C3831	C383	0.088900	0.478100	0.051100
H4591	H459	0.108500	0.486200	0.025300
H4601	H460	0.039700	0.461700	0.042600
H4611	H461	0.143000	0.468400	0.071100
C3841	C384	0.007400	0.520900	0.111000
H4621	H462	0.997100	0.544200	0.106500
H4631	H463	0.050900	0.517100	0.138900
H4641	H464	0.947300	0.510100	0.110900
N331	N33	0.543500	0.269560	0.579150
O811	O81	0.614200	0.270500	0.517800
C3851	C385	0.583200	0.285990	0.547390
H4651	H465	0.586900	0.309000	0.548100
C3861	C386	0.532600	0.234710	0.575100
H4661	H466	0.557300	0.227200	0.550300
H4671	H467	0.465700	0.229100	0.570500
H4681	H468	0.567300	0.224300	0.601700
C3871	C387	0.512000	0.289400	0.611800
H4691	H469	0.524200	0.312300	0.607000
H4701	H470	0.546400	0.283000	0.640800
H4711	H471	0.444400	0.286100	0.609400
Co131	Co13	0.899440	0.104930	0.722660
Co141	Co14	0.671440	0.853530	0.772450
Co151	Co15	0.897760	0.198140	0.222490
Co161	Co16	0.169760	0.948190	0.270760
Cd71	Cd7	0.747110	0.025490	0.993410
Cd81	Cd8	0.251900	0.775340	0.497610
N341	N34	0.001400	0.120700	0.703900
N351	N35	0.985700	0.088200	0.769800
N361	N36	0.792300	0.865170	0.797200
N371	N37	0.728400	0.840100	0.727800
N381	N38	0.993500	0.211500	0.272800
N391	N39	0.006500	0.184520	0.198400
N401	N40	0.221200	0.967200	0.226900
N411	N41	0.294100	0.929000	0.296200
O821	O82	0.782500	0.222720	0.519770
O831	O83	0.940000	0.219150	0.543400
O841	O84	0.806300	0.118720	0.672300
O851	O85	0.793900	0.092860	0.747040
O861	O86	0.858900	0.043820	0.947500
O871	O87	0.703800	0.043300	0.926500
O881	O88	0.849200	0.970500	0.956400
O891	O89	0.685600	0.975000	0.964600
O901	O90	0.619600	0.867150	0.817930
O911	O91	0.541900	0.840920	0.741060
O921	O92	0.312700	0.786500	0.560800
O931	O93	0.457400	0.795900	0.542900
O941	O94	0.698000	0.256900	0.422200
O951	O95	0.853400	0.260300	0.443900
O961	O96	0.800100	0.209900	0.246700
O971	O97	0.814200	0.185160	0.173000
O981	O98	0.944100	0.080700	0.044300
O991	O99	0.777800	0.079100	0.021100
O1001	O100	0.957800	0.002750	0.040660
O1011	O101	0.822800	0.006300	0.061600
O1021	O102	0.052100	0.957890	0.243990
O1031	O103	0.115700	0.934400	0.321200
O1041	O104	0.216600	0.830900	0.471300
O1051	O105	0.363400	0.839300	0.461500
O1061	O106	0.047500	0.918700	0.957200
O1071	O107	0.607000	0.030950	0.016420
C3881	C388	0.858400	0.211370	0.545500
C3891	C389	0.846800	0.180730	0.574320
C3901	C390	0.756600	0.167890	0.574580
H4721	H472	0.703200	0.175100	0.553800
C3911	C391	0.746200	0.144270	0.605900
C3921	C392	0.826000	0.133510	0.637000
C3931	C393	0.916300	0.146350	0.636720
C3941	C394	0.926700	0.169960	0.605390
H4731	H473	0.987100	0.178600	0.605200
C3951	C395	0.658100	0.087460	0.598200
H4741	H474	0.690700	0.080900	0.575600
H4751	H475	0.595000	0.077800	0.592300
H4761	H476	0.693700	0.079900	0.626500
C3961	C396	0.649700	0.125720	0.598800
C3971	C397	0.601600	0.134200	0.637600
H4771	H477	0.596000	0.157800	0.639900
H4781	H478	0.640000	0.125700	0.664800
H4791	H479	0.538800	0.124400	0.632400
C3981	C398	0.573900	0.135500	0.557000
H4801	H480	0.567900	0.159200	0.555500
H4811	H481	0.513100	0.125800	0.558300
H4821	H482	0.593700	0.127500	0.531100
C3991	C399	0.993500	0.136800	0.669600
H4831	H483	0.052100	0.144100	0.664700
C4001	C400	0.092600	0.112300	0.732600
H4841	H484	0.095600	0.129200	0.755600
C4011	C401	0.186300	0.119200	0.718900
H4851	H485	0.188300	0.142100	0.709700
H4861	H486	0.191900	0.105100	0.694200
C4021	C402	0.271800	0.112100	0.759700
H4871	H487	0.332300	0.112400	0.750200
H4881	H488	0.274000	0.129100	0.782000
C4031	C403	0.256800	0.078800	0.778600
H4891	H489	0.313900	0.072700	0.800500
H4901	H490	0.247500	0.062400	0.755100
C4041	C404	0.169700	0.078400	0.800300
H4911	H491	0.171600	0.096900	0.820600
H4921	H492	0.166000	0.057800	0.816000
C4051	C405	0.083400	0.081900	0.758800
H4931	H493	0.080100	0.062300	0.740000
C4061	C406	0.972900	0.076500	0.807300
H4941	H494	0.026000	0.069300	0.828300
C4071	C407	0.878300	0.074450	0.817510
C4081	C408	0.793900	0.081320	0.786760
C4091	C409	0.705800	0.077800	0.798450
C4101	C410	0.702000	0.067400	0.840900
H4951	H495	0.643000	0.065000	0.848700
C4111	C411	0.786500	0.060500	0.871630
C4121	C412	0.874600	0.064050	0.859950
H4961	H496	0.931100	0.059500	0.880500
C4131	C413	0.610800	0.084370	0.763960
C4141	C414	0.605200	0.065400	0.720200
H4971	H497	0.544900	0.070000	0.700300
H4981	H498	0.610300	0.042000	0.726200
H4991	H499	0.656800	0.072300	0.706900
C4151	C415	0.524900	0.076100	0.784800
H5001	H500	0.466200	0.079100	0.763100
H5011	H501	0.525400	0.090500	0.809500
H5021	H502	0.529600	0.053500	0.794700
C4161	C416	0.597900	0.121180	0.750100
H5031	H503	0.539400	0.123800	0.728100
H5041	H504	0.651200	0.128200	0.738000
H5051	H505	0.595100	0.134500	0.775500
C4171	C417	0.781300	0.050600	0.917000
C4181	C418	0.765300	0.957400	0.954100
C4191	C419	0.726000	0.931210	0.917590
C4201	C420	0.783600	0.919740	0.889900
H5061	H506	0.846000	0.927600	0.893100
C4211	C421	0.747900	0.896500	0.857300
C4221	C422	0.654600	0.884700	0.852400
C4231	C423	0.597100	0.896200	0.880100
C4241	C424	0.632800	0.919430	0.912700
H5071	H507	0.594200	0.927100	0.931300
C4251	C425	0.507300	0.876740	0.885100
C4261	C426	0.433200	0.889000	0.844200
H5081	H508	0.454600	0.883400	0.817800
H5091	H509	0.426500	0.912600	0.845900
H5101	H510	0.372300	0.878700	0.843500
C4271	C427	0.520800	0.838900	0.889100
H5111	H511	0.548000	0.831000	0.865200
H5121	H512	0.459600	0.828500	0.887600
H5131	H513	0.563000	0.833700	0.916900
C4281	C428	0.463800	0.886900	0.923900
H5141	H514	0.450600	0.910200	0.922300
H5151	H515	0.508200	0.881900	0.951200
H5161	H516	0.405100	0.874900	0.922600
C4291	C429	0.812700	0.886200	0.832600
H5171	H517	0.875200	0.894100	0.840900
C4301	C430	0.870200	0.851200	0.777700
H5181	H518	0.875300	0.828300	0.788100
C4311	C431	0.962700	0.862000	0.787400
H5191	H519	0.988000	0.859700	0.819000
H5201	H520	0.963600	0.885400	0.780100
C4321	C432	0.029000	0.843400	0.762800
H5211	H521	0.032700	0.820200	0.771300
H5221	H522	0.093200	0.852700	0.770600
C4331	C433	0.989400	0.846400	0.712500
H5231	H523	0.993100	0.869200	0.702900
H5241	H524	0.025300	0.832400	0.696400
C4341	C434	0.885300	0.835100	0.705000
H5251	H525	0.855500	0.839100	0.674100
H5261	H526	0.885500	0.811300	0.709500
C4351	C435	0.831600	0.847800	0.728300
H5271	H527	0.827900	0.871000	0.718500
C4361	C436	0.674600	0.826800	0.687300
H5281	H528	0.710200	0.819600	0.667300
C4371	C437	0.576100	0.823280	0.673990
C4381	C438	0.513500	0.828970	0.701860
C4391	C439	0.415500	0.824000	0.686520
C4401	C440	0.380100	0.813300	0.643300
H5291	H529	0.314500	0.810000	0.633000
C4411	C441	0.442700	0.807600	0.615430
C4421	C442	0.540800	0.812610	0.630770
H5301	H530	0.582700	0.808800	0.612100
C4431	C443	0.346700	0.828240	0.718900
C4441	C444	0.338700	0.863900	0.735300
H5311	H531	0.294000	0.864500	0.754400
H5321	H532	0.316700	0.878200	0.710300
H5331	H533	0.400600	0.871200	0.751300
C4451	C445	0.384400	0.811700	0.764800
H5341	H534	0.339300	0.815400	0.783200
H5351	H535	0.445200	0.821300	0.778600
H5361	H536	0.392100	0.788400	0.760900
C4461	C446	0.248300	0.812000	0.699300
H5371	H537	0.205900	0.815500	0.719100
H5381	H538	0.256800	0.788700	0.695600
H5391	H539	0.221000	0.821900	0.671100
C4471	C447	0.407600	0.799400	0.572600
C4481	C448	0.780000	0.255100	0.416840
C4491	C449	0.790500	0.244150	0.371770
C4501	C450	0.705300	0.238790	0.340820
H5401	H540	0.646700	0.242700	0.348400
C4511	C451	0.707800	0.227600	0.298590
C4521	C452	0.795500	0.221700	0.287310
C4531	C453	0.880600	0.227100	0.318260
C4541	C454	0.878200	0.238310	0.360490
H5411	H541	0.935100	0.241900	0.381200
C4551	C455	0.612100	0.224830	0.265000
C4561	C456	0.522900	0.237800	0.280200
H5421	H542	0.520600	0.228200	0.308400
H5431	H543	0.466000	0.231800	0.258800
H5441	H544	0.526500	0.261500	0.283000
C4571	C457	0.597900	0.186970	0.258000
H5451	H545	0.599900	0.176400	0.286000
H5461	H546	0.648200	0.178200	0.245200
H5471	H547	0.536900	0.182800	0.238500
C4581	C458	0.264300	0.206200	0.291400
H5481	H548	0.314900	0.220500	0.307400
H5491	H549	0.273100	0.184100	0.303800
C4591	C459	0.606000	0.242100	0.219300
H5501	H550	0.659800	0.235400	0.207300
H5511	H551	0.607100	0.265700	0.223100
H5521	H552	0.547500	0.235700	0.199200
C4601	C460	0.972600	0.223000	0.308900
H5531	H553	0.024400	0.229200	0.331300
C4611	C461	0.092400	0.203300	0.268340
H5541	H554	0.102300	0.180400	0.278800
C4621	C462	0.164900	0.219900	0.292700
H5551	H555	0.157900	0.219900	0.323200
H5561	H556	0.161300	0.242700	0.282700
C4631	C463	0.262800	0.205900	0.242700
H5571	H557	0.322100	0.195900	0.238700
H5581	H558	0.262500	0.228700	0.232700
C4641	C464	0.179500	0.187900	0.212800
H5591	H559	0.182800	0.190600	0.182000
H5601	H560	0.182400	0.164400	0.219700
C4651	C465	0.094100	0.201500	0.220070
H5611	H561	0.089900	0.224200	0.208700
C4661	C466	0.004800	0.165430	0.167300
H5621	H562	0.062900	0.159600	0.160500
C4671	C467	0.912500	0.150650	0.139180
C4681	C468	0.822500	0.164190	0.138130
C4691	C469	0.744200	0.154670	0.105300
C4701	C470	0.755900	0.131600	0.073500
H5631	H563	0.703500	0.125300	0.051500
C4711	C471	0.845900	0.118090	0.074600
C4721	C472	0.924300	0.127600	0.107390
H5641	H564	0.984500	0.118500	0.108100
C4731	C473	0.643800	0.170980	0.100870
C4741	C474	0.659700	0.209100	0.099900
H5651	H565	0.599100	0.220300	0.096600
H5661	H566	0.688000	0.214700	0.075300
H5671	H567	0.701800	0.216000	0.127000
C4751	C475	0.597700	0.161300	0.139000
H5681	H568	0.536200	0.171900	0.135300
H5691	H569	0.638200	0.168200	0.166500
H5701	H570	0.589500	0.137700	0.139200
C4761	C476	0.573700	0.161600	0.058000
H5711	H571	0.513900	0.172900	0.056500
H5721	H572	0.563200	0.138100	0.057400
H5731	H573	0.600000	0.167900	0.033200
C4771	C477	0.907500	0.004100	0.068580
C4781	C478	0.856000	0.091680	0.040400
C4791	C479	0.947000	0.992370	0.117480
C4801	C480	0.045100	0.987340	0.132560
H5741	H574	0.086800	0.991400	0.113900
C4811	C481	0.080800	0.976200	0.175530
C4821	C482	0.018500	0.970100	0.203420
C4831	C483	0.920400	0.975100	0.188340
C4841	C484	0.884700	0.986270	0.145370
H5751	H575	0.819100	0.989600	0.135300
C4851	C485	0.741000	0.976400	0.194800
H5761	H576	0.699800	0.970200	0.214200
H5771	H577	0.721000	0.965200	0.167000
H5781	H578	0.737500	0.999900	0.190000
C4861	C486	0.845700	0.966540	0.216200
C4871	C487	0.849400	0.928970	0.225400
H5791	H579	0.913900	0.922700	0.239300
H5801	H580	0.829500	0.917200	0.198000
H5811	H581	0.807200	0.923700	0.244700
C4881	C488	0.865100	0.985400	0.260200
H5821	H582	0.929100	0.980800	0.276400
H5831	H583	0.819900	0.978500	0.277300
H5841	H584	0.858300	0.008800	0.254500
C4891	C489	0.184900	0.972100	0.188500
H5851	H585	0.222400	0.973200	0.167500
C4901	C490	0.384900	0.974600	0.203400
H5861	H586	0.373500	0.958900	0.179200
H5871	H587	0.367600	0.996700	0.191800
C4911	C491	0.526300	0.943000	0.256200
H5881	H588	0.594400	0.945800	0.268600
H5891	H589	0.519400	0.924200	0.236100
C4921	C492	0.477800	0.934000	0.294200
H5901	H590	0.492500	0.950000	0.318100
H5911	H591	0.496400	0.912000	0.305800
C4931	C493	0.324700	0.914500	0.330700
H5921	H592	0.390200	0.910500	0.340200
C4941	C494	0.327000	0.964900	0.239900
H5931	H593	0.342900	0.983200	0.261000
C4951	C495	0.490500	0.973500	0.229500
H5941	H594	0.531000	0.976800	0.208400
H5951	H595	0.500700	0.992200	0.249500
C4961	C496	0.361500	0.935300	0.268400
H5961	H596	0.353200	0.916600	0.247700
C4971	C497	0.253400	0.902370	0.359030
C4981	C498	0.161800	0.915380	0.355290
C4991	C499	0.106800	0.906070	0.385200
C5001	C500	0.143400	0.883700	0.418900
H5971	H597	0.106500	0.877500	0.438900
C5011	C501	0.235000	0.870730	0.422640
C5021	C502	0.290000	0.880040	0.392710
H5981	H598	0.351300	0.871300	0.395200
C5031	C503	0.935500	0.916500	0.347600
H5991	H599	0.873900	0.923600	0.351900
H6001	H600	0.933600	0.893200	0.341300
H6011	H601	0.950900	0.928500	0.323300
C5041	C504	0.012400	0.923430	0.389900
C5051	C505	0.983700	0.918500	0.434800
H6021	H602	0.924000	0.929600	0.434300
H6031	H603	0.032700	0.927600	0.458100
H6041	H604	0.976700	0.895300	0.440000
C5061	C506	0.018700	0.961360	0.385400
H6051	H605	0.958600	0.971200	0.387500
H6061	H606	0.032500	0.966700	0.357200
H6071	H607	0.068900	0.969800	0.408600
C5071	C507	0.273500	0.842500	0.451200
N421	N42	0.188300	0.891650	0.949700
C5081	C508	0.126500	0.905800	0.974900
H6081	H608	0.145200	0.905400	0.005700
C5091	C509	0.189400	0.905100	0.907800
H6091	H609	0.151300	0.924900	0.903300
H6101	H610	0.163400	0.889300	0.885100
H6111	H611	0.254300	0.910300	0.906300
C5101	C510	0.247600	0.864240	0.966400
H6121	H612	0.284300	0.857800	0.945200
H6131	H613	0.208200	0.846000	0.971600
H6141	H614	0.290400	0.870400	0.993700
N431	N43	0.549800	0.006860	0.074240
C5111	C511	0.560000	0.035800	0.044800
H6151	H615	0.532200	0.056200	0.047900
C5121	C512	0.588900	0.978100	0.051100
H6161	H616	0.608500	0.986200	0.025300
H6171	H617	0.539700	0.961700	0.042600
H6181	H618	0.643000	0.968400	0.071100
C5131	C513	0.507400	0.020900	0.111000
H6191	H619	0.497100	0.044200	0.106500
H6201	H620	0.550900	0.017100	0.138900
H6211	H621	0.447300	0.010100	0.110900
N441	N44	0.043500	0.769560	0.579150
O1081	O108	0.114200	0.770500	0.517800
C5141	C514	0.083200	0.785990	0.547390
H6221	H622	0.086900	0.809000	0.548100
C5151	C515	0.032600	0.734710	0.575100
H6231	H623	0.057300	0.727200	0.550300
H6241	H624	0.965700	0.729100	0.570500
H6251	H625	0.067300	0.724300	0.601700
C5161	C516	0.012000	0.789400	0.611800
H6261	H626	0.024200	0.812300	0.607000
H6271	H627	0.046400	0.783000	0.640800
H6281	H628	0.944400	0.786100	0.609400
Cd91	Cd9	0.500000	0.547000	0.000000
Cd101	Cd10	0.500000	0.459680	0.000000
Cd111	Cd11	0.000000	0.047000	0.000000
Cd121	Cd12	0.000000	0.959680	0.000000
Cd131	Cd13	0.000000	0.339600	0.500000
Cd141	Cd14	0.000000	0.252700	0.500000
Cd151	Cd15	0.500000	0.839600	0.500000
Cd161	Cd16	0.500000	0.752700	0.500000
