data_KUXLUL_freeONLY_PM
_symmetry_space_group_name_H-M	'P1'
_cell_length_a	10.890800
_cell_length_b	11.553700
_cell_length_c	16.779300
_cell_angle_alpha	90.000000
_cell_angle_beta	90.000000
_cell_angle_gamma	90.000000
_symmetry_Int_Tables_number 1

loop_
_symmetry_equiv_pos_as_xyz
'x,y,z'

loop_
_atom_site_label
_atom_site_type_symbol
_atom_site_fract_x
_atom_site_fract_y
_atom_site_fract_z
Cu11	Cu1	0.000000	0.821380	0.864660
Cu21	Cu2	0.000000	0.178620	0.135340
Cu31	Cu3	0.137980	0.000000	0.000000
Cu41	Cu4	0.862020	0.000000	0.000000
H11	H1	0.313900	0.293400	0.231600
H21	H2	0.313900	0.706600	0.768400
H31	H3	0.686100	0.706600	0.768400
H41	H4	0.686100	0.293400	0.231600
H51	H5	0.000000	0.840000	0.997000
H61	H6	0.000000	0.160000	0.003000
H71	H7	0.500000	0.109400	0.065400
H81	H8	0.500000	0.890600	0.934600
C11	C1	0.268300	0.156700	0.107500
C21	C2	0.060600	0.762600	0.708700
C31	C3	0.935000	0.644000	0.622000
C41	C4	0.131000	0.700000	0.574000
C51	C5	0.268300	0.843300	0.892500
C61	C6	0.060600	0.237400	0.291300
C71	C7	0.935000	0.356000	0.378000
C81	C8	0.131000	0.300000	0.426000
C91	C9	0.388700	0.194700	0.143200
C101	C10	0.389300	0.267700	0.209300
C111	C11	0.388700	0.805300	0.856800
C121	C12	0.389300	0.732300	0.790700
C131	C13	0.731700	0.843300	0.892500
C141	C14	0.939400	0.237400	0.291300
C151	C15	0.065000	0.356000	0.378000
C161	C16	0.869000	0.300000	0.426000
C171	C17	0.731700	0.156700	0.107500
C181	C18	0.939400	0.762600	0.708700
C191	C19	0.065000	0.644000	0.622000
C201	C20	0.869000	0.700000	0.574000
C211	C21	0.611300	0.805300	0.856800
C221	C22	0.610700	0.732300	0.790700
C231	C23	0.611300	0.194700	0.143200
C241	C24	0.610700	0.267700	0.209300
C251	C25	0.500000	0.158900	0.110500
C261	C26	0.500000	0.303000	0.242700
C271	C27	0.500000	0.841100	0.889500
C281	C28	0.500000	0.697000	0.757300
S11	S1	0.500000	0.399530	0.325720
S21	S2	0.500000	0.600470	0.674280
N11	N1	0.048700	0.719900	0.639300
N21	N2	0.048700	0.280100	0.360700
N31	N3	0.951300	0.280100	0.360700
N41	N4	0.951300	0.719900	0.639300
O11	O1	0.270500	0.085900	0.051700
O21	O2	0.175100	0.797000	0.861700
O31	O3	0.270500	0.914100	0.948300
O41	O4	0.175100	0.203000	0.138300
O51	O5	0.389300	0.378400	0.370200
O61	O6	0.389300	0.621600	0.629800
O71	O7	0.729500	0.914100	0.948300
O81	O8	0.824900	0.203000	0.138300
O91	O9	0.729500	0.085900	0.051700
O101	O10	0.824900	0.797000	0.861700
O111	O11	0.610700	0.621600	0.629800
O121	O12	0.610700	0.378400	0.370200
O131	O13	0.000000	0.898400	0.967100
O141	O14	0.000000	0.734600	0.764700
O151	O15	0.000000	0.101600	0.032900
O161	O16	0.000000	0.265400	0.235300
O171	O17	0.500000	0.513700	0.289600
O181	O18	0.500000	0.486300	0.710400
Cu51	Cu5	0.500000	0.678620	0.364660
Cu61	Cu6	0.500000	0.321380	0.635340
Cu71	Cu7	0.362020	0.500000	0.500000
Cu81	Cu8	0.637980	0.500000	0.500000
H91	H9	0.186100	0.206600	0.731600
H101	H10	0.186100	0.793400	0.268400
H111	H11	0.813900	0.793400	0.268400
H121	H12	0.813900	0.206600	0.731600
H131	H13	0.000000	0.390600	0.565400
H141	H14	0.000000	0.609400	0.434600
H151	H15	0.500000	0.660000	0.497000
H161	H16	0.500000	0.340000	0.503000
C291	C29	0.111300	0.305300	0.643200
C301	C30	0.110700	0.232300	0.709300
C311	C31	0.111300	0.694700	0.356800
C321	C32	0.110700	0.767700	0.290700
C331	C33	0.231700	0.343300	0.607500
C341	C34	0.439400	0.737400	0.208700
C351	C35	0.565000	0.856000	0.122000
C361	C36	0.369000	0.800000	0.074000
C371	C37	0.231700	0.656700	0.392500
C381	C38	0.439400	0.262600	0.791300
C391	C39	0.565000	0.144000	0.878000
C401	C40	0.369000	0.200000	0.926000
C411	C41	0.888700	0.694700	0.356800
C421	C42	0.889300	0.767700	0.290700
C431	C43	0.888700	0.305300	0.643200
C441	C44	0.889300	0.232300	0.709300
C451	C45	0.768300	0.656700	0.392500
C461	C46	0.560600	0.262600	0.791300
C471	C47	0.435000	0.144000	0.878000
C481	C48	0.631000	0.200000	0.926000
C491	C49	0.768300	0.343300	0.607500
C501	C50	0.560600	0.737400	0.208700
C511	C51	0.435000	0.856000	0.122000
C521	C52	0.631000	0.800000	0.074000
C531	C53	0.000000	0.341100	0.610500
C541	C54	0.000000	0.197000	0.742700
C551	C55	0.000000	0.658900	0.389500
C561	C56	0.000000	0.803000	0.257300
S31	S3	0.000000	0.100470	0.825720
S41	S4	0.000000	0.899530	0.174280
N51	N5	0.451300	0.780100	0.139300
N61	N6	0.451300	0.219900	0.860700
N71	N7	0.548700	0.219900	0.860700
N81	N8	0.548700	0.780100	0.139300
O191	O19	0.110700	0.121600	0.870200
O201	O20	0.110700	0.878400	0.129800
O211	O21	0.229500	0.414100	0.551700
O221	O22	0.324900	0.703000	0.361700
O231	O23	0.229500	0.585900	0.448300
O241	O24	0.324900	0.297000	0.638300
O251	O25	0.889300	0.878400	0.129800
O261	O26	0.889300	0.121600	0.870200
O271	O27	0.770500	0.585900	0.448300
O281	O28	0.675100	0.297000	0.638300
O291	O29	0.770500	0.414100	0.551700
O301	O30	0.675100	0.703000	0.361700
O311	O31	0.000000	0.986300	0.789600
O321	O32	0.000000	0.013700	0.210400
O331	O33	0.500000	0.601600	0.467100
O341	O34	0.500000	0.765400	0.264700
O351	O35	0.500000	0.398400	0.532900
O361	O36	0.500000	0.234600	0.735300
