data_KUZPEC_freeONLY_PM
_symmetry_space_group_name_H-M	'P1'
_cell_length_a	30.576500
_cell_length_b	28.363000
_cell_length_c	12.275600
_cell_angle_alpha	90.000000
_cell_angle_beta	90.000000
_cell_angle_gamma	90.000000
_symmetry_Int_Tables_number 1

loop_
_symmetry_equiv_pos_as_xyz
'x,y,z'

loop_
_atom_site_label
_atom_site_type_symbol
_atom_site_fract_x
_atom_site_fract_y
_atom_site_fract_z
N11	N1	0.429760	0.077590	0.516800
N21	N2	0.587130	0.925330	0.970900
C11	C1	0.415700	0.037070	0.474800
H11	H1	0.388000	0.026600	0.494500
C21	C2	0.439670	0.009720	0.403700
H21	H2	0.427900	0.981900	0.376500
C31	C3	0.480520	0.023390	0.373300
C41	C4	0.495880	0.064980	0.417800
H31	H3	0.523800	0.075700	0.400500
C51	C5	0.469820	0.090410	0.487900
H41	H4	0.481000	0.118200	0.516700
C61	C6	0.597500	0.969390	0.999900
H51	H5	0.623700	0.981900	0.974400
C71	C7	0.571730	0.997330	0.065400
H61	H6	0.580800	0.027600	0.083600
C81	C8	0.532450	0.980260	0.104000
C91	C9	0.521060	0.935240	0.071700
H71	H7	0.494600	0.922300	0.094300
C101	C10	0.548570	0.909550	0.006400
H81	H8	0.539900	0.879400	0.985700
C111	C11	0.508530	0.994760	0.296700
H91	H9	0.500900	0.961700	0.304300
H101	H10	0.538900	0.998300	0.317600
C121	C12	0.503560	0.008870	0.178300
H111	H11	0.510800	0.042000	0.170500
H121	H12	0.473300	0.004800	0.156500
N31	N3	0.429760	0.577590	0.016800
N41	N4	0.587130	0.425330	0.470900
C131	C13	0.415700	0.537070	0.974800
H131	H13	0.388000	0.526600	0.994500
C141	C14	0.439670	0.509720	0.903700
H141	H14	0.427900	0.481900	0.876500
C151	C15	0.480520	0.523390	0.873300
C161	C16	0.495880	0.564980	0.917800
H151	H15	0.523800	0.575700	0.900500
C171	C17	0.469820	0.590410	0.987900
H161	H16	0.481000	0.618200	0.016700
C181	C18	0.597500	0.469390	0.499900
H171	H17	0.623700	0.481900	0.474400
C191	C19	0.571730	0.497330	0.565400
H181	H18	0.580800	0.527600	0.583600
C201	C20	0.532450	0.480260	0.604000
C211	C21	0.521060	0.435240	0.571700
H191	H19	0.494600	0.422300	0.594300
C221	C22	0.548570	0.409550	0.506400
H201	H20	0.539900	0.379400	0.485700
C231	C23	0.508530	0.494760	0.796700
H211	H21	0.500900	0.461700	0.804300
H221	H22	0.538900	0.498300	0.817600
C241	C24	0.503560	0.508870	0.678300
H231	H23	0.510800	0.542000	0.670500
H241	H24	0.473300	0.504800	0.656500
N51	N5	0.929760	0.077590	0.016800
N61	N6	0.087130	0.925330	0.470900
C251	C25	0.915700	0.037070	0.974800
H251	H25	0.888000	0.026600	0.994500
C261	C26	0.939670	0.009720	0.903700
H261	H26	0.927900	0.981900	0.876500
C271	C27	0.980520	0.023390	0.873300
C281	C28	0.995880	0.064980	0.917800
H271	H27	0.023800	0.075700	0.900500
C291	C29	0.969820	0.090410	0.987900
H281	H28	0.981000	0.118200	0.016700
C301	C30	0.097500	0.969390	0.499900
H291	H29	0.123700	0.981900	0.474400
C311	C31	0.071730	0.997330	0.565400
H301	H30	0.080800	0.027600	0.583600
C321	C32	0.032450	0.980260	0.604000
C331	C33	0.021060	0.935240	0.571700
H311	H31	0.994600	0.922300	0.594300
C341	C34	0.048570	0.909550	0.506400
H321	H32	0.039900	0.879400	0.485700
C351	C35	0.008530	0.994760	0.796700
H331	H33	0.000900	0.961700	0.804300
H341	H34	0.038900	0.998300	0.817600
C361	C36	0.003560	0.008870	0.678300
H351	H35	0.010800	0.042000	0.670500
H361	H36	0.973300	0.004800	0.656500
N71	N7	0.929760	0.577590	0.516800
N81	N8	0.087130	0.425330	0.970900
C371	C37	0.915700	0.537070	0.474800
H371	H37	0.888000	0.526600	0.494500
C381	C38	0.939670	0.509720	0.403700
H381	H38	0.927900	0.481900	0.376500
C391	C39	0.980520	0.523390	0.373300
C401	C40	0.995880	0.564980	0.417800
H391	H39	0.023800	0.575700	0.400500
C411	C41	0.969820	0.590410	0.487900
H401	H40	0.981000	0.618200	0.516700
C421	C42	0.097500	0.469390	0.999900
H411	H41	0.123700	0.481900	0.974400
C431	C43	0.071730	0.497330	0.065400
H421	H42	0.080800	0.527600	0.083600
C441	C44	0.032450	0.480260	0.104000
C451	C45	0.021060	0.435240	0.071700
H431	H43	0.994600	0.422300	0.094300
C461	C46	0.048570	0.409550	0.006400
H441	H44	0.039900	0.379400	0.985700
C471	C47	0.008530	0.494760	0.296700
H451	H45	0.000900	0.461700	0.304300
H461	H46	0.038900	0.498300	0.317600
C481	C48	0.003560	0.508870	0.178300
H471	H47	0.010800	0.542000	0.170500
H481	H48	0.973300	0.504800	0.156500
N91	N9	0.429760	0.672410	0.233200
N101	N10	0.587130	0.824670	0.779100
C491	C49	0.415700	0.712930	0.275200
H491	H49	0.388000	0.723400	0.255500
C501	C50	0.439670	0.740280	0.346300
H501	H50	0.427900	0.768100	0.373500
C511	C51	0.480520	0.726610	0.376700
C521	C52	0.495880	0.685020	0.332200
H511	H51	0.523800	0.674300	0.349500
C531	C53	0.469820	0.659590	0.262100
H521	H52	0.481000	0.631800	0.233300
C541	C54	0.597500	0.780610	0.750100
H531	H53	0.623700	0.768100	0.775600
C551	C55	0.571730	0.752670	0.684600
H541	H54	0.580800	0.722400	0.666400
C561	C56	0.532450	0.769740	0.646000
C571	C57	0.521060	0.814760	0.678300
H551	H55	0.494600	0.827700	0.655700
C581	C58	0.548570	0.840450	0.743600
H561	H56	0.539900	0.870600	0.764300
C591	C59	0.508530	0.755240	0.453300
H571	H57	0.500900	0.788300	0.445700
H581	H58	0.538900	0.751700	0.432400
C601	C60	0.503560	0.741130	0.571700
H591	H59	0.510800	0.708000	0.579500
H601	H60	0.473300	0.745200	0.593500
N111	N11	0.429760	0.172410	0.733200
N121	N12	0.587130	0.324670	0.279100
C611	C61	0.415700	0.212930	0.775200
H611	H61	0.388000	0.223400	0.755500
C621	C62	0.439670	0.240280	0.846300
H621	H62	0.427900	0.268100	0.873500
C631	C63	0.480520	0.226610	0.876700
C641	C64	0.495880	0.185020	0.832200
H631	H63	0.523800	0.174300	0.849500
C651	C65	0.469820	0.159590	0.762100
H641	H64	0.481000	0.131800	0.733300
C661	C66	0.597500	0.280610	0.250100
H651	H65	0.623700	0.268100	0.275600
C671	C67	0.571730	0.252670	0.184600
H661	H66	0.580800	0.222400	0.166400
C681	C68	0.532450	0.269740	0.146000
C691	C69	0.521060	0.314760	0.178300
H671	H67	0.494600	0.327700	0.155700
C701	C70	0.548570	0.340450	0.243600
H681	H68	0.539900	0.370600	0.264300
C711	C71	0.508530	0.255240	0.953300
H691	H69	0.500900	0.288300	0.945700
H701	H70	0.538900	0.251700	0.932400
C721	C72	0.503560	0.241130	0.071700
H711	H71	0.510800	0.208000	0.079500
H721	H72	0.473300	0.245200	0.093500
N131	N13	0.929760	0.672410	0.733200
N141	N14	0.087130	0.824670	0.279100
C731	C73	0.915700	0.712930	0.775200
H731	H73	0.888000	0.723400	0.755500
C741	C74	0.939670	0.740280	0.846300
H741	H74	0.927900	0.768100	0.873500
C751	C75	0.980520	0.726610	0.876700
C761	C76	0.995880	0.685020	0.832200
H751	H75	0.023800	0.674300	0.849500
C771	C77	0.969820	0.659590	0.762100
H761	H76	0.981000	0.631800	0.733300
C781	C78	0.097500	0.780610	0.250100
H771	H77	0.123700	0.768100	0.275600
C791	C79	0.071730	0.752670	0.184600
H781	H78	0.080800	0.722400	0.166400
C801	C80	0.032450	0.769740	0.146000
C811	C81	0.021060	0.814760	0.178300
H791	H79	0.994600	0.827700	0.155700
C821	C82	0.048570	0.840450	0.243600
H801	H80	0.039900	0.870600	0.264300
C831	C83	0.008530	0.755240	0.953300
H811	H81	0.000900	0.788300	0.945700
H821	H82	0.038900	0.751700	0.932400
C841	C84	0.003560	0.741130	0.071700
H831	H83	0.010800	0.708000	0.079500
H841	H84	0.973300	0.745200	0.093500
N151	N15	0.929760	0.172410	0.233200
N161	N16	0.087130	0.324670	0.779100
C851	C85	0.915700	0.212930	0.275200
H851	H85	0.888000	0.223400	0.255500
C861	C86	0.939670	0.240280	0.346300
H861	H86	0.927900	0.268100	0.373500
C871	C87	0.980520	0.226610	0.376700
C881	C88	0.995880	0.185020	0.332200
H871	H87	0.023800	0.174300	0.349500
C891	C89	0.969820	0.159590	0.262100
H881	H88	0.981000	0.131800	0.233300
C901	C90	0.097500	0.280610	0.750100
H891	H89	0.123700	0.268100	0.775600
C911	C91	0.071730	0.252670	0.684600
H901	H90	0.080800	0.222400	0.666400
C921	C92	0.032450	0.269740	0.646000
C931	C93	0.021060	0.314760	0.678300
H911	H91	0.994600	0.327700	0.655700
C941	C94	0.048570	0.340450	0.743600
H921	H92	0.039900	0.370600	0.764300
C951	C95	0.008530	0.255240	0.453300
H931	H93	0.000900	0.288300	0.445700
H941	H94	0.038900	0.251700	0.432400
C961	C96	0.003560	0.241130	0.571700
H951	H95	0.010800	0.208000	0.579500
H961	H96	0.973300	0.245200	0.593500
N171	N17	0.679760	0.327590	0.483200
N181	N18	0.837130	0.175330	0.029100
C971	C97	0.665700	0.287070	0.525200
H971	H97	0.638000	0.276600	0.505500
C981	C98	0.689670	0.259720	0.596300
H981	H98	0.677900	0.231900	0.623500
C991	C99	0.730520	0.273390	0.626700
C1001	C100	0.745880	0.314980	0.582200
H991	H99	0.773800	0.325700	0.599500
C1011	C101	0.719820	0.340410	0.512100
H1001	H100	0.731000	0.368200	0.483300
C1021	C102	0.847500	0.219390	0.000100
H1011	H101	0.873700	0.231900	0.025600
C1031	C103	0.821730	0.247330	0.934600
H1021	H102	0.830800	0.277600	0.916400
C1041	C104	0.782450	0.230260	0.896000
C1051	C105	0.771060	0.185240	0.928300
H1031	H103	0.744600	0.172300	0.905700
C1061	C106	0.798570	0.159550	0.993600
H1041	H104	0.789900	0.129400	0.014300
C1071	C107	0.758530	0.244760	0.703300
H1051	H105	0.750900	0.211700	0.695700
H1061	H106	0.788900	0.248300	0.682400
C1081	C108	0.753560	0.258870	0.821700
H1071	H107	0.760800	0.292000	0.829500
H1081	H108	0.723300	0.254800	0.843500
N191	N19	0.679760	0.827590	0.983200
N201	N20	0.837130	0.675330	0.529100
C1091	C109	0.665700	0.787070	0.025200
H1091	H109	0.638000	0.776600	0.005500
C1101	C110	0.689670	0.759720	0.096300
H1101	H110	0.677900	0.731900	0.123500
C1111	C111	0.730520	0.773390	0.126700
C1121	C112	0.745880	0.814980	0.082200
H1111	H111	0.773800	0.825700	0.099500
C1131	C113	0.719820	0.840410	0.012100
H1121	H112	0.731000	0.868200	0.983300
C1141	C114	0.847500	0.719390	0.500100
H1131	H113	0.873700	0.731900	0.525600
C1151	C115	0.821730	0.747330	0.434600
H1141	H114	0.830800	0.777600	0.416400
C1161	C116	0.782450	0.730260	0.396000
C1171	C117	0.771060	0.685240	0.428300
H1151	H115	0.744600	0.672300	0.405700
C1181	C118	0.798570	0.659550	0.493600
H1161	H116	0.789900	0.629400	0.514300
C1191	C119	0.758530	0.744760	0.203300
H1171	H117	0.750900	0.711700	0.195700
H1181	H118	0.788900	0.748300	0.182400
C1201	C120	0.753560	0.758870	0.321700
H1191	H119	0.760800	0.792000	0.329500
H1201	H120	0.723300	0.754800	0.343500
N211	N21	0.179760	0.327590	0.983200
N221	N22	0.337130	0.175330	0.529100
C1211	C121	0.165700	0.287070	0.025200
H1211	H121	0.138000	0.276600	0.005500
C1221	C122	0.189670	0.259720	0.096300
H1221	H122	0.177900	0.231900	0.123500
C1231	C123	0.230520	0.273390	0.126700
C1241	C124	0.245880	0.314980	0.082200
H1231	H123	0.273800	0.325700	0.099500
C1251	C125	0.219820	0.340410	0.012100
H1241	H124	0.231000	0.368200	0.983300
C1261	C126	0.347500	0.219390	0.500100
H1251	H125	0.373700	0.231900	0.525600
C1271	C127	0.321730	0.247330	0.434600
H1261	H126	0.330800	0.277600	0.416400
C1281	C128	0.282450	0.230260	0.396000
C1291	C129	0.271060	0.185240	0.428300
H1271	H127	0.244600	0.172300	0.405700
C1301	C130	0.298570	0.159550	0.493600
H1281	H128	0.289900	0.129400	0.514300
C1311	C131	0.258530	0.244760	0.203300
H1291	H129	0.250900	0.211700	0.195700
H1301	H130	0.288900	0.248300	0.182400
C1321	C132	0.253560	0.258870	0.321700
H1311	H131	0.260800	0.292000	0.329500
H1321	H132	0.223300	0.254800	0.343500
N231	N23	0.179760	0.827590	0.483200
N241	N24	0.337130	0.675330	0.029100
C1331	C133	0.165700	0.787070	0.525200
H1331	H133	0.138000	0.776600	0.505500
C1341	C134	0.189670	0.759720	0.596300
H1341	H134	0.177900	0.731900	0.623500
C1351	C135	0.230520	0.773390	0.626700
C1361	C136	0.245880	0.814980	0.582200
H1351	H135	0.273800	0.825700	0.599500
C1371	C137	0.219820	0.840410	0.512100
H1361	H136	0.231000	0.868200	0.483300
C1381	C138	0.347500	0.719390	0.000100
H1371	H137	0.373700	0.731900	0.025600
C1391	C139	0.321730	0.747330	0.934600
H1381	H138	0.330800	0.777600	0.916400
C1401	C140	0.282450	0.730260	0.896000
C1411	C141	0.271060	0.685240	0.928300
H1391	H139	0.244600	0.672300	0.905700
C1421	C142	0.298570	0.659550	0.993600
H1401	H140	0.289900	0.629400	0.014300
C1431	C143	0.258530	0.744760	0.703300
H1411	H141	0.250900	0.711700	0.695700
H1421	H142	0.288900	0.748300	0.682400
C1441	C144	0.253560	0.758870	0.821700
H1431	H143	0.260800	0.792000	0.829500
H1441	H144	0.223300	0.754800	0.843500
N251	N25	0.679760	0.922410	0.766800
N261	N26	0.837130	0.074670	0.220900
C1451	C145	0.665700	0.962930	0.724800
H1451	H145	0.638000	0.973400	0.744500
C1461	C146	0.689670	0.990280	0.653700
H1461	H146	0.677900	0.018100	0.626500
C1471	C147	0.730520	0.976610	0.623300
C1481	C148	0.745880	0.935020	0.667800
H1471	H147	0.773800	0.924300	0.650500
C1491	C149	0.719820	0.909590	0.737900
H1481	H148	0.731000	0.881800	0.766700
C1501	C150	0.847500	0.030610	0.249900
H1491	H149	0.873700	0.018100	0.224400
C1511	C151	0.821730	0.002670	0.315400
H1501	H150	0.830800	0.972400	0.333600
C1521	C152	0.782450	0.019740	0.354000
C1531	C153	0.771060	0.064760	0.321700
H1511	H151	0.744600	0.077700	0.344300
C1541	C154	0.798570	0.090450	0.256400
H1521	H152	0.789900	0.120600	0.235700
C1551	C155	0.758530	0.005240	0.546700
H1531	H153	0.750900	0.038300	0.554300
H1541	H154	0.788900	0.001700	0.567600
C1561	C156	0.753560	0.991130	0.428300
H1551	H155	0.760800	0.958000	0.420500
H1561	H156	0.723300	0.995200	0.406500
N271	N27	0.679760	0.422410	0.266800
N281	N28	0.837130	0.574670	0.720900
C1571	C157	0.665700	0.462930	0.224800
H1571	H157	0.638000	0.473400	0.244500
C1581	C158	0.689670	0.490280	0.153700
H1581	H158	0.677900	0.518100	0.126500
C1591	C159	0.730520	0.476610	0.123300
C1601	C160	0.745880	0.435020	0.167800
H1591	H159	0.773800	0.424300	0.150500
C1611	C161	0.719820	0.409590	0.237900
H1601	H160	0.731000	0.381800	0.266700
C1621	C162	0.847500	0.530610	0.749900
H1611	H161	0.873700	0.518100	0.724400
C1631	C163	0.821730	0.502670	0.815400
H1621	H162	0.830800	0.472400	0.833600
C1641	C164	0.782450	0.519740	0.854000
C1651	C165	0.771060	0.564760	0.821700
H1631	H163	0.744600	0.577700	0.844300
C1661	C166	0.798570	0.590450	0.756400
H1641	H164	0.789900	0.620600	0.735700
C1671	C167	0.758530	0.505240	0.046700
H1651	H165	0.750900	0.538300	0.054300
H1661	H166	0.788900	0.501700	0.067600
C1681	C168	0.753560	0.491130	0.928300
H1671	H167	0.760800	0.458000	0.920500
H1681	H168	0.723300	0.495200	0.906500
N291	N29	0.179760	0.922410	0.266800
N301	N30	0.337130	0.074670	0.720900
C1691	C169	0.165700	0.962930	0.224800
H1691	H169	0.138000	0.973400	0.244500
C1701	C170	0.189670	0.990280	0.153700
H1701	H170	0.177900	0.018100	0.126500
C1711	C171	0.230520	0.976610	0.123300
C1721	C172	0.245880	0.935020	0.167800
H1711	H171	0.273800	0.924300	0.150500
C1731	C173	0.219820	0.909590	0.237900
H1721	H172	0.231000	0.881800	0.266700
C1741	C174	0.347500	0.030610	0.749900
H1731	H173	0.373700	0.018100	0.724400
C1751	C175	0.321730	0.002670	0.815400
H1741	H174	0.330800	0.972400	0.833600
C1761	C176	0.282450	0.019740	0.854000
C1771	C177	0.271060	0.064760	0.821700
H1751	H175	0.244600	0.077700	0.844300
C1781	C178	0.298570	0.090450	0.756400
H1761	H176	0.289900	0.120600	0.735700
C1791	C179	0.258530	0.005240	0.046700
H1771	H177	0.250900	0.038300	0.054300
H1781	H178	0.288900	0.001700	0.067600
C1801	C180	0.253560	0.991130	0.928300
H1791	H179	0.260800	0.958000	0.920500
H1801	H180	0.223300	0.995200	0.906500
N311	N31	0.179760	0.422410	0.766800
N321	N32	0.337130	0.574670	0.220900
C1811	C181	0.165700	0.462930	0.724800
H1811	H181	0.138000	0.473400	0.744500
C1821	C182	0.189670	0.490280	0.653700
H1821	H182	0.177900	0.518100	0.626500
C1831	C183	0.230520	0.476610	0.623300
C1841	C184	0.245880	0.435020	0.667800
H1831	H183	0.273800	0.424300	0.650500
C1851	C185	0.219820	0.409590	0.737900
H1841	H184	0.231000	0.381800	0.766700
C1861	C186	0.347500	0.530610	0.249900
H1851	H185	0.373700	0.518100	0.224400
C1871	C187	0.321730	0.502670	0.315400
H1861	H186	0.330800	0.472400	0.333600
C1881	C188	0.282450	0.519740	0.354000
C1891	C189	0.271060	0.564760	0.321700
H1871	H187	0.244600	0.577700	0.344300
C1901	C190	0.298570	0.590450	0.256400
H1881	H188	0.289900	0.620600	0.235700
C1911	C191	0.258530	0.505240	0.546700
H1891	H189	0.250900	0.538300	0.554300
H1901	H190	0.288900	0.501700	0.567600
C1921	C192	0.253560	0.491130	0.428300
H1911	H191	0.260800	0.458000	0.420500
H1921	H192	0.223300	0.495200	0.406500
Ag11	Ag1	0.384460	0.125000	0.625000
Ag21	Ag2	0.884460	0.125000	0.125000
Ag31	Ag3	0.884460	0.625000	0.625000
Ag41	Ag4	0.384460	0.625000	0.125000
Ag51	Ag5	0.634460	0.375000	0.375000
Ag61	Ag6	0.134460	0.375000	0.875000
Ag71	Ag7	0.634460	0.875000	0.875000
Ag81	Ag8	0.134460	0.875000	0.375000
N331	N33	0.320240	0.672410	0.516800
N341	N34	0.162870	0.824670	0.970900
C1931	C193	0.334300	0.712930	0.474800
H1931	H193	0.362000	0.723400	0.494500
C1941	C194	0.310330	0.740280	0.403700
H1941	H194	0.322100	0.768100	0.376500
C1951	C195	0.269480	0.726610	0.373300
C1961	C196	0.254120	0.685020	0.417800
H1951	H195	0.226200	0.674300	0.400500
C1971	C197	0.280180	0.659590	0.487900
H1961	H196	0.269000	0.631800	0.516700
C1981	C198	0.152500	0.780610	0.999900
H1971	H197	0.126300	0.768100	0.974400
C1991	C199	0.178270	0.752670	0.065400
H1981	H198	0.169200	0.722400	0.083600
C2001	C200	0.217550	0.769740	0.104000
C2011	C201	0.228940	0.814760	0.071700
H1991	H199	0.255400	0.827700	0.094300
C2021	C202	0.201430	0.840450	0.006400
H2001	H200	0.210100	0.870600	0.985700
C2031	C203	0.241470	0.755240	0.296700
H2011	H201	0.249100	0.788300	0.304300
H2021	H202	0.211100	0.751700	0.317600
C2041	C204	0.246440	0.741130	0.178300
H2031	H203	0.239200	0.708000	0.170500
H2041	H204	0.276700	0.745200	0.156500
N351	N35	0.320240	0.172410	0.016800
N361	N36	0.162870	0.324670	0.470900
C2051	C205	0.334300	0.212930	0.974800
H2051	H205	0.362000	0.223400	0.994500
C2061	C206	0.310330	0.240280	0.903700
H2061	H206	0.322100	0.268100	0.876500
C2071	C207	0.269480	0.226610	0.873300
C2081	C208	0.254120	0.185020	0.917800
H2071	H207	0.226200	0.174300	0.900500
C2091	C209	0.280180	0.159590	0.987900
H2081	H208	0.269000	0.131800	0.016700
C2101	C210	0.152500	0.280610	0.499900
H2091	H209	0.126300	0.268100	0.474400
C2111	C211	0.178270	0.252670	0.565400
H2101	H210	0.169200	0.222400	0.583600
C2121	C212	0.217550	0.269740	0.604000
C2131	C213	0.228940	0.314760	0.571700
H2111	H211	0.255400	0.327700	0.594300
C2141	C214	0.201430	0.340450	0.506400
H2121	H212	0.210100	0.370600	0.485700
C2151	C215	0.241470	0.255240	0.796700
H2131	H213	0.249100	0.288300	0.804300
H2141	H214	0.211100	0.251700	0.817600
C2161	C216	0.246440	0.241130	0.678300
H2151	H215	0.239200	0.208000	0.670500
H2161	H216	0.276700	0.245200	0.656500
N371	N37	0.820240	0.672410	0.016800
N381	N38	0.662870	0.824670	0.470900
C2171	C217	0.834300	0.712930	0.974800
H2171	H217	0.862000	0.723400	0.994500
C2181	C218	0.810330	0.740280	0.903700
H2181	H218	0.822100	0.768100	0.876500
C2191	C219	0.769480	0.726610	0.873300
C2201	C220	0.754120	0.685020	0.917800
H2191	H219	0.726200	0.674300	0.900500
C2211	C221	0.780180	0.659590	0.987900
H2201	H220	0.769000	0.631800	0.016700
C2221	C222	0.652500	0.780610	0.499900
H2211	H221	0.626300	0.768100	0.474400
C2231	C223	0.678270	0.752670	0.565400
H2221	H222	0.669200	0.722400	0.583600
C2241	C224	0.717550	0.769740	0.604000
C2251	C225	0.728940	0.814760	0.571700
H2231	H223	0.755400	0.827700	0.594300
C2261	C226	0.701430	0.840450	0.506400
H2241	H224	0.710100	0.870600	0.485700
C2271	C227	0.741470	0.755240	0.796700
H2251	H225	0.749100	0.788300	0.804300
H2261	H226	0.711100	0.751700	0.817600
C2281	C228	0.746440	0.741130	0.678300
H2271	H227	0.739200	0.708000	0.670500
H2281	H228	0.776700	0.745200	0.656500
N391	N39	0.820240	0.172410	0.516800
N401	N40	0.662870	0.324670	0.970900
C2291	C229	0.834300	0.212930	0.474800
H2291	H229	0.862000	0.223400	0.494500
C2301	C230	0.810330	0.240280	0.403700
H2301	H230	0.822100	0.268100	0.376500
C2311	C231	0.769480	0.226610	0.373300
C2321	C232	0.754120	0.185020	0.417800
H2311	H231	0.726200	0.174300	0.400500
C2331	C233	0.780180	0.159590	0.487900
H2321	H232	0.769000	0.131800	0.516700
C2341	C234	0.652500	0.280610	0.999900
H2331	H233	0.626300	0.268100	0.974400
C2351	C235	0.678270	0.252670	0.065400
H2341	H234	0.669200	0.222400	0.083600
C2361	C236	0.717550	0.269740	0.104000
C2371	C237	0.728940	0.314760	0.071700
H2351	H235	0.755400	0.327700	0.094300
C2381	C238	0.701430	0.340450	0.006400
H2361	H236	0.710100	0.370600	0.985700
C2391	C239	0.741470	0.255240	0.296700
H2371	H237	0.749100	0.288300	0.304300
H2381	H238	0.711100	0.251700	0.317600
C2401	C240	0.746440	0.241130	0.178300
H2391	H239	0.739200	0.208000	0.170500
H2401	H240	0.776700	0.245200	0.156500
N411	N41	0.320240	0.077590	0.233200
N421	N42	0.162870	0.925330	0.779100
C2411	C241	0.334300	0.037070	0.275200
H2411	H241	0.362000	0.026600	0.255500
C2421	C242	0.310330	0.009720	0.346300
H2421	H242	0.322100	0.981900	0.373500
C2431	C243	0.269480	0.023390	0.376700
C2441	C244	0.254120	0.064980	0.332200
H2431	H243	0.226200	0.075700	0.349500
C2451	C245	0.280180	0.090410	0.262100
H2441	H244	0.269000	0.118200	0.233300
C2461	C246	0.152500	0.969390	0.750100
H2451	H245	0.126300	0.981900	0.775600
C2471	C247	0.178270	0.997330	0.684600
H2461	H246	0.169200	0.027600	0.666400
C2481	C248	0.217550	0.980260	0.646000
C2491	C249	0.228940	0.935240	0.678300
H2471	H247	0.255400	0.922300	0.655700
C2501	C250	0.201430	0.909550	0.743600
H2481	H248	0.210100	0.879400	0.764300
C2511	C251	0.241470	0.994760	0.453300
H2491	H249	0.249100	0.961700	0.445700
H2501	H250	0.211100	0.998300	0.432400
C2521	C252	0.246440	0.008870	0.571700
H2511	H251	0.239200	0.042000	0.579500
H2521	H252	0.276700	0.004800	0.593500
N431	N43	0.320240	0.577590	0.733200
N441	N44	0.162870	0.425330	0.279100
C2531	C253	0.334300	0.537070	0.775200
H2531	H253	0.362000	0.526600	0.755500
C2541	C254	0.310330	0.509720	0.846300
H2541	H254	0.322100	0.481900	0.873500
C2551	C255	0.269480	0.523390	0.876700
C2561	C256	0.254120	0.564980	0.832200
H2551	H255	0.226200	0.575700	0.849500
C2571	C257	0.280180	0.590410	0.762100
H2561	H256	0.269000	0.618200	0.733300
C2581	C258	0.152500	0.469390	0.250100
H2571	H257	0.126300	0.481900	0.275600
C2591	C259	0.178270	0.497330	0.184600
H2581	H258	0.169200	0.527600	0.166400
C2601	C260	0.217550	0.480260	0.146000
C2611	C261	0.228940	0.435240	0.178300
H2591	H259	0.255400	0.422300	0.155700
C2621	C262	0.201430	0.409550	0.243600
H2601	H260	0.210100	0.379400	0.264300
C2631	C263	0.241470	0.494760	0.953300
H2611	H261	0.249100	0.461700	0.945700
H2621	H262	0.211100	0.498300	0.932400
C2641	C264	0.246440	0.508870	0.071700
H2631	H263	0.239200	0.542000	0.079500
H2641	H264	0.276700	0.504800	0.093500
N451	N45	0.820240	0.077590	0.733200
N461	N46	0.662870	0.925330	0.279100
C2651	C265	0.834300	0.037070	0.775200
H2651	H265	0.862000	0.026600	0.755500
C2661	C266	0.810330	0.009720	0.846300
H2661	H266	0.822100	0.981900	0.873500
C2671	C267	0.769480	0.023390	0.876700
C2681	C268	0.754120	0.064980	0.832200
H2671	H267	0.726200	0.075700	0.849500
C2691	C269	0.780180	0.090410	0.762100
H2681	H268	0.769000	0.118200	0.733300
C2701	C270	0.652500	0.969390	0.250100
H2691	H269	0.626300	0.981900	0.275600
C2711	C271	0.678270	0.997330	0.184600
H2701	H270	0.669200	0.027600	0.166400
C2721	C272	0.717550	0.980260	0.146000
C2731	C273	0.728940	0.935240	0.178300
H2711	H271	0.755400	0.922300	0.155700
C2741	C274	0.701430	0.909550	0.243600
H2721	H272	0.710100	0.879400	0.264300
C2751	C275	0.741470	0.994760	0.953300
H2731	H273	0.749100	0.961700	0.945700
H2741	H274	0.711100	0.998300	0.932400
C2761	C276	0.746440	0.008870	0.071700
H2751	H275	0.739200	0.042000	0.079500
H2761	H276	0.776700	0.004800	0.093500
N471	N47	0.820240	0.577590	0.233200
N481	N48	0.662870	0.425330	0.779100
C2771	C277	0.834300	0.537070	0.275200
H2771	H277	0.862000	0.526600	0.255500
C2781	C278	0.810330	0.509720	0.346300
H2781	H278	0.822100	0.481900	0.373500
C2791	C279	0.769480	0.523390	0.376700
C2801	C280	0.754120	0.564980	0.332200
H2791	H279	0.726200	0.575700	0.349500
C2811	C281	0.780180	0.590410	0.262100
H2801	H280	0.769000	0.618200	0.233300
C2821	C282	0.652500	0.469390	0.750100
H2811	H281	0.626300	0.481900	0.775600
C2831	C283	0.678270	0.497330	0.684600
H2821	H282	0.669200	0.527600	0.666400
C2841	C284	0.717550	0.480260	0.646000
C2851	C285	0.728940	0.435240	0.678300
H2831	H283	0.755400	0.422300	0.655700
C2861	C286	0.701430	0.409550	0.743600
H2841	H284	0.710100	0.379400	0.764300
C2871	C287	0.741470	0.494760	0.453300
H2851	H285	0.749100	0.461700	0.445700
H2861	H286	0.711100	0.498300	0.432400
C2881	C288	0.746440	0.508870	0.571700
H2871	H287	0.739200	0.542000	0.579500
H2881	H288	0.776700	0.504800	0.593500
N491	N49	0.570240	0.922410	0.483200
N501	N50	0.412870	0.074670	0.029100
C2891	C289	0.584300	0.962930	0.525200
H2891	H289	0.612000	0.973400	0.505500
C2901	C290	0.560330	0.990280	0.596300
H2901	H290	0.572100	0.018100	0.623500
C2911	C291	0.519480	0.976610	0.626700
C2921	C292	0.504120	0.935020	0.582200
H2911	H291	0.476200	0.924300	0.599500
C2931	C293	0.530180	0.909590	0.512100
H2921	H292	0.519000	0.881800	0.483300
C2941	C294	0.402500	0.030610	0.000100
H2931	H293	0.376300	0.018100	0.025600
C2951	C295	0.428270	0.002670	0.934600
H2941	H294	0.419200	0.972400	0.916400
C2961	C296	0.467550	0.019740	0.896000
C2971	C297	0.478940	0.064760	0.928300
H2951	H295	0.505400	0.077700	0.905700
C2981	C298	0.451430	0.090450	0.993600
H2961	H296	0.460100	0.120600	0.014300
C2991	C299	0.491470	0.005240	0.703300
H2971	H297	0.499100	0.038300	0.695700
H2981	H298	0.461100	0.001700	0.682400
C3001	C300	0.496440	0.991130	0.821700
H2991	H299	0.489200	0.958000	0.829500
H3001	H300	0.526700	0.995200	0.843500
N511	N51	0.570240	0.422410	0.983200
N521	N52	0.412870	0.574670	0.529100
C3011	C301	0.584300	0.462930	0.025200
H3011	H301	0.612000	0.473400	0.005500
C3021	C302	0.560330	0.490280	0.096300
H3021	H302	0.572100	0.518100	0.123500
C3031	C303	0.519480	0.476610	0.126700
C3041	C304	0.504120	0.435020	0.082200
H3031	H303	0.476200	0.424300	0.099500
C3051	C305	0.530180	0.409590	0.012100
H3041	H304	0.519000	0.381800	0.983300
C3061	C306	0.402500	0.530610	0.500100
H3051	H305	0.376300	0.518100	0.525600
C3071	C307	0.428270	0.502670	0.434600
H3061	H306	0.419200	0.472400	0.416400
C3081	C308	0.467550	0.519740	0.396000
C3091	C309	0.478940	0.564760	0.428300
H3071	H307	0.505400	0.577700	0.405700
C3101	C310	0.451430	0.590450	0.493600
H3081	H308	0.460100	0.620600	0.514300
C3111	C311	0.491470	0.505240	0.203300
H3091	H309	0.499100	0.538300	0.195700
H3101	H310	0.461100	0.501700	0.182400
C3121	C312	0.496440	0.491130	0.321700
H3111	H311	0.489200	0.458000	0.329500
H3121	H312	0.526700	0.495200	0.343500
N531	N53	0.070240	0.922410	0.983200
N541	N54	0.912870	0.074670	0.529100
C3131	C313	0.084300	0.962930	0.025200
H3131	H313	0.112000	0.973400	0.005500
C3141	C314	0.060330	0.990280	0.096300
H3141	H314	0.072100	0.018100	0.123500
C3151	C315	0.019480	0.976610	0.126700
C3161	C316	0.004120	0.935020	0.082200
H3151	H315	0.976200	0.924300	0.099500
C3171	C317	0.030180	0.909590	0.012100
H3161	H316	0.019000	0.881800	0.983300
C3181	C318	0.902500	0.030610	0.500100
H3171	H317	0.876300	0.018100	0.525600
C3191	C319	0.928270	0.002670	0.434600
H3181	H318	0.919200	0.972400	0.416400
C3201	C320	0.967550	0.019740	0.396000
C3211	C321	0.978940	0.064760	0.428300
H3191	H319	0.005400	0.077700	0.405700
C3221	C322	0.951430	0.090450	0.493600
H3201	H320	0.960100	0.120600	0.514300
C3231	C323	0.991470	0.005240	0.203300
H3211	H321	0.999100	0.038300	0.195700
H3221	H322	0.961100	0.001700	0.182400
C3241	C324	0.996440	0.991130	0.321700
H3231	H323	0.989200	0.958000	0.329500
H3241	H324	0.026700	0.995200	0.343500
N551	N55	0.070240	0.422410	0.483200
N561	N56	0.912870	0.574670	0.029100
C3251	C325	0.084300	0.462930	0.525200
H3251	H325	0.112000	0.473400	0.505500
C3261	C326	0.060330	0.490280	0.596300
H3261	H326	0.072100	0.518100	0.623500
C3271	C327	0.019480	0.476610	0.626700
C3281	C328	0.004120	0.435020	0.582200
H3271	H327	0.976200	0.424300	0.599500
C3291	C329	0.030180	0.409590	0.512100
H3281	H328	0.019000	0.381800	0.483300
C3301	C330	0.902500	0.530610	0.000100
H3291	H329	0.876300	0.518100	0.025600
C3311	C331	0.928270	0.502670	0.934600
H3301	H330	0.919200	0.472400	0.916400
C3321	C332	0.967550	0.519740	0.896000
C3331	C333	0.978940	0.564760	0.928300
H3311	H331	0.005400	0.577700	0.905700
C3341	C334	0.951430	0.590450	0.993600
H3321	H332	0.960100	0.620600	0.014300
C3351	C335	0.991470	0.505240	0.703300
H3331	H333	0.999100	0.538300	0.695700
H3341	H334	0.961100	0.501700	0.682400
C3361	C336	0.996440	0.491130	0.821700
H3351	H335	0.989200	0.458000	0.829500
H3361	H336	0.026700	0.495200	0.843500
N571	N57	0.570240	0.327590	0.766800
N581	N58	0.412870	0.175330	0.220900
C3371	C337	0.584300	0.287070	0.724800
H3371	H337	0.612000	0.276600	0.744500
C3381	C338	0.560330	0.259720	0.653700
H3381	H338	0.572100	0.231900	0.626500
C3391	C339	0.519480	0.273390	0.623300
C3401	C340	0.504120	0.314980	0.667800
H3391	H339	0.476200	0.325700	0.650500
C3411	C341	0.530180	0.340410	0.737900
H3401	H340	0.519000	0.368200	0.766700
C3421	C342	0.402500	0.219390	0.249900
H3411	H341	0.376300	0.231900	0.224400
C3431	C343	0.428270	0.247330	0.315400
H3421	H342	0.419200	0.277600	0.333600
C3441	C344	0.467550	0.230260	0.354000
C3451	C345	0.478940	0.185240	0.321700
H3431	H343	0.505400	0.172300	0.344300
C3461	C346	0.451430	0.159550	0.256400
H3441	H344	0.460100	0.129400	0.235700
C3471	C347	0.491470	0.244760	0.546700
H3451	H345	0.499100	0.211700	0.554300
H3461	H346	0.461100	0.248300	0.567600
C3481	C348	0.496440	0.258870	0.428300
H3471	H347	0.489200	0.292000	0.420500
H3481	H348	0.526700	0.254800	0.406500
N591	N59	0.570240	0.827590	0.266800
N601	N60	0.412870	0.675330	0.720900
C3491	C349	0.584300	0.787070	0.224800
H3491	H349	0.612000	0.776600	0.244500
C3501	C350	0.560330	0.759720	0.153700
H3501	H350	0.572100	0.731900	0.126500
C3511	C351	0.519480	0.773390	0.123300
C3521	C352	0.504120	0.814980	0.167800
H3511	H351	0.476200	0.825700	0.150500
C3531	C353	0.530180	0.840410	0.237900
H3521	H352	0.519000	0.868200	0.266700
C3541	C354	0.402500	0.719390	0.749900
H3531	H353	0.376300	0.731900	0.724400
C3551	C355	0.428270	0.747330	0.815400
H3541	H354	0.419200	0.777600	0.833600
C3561	C356	0.467550	0.730260	0.854000
C3571	C357	0.478940	0.685240	0.821700
H3551	H355	0.505400	0.672300	0.844300
C3581	C358	0.451430	0.659550	0.756400
H3561	H356	0.460100	0.629400	0.735700
C3591	C359	0.491470	0.744760	0.046700
H3571	H357	0.499100	0.711700	0.054300
H3581	H358	0.461100	0.748300	0.067600
C3601	C360	0.496440	0.758870	0.928300
H3591	H359	0.489200	0.792000	0.920500
H3601	H360	0.526700	0.754800	0.906500
N611	N61	0.070240	0.327590	0.266800
N621	N62	0.912870	0.175330	0.720900
C3611	C361	0.084300	0.287070	0.224800
H3611	H361	0.112000	0.276600	0.244500
C3621	C362	0.060330	0.259720	0.153700
H3621	H362	0.072100	0.231900	0.126500
C3631	C363	0.019480	0.273390	0.123300
C3641	C364	0.004120	0.314980	0.167800
H3631	H363	0.976200	0.325700	0.150500
C3651	C365	0.030180	0.340410	0.237900
H3641	H364	0.019000	0.368200	0.266700
C3661	C366	0.902500	0.219390	0.749900
H3651	H365	0.876300	0.231900	0.724400
C3671	C367	0.928270	0.247330	0.815400
H3661	H366	0.919200	0.277600	0.833600
C3681	C368	0.967550	0.230260	0.854000
C3691	C369	0.978940	0.185240	0.821700
H3671	H367	0.005400	0.172300	0.844300
C3701	C370	0.951430	0.159550	0.756400
H3681	H368	0.960100	0.129400	0.735700
C3711	C371	0.991470	0.244760	0.046700
H3691	H369	0.999100	0.211700	0.054300
H3701	H370	0.961100	0.248300	0.067600
C3721	C372	0.996440	0.258870	0.928300
H3711	H371	0.989200	0.292000	0.920500
H3721	H372	0.026700	0.254800	0.906500
N631	N63	0.070240	0.827590	0.766800
N641	N64	0.912870	0.675330	0.220900
C3731	C373	0.084300	0.787070	0.724800
H3731	H373	0.112000	0.776600	0.744500
C3741	C374	0.060330	0.759720	0.653700
H3741	H374	0.072100	0.731900	0.626500
C3751	C375	0.019480	0.773390	0.623300
C3761	C376	0.004120	0.814980	0.667800
H3751	H375	0.976200	0.825700	0.650500
C3771	C377	0.030180	0.840410	0.737900
H3761	H376	0.019000	0.868200	0.766700
C3781	C378	0.902500	0.719390	0.249900
H3771	H377	0.876300	0.731900	0.224400
C3791	C379	0.928270	0.747330	0.315400
H3781	H378	0.919200	0.777600	0.333600
C3801	C380	0.967550	0.730260	0.354000
C3811	C381	0.978940	0.685240	0.321700
H3791	H379	0.005400	0.672300	0.344300
C3821	C382	0.951430	0.659550	0.256400
H3801	H380	0.960100	0.629400	0.235700
C3831	C383	0.991470	0.744760	0.546700
H3811	H381	0.999100	0.711700	0.554300
H3821	H382	0.961100	0.748300	0.567600
C3841	C384	0.996440	0.758870	0.428300
H3831	H383	0.989200	0.792000	0.420500
H3841	H384	0.026700	0.754800	0.406500
Ag91	Ag9	0.365540	0.625000	0.625000
Ag101	Ag10	0.865540	0.625000	0.125000
Ag111	Ag11	0.365540	0.125000	0.125000
Ag121	Ag12	0.865540	0.125000	0.625000
Ag131	Ag13	0.615540	0.875000	0.375000
Ag141	Ag14	0.115540	0.875000	0.875000
Ag151	Ag15	0.615540	0.375000	0.875000
Ag161	Ag16	0.115540	0.375000	0.375000
