data_la4012839_si_002_auto_PM
_symmetry_space_group_name_H-M	'P1'
_cell_length_a	26.536000
_cell_length_b	26.536000
_cell_length_c	26.536000
_cell_angle_alpha	90.000000
_cell_angle_beta	90.000000
_cell_angle_gamma	90.000000
_symmetry_Int_Tables_number 1

loop_
_symmetry_equiv_pos_as_xyz
'x,y,z'

loop_
_atom_site_label
_atom_site_type_symbol
_atom_site_fract_x
_atom_site_fract_y
_atom_site_fract_z
O11	O1	0.186670	0.950450	0.255030
O21	O2	0.186670	0.450450	0.755030
O31	O3	0.686670	0.950450	0.755030
O41	O4	0.686670	0.450450	0.255030
O51	O5	0.813330	0.049550	0.255030
O61	O6	0.813330	0.549550	0.755030
O71	O7	0.313330	0.049550	0.755030
O81	O8	0.313330	0.549550	0.255030
O91	O9	0.813330	0.950450	0.744970
O101	O10	0.813330	0.450450	0.244970
O111	O11	0.313330	0.950450	0.244970
O121	O12	0.313330	0.450450	0.744970
O131	O13	0.186670	0.049550	0.744970
O141	O14	0.186670	0.549550	0.244970
O151	O15	0.686670	0.049550	0.244970
O161	O16	0.686670	0.549550	0.744970
O171	O17	0.255030	0.186670	0.950450
O181	O18	0.255030	0.686670	0.450450
O191	O19	0.755030	0.186670	0.450450
O201	O20	0.755030	0.686670	0.950450
O211	O21	0.255030	0.813330	0.049550
O221	O22	0.255030	0.313330	0.549550
O231	O23	0.755030	0.813330	0.549550
O241	O24	0.755030	0.313330	0.049550
O251	O25	0.744970	0.813330	0.950450
O261	O26	0.744970	0.313330	0.450450
O271	O27	0.244970	0.813330	0.450450
O281	O28	0.244970	0.313330	0.950450
O291	O29	0.744970	0.186670	0.049550
O301	O30	0.744970	0.686670	0.549550
O311	O31	0.244970	0.186670	0.549550
O321	O32	0.244970	0.686670	0.049550
O331	O33	0.950450	0.255030	0.186670
O341	O34	0.950450	0.755030	0.686670
O351	O35	0.450450	0.255030	0.686670
O361	O36	0.450450	0.755030	0.186670
O371	O37	0.049550	0.255030	0.813330
O381	O38	0.049550	0.755030	0.313330
O391	O39	0.549550	0.255030	0.313330
O401	O40	0.549550	0.755030	0.813330
O411	O41	0.950450	0.744970	0.813330
O421	O42	0.950450	0.244970	0.313330
O431	O43	0.450450	0.744970	0.313330
O441	O44	0.450450	0.244970	0.813330
O451	O45	0.049550	0.744970	0.186670
O461	O46	0.049550	0.244970	0.686670
O471	O47	0.549550	0.744970	0.686670
O481	O48	0.549550	0.244970	0.186670
O491	O49	0.950450	0.186670	0.744970
O501	O50	0.950450	0.686670	0.244970
O511	O51	0.450450	0.186670	0.244970
O521	O52	0.450450	0.686670	0.744970
O531	O53	0.049550	0.813330	0.744970
O541	O54	0.049550	0.313330	0.244970
O551	O55	0.549550	0.813330	0.244970
O561	O56	0.549550	0.313330	0.744970
O571	O57	0.950450	0.813330	0.255030
O581	O58	0.950450	0.313330	0.755030
O591	O59	0.450450	0.813330	0.755030
O601	O60	0.450450	0.313330	0.255030
O611	O61	0.049550	0.186670	0.255030
O621	O62	0.049550	0.686670	0.755030
O631	O63	0.549550	0.186670	0.755030
O641	O64	0.549550	0.686670	0.255030
O651	O65	0.186670	0.255030	0.049550
O661	O66	0.186670	0.755030	0.549550
O671	O67	0.686670	0.255030	0.549550
O681	O68	0.686670	0.755030	0.049550
O691	O69	0.813330	0.255030	0.950450
O701	O70	0.813330	0.755030	0.450450
O711	O71	0.313330	0.255030	0.450450
O721	O72	0.313330	0.755030	0.950450
O731	O73	0.813330	0.744970	0.049550
O741	O74	0.813330	0.244970	0.549550
O751	O75	0.313330	0.744970	0.549550
O761	O76	0.313330	0.244970	0.049550
O771	O77	0.186670	0.744970	0.950450
O781	O78	0.186670	0.244970	0.450450
O791	O79	0.686670	0.744970	0.450450
O801	O80	0.686670	0.244970	0.950450
O811	O81	0.255030	0.950450	0.813330
O821	O82	0.255030	0.450450	0.313330
O831	O83	0.755030	0.950450	0.313330
O841	O84	0.755030	0.450450	0.813330
O851	O85	0.255030	0.049550	0.186670
O861	O86	0.255030	0.549550	0.686670
O871	O87	0.755030	0.049550	0.686670
O881	O88	0.755030	0.549550	0.186670
O891	O89	0.744970	0.950450	0.186670
O901	O90	0.744970	0.450450	0.686670
O911	O91	0.244970	0.950450	0.686670
O921	O92	0.244970	0.450450	0.186670
O931	O93	0.744970	0.049550	0.813330
O941	O94	0.744970	0.549550	0.313330
O951	O95	0.244970	0.049550	0.313330
O961	O96	0.244970	0.549550	0.813330
O971	O97	0.813330	0.049550	0.744970
O981	O98	0.813330	0.549550	0.244970
O991	O99	0.313330	0.049550	0.244970
O1001	O100	0.313330	0.549550	0.744970
O1011	O101	0.186670	0.950450	0.744970
O1021	O102	0.186670	0.450450	0.244970
O1031	O103	0.686670	0.950450	0.244970
O1041	O104	0.686670	0.450450	0.744970
O1051	O105	0.186670	0.049550	0.255030
O1061	O106	0.186670	0.549550	0.755030
O1071	O107	0.686670	0.049550	0.755030
O1081	O108	0.686670	0.549550	0.255030
O1091	O109	0.813330	0.950450	0.255030
O1101	O110	0.813330	0.450450	0.755030
O1111	O111	0.313330	0.950450	0.755030
O1121	O112	0.313330	0.450450	0.255030
O1131	O113	0.744970	0.813330	0.049550
O1141	O114	0.744970	0.313330	0.549550
O1151	O115	0.244970	0.813330	0.549550
O1161	O116	0.244970	0.313330	0.049550
O1171	O117	0.744970	0.186670	0.950450
O1181	O118	0.744970	0.686670	0.450450
O1191	O119	0.244970	0.186670	0.450450
O1201	O120	0.244970	0.686670	0.950450
O1211	O121	0.255030	0.186670	0.049550
O1221	O122	0.255030	0.686670	0.549550
O1231	O123	0.755030	0.186670	0.549550
O1241	O124	0.755030	0.686670	0.049550
O1251	O125	0.255030	0.813330	0.950450
O1261	O126	0.255030	0.313330	0.450450
O1271	O127	0.755030	0.813330	0.450450
O1281	O128	0.755030	0.313330	0.950450
O1291	O129	0.049550	0.744970	0.813330
O1301	O130	0.049550	0.244970	0.313330
O1311	O131	0.549550	0.744970	0.313330
O1321	O132	0.549550	0.244970	0.813330
O1331	O133	0.950450	0.744970	0.186670
O1341	O134	0.950450	0.244970	0.686670
O1351	O135	0.450450	0.744970	0.686670
O1361	O136	0.450450	0.244970	0.186670
O1371	O137	0.049550	0.255030	0.186670
O1381	O138	0.049550	0.755030	0.686670
O1391	O139	0.549550	0.255030	0.686670
O1401	O140	0.549550	0.755030	0.186670
O1411	O141	0.950450	0.255030	0.813330
O1421	O142	0.950450	0.755030	0.313330
O1431	O143	0.450450	0.255030	0.313330
O1441	O144	0.450450	0.755030	0.813330
O1451	O145	0.049550	0.813330	0.255030
O1461	O146	0.049550	0.313330	0.755030
O1471	O147	0.549550	0.813330	0.755030
O1481	O148	0.549550	0.313330	0.255030
O1491	O149	0.950450	0.186670	0.255030
O1501	O150	0.950450	0.686670	0.755030
O1511	O151	0.450450	0.186670	0.755030
O1521	O152	0.450450	0.686670	0.255030
O1531	O153	0.049550	0.186670	0.744970
O1541	O154	0.049550	0.686670	0.244970
O1551	O155	0.549550	0.186670	0.244970
O1561	O156	0.549550	0.686670	0.744970
O1571	O157	0.950450	0.813330	0.744970
O1581	O158	0.950450	0.313330	0.244970
O1591	O159	0.450450	0.813330	0.244970
O1601	O160	0.450450	0.313330	0.744970
O1611	O161	0.813330	0.744970	0.950450
O1621	O162	0.813330	0.244970	0.450450
O1631	O163	0.313330	0.744970	0.450450
O1641	O164	0.313330	0.244970	0.950450
O1651	O165	0.186670	0.744970	0.049550
O1661	O166	0.186670	0.244970	0.549550
O1671	O167	0.686670	0.744970	0.549550
O1681	O168	0.686670	0.244970	0.049550
O1691	O169	0.186670	0.255030	0.950450
O1701	O170	0.186670	0.755030	0.450450
O1711	O171	0.686670	0.255030	0.450450
O1721	O172	0.686670	0.755030	0.950450
O1731	O173	0.813330	0.255030	0.049550
O1741	O174	0.813330	0.755030	0.549550
O1751	O175	0.313330	0.255030	0.549550
O1761	O176	0.313330	0.755030	0.049550
O1771	O177	0.744970	0.049550	0.186670
O1781	O178	0.744970	0.549550	0.686670
O1791	O179	0.244970	0.049550	0.686670
O1801	O180	0.244970	0.549550	0.186670
O1811	O181	0.744970	0.950450	0.813330
O1821	O182	0.744970	0.450450	0.313330
O1831	O183	0.244970	0.950450	0.313330
O1841	O184	0.244970	0.450450	0.813330
O1851	O185	0.255030	0.049550	0.813330
O1861	O186	0.255030	0.549550	0.313330
O1871	O187	0.755030	0.049550	0.313330
O1881	O188	0.755030	0.549550	0.813330
O1891	O189	0.255030	0.950450	0.186670
O1901	O190	0.255030	0.450450	0.686670
O1911	O191	0.755030	0.950450	0.686670
O1921	O192	0.755030	0.450450	0.186670
C1931	C193	0.387410	0.321210	0.321210
C1941	C194	0.387410	0.821210	0.821210
C1951	C195	0.887410	0.321210	0.821210
C1961	C196	0.887410	0.821210	0.321210
C1971	C197	0.612590	0.678790	0.321210
C1981	C198	0.612590	0.178790	0.821210
C1991	C199	0.112590	0.678790	0.821210
C2001	C200	0.112590	0.178790	0.321210
C2011	C201	0.612590	0.321210	0.678790
C2021	C202	0.612590	0.821210	0.178790
C2031	C203	0.112590	0.321210	0.178790
C2041	C204	0.112590	0.821210	0.678790
C2051	C205	0.387410	0.678790	0.678790
C2061	C206	0.387410	0.178790	0.178790
C2071	C207	0.887410	0.678790	0.178790
C2081	C208	0.887410	0.178790	0.678790
C2091	C209	0.321210	0.387410	0.321210
C2101	C210	0.321210	0.887410	0.821210
C2111	C211	0.821210	0.387410	0.821210
C2121	C212	0.821210	0.887410	0.321210
C2131	C213	0.321210	0.612590	0.678790
C2141	C214	0.321210	0.112590	0.178790
C2151	C215	0.821210	0.612590	0.178790
C2161	C216	0.821210	0.112590	0.678790
C2171	C217	0.678790	0.612590	0.321210
C2181	C218	0.678790	0.112590	0.821210
C2191	C219	0.178790	0.612590	0.821210
C2201	C220	0.178790	0.112590	0.321210
C2211	C221	0.678790	0.387410	0.678790
C2221	C222	0.678790	0.887410	0.178790
C2231	C223	0.178790	0.387410	0.178790
C2241	C224	0.178790	0.887410	0.678790
C2251	C225	0.321210	0.321210	0.387410
C2261	C226	0.321210	0.821210	0.887410
C2271	C227	0.821210	0.321210	0.887410
C2281	C228	0.821210	0.821210	0.387410
C2291	C229	0.678790	0.321210	0.612590
C2301	C230	0.678790	0.821210	0.112590
C2311	C231	0.178790	0.321210	0.112590
C2321	C232	0.178790	0.821210	0.612590
C2331	C233	0.321210	0.678790	0.612590
C2341	C234	0.321210	0.178790	0.112590
C2351	C235	0.821210	0.678790	0.112590
C2361	C236	0.821210	0.178790	0.612590
C2371	C237	0.678790	0.678790	0.387410
C2381	C238	0.678790	0.178790	0.887410
C2391	C239	0.178790	0.678790	0.887410
C2401	C240	0.178790	0.178790	0.387410
C2411	C241	0.321210	0.387410	0.678790
C2421	C242	0.321210	0.887410	0.178790
C2431	C243	0.821210	0.387410	0.178790
C2441	C244	0.821210	0.887410	0.678790
C2451	C245	0.678790	0.612590	0.678790
C2461	C246	0.678790	0.112590	0.178790
C2471	C247	0.178790	0.612590	0.178790
C2481	C248	0.178790	0.112590	0.678790
C2491	C249	0.321210	0.612590	0.321210
C2501	C250	0.321210	0.112590	0.821210
C2511	C251	0.821210	0.612590	0.821210
C2521	C252	0.821210	0.112590	0.321210
C2531	C253	0.678790	0.387410	0.321210
C2541	C254	0.678790	0.887410	0.821210
C2551	C255	0.178790	0.387410	0.821210
C2561	C256	0.178790	0.887410	0.321210
C2571	C257	0.387410	0.321210	0.678790
C2581	C258	0.387410	0.821210	0.178790
C2591	C259	0.887410	0.321210	0.178790
C2601	C260	0.887410	0.821210	0.678790
C2611	C261	0.612590	0.321210	0.321210
C2621	C262	0.612590	0.821210	0.821210
C2631	C263	0.112590	0.321210	0.821210
C2641	C264	0.112590	0.821210	0.321210
C2651	C265	0.612590	0.678790	0.678790
C2661	C266	0.612590	0.178790	0.178790
C2671	C267	0.112590	0.678790	0.178790
C2681	C268	0.112590	0.178790	0.678790
C2691	C269	0.387410	0.678790	0.321210
C2701	C270	0.387410	0.178790	0.821210
C2711	C271	0.887410	0.678790	0.821210
C2721	C272	0.887410	0.178790	0.321210
C2731	C273	0.321210	0.321210	0.612590
C2741	C274	0.321210	0.821210	0.112590
C2751	C275	0.821210	0.321210	0.112590
C2761	C276	0.821210	0.821210	0.612590
C2771	C277	0.321210	0.678790	0.387410
C2781	C278	0.321210	0.178790	0.887410
C2791	C279	0.821210	0.678790	0.887410
C2801	C280	0.821210	0.178790	0.387410
C2811	C281	0.678790	0.321210	0.387410
C2821	C282	0.678790	0.821210	0.887410
C2831	C283	0.178790	0.321210	0.887410
C2841	C284	0.178790	0.821210	0.387410
C2851	C285	0.678790	0.678790	0.612590
C2861	C286	0.678790	0.178790	0.112590
C2871	C287	0.178790	0.678790	0.112590
C2881	C288	0.178790	0.178790	0.612590
C2891	C289	0.364990	0.364990	0.300090
H2901	H290	0.381040	0.381040	0.266180
C2911	C291	0.364990	0.864990	0.800090
H2921	H292	0.381040	0.881040	0.766180
C2931	C293	0.864990	0.364990	0.800090
H2941	H294	0.881040	0.381040	0.766180
C2951	C295	0.864990	0.864990	0.300090
H2961	H296	0.881040	0.881040	0.266180
C2971	C297	0.635010	0.635010	0.300090
H2981	H298	0.618960	0.618960	0.266180
C2991	C299	0.635010	0.135010	0.800090
H3001	H300	0.618960	0.118960	0.766180
C3011	C301	0.135010	0.635010	0.800090
H3021	H302	0.118960	0.618960	0.766180
C3031	C303	0.135010	0.135010	0.300090
H3041	H304	0.118960	0.118960	0.266180
C3051	C305	0.635010	0.364990	0.699910
H3061	H306	0.618960	0.381040	0.733820
C3071	C307	0.635010	0.864990	0.199910
H3081	H308	0.618960	0.881040	0.233820
C3091	C309	0.135010	0.364990	0.199910
H3101	H310	0.118960	0.381040	0.233820
C3111	C311	0.135010	0.864990	0.699910
H3121	H312	0.118960	0.881040	0.733820
C3131	C313	0.364990	0.635010	0.699910
H3141	H314	0.381040	0.618960	0.733820
C3151	C315	0.364990	0.135010	0.199910
H3161	H316	0.381040	0.118960	0.233820
C3171	C317	0.864990	0.635010	0.199910
H3181	H318	0.881040	0.618960	0.233820
C3191	C319	0.864990	0.135010	0.699910
H3201	H320	0.881040	0.118960	0.733820
C3211	C321	0.300090	0.364990	0.364990
H3221	H322	0.266180	0.381040	0.381040
C3231	C323	0.300090	0.864990	0.864990
H3241	H324	0.266180	0.881040	0.881040
C3251	C325	0.800090	0.364990	0.864990
H3261	H326	0.766180	0.381040	0.881040
C3271	C327	0.800090	0.864990	0.364990
H3281	H328	0.766180	0.881040	0.381040
C3291	C329	0.300090	0.635010	0.635010
H3301	H330	0.266180	0.618960	0.618960
C3311	C331	0.300090	0.135010	0.135010
H3321	H332	0.266180	0.118960	0.118960
C3331	C333	0.800090	0.635010	0.135010
H3341	H334	0.766180	0.618960	0.118960
C3351	C335	0.800090	0.135010	0.635010
H3361	H336	0.766180	0.118960	0.618960
C3371	C337	0.699910	0.635010	0.364990
H3381	H338	0.733820	0.618960	0.381040
C3391	C339	0.699910	0.135010	0.864990
H3401	H340	0.733820	0.118960	0.881040
C3411	C341	0.199910	0.635010	0.864990
H3421	H342	0.233820	0.618960	0.881040
C3431	C343	0.199910	0.135010	0.364990
H3441	H344	0.233820	0.118960	0.381040
C3451	C345	0.699910	0.364990	0.635010
H3461	H346	0.733820	0.381040	0.618960
C3471	C347	0.699910	0.864990	0.135010
H3481	H348	0.733820	0.881040	0.118960
C3491	C349	0.199910	0.364990	0.135010
H3501	H350	0.233820	0.381040	0.118960
C3511	C351	0.199910	0.864990	0.635010
H3521	H352	0.233820	0.881040	0.618960
C3531	C353	0.364990	0.300090	0.364990
H3541	H354	0.381040	0.266180	0.381040
C3551	C355	0.364990	0.800090	0.864990
H3561	H356	0.381040	0.766180	0.881040
C3571	C357	0.864990	0.300090	0.864990
H3581	H358	0.881040	0.266180	0.881040
C3591	C359	0.864990	0.800090	0.364990
H3601	H360	0.881040	0.766180	0.381040
C3611	C361	0.635010	0.300090	0.635010
H3621	H362	0.618960	0.266180	0.618960
C3631	C363	0.635010	0.800090	0.135010
H3641	H364	0.618960	0.766180	0.118960
C3651	C365	0.135010	0.300090	0.135010
H3661	H366	0.118960	0.266180	0.118960
C3671	C367	0.135010	0.800090	0.635010
H3681	H368	0.118960	0.766180	0.618960
C3691	C369	0.364990	0.699910	0.635010
H3701	H370	0.381040	0.733820	0.618960
C3711	C371	0.364990	0.199910	0.135010
H3721	H372	0.381040	0.233820	0.118960
C3731	C373	0.864990	0.699910	0.135010
H3741	H374	0.881040	0.733820	0.118960
C3751	C375	0.864990	0.199910	0.635010
H3761	H376	0.881040	0.233820	0.618960
C3771	C377	0.635010	0.699910	0.364990
H3781	H378	0.618960	0.733820	0.381040
C3791	C379	0.635010	0.199910	0.864990
H3801	H380	0.618960	0.233820	0.881040
C3811	C381	0.135010	0.699910	0.864990
H3821	H382	0.118960	0.733820	0.881040
C3831	C383	0.135010	0.199910	0.364990
H3841	H384	0.118960	0.233820	0.381040
C3851	C385	0.364990	0.364990	0.699910
H3861	H386	0.381040	0.381040	0.733820
C3871	C387	0.364990	0.864990	0.199910
H3881	H388	0.381040	0.881040	0.233820
C3891	C389	0.864990	0.364990	0.199910
H3901	H390	0.881040	0.381040	0.233820
C3911	C391	0.864990	0.864990	0.699910
H3921	H392	0.881040	0.881040	0.733820
C3931	C393	0.635010	0.635010	0.699910
H3941	H394	0.618960	0.618960	0.733820
C3951	C395	0.635010	0.135010	0.199910
H3961	H396	0.618960	0.118960	0.233820
C3971	C397	0.135010	0.635010	0.199910
H3981	H398	0.118960	0.618960	0.233820
C3991	C399	0.135010	0.135010	0.699910
H4001	H400	0.118960	0.118960	0.733820
C4011	C401	0.364990	0.635010	0.300090
H4021	H402	0.381040	0.618960	0.266180
C4031	C403	0.364990	0.135010	0.800090
H4041	H404	0.381040	0.118960	0.766180
C4051	C405	0.864990	0.635010	0.800090
H4061	H406	0.881040	0.618960	0.766180
C4071	C407	0.864990	0.135010	0.300090
H4081	H408	0.881040	0.118960	0.266180
C4091	C409	0.635010	0.364990	0.300090
H4101	H410	0.618960	0.381040	0.266180
C4111	C411	0.635010	0.864990	0.800090
H4121	H412	0.618960	0.881040	0.766180
C4131	C413	0.135010	0.364990	0.800090
H4141	H414	0.118960	0.381040	0.766180
C4151	C415	0.135010	0.864990	0.300090
H4161	H416	0.118960	0.881040	0.266180
C4171	C417	0.364990	0.300090	0.635010
H4181	H418	0.381040	0.266180	0.618960
C4191	C419	0.364990	0.800090	0.135010
H4201	H420	0.381040	0.766180	0.118960
C4211	C421	0.864990	0.300090	0.135010
H4221	H422	0.881040	0.266180	0.118960
C4231	C423	0.864990	0.800090	0.635010
H4241	H424	0.881040	0.766180	0.618960
C4251	C425	0.635010	0.300090	0.364990
H4261	H426	0.618960	0.266180	0.381040
C4271	C427	0.635010	0.800090	0.864990
H4281	H428	0.618960	0.766180	0.881040
C4291	C429	0.135010	0.300090	0.864990
H4301	H430	0.118960	0.266180	0.881040
C4311	C431	0.135010	0.800090	0.364990
H4321	H432	0.118960	0.766180	0.381040
C4331	C433	0.635010	0.699910	0.635010
H4341	H434	0.618960	0.733820	0.618960
C4351	C435	0.635010	0.199910	0.135010
H4361	H436	0.618960	0.233820	0.118960
C4371	C437	0.135010	0.699910	0.135010
H4381	H438	0.118960	0.733820	0.118960
C4391	C439	0.135010	0.199910	0.635010
H4401	H440	0.118960	0.233820	0.618960
C4411	C441	0.364990	0.699910	0.364990
H4421	H442	0.381040	0.733820	0.381040
C4431	C443	0.364990	0.199910	0.864990
H4441	H444	0.381040	0.233820	0.881040
C4451	C445	0.864990	0.699910	0.864990
H4461	H446	0.881040	0.733820	0.881040
C4471	C447	0.864990	0.199910	0.364990
H4481	H448	0.881040	0.233820	0.381040
C4491	C449	0.300090	0.364990	0.635010
H4501	H450	0.266180	0.381040	0.618960
C4511	C451	0.300090	0.864990	0.135010
H4521	H452	0.266180	0.881040	0.118960
C4531	C453	0.800090	0.364990	0.135010
H4541	H454	0.766180	0.381040	0.118960
C4551	C455	0.800090	0.864990	0.635010
H4561	H456	0.766180	0.881040	0.618960
C4571	C457	0.300090	0.635010	0.364990
H4581	H458	0.266180	0.618960	0.381040
C4591	C459	0.300090	0.135010	0.864990
H4601	H460	0.266180	0.118960	0.881040
C4611	C461	0.800090	0.635010	0.864990
H4621	H462	0.766180	0.618960	0.881040
C4631	C463	0.800090	0.135010	0.364990
H4641	H464	0.766180	0.118960	0.381040
C4651	C465	0.699910	0.364990	0.364990
H4661	H466	0.733820	0.381040	0.381040
C4671	C467	0.699910	0.864990	0.864990
H4681	H468	0.733820	0.881040	0.881040
C4691	C469	0.199910	0.364990	0.864990
H4701	H470	0.233820	0.381040	0.881040
C4711	C471	0.199910	0.864990	0.364990
H4721	H472	0.233820	0.881040	0.381040
C4731	C473	0.699910	0.635010	0.635010
H4741	H474	0.733820	0.618960	0.618960
C4751	C475	0.699910	0.135010	0.135010
H4761	H476	0.733820	0.118960	0.118960
C4771	C477	0.199910	0.635010	0.135010
H4781	H478	0.233820	0.618960	0.118960
C4791	C479	0.199910	0.135010	0.635010
H4801	H480	0.233820	0.118960	0.618960
Zn4811	Zn481	0.215160	0.000000	0.215160
Zn4821	Zn482	0.215160	0.500000	0.715160
Zn4831	Zn483	0.715160	0.000000	0.715160
Zn4841	Zn484	0.715160	0.500000	0.215160
Zn4851	Zn485	0.784840	0.000000	0.215160
Zn4861	Zn486	0.784840	0.500000	0.715160
Zn4871	Zn487	0.284840	0.000000	0.715160
Zn4881	Zn488	0.284840	0.500000	0.215160
Zn4891	Zn489	0.784840	0.000000	0.784840
Zn4901	Zn490	0.784840	0.500000	0.284840
Zn4911	Zn491	0.284840	0.000000	0.284840
Zn4921	Zn492	0.284840	0.500000	0.784840
Zn4931	Zn493	0.215160	0.000000	0.784840
Zn4941	Zn494	0.215160	0.500000	0.284840
Zn4951	Zn495	0.715160	0.000000	0.284840
Zn4961	Zn496	0.715160	0.500000	0.784840
Zn4971	Zn497	0.215160	0.215160	0.000000
Zn4981	Zn498	0.215160	0.715160	0.500000
Zn4991	Zn499	0.715160	0.215160	0.500000
Zn5001	Zn500	0.715160	0.715160	0.000000
Zn5011	Zn501	0.215160	0.784840	0.000000
Zn5021	Zn502	0.215160	0.284840	0.500000
Zn5031	Zn503	0.715160	0.784840	0.500000
Zn5041	Zn504	0.715160	0.284840	0.000000
Zn5051	Zn505	0.784840	0.784840	0.000000
Zn5061	Zn506	0.784840	0.284840	0.500000
Zn5071	Zn507	0.284840	0.784840	0.500000
Zn5081	Zn508	0.284840	0.284840	0.000000
Zn5091	Zn509	0.784840	0.215160	0.000000
Zn5101	Zn510	0.784840	0.715160	0.500000
Zn5111	Zn511	0.284840	0.215160	0.500000
Zn5121	Zn512	0.284840	0.715160	0.000000
Zn5131	Zn513	0.000000	0.215160	0.215160
Zn5141	Zn514	0.000000	0.715160	0.715160
Zn5151	Zn515	0.500000	0.215160	0.715160
Zn5161	Zn516	0.500000	0.715160	0.215160
Zn5171	Zn517	0.000000	0.215160	0.784840
Zn5181	Zn518	0.000000	0.715160	0.284840
Zn5191	Zn519	0.500000	0.215160	0.284840
Zn5201	Zn520	0.500000	0.715160	0.784840
Zn5211	Zn521	0.000000	0.784840	0.784840
Zn5221	Zn522	0.000000	0.284840	0.284840
Zn5231	Zn523	0.500000	0.784840	0.284840
Zn5241	Zn524	0.500000	0.284840	0.784840
Zn5251	Zn525	0.000000	0.784840	0.215160
Zn5261	Zn526	0.000000	0.284840	0.715160
Zn5271	Zn527	0.500000	0.784840	0.715160
Zn5281	Zn528	0.500000	0.284840	0.215160
C5291	C529	0.204350	0.931910	0.295650
C5301	C530	0.204350	0.431910	0.795650
C5311	C531	0.795650	0.068090	0.295650
C5321	C532	0.795650	0.568090	0.795650
C5331	C533	0.295650	0.568090	0.295650
C5341	C534	0.795650	0.931910	0.704350
C5351	C535	0.795650	0.431910	0.204350
C5361	C536	0.295650	0.931910	0.204350
C5371	C537	0.204350	0.068090	0.704350
C5381	C538	0.204350	0.568090	0.204350
C5391	C539	0.295650	0.204350	0.931910
C5401	C540	0.295650	0.704350	0.431910
C5411	C541	0.295650	0.795650	0.068090
C5421	C542	0.295650	0.295650	0.568090
C5431	C543	0.704350	0.795650	0.931910
C5441	C544	0.704350	0.295650	0.431910
C5451	C545	0.204350	0.295650	0.931910
C5461	C546	0.704350	0.204350	0.068090
C5471	C547	0.704350	0.704350	0.568090
C5481	C548	0.204350	0.204350	0.568090
C5491	C549	0.931910	0.295650	0.204350
C5501	C550	0.431910	0.295650	0.704350
C5511	C551	0.068090	0.295650	0.795650
C5521	C552	0.568090	0.295650	0.295650
C5531	C553	0.931910	0.704350	0.795650
C5541	C554	0.931910	0.204350	0.295650
C5551	C555	0.431910	0.704350	0.295650
C5561	C556	0.068090	0.704350	0.204350
C5571	C557	0.568090	0.704350	0.704350
C5581	C558	0.568090	0.204350	0.204350
C5591	C559	0.931910	0.204350	0.704350
C5601	C560	0.431910	0.204350	0.204350
C5611	C561	0.068090	0.795650	0.704350
C5621	C562	0.068090	0.295650	0.204350
C5631	C563	0.568090	0.795650	0.204350
C5641	C564	0.931910	0.795650	0.295650
C5651	C565	0.431910	0.795650	0.795650
C5661	C566	0.431910	0.295650	0.295650
C5671	C567	0.068090	0.204350	0.295650
C5681	C568	0.568090	0.204350	0.795650
C5691	C569	0.204350	0.295650	0.068090
C5701	C570	0.204350	0.795650	0.568090
C5711	C571	0.795650	0.295650	0.931910
C5721	C572	0.795650	0.795650	0.431910
C5731	C573	0.295650	0.295650	0.431910
C5741	C574	0.795650	0.704350	0.068090
C5751	C575	0.795650	0.204350	0.568090
C5761	C576	0.295650	0.204350	0.068090
C5771	C577	0.204350	0.704350	0.931910
C5781	C578	0.204350	0.204350	0.431910
C5791	C579	0.295650	0.931910	0.795650
C5801	C580	0.295650	0.431910	0.295650
C5811	C581	0.295650	0.068090	0.204350
C5821	C582	0.295650	0.568090	0.704350
C5831	C583	0.704350	0.931910	0.204350
C5841	C584	0.704350	0.431910	0.704350
C5851	C585	0.204350	0.431910	0.204350
C5861	C586	0.704350	0.068090	0.795650
C5871	C587	0.704350	0.568090	0.295650
C5881	C588	0.204350	0.068090	0.295650
C5891	C589	0.795650	0.068090	0.704350
C5901	C590	0.795650	0.568090	0.204350
C5911	C591	0.204350	0.931910	0.704350
C5921	C592	0.204350	0.568090	0.795650
C5931	C593	0.795650	0.931910	0.295650
C5941	C594	0.795650	0.431910	0.795650
C5951	C595	0.704350	0.795650	0.068090
C5961	C596	0.704350	0.295650	0.568090
C5971	C597	0.704350	0.204350	0.931910
C5981	C598	0.704350	0.704350	0.431910
C5991	C599	0.295650	0.704350	0.568090
C6001	C600	0.295650	0.795650	0.931910
C6011	C601	0.068090	0.704350	0.795650
C6021	C602	0.568090	0.704350	0.295650
C6031	C603	0.931910	0.704350	0.204350
C6041	C604	0.431910	0.704350	0.704350
C6051	C605	0.568090	0.295650	0.704350
C6061	C606	0.931910	0.295650	0.795650
C6071	C607	0.068090	0.795650	0.295650
C6081	C608	0.568090	0.795650	0.795650
C6091	C609	0.431910	0.204350	0.795650
C6101	C610	0.068090	0.204350	0.704350
C6111	C611	0.931910	0.795650	0.704350
C6121	C612	0.431910	0.795650	0.204350
C6131	C613	0.795650	0.704350	0.931910
C6141	C614	0.795650	0.204350	0.431910
C6151	C615	0.204350	0.704350	0.068090
C6161	C616	0.204350	0.795650	0.431910
C6171	C617	0.795650	0.295650	0.068090
C6181	C618	0.795650	0.795650	0.568090
C6191	C619	0.704350	0.068090	0.204350
C6201	C620	0.704350	0.568090	0.704350
C6211	C621	0.704350	0.931910	0.795650
C6221	C622	0.704350	0.431910	0.295650
C6231	C623	0.295650	0.068090	0.795650
C6241	C624	0.295650	0.431910	0.704350
