data_LABGAY_freeONLY_PM
_symmetry_space_group_name_H-M	'P1'
_cell_length_a	11.021000
_cell_length_b	18.561000
_cell_length_c	20.571000
_cell_angle_alpha	90.000000
_cell_angle_beta	90.000000
_cell_angle_gamma	105.822000
_symmetry_Int_Tables_number 1

loop_
_symmetry_equiv_pos_as_xyz
'x,y,z'

loop_
_atom_site_label
_atom_site_type_symbol
_atom_site_fract_x
_atom_site_fract_y
_atom_site_fract_z
Zn11	Zn1	0.954600	0.577980	0.896010
Zn21	Zn2	0.049490	0.166190	0.352270
Zn31	Zn3	0.045400	0.922020	0.396010
Zn41	Zn4	0.950510	0.333810	0.852270
Zn51	Zn5	0.045400	0.422020	0.103990
Zn61	Zn6	0.950510	0.833810	0.647730
Zn71	Zn7	0.954600	0.077980	0.603990
Zn81	Zn8	0.049490	0.666190	0.147730
H11	H1	0.928800	0.471900	0.771400
H21	H2	0.086200	0.685400	0.786400
H31	H3	0.092400	0.652500	0.671400
H41	H4	0.007500	0.536400	0.604300
H51	H5	0.900600	0.473700	0.637200
H61	H6	0.047500	0.410900	0.670300
H71	H7	0.158400	0.475500	0.641900
H81	H8	0.962000	0.388100	0.562300
H91	H9	0.082000	0.447500	0.536100
H101	H10	0.074300	0.310000	0.590900
H111	H11	0.202200	0.371700	0.580300
H121	H12	0.010100	0.220900	0.493900
H131	H13	0.212200	0.337100	0.353200
H141	H14	0.235000	0.419300	0.448400
H151	H15	0.843900	0.046000	0.422600
H161	H16	0.785900	0.175700	0.282100
H171	H17	0.581100	0.097900	0.316200
H181	H18	0.613000	0.953000	0.428600
H191	H19	0.506900	0.979300	0.392700
H201	H20	0.520800	0.072900	0.472100
H211	H21	0.626200	0.045900	0.508200
H221	H22	0.636100	0.361200	0.856200
H231	H23	0.467500	0.260600	0.878400
H241	H24	0.592000	0.253300	0.059000
H251	H25	0.369000	0.094600	0.103700
H261	H26	0.275400	0.113300	0.199400
H271	H27	0.315300	0.285600	0.035200
H281	H28	0.071200	0.028100	0.271400
H291	H29	0.913800	0.814600	0.286400
H301	H30	0.907600	0.847500	0.171400
H311	H31	0.992500	0.963600	0.104300
H321	H32	0.099400	0.026300	0.137200
H331	H33	0.952500	0.089100	0.170300
H341	H34	0.841600	0.024500	0.141900
H351	H35	0.038000	0.111900	0.062300
H361	H36	0.918000	0.052500	0.036100
H371	H37	0.925700	0.190000	0.090900
H381	H38	0.797800	0.128300	0.080300
H391	H39	0.989900	0.279100	0.993900
H401	H40	0.787800	0.162900	0.853200
H411	H41	0.765000	0.080700	0.948400
H421	H42	0.156100	0.454000	0.922600
H431	H43	0.214100	0.324300	0.782100
H441	H44	0.418900	0.402100	0.816200
H451	H45	0.387000	0.547000	0.928600
H461	H46	0.493100	0.520700	0.892700
H471	H47	0.479200	0.427100	0.972100
H481	H48	0.373800	0.454100	0.008200
H491	H49	0.363900	0.138800	0.356200
H501	H50	0.532500	0.239400	0.378400
H511	H51	0.408000	0.246700	0.559000
H521	H52	0.631000	0.405400	0.603700
H531	H53	0.724600	0.386700	0.699400
H541	H54	0.684700	0.214400	0.535200
H551	H55	0.071200	0.528100	0.228600
H561	H56	0.913800	0.314600	0.213600
H571	H57	0.907600	0.347500	0.328600
H581	H58	0.992500	0.463600	0.395700
H591	H59	0.099400	0.526300	0.362800
H601	H60	0.952500	0.589100	0.329700
H611	H61	0.841600	0.524500	0.358100
H621	H62	0.038000	0.611900	0.437700
H631	H63	0.918000	0.552500	0.463900
H641	H64	0.925700	0.690000	0.409100
H651	H65	0.797800	0.628300	0.419700
H661	H66	0.989900	0.779100	0.506100
H671	H67	0.787800	0.662900	0.646800
H681	H68	0.765000	0.580700	0.551600
H691	H69	0.156100	0.954000	0.577400
H701	H70	0.214100	0.824300	0.717900
H711	H71	0.418900	0.902100	0.683800
H721	H72	0.387000	0.047000	0.571400
H731	H73	0.493100	0.020700	0.607300
H741	H74	0.479200	0.927100	0.527900
H751	H75	0.373800	0.954100	0.491800
H761	H76	0.363900	0.638800	0.143800
H771	H77	0.532500	0.739400	0.121600
H781	H78	0.408000	0.746700	0.941000
H791	H79	0.631000	0.905400	0.896300
H801	H80	0.724600	0.886700	0.800600
H811	H81	0.684700	0.714400	0.964800
H821	H82	0.928800	0.971900	0.728600
H831	H83	0.086200	0.185400	0.713600
H841	H84	0.092400	0.152500	0.828600
H851	H85	0.007500	0.036400	0.895700
H861	H86	0.900600	0.973700	0.862800
H871	H87	0.047500	0.910900	0.829700
H881	H88	0.158400	0.975500	0.858100
H891	H89	0.962000	0.888100	0.937700
H901	H90	0.082000	0.947500	0.963900
H911	H91	0.074300	0.810000	0.909100
H921	H92	0.202200	0.871700	0.919700
H931	H93	0.010100	0.720900	0.006100
H941	H94	0.212200	0.837100	0.146800
H951	H95	0.235000	0.919300	0.051600
H961	H96	0.843900	0.546000	0.077400
H971	H97	0.785900	0.675700	0.217900
H981	H98	0.581100	0.597900	0.183800
H991	H99	0.613000	0.453000	0.071400
H1001	H100	0.506900	0.479300	0.107300
H1011	H101	0.520800	0.572900	0.027900
H1021	H102	0.626200	0.545900	0.991800
H1031	H103	0.636100	0.861200	0.643800
H1041	H104	0.467500	0.760600	0.621600
H1051	H105	0.592000	0.753300	0.441000
H1061	H106	0.369000	0.594600	0.396300
H1071	H107	0.275400	0.613300	0.300600
H1081	H108	0.315300	0.785600	0.464800
C11	C1	0.970500	0.521300	0.761400
C21	C2	0.056100	0.637800	0.768500
C31	C3	0.059400	0.619800	0.705200
C41	C4	0.988400	0.502100	0.640700
C51	C5	0.070400	0.448300	0.636200
C61	C6	0.051400	0.410100	0.569500
C71	C7	0.116700	0.352600	0.564200
C81	C8	0.063500	0.259700	0.470500
C91	C9	0.174000	0.324100	0.393500
C101	C10	0.188100	0.369400	0.446100
C111	C11	0.804500	0.068400	0.391700
C121	C12	0.771800	0.139600	0.314600
C131	C13	0.658900	0.096900	0.333200
C141	C14	0.582500	0.996200	0.418900
C151	C15	0.551100	0.029600	0.481600
C161	C16	0.826100	0.433300	0.925700
C171	C17	0.719600	0.367900	0.944500
C181	C18	0.628200	0.339400	0.897200
C191	C19	0.526600	0.279400	0.910700
C201	C20	0.510800	0.246800	0.971400
C211	C21	0.601600	0.274600	0.017800
C221	C22	0.707600	0.333900	0.004800
C231	C23	0.809200	0.354000	0.055000
C241	C24	0.401300	0.177600	0.989700
C251	C25	0.289900	0.164200	0.941600
C261	C26	0.457400	0.109100	0.987000
C271	C27	0.348500	0.187500	0.057600
C281	C28	0.337600	0.136000	0.108400
C291	C29	0.280200	0.147100	0.165400
C301	C30	0.229300	0.207000	0.174000
C311	C31	0.150900	0.208600	0.234800
C321	C32	0.242400	0.260000	0.124600
C331	C33	0.199500	0.330000	0.130100
C341	C34	0.303800	0.249500	0.067700
C351	C35	0.029500	0.978700	0.261400
C361	C36	0.943900	0.862200	0.268500
C371	C37	0.940600	0.880200	0.205200
C381	C38	0.011600	0.997900	0.140700
C391	C39	0.929600	0.051700	0.136200
C401	C40	0.948600	0.089900	0.069500
C411	C41	0.883300	0.147400	0.064200
C421	C42	0.936500	0.240300	0.970500
C431	C43	0.826000	0.175900	0.893500
C441	C44	0.811900	0.130600	0.946100
C451	C45	0.195500	0.431600	0.891700
C461	C46	0.228200	0.360400	0.814600
C471	C47	0.341100	0.403100	0.833200
C481	C48	0.417500	0.503800	0.918900
C491	C49	0.448900	0.470400	0.981600
C501	C50	0.173900	0.066700	0.425700
C511	C51	0.280400	0.132100	0.444500
C521	C52	0.371800	0.160600	0.397200
C531	C53	0.473400	0.220600	0.410700
C541	C54	0.489200	0.253200	0.471400
C551	C55	0.398400	0.225400	0.517800
C561	C56	0.292400	0.166100	0.504800
C571	C57	0.190800	0.146000	0.555000
C581	C58	0.598700	0.322400	0.489700
C591	C59	0.710100	0.335800	0.441600
C601	C60	0.542600	0.390900	0.487000
C611	C61	0.651500	0.312500	0.557600
C621	C62	0.662400	0.364000	0.608400
C631	C63	0.719800	0.352900	0.665400
C641	C64	0.770700	0.293000	0.674000
C651	C65	0.849100	0.291400	0.734800
C661	C66	0.757600	0.240000	0.624600
C671	C67	0.800500	0.170000	0.630100
C681	C68	0.696200	0.250500	0.567700
C691	C69	0.029500	0.478700	0.238600
C701	C70	0.943900	0.362200	0.231500
C711	C71	0.940600	0.380200	0.294800
C721	C72	0.011600	0.497900	0.359300
C731	C73	0.929600	0.551700	0.363800
C741	C74	0.948600	0.589900	0.430500
C751	C75	0.883300	0.647400	0.435800
C761	C76	0.936500	0.740300	0.529500
C771	C77	0.826000	0.675900	0.606500
C781	C78	0.811900	0.630600	0.553900
C791	C79	0.195500	0.931600	0.608300
C801	C80	0.228200	0.860400	0.685400
C811	C81	0.341100	0.903100	0.666800
C821	C82	0.417500	0.003800	0.581100
C831	C83	0.448900	0.970400	0.518400
C841	C84	0.173900	0.566700	0.074300
C851	C85	0.280400	0.632100	0.055500
C861	C86	0.371800	0.660600	0.102800
C871	C87	0.473400	0.720600	0.089300
C881	C88	0.489200	0.753200	0.028600
C891	C89	0.398400	0.725400	0.982200
C901	C90	0.292400	0.666100	0.995200
C911	C91	0.190800	0.646000	0.945000
C921	C92	0.598700	0.822400	0.010300
C931	C93	0.710100	0.835800	0.058400
C941	C94	0.542600	0.890900	0.013000
C951	C95	0.651500	0.812500	0.942400
C961	C96	0.662400	0.864000	0.891600
C971	C97	0.719800	0.852900	0.834600
C981	C98	0.770700	0.793000	0.826000
C991	C99	0.849100	0.791400	0.765200
C1001	C100	0.757600	0.740000	0.875400
C1011	C101	0.800500	0.670000	0.869900
C1021	C102	0.696200	0.750500	0.932300
C1031	C103	0.970500	0.021300	0.738600
C1041	C104	0.056100	0.137800	0.731500
C1051	C105	0.059400	0.119800	0.794800
C1061	C106	0.988400	0.002100	0.859300
C1071	C107	0.070400	0.948300	0.863800
C1081	C108	0.051400	0.910100	0.930500
C1091	C109	0.116700	0.852600	0.935800
C1101	C110	0.063500	0.759700	0.029500
C1111	C111	0.174000	0.824100	0.106500
C1121	C112	0.188100	0.869400	0.053900
C1131	C113	0.804500	0.568400	0.108300
C1141	C114	0.771800	0.639600	0.185400
C1151	C115	0.658900	0.596900	0.166800
C1161	C116	0.582500	0.496200	0.081100
C1171	C117	0.551100	0.529600	0.018400
C1181	C118	0.826100	0.933300	0.574300
C1191	C119	0.719600	0.867900	0.555500
C1201	C120	0.628200	0.839400	0.602800
C1211	C121	0.526600	0.779400	0.589300
C1221	C122	0.510800	0.746800	0.528600
C1231	C123	0.601600	0.774600	0.482200
C1241	C124	0.707600	0.833900	0.495200
C1251	C125	0.809200	0.854000	0.445000
C1261	C126	0.401300	0.677600	0.510300
C1271	C127	0.289900	0.664200	0.558400
C1281	C128	0.457400	0.609100	0.513000
C1291	C129	0.348500	0.687500	0.442400
C1301	C130	0.337600	0.636000	0.391600
C1311	C131	0.280200	0.647100	0.334600
C1321	C132	0.229300	0.707000	0.326000
C1331	C133	0.150900	0.708600	0.265200
C1341	C134	0.242400	0.760000	0.375400
C1351	C135	0.199500	0.830000	0.369900
C1361	C136	0.303800	0.749500	0.432300
N11	N1	0.998400	0.571000	0.803000
N21	N2	0.005300	0.544500	0.699800
N31	N3	0.120100	0.327700	0.494900
N41	N4	0.093800	0.255300	0.409400
N51	N5	0.863500	0.121700	0.350900
N61	N6	0.679300	0.051500	0.381900
N71	N7	0.001600	0.929000	0.303000
N81	N8	0.994700	0.955500	0.199800
N91	N9	0.879900	0.172300	0.994900
N101	N10	0.906200	0.244700	0.909400
N111	N11	0.136500	0.378300	0.850900
N121	N12	0.320700	0.448500	0.881900
N131	N13	0.001600	0.429000	0.197000
N141	N14	0.994700	0.455500	0.300200
N151	N15	0.879900	0.672300	0.505100
N161	N16	0.906200	0.744700	0.590600
N171	N17	0.136500	0.878300	0.649100
N181	N18	0.320700	0.948500	0.618100
N191	N19	0.998400	0.071000	0.697000
N201	N20	0.005300	0.044500	0.800200
N211	N21	0.120100	0.827700	0.005100
N221	N22	0.093800	0.755300	0.090600
N231	N23	0.863500	0.621700	0.149100
N241	N24	0.679300	0.551500	0.118100
O11	O1	0.919500	0.423800	0.895680
O21	O2	0.815600	0.497800	0.936930
O31	O3	0.903800	0.406900	0.042620
O41	O4	0.802700	0.312100	0.102400
O51	O5	0.161300	0.167000	0.279300
O61	O6	0.068500	0.238900	0.235100
O71	O7	0.256800	0.380200	0.164300
O81	O8	0.106800	0.331900	0.094300
O91	O9	0.080500	0.076200	0.395680
O101	O10	0.184400	0.002200	0.436930
O111	O11	0.096200	0.093100	0.542620
O121	O12	0.197300	0.187900	0.602400
O131	O13	0.838700	0.333000	0.779300
O141	O14	0.931500	0.261100	0.735100
O151	O15	0.743200	0.119800	0.664300
O161	O16	0.893200	0.168100	0.594300
O171	O17	0.080500	0.576200	0.104320
O181	O18	0.184400	0.502200	0.063070
O191	O19	0.096200	0.593100	0.957380
O201	O20	0.197300	0.687900	0.897600
O211	O21	0.838700	0.833000	0.720700
O221	O22	0.931500	0.761100	0.764900
O231	O23	0.743200	0.619800	0.835700
O241	O24	0.893200	0.668100	0.905700
O251	O25	0.919500	0.923800	0.604320
O261	O26	0.815600	0.997800	0.563070
O271	O27	0.903800	0.906900	0.457380
O281	O28	0.802700	0.812100	0.397600
O291	O29	0.161300	0.667000	0.220700
O301	O30	0.068500	0.738900	0.264900
O311	O31	0.256800	0.880200	0.335700
O321	O32	0.106800	0.831900	0.405700
F11	F1	0.252700	0.224900	0.931140
F21	F2	0.189900	0.111600	0.964800
F31	F3	0.315800	0.138900	0.883390
F41	F4	0.511000	0.105000	0.928800
F51	F5	0.367600	0.044100	0.993200
F61	F6	0.541900	0.111300	0.031300
F71	F7	0.747300	0.275100	0.431140
F81	F8	0.810100	0.388400	0.464800
F91	F9	0.684200	0.361100	0.383390
F101	F10	0.489000	0.395000	0.428800
F111	F11	0.632400	0.455900	0.493200
F121	F12	0.458100	0.388700	0.531300
F131	F13	0.747300	0.775100	0.068860
F141	F14	0.810100	0.888400	0.035200
F151	F15	0.684200	0.861100	0.116610
F161	F16	0.489000	0.895000	0.071200
F171	F17	0.632400	0.955900	0.006800
F181	F18	0.458100	0.888700	0.968700
F191	F19	0.252700	0.724900	0.568860
F201	F20	0.189900	0.611600	0.535200
F211	F21	0.315800	0.638900	0.616610
F221	F22	0.511000	0.605000	0.571200
F231	F23	0.367600	0.544100	0.506800
F241	F24	0.541900	0.611300	0.468700
