data_LABKIL_freeONLY_PM
_symmetry_space_group_name_H-M	'P1'
_cell_length_a	13.862000
_cell_length_b	14.477000
_cell_length_c	14.664000
_cell_angle_alpha	95.331000
_cell_angle_beta	106.021000
_cell_angle_gamma	118.084000
_symmetry_Int_Tables_number 1

loop_
_symmetry_equiv_pos_as_xyz
'x,y,z'

loop_
_atom_site_label
_atom_site_type_symbol
_atom_site_fract_x
_atom_site_fract_y
_atom_site_fract_z
Cd11	Cd1	0.621510	0.713560	0.418560
Cd21	Cd2	0.526450	0.724880	0.169230
Cd31	Cd3	0.283560	0.793850	0.136610
O11	O1	0.444900	0.974400	0.163100
O21	O2	0.482600	0.858900	0.228200
O31	O3	0.685600	0.888100	0.424800
O41	O4	0.695900	0.863500	0.277700
O51	O5	0.910900	0.100700	0.464700
O61	O6	0.848800	0.141700	0.853200
O71	O7	0.747700	0.163100	0.722900
O81	O8	0.449400	0.529300	0.364800
O91	O9	0.449800	0.646600	0.279600
O101	O10	0.199500	0.616900	0.153000
O111	O11	0.328800	0.647900	0.081200
O121	O12	0.098400	0.417300	0.963700
O131	O13	0.320800	0.365900	0.679900
O141	O14	0.384100	0.367700	0.835400
N11	N1	0.557700	0.738200	0.545800
N21	N2	0.536400	0.751300	0.022300
N31	N3	0.196800	0.766200	0.972000
N41	N4	0.780100	0.728800	0.541900
C11	C1	0.823500	0.117300	0.410200
C21	C2	0.718800	0.029900	0.348700
C31	C3	0.696600	0.917700	0.350200
C41	C4	0.633900	0.044700	0.285100
C51	C5	0.513100	0.953900	0.220700
C61	C6	0.661900	0.152900	0.288300
H11	H1	0.608700	0.165900	0.246000
C71	C7	0.767000	0.238500	0.353500
H21	H2	0.782900	0.308900	0.356400
C81	C8	0.849500	0.222100	0.414700
H31	H3	0.920900	0.280600	0.458100
C91	C9	0.934000	0.107800	0.564100
C101	C10	0.863900	0.117000	0.611600
H41	H4	0.798000	0.118900	0.576900
C111	C11	0.893100	0.123200	0.711700
C121	C12	0.825900	0.141400	0.764900
C131	C13	0.991800	0.119200	0.760500
H51	H5	0.012700	0.123900	0.827500
C141	C14	0.059300	0.108300	0.711600
H61	H6	0.124500	0.104800	0.745400
C151	C15	0.030200	0.102600	0.612400
H71	H7	0.075400	0.095400	0.579000
C161	C16	0.158900	0.394200	0.041400
C171	C17	0.242900	0.480000	0.123600
C181	C18	0.259100	0.590000	0.120900
C191	C19	0.301600	0.457500	0.203900
C201	C20	0.404000	0.548000	0.288900
C211	C21	0.270200	0.353000	0.203700
H81	H8	0.306900	0.338000	0.258600
C221	C22	0.184200	0.269400	0.122300
H91	H9	0.163100	0.198400	0.123100
C231	C23	0.129400	0.289300	0.040700
H101	H10	0.073000	0.232600	0.985300
C241	C24	0.118600	0.410000	0.877000
C251	C25	0.208300	0.397200	0.865600
H111	H11	0.259600	0.392400	0.918500
C261	C26	0.220600	0.391800	0.776800
C271	C27	0.316400	0.373700	0.762900
C281	C28	0.145700	0.398900	0.698000
H121	H12	0.155400	0.396400	0.637700
C291	C29	0.054300	0.409900	0.709800
H131	H13	0.002800	0.414800	0.657100
C301	C30	0.040800	0.413400	0.798700
H141	H14	0.978500	0.418100	0.805800
C311	C31	0.491300	0.650500	0.571500
H151	H15	0.450500	0.583600	0.525700
C321	C32	0.479700	0.653000	0.659600
H161	H16	0.431900	0.588800	0.672800
C331	C33	0.538000	0.750000	0.730700
C341	C34	0.605900	0.843800	0.704900
H171	H17	0.645500	0.911800	0.748900
C351	C35	0.612400	0.832900	0.614000
H181	H18	0.658200	0.895800	0.597900
C361	C36	0.537500	0.752800	0.831000
C371	C37	0.452400	0.673800	0.850200
H191	H19	0.392200	0.613500	0.799300
C381	C38	0.451300	0.679300	0.945200
H201	H20	0.384200	0.627200	0.953200
C391	C39	0.611400	0.830300	0.001800
H211	H21	0.669300	0.890600	0.053600
C401	C40	0.614600	0.834900	0.909800
H221	H22	0.672800	0.897600	0.902300
C411	C41	0.218400	0.848900	0.932500
H231	H23	0.288300	0.914300	0.966300
C421	C42	0.145200	0.845900	0.845000
H241	H24	0.164400	0.907700	0.822000
C431	C43	0.042800	0.748500	0.792600
C441	C44	0.022200	0.660000	0.830000
H251	H25	0.955800	0.592200	0.795900
C451	C45	0.100400	0.673200	0.917300
H261	H26	0.085000	0.612000	0.940600
C461	C46	0.954600	0.741200	0.702300
C471	C47	0.943900	0.829500	0.691800
H271	H27	0.996200	0.895700	0.738700
C481	C48	0.856900	0.820800	0.612900
H281	H28	0.851000	0.881700	0.608400
C491	C49	0.794400	0.644500	0.551500
H291	H29	0.744200	0.580200	0.502000
C501	C50	0.876900	0.646800	0.628500
H301	H30	0.881200	0.584900	0.631500
Cd41	Cd4	0.378490	0.286440	0.581440
Cd51	Cd5	0.473550	0.275120	0.830770
Cd61	Cd6	0.716440	0.206150	0.863390
O151	O15	0.555100	0.025600	0.836900
O161	O16	0.517400	0.141100	0.771800
O171	O17	0.314400	0.111900	0.575200
O181	O18	0.304100	0.136500	0.722300
O191	O19	0.089100	0.899300	0.535300
O201	O20	0.151200	0.858300	0.146800
O211	O21	0.252300	0.836900	0.277100
O221	O22	0.550600	0.470700	0.635200
O231	O23	0.550200	0.353400	0.720400
O241	O24	0.800500	0.383100	0.847000
O251	O25	0.671200	0.352100	0.918800
O261	O26	0.901600	0.582700	0.036300
O271	O27	0.679200	0.634100	0.320100
O281	O28	0.615900	0.632300	0.164600
N51	N5	0.442300	0.261800	0.454200
N61	N6	0.463600	0.248700	0.977700
N71	N7	0.803200	0.233800	0.028000
N81	N8	0.219900	0.271200	0.458100
C511	C51	0.176500	0.882700	0.589800
C521	C52	0.281200	0.970100	0.651300
C531	C53	0.303400	0.082300	0.649800
C541	C54	0.366100	0.955300	0.714900
C551	C55	0.486900	0.046100	0.779300
C561	C56	0.338100	0.847100	0.711700
H311	H31	0.391300	0.834100	0.754000
C571	C57	0.233000	0.761500	0.646500
H321	H32	0.217100	0.691100	0.643600
C581	C58	0.150500	0.777900	0.585300
H331	H33	0.079100	0.719400	0.541900
C591	C59	0.066000	0.892200	0.435900
C601	C60	0.136100	0.883000	0.388400
H341	H34	0.202000	0.881100	0.423100
C611	C61	0.106900	0.876800	0.288300
C621	C62	0.174100	0.858600	0.235100
C631	C63	0.008200	0.880800	0.239500
H351	H35	0.987300	0.876100	0.172500
C641	C64	0.940700	0.891700	0.288400
H361	H36	0.875500	0.895200	0.254600
C651	C65	0.969800	0.897400	0.387600
H371	H37	0.924600	0.904600	0.421000
C661	C66	0.841100	0.605800	0.958600
C671	C67	0.757100	0.520000	0.876400
C681	C68	0.740900	0.410000	0.879100
C691	C69	0.698400	0.542500	0.796100
C701	C70	0.596000	0.452000	0.711100
C711	C71	0.729800	0.647000	0.796300
H381	H38	0.693100	0.662000	0.741400
C721	C72	0.815800	0.730600	0.877700
H391	H39	0.836900	0.801600	0.876900
C731	C73	0.870600	0.710700	0.959300
H401	H40	0.927000	0.767400	0.014700
C741	C74	0.881400	0.590000	0.123000
C751	C75	0.791700	0.602800	0.134400
H411	H41	0.740400	0.607600	0.081500
C761	C76	0.779400	0.608200	0.223200
C771	C77	0.683600	0.626300	0.237100
C781	C78	0.854300	0.601100	0.302000
H421	H42	0.844600	0.603600	0.362300
C791	C79	0.945700	0.590100	0.290200
H431	H43	0.997200	0.585200	0.342900
C801	C80	0.959200	0.586600	0.201300
H441	H44	0.021500	0.581900	0.194200
C811	C81	0.508700	0.349500	0.428500
H451	H45	0.549500	0.416400	0.474300
C821	C82	0.520300	0.347000	0.340400
H461	H46	0.568100	0.411200	0.327200
C831	C83	0.462000	0.250000	0.269300
C841	C84	0.394100	0.156200	0.295100
H471	H47	0.354500	0.088200	0.251100
C851	C85	0.387600	0.167100	0.386000
H481	H48	0.341800	0.104200	0.402100
C861	C86	0.462500	0.247200	0.169000
C871	C87	0.547600	0.326200	0.149800
H491	H49	0.607800	0.386500	0.200700
C881	C88	0.548700	0.320700	0.054800
H501	H50	0.615800	0.372800	0.046800
C891	C89	0.388600	0.169700	0.998200
H511	H51	0.330700	0.109400	0.946400
C901	C90	0.385400	0.165100	0.090200
H521	H52	0.327200	0.102400	0.097700
C911	C91	0.781600	0.151100	0.067500
H531	H53	0.711700	0.085700	0.033700
C921	C92	0.854800	0.154100	0.155000
H541	H54	0.835600	0.092300	0.178000
C931	C93	0.957200	0.251500	0.207400
C941	C94	0.977800	0.340000	0.170000
H551	H55	0.044200	0.407800	0.204100
C951	C95	0.899600	0.326800	0.082700
H561	H56	0.915000	0.388000	0.059400
C961	C96	0.045400	0.258800	0.297700
C971	C97	0.056100	0.170500	0.308200
H571	H57	0.003800	0.104300	0.261300
C981	C98	0.143100	0.179200	0.387100
H581	H58	0.149000	0.118300	0.391600
C991	C99	0.205600	0.355500	0.448500
H591	H59	0.255800	0.419800	0.498000
C1001	C100	0.123100	0.353200	0.371500
H601	H60	0.118800	0.415100	0.368500
