data_LABPUB_freeONLY_PM
_symmetry_space_group_name_H-M	'P1'
_cell_length_a	7.090000
_cell_length_b	20.910000
_cell_length_c	27.823000
_cell_angle_alpha	107.611000
_cell_angle_beta	90.000000
_cell_angle_gamma	90.000000
_symmetry_Int_Tables_number 1

loop_
_symmetry_equiv_pos_as_xyz
'x,y,z'

loop_
_atom_site_label
_atom_site_type_symbol
_atom_site_fract_x
_atom_site_fract_y
_atom_site_fract_z
Sm11	Sm1	0.872770	0.910350	0.661490
Sm21	Sm2	0.086650	0.746950	0.206750
Sm31	Sm3	0.372770	0.089650	0.838510
Sm41	Sm4	0.586650	0.253050	0.293250
Sm51	Sm5	0.127230	0.089650	0.338510
Sm61	Sm6	0.913350	0.253050	0.793250
Sm71	Sm7	0.627230	0.910350	0.161490
Sm81	Sm8	0.413350	0.746950	0.706750
P11	P1	0.959370	0.917790	0.272720
P21	P2	0.913640	0.750470	0.679510
P31	P3	0.377530	0.863320	0.626310
P41	P4	0.459370	0.082210	0.227280
P51	P5	0.413640	0.249530	0.820490
P61	P6	0.877530	0.136680	0.873690
P71	P7	0.040630	0.082210	0.727280
P81	P8	0.086360	0.249530	0.320490
P91	P9	0.622470	0.136680	0.373690
P101	P10	0.540630	0.917790	0.772720
P111	P11	0.586360	0.750470	0.179510
P121	P12	0.122470	0.863320	0.126310
H11	H1	0.650100	0.987500	0.323300
H21	H2	0.812000	0.620700	0.686200
H31	H3	0.017000	0.619600	0.688100
H41	H4	0.160500	0.765200	0.585500
H51	H5	0.073900	0.793900	0.549600
H61	H6	0.883400	0.903100	0.350200
H71	H7	0.752000	0.857900	0.308000
H81	H8	0.432000	0.980600	0.382600
H91	H9	0.445000	0.903000	0.356700
H101	H10	0.551500	0.837000	0.405000
H111	H11	0.683900	0.823900	0.477900
H121	H12	0.818200	0.018200	0.523200
H131	H13	0.698700	0.030300	0.449400
H141	H14	0.822300	0.656000	0.614900
H151	H15	0.042700	0.657900	0.619700
H161	H16	0.029300	0.535000	0.611300
H171	H17	0.807700	0.535500	0.610500
H181	H18	0.633600	0.493300	0.673600
H191	H19	0.636200	0.428500	0.727400
H201	H20	0.193100	0.407700	0.711700
H211	H21	0.191800	0.473100	0.658200
H221	H22	0.991400	0.765800	0.381800
H231	H23	0.953700	0.748500	0.459600
H241	H24	0.293900	0.680800	0.523200
H251	H25	0.074300	0.680900	0.516200
H261	H26	0.453700	0.791200	0.546000
H271	H27	0.319600	0.848600	0.540500
H281	H28	0.480000	0.680400	0.452900
H291	H29	0.519800	0.696600	0.374700
H301	H30	0.454400	0.749900	0.276900
H311	H31	0.001700	0.908600	0.765500
H321	H32	0.166900	0.896900	0.737300
H331	H33	0.078400	0.679100	0.094900
H341	H34	0.980300	0.635000	0.114400
H351	H35	0.150100	0.012500	0.176700
H361	H36	0.312000	0.379300	0.813800
H371	H37	0.517000	0.380400	0.811900
H381	H38	0.660500	0.234800	0.914500
H391	H39	0.573900	0.206100	0.950400
H401	H40	0.383400	0.096900	0.149800
H411	H41	0.252000	0.142100	0.192000
H421	H42	0.932000	0.019400	0.117400
H431	H43	0.945000	0.097000	0.143300
H441	H44	0.051500	0.163000	0.095000
H451	H45	0.183900	0.176100	0.022100
H461	H46	0.318200	0.981800	0.976800
H471	H47	0.198700	0.969700	0.050600
H481	H48	0.322300	0.344000	0.885100
H491	H49	0.542700	0.342100	0.880300
H501	H50	0.529300	0.465000	0.888700
H511	H51	0.307700	0.464500	0.889500
H521	H52	0.133600	0.506700	0.826400
H531	H53	0.136200	0.571500	0.772600
H541	H54	0.693100	0.592300	0.788300
H551	H55	0.691800	0.526900	0.841800
H561	H56	0.491400	0.234200	0.118200
H571	H57	0.453700	0.251500	0.040400
H581	H58	0.793900	0.319200	0.976800
H591	H59	0.574300	0.319100	0.983800
H601	H60	0.953700	0.208800	0.954000
H611	H61	0.819600	0.151400	0.959500
H621	H62	0.980000	0.319600	0.047100
H631	H63	0.019800	0.303400	0.125300
H641	H64	0.954400	0.250100	0.223100
H651	H65	0.501700	0.091400	0.734500
H661	H66	0.666900	0.103100	0.762700
H671	H67	0.578400	0.320900	0.405100
H681	H68	0.480300	0.365000	0.385600
H691	H69	0.349900	0.012500	0.676700
H701	H70	0.188000	0.379300	0.313800
H711	H71	0.983000	0.380400	0.311900
H721	H72	0.839500	0.234800	0.414500
H731	H73	0.926100	0.206100	0.450400
H741	H74	0.116600	0.096900	0.649800
H751	H75	0.248000	0.142100	0.692000
H761	H76	0.568000	0.019400	0.617400
H771	H77	0.555000	0.097000	0.643300
H781	H78	0.448500	0.163000	0.595000
H791	H79	0.316100	0.176100	0.522100
H801	H80	0.181800	0.981800	0.476800
H811	H81	0.301300	0.969700	0.550600
H821	H82	0.177700	0.344000	0.385100
H831	H83	0.957300	0.342100	0.380300
H841	H84	0.970700	0.465000	0.388700
H851	H85	0.192300	0.464500	0.389500
H861	H86	0.366400	0.506700	0.326400
H871	H87	0.363800	0.571500	0.272600
H881	H88	0.806900	0.592300	0.288300
H891	H89	0.808200	0.526900	0.341800
H901	H90	0.008600	0.234200	0.618200
H911	H91	0.046300	0.251500	0.540400
H921	H92	0.706100	0.319200	0.476800
H931	H93	0.925700	0.319100	0.483800
H941	H94	0.546300	0.208800	0.454000
H951	H95	0.680400	0.151400	0.459500
H961	H96	0.520000	0.319600	0.547100
H971	H97	0.480200	0.303400	0.625300
H981	H98	0.545600	0.250100	0.723100
H991	H99	0.998300	0.091400	0.234500
H1001	H100	0.833100	0.103100	0.262700
H1011	H101	0.921600	0.320900	0.905100
H1021	H102	0.019700	0.365000	0.885600
H1031	H103	0.849900	0.987500	0.823300
H1041	H104	0.688000	0.620700	0.186200
H1051	H105	0.483000	0.619600	0.188100
H1061	H106	0.339500	0.765200	0.085500
H1071	H107	0.426100	0.793900	0.049600
H1081	H108	0.616600	0.903100	0.850200
H1091	H109	0.748000	0.857900	0.808000
H1101	H110	0.068000	0.980600	0.882600
H1111	H111	0.055000	0.903000	0.856700
H1121	H112	0.948500	0.837000	0.905000
H1131	H113	0.816100	0.823900	0.977900
H1141	H114	0.681800	0.018200	0.023200
H1151	H115	0.801300	0.030300	0.949400
H1161	H116	0.677700	0.656000	0.114900
H1171	H117	0.457300	0.657900	0.119700
H1181	H118	0.470700	0.535000	0.111300
H1191	H119	0.692300	0.535500	0.110500
H1201	H120	0.866400	0.493300	0.173600
H1211	H121	0.863800	0.428500	0.227400
H1221	H122	0.306900	0.407700	0.211700
H1231	H123	0.308200	0.473100	0.158200
H1241	H124	0.508600	0.765800	0.881800
H1251	H125	0.546300	0.748500	0.959600
H1261	H126	0.206100	0.680800	0.023200
H1271	H127	0.425700	0.680900	0.016200
H1281	H128	0.046300	0.791200	0.046000
H1291	H129	0.180400	0.848600	0.040500
H1301	H130	0.020000	0.680400	0.952900
H1311	H131	0.980200	0.696600	0.874700
H1321	H132	0.045600	0.749900	0.776900
H1331	H133	0.498300	0.908600	0.265500
H1341	H134	0.333100	0.896900	0.237300
H1351	H135	0.421600	0.679100	0.594900
H1361	H136	0.519700	0.635000	0.614400
C11	C1	0.808600	0.902100	0.320800
C21	C2	0.518300	0.942900	0.372790
C31	C3	0.610000	0.934700	0.419460
C41	C4	0.606900	0.873600	0.428400
C51	C5	0.686200	0.865700	0.472500
C61	C6	0.766900	0.919400	0.507810
C71	C7	0.767200	0.981200	0.499100
C81	C8	0.693000	0.988800	0.455100
C91	C9	0.844800	0.912200	0.556600
C101	C10	0.926000	0.664100	0.638700
C111	C11	0.917300	0.542600	0.632400
C121	C12	0.913900	0.493600	0.663100
C131	C13	0.747500	0.477800	0.682300
C141	C14	0.749500	0.438800	0.714600
C151	C15	0.915400	0.415000	0.728200
C161	C16	0.080600	0.426500	0.705300
C171	C17	0.080000	0.465600	0.673200
C181	C18	0.918100	0.377000	0.765900
C191	C19	0.278100	0.745100	0.320600
C201	C20	0.259500	0.733500	0.371000
C211	C21	0.090600	0.748800	0.396100
C221	C22	0.068400	0.738700	0.442800
C231	C23	0.215500	0.714300	0.464300
C241	C24	0.188900	0.706100	0.515900
C251	C25	0.342300	0.817400	0.559510
C261	C26	0.381800	0.698100	0.438700
C271	C27	0.406000	0.707600	0.391800
C281	C28	0.308600	0.097900	0.179200
C291	C29	0.018300	0.057100	0.127210
C301	C30	0.110000	0.065300	0.080540
C311	C31	0.106900	0.126400	0.071600
C321	C32	0.186200	0.134300	0.027500
C331	C33	0.266900	0.080600	0.992190
C341	C34	0.267200	0.018800	0.000900
C351	C35	0.193000	0.011200	0.044900
C361	C36	0.344800	0.087800	0.943400
C371	C37	0.426000	0.335900	0.861300
C381	C38	0.417300	0.457400	0.867600
C391	C39	0.413900	0.506400	0.836900
C401	C40	0.247500	0.522200	0.817700
C411	C41	0.249500	0.561200	0.785400
C421	C42	0.415400	0.585000	0.771800
C431	C43	0.580600	0.573500	0.794700
C441	C44	0.580000	0.534400	0.826800
C451	C45	0.418100	0.623000	0.734100
C461	C46	0.778100	0.254900	0.179400
C471	C47	0.759500	0.266500	0.129000
C481	C48	0.590600	0.251200	0.103900
C491	C49	0.568400	0.261300	0.057200
C501	C50	0.715500	0.285700	0.035700
C511	C51	0.688900	0.293900	0.984100
C521	C52	0.842300	0.182600	0.940490
C531	C53	0.881800	0.301900	0.061300
C541	C54	0.906000	0.292400	0.108200
C551	C55	0.191400	0.097900	0.679200
C561	C56	0.481700	0.057100	0.627210
C571	C57	0.390000	0.065300	0.580540
C581	C58	0.393100	0.126400	0.571600
C591	C59	0.313800	0.134300	0.527500
C601	C60	0.233100	0.080600	0.492190
C611	C61	0.232800	0.018800	0.500900
C621	C62	0.307000	0.011200	0.544900
C631	C63	0.155200	0.087800	0.443400
C641	C64	0.074000	0.335900	0.361300
C651	C65	0.082700	0.457400	0.367600
C661	C66	0.086100	0.506400	0.336900
C671	C67	0.252500	0.522200	0.317700
C681	C68	0.250500	0.561200	0.285400
C691	C69	0.084600	0.585000	0.271800
C701	C70	0.919400	0.573500	0.294700
C711	C71	0.920000	0.534400	0.326800
C721	C72	0.081900	0.623000	0.234100
C731	C73	0.721900	0.254900	0.679400
C741	C74	0.740500	0.266500	0.629000
C751	C75	0.909400	0.251200	0.603900
C761	C76	0.931600	0.261300	0.557200
C771	C77	0.784500	0.285700	0.535700
C781	C78	0.811100	0.293900	0.484100
C791	C79	0.657700	0.182600	0.440490
C801	C80	0.618200	0.301900	0.561300
C811	C81	0.594000	0.292400	0.608200
C821	C82	0.691400	0.902100	0.820800
C831	C83	0.981700	0.942900	0.872790
C841	C84	0.890000	0.934700	0.919460
C851	C85	0.893100	0.873600	0.928400
C861	C86	0.813800	0.865700	0.972500
C871	C87	0.733100	0.919400	0.007810
C881	C88	0.732800	0.981200	0.999100
C891	C89	0.807000	0.988800	0.955100
C901	C90	0.655200	0.912200	0.056600
C911	C91	0.574000	0.664100	0.138700
C921	C92	0.582700	0.542600	0.132400
C931	C93	0.586100	0.493600	0.163100
C941	C94	0.752500	0.477800	0.182300
C951	C95	0.750500	0.438800	0.214600
C961	C96	0.584600	0.415000	0.228200
C971	C97	0.419400	0.426500	0.205300
C981	C98	0.420000	0.465600	0.173200
C991	C99	0.581900	0.377000	0.265900
C1001	C100	0.221900	0.745100	0.820600
C1011	C101	0.240500	0.733500	0.871000
C1021	C102	0.409400	0.748800	0.896100
C1031	C103	0.431600	0.738700	0.942800
C1041	C104	0.284500	0.714300	0.964300
C1051	C105	0.311100	0.706100	0.015900
C1061	C106	0.157700	0.817400	0.059510
C1071	C107	0.118200	0.698100	0.938700
C1081	C108	0.094000	0.707600	0.891800
N11	N1	0.657100	0.954200	0.335310
N21	N2	0.917300	0.613800	0.667230
N31	N3	0.177000	0.772400	0.555550
N41	N4	0.157100	0.045800	0.164690
N51	N5	0.417300	0.386200	0.832770
N61	N6	0.677000	0.227600	0.944450
N71	N7	0.342900	0.045800	0.664690
N81	N8	0.082700	0.386200	0.332770
N91	N9	0.823000	0.227600	0.444450
N101	N10	0.842900	0.954200	0.835310
N111	N11	0.582700	0.613800	0.167230
N121	N12	0.323000	0.772400	0.055550
O11	O1	0.874900	0.963200	0.592350
O21	O2	0.869700	0.853200	0.559410
O31	O3	0.072100	0.979820	0.298310
O41	O4	0.087300	0.857110	0.256120
O51	O5	0.829300	0.928600	0.233160
O61	O6	0.927200	0.793010	0.644530
O71	O7	0.731700	0.759000	0.708660
O81	O8	0.081200	0.758910	0.715160
O91	O9	0.766100	0.363100	0.783550
O101	O10	0.072900	0.355200	0.777020
O111	O11	0.453400	0.745400	0.305180
O121	O12	0.141100	0.752700	0.296970
O131	O13	0.560600	0.901500	0.630050
O141	O14	0.207600	0.909310	0.641700
O151	O15	0.380900	0.806150	0.649130
O161	O16	0.068900	0.921300	0.744770
O171	O17	0.079600	0.658700	0.117130
O181	O18	0.374900	0.036800	0.907650
O191	O19	0.369700	0.146800	0.940590
O201	O20	0.572100	0.020180	0.201690
O211	O21	0.587300	0.142890	0.243880
O221	O22	0.329300	0.071400	0.266840
O231	O23	0.427200	0.206990	0.855470
O241	O24	0.231700	0.241000	0.791340
O251	O25	0.581200	0.241090	0.784840
O261	O26	0.266100	0.636900	0.716450
O271	O27	0.572900	0.644800	0.722980
O281	O28	0.953400	0.254600	0.194820
O291	O29	0.641100	0.247300	0.203030
O301	O30	0.060600	0.098500	0.869950
O311	O31	0.707600	0.090690	0.858300
O321	O32	0.880900	0.193850	0.850870
O331	O33	0.568900	0.078700	0.755230
O341	O34	0.579600	0.341300	0.382870
O351	O35	0.125100	0.036800	0.407650
O361	O36	0.130300	0.146800	0.440590
O371	O37	0.927900	0.020180	0.701690
O381	O38	0.912700	0.142890	0.743880
O391	O39	0.170700	0.071400	0.766840
O401	O40	0.072800	0.206990	0.355470
O411	O41	0.268300	0.241000	0.291340
O421	O42	0.918800	0.241090	0.284840
O431	O43	0.233900	0.636900	0.216450
O441	O44	0.927100	0.644800	0.222980
O451	O45	0.546600	0.254600	0.694820
O461	O46	0.858900	0.247300	0.703030
O471	O47	0.439400	0.098500	0.369950
O481	O48	0.792400	0.090690	0.358300
O491	O49	0.619100	0.193850	0.350870
O501	O50	0.931100	0.078700	0.255230
O511	O51	0.920400	0.341300	0.882870
O521	O52	0.625100	0.963200	0.092350
O531	O53	0.630300	0.853200	0.059410
O541	O54	0.427900	0.979820	0.798310
O551	O55	0.412700	0.857110	0.756120
O561	O56	0.670700	0.928600	0.733160
O571	O57	0.572800	0.793010	0.144530
O581	O58	0.768300	0.759000	0.208660
O591	O59	0.418800	0.758910	0.215160
O601	O60	0.733900	0.363100	0.283550
O611	O61	0.427100	0.355200	0.277020
O621	O62	0.046600	0.745400	0.805180
O631	O63	0.358900	0.752700	0.796970
O641	O64	0.939400	0.901500	0.130050
O651	O65	0.292400	0.909310	0.141700
O661	O66	0.119100	0.806150	0.149130
O671	O67	0.431100	0.921300	0.244770
O681	O68	0.420400	0.658700	0.617130
