data_LABRUE_freeONLY_PM
_symmetry_space_group_name_H-M	'P1'
_cell_length_a	29.689000
_cell_length_b	19.312000
_cell_length_c	29.424000
_cell_angle_alpha	90.000000
_cell_angle_beta	107.292000
_cell_angle_gamma	90.000000
_symmetry_Int_Tables_number 1

loop_
_symmetry_equiv_pos_as_xyz
'x,y,z'

loop_
_atom_site_label
_atom_site_type_symbol
_atom_site_fract_x
_atom_site_fract_y
_atom_site_fract_z
C11	C1	0.277890	0.287720	0.292230
C21	C2	0.633080	0.926240	0.308910
C31	C3	0.394640	0.223100	0.283040
H11	H1	0.405600	0.188100	0.267400
C41	C4	0.276140	0.149880	0.362930
C51	C5	0.201850	0.194240	0.489800
H21	H2	0.195300	0.241400	0.486400
C61	C6	0.329770	0.282450	0.299420
C71	C7	0.615920	0.858640	0.408370
C81	C8	0.611200	0.994140	0.313750
C91	C9	0.642040	0.798280	0.397480
C101	C10	0.474980	0.092900	0.448890
C111	C11	0.640630	0.918600	0.427230
H31	H3	0.672900	0.921300	0.431600
C121	C12	0.551550	0.317900	0.319700
C131	C13	0.347810	0.141100	0.433960
H41	H4	0.329600	0.156100	0.452900
C141	C14	0.354570	0.108810	0.357490
H51	H5	0.340800	0.100700	0.325200
C151	C15	0.219550	0.095380	0.540390
C161	C16	0.649710	0.574650	0.314890
C171	C17	0.327210	0.132050	0.385170
C181	C18	0.346670	0.230970	0.275650
H61	H6	0.325600	0.201700	0.254700
C191	C19	0.504280	0.321600	0.319170
H71	H7	0.490300	0.364600	0.319200
C201	C20	0.647940	0.210000	0.701400
C211	C21	0.567550	0.855900	0.400050
H81	H8	0.550800	0.816700	0.386200
C221	C22	0.617310	0.973500	0.439380
H91	H9	0.634000	0.013300	0.452100
C231	C23	0.423750	0.107000	0.426580
C241	C24	0.569110	0.123220	0.319910
C251	C25	0.225120	0.994400	0.593150
H101	H10	0.225900	0.967000	0.567400
C261	C26	0.209940	0.164860	0.534390
H111	H11	0.208900	0.192000	0.560100
C271	C27	0.402550	0.097530	0.377820
H121	H12	0.420800	0.083500	0.358700
C281	C28	0.478150	0.262100	0.318560
C291	C29	0.426700	0.267620	0.314000
C301	C30	0.499700	0.197920	0.319790
H131	H13	0.482400	0.157900	0.320300
C311	C31	0.361950	0.325960	0.331090
H141	H14	0.351100	0.359800	0.347700
C321	C32	0.224200	0.061600	0.586670
H151	H15	0.226600	0.089900	0.612900
C331	C33	0.225070	0.958200	0.636800
C341	C34	0.499910	0.126500	0.490510
H161	H16	0.485200	0.161200	0.502900
C351	C35	0.571870	0.252990	0.319790
H171	H17	0.603000	0.250200	0.319500
C361	C36	0.572490	0.137800	0.561310
C371	C37	0.395330	0.127800	0.454240
H181	H18	0.408600	0.132900	0.486900
C381	C38	0.621610	0.186200	0.651960
C391	C39	0.547030	0.192420	0.320330
C401	C40	0.542120	0.063800	0.306400
H191	H19	0.509500	0.066900	0.299100
C411	C41	0.497760	0.043500	0.429290
H201	H20	0.481400	0.021700	0.401100
C421	C42	0.220530	0.850800	0.676520
H211	H21	0.220200	0.802600	0.675900
C431	C43	0.570050	0.207100	0.573030
H221	H22	0.551500	0.237500	0.550700
C441	C44	0.224610	0.990780	0.678890
H231	H23	0.226900	0.038700	0.681400
C451	C45	0.562440	0.000400	0.303430
H241	H24	0.543400	0.961400	0.294500
C461	C46	0.568480	0.059000	0.493670
H251	H25	0.599700	0.047400	0.508900
C471	C47	0.544050	0.911500	0.412320
H261	H26	0.511600	0.909300	0.406700
C481	C48	0.409710	0.318700	0.337640
H271	H27	0.430800	0.348500	0.358200
C491	C49	0.568730	0.970700	0.432980
C501	C50	0.546310	0.109200	0.513860
C511	C51	0.223540	0.059300	0.501040
H281	H28	0.232100	0.012800	0.503900
C521	C52	0.220810	0.952030	0.716560
H291	H29	0.220500	0.975000	0.744200
C531	C53	0.600860	0.393700	0.284660
H301	H30	0.601400	0.358700	0.263200
C541	C54	0.544800	0.026100	0.451260
C551	C55	0.602600	0.496400	0.350000
H311	H31	0.604100	0.530100	0.373000
C561	C56	0.599340	0.093500	0.595770
H321	H32	0.601200	0.046900	0.588400
C571	C57	0.577990	0.382940	0.318310
C581	C58	0.623380	0.116600	0.640810
H331	H33	0.640700	0.085700	0.663600
C591	C59	0.215020	0.091900	0.458190
H341	H34	0.217700	0.066300	0.432400
C601	C60	0.624420	0.507370	0.314970
C611	C61	0.595160	0.231600	0.617920
H351	H35	0.594200	0.278300	0.625100
C621	C62	0.617810	0.115700	0.331900
H361	H36	0.637000	0.154200	0.342200
C631	C63	0.638350	0.052300	0.328870
H371	H37	0.671000	0.048900	0.337200
C641	C64	0.623180	0.456200	0.282240
H381	H38	0.637300	0.463400	0.258400
C651	C65	0.578400	0.435200	0.350500
H391	H39	0.562300	0.429100	0.372900
C661	C66	0.224120	0.885900	0.636620
H401	H40	0.225900	0.861500	0.610000
Co11	Co1	0.200920	0.174580	0.269700
Co21	Co2	0.188940	0.199070	0.381140
Co31	Co3	0.192830	0.332140	0.299560
N11	N1	0.203010	0.158480	0.451300
N21	N2	0.217560	0.882530	0.715750
O11	O1	0.647720	0.273090	0.711600
O21	O2	0.668390	0.162460	0.729220
O31	O3	0.251450	0.247030	0.263090
O41	O4	0.263240	0.332720	0.316010
O51	O5	0.655640	0.594390	0.276260
O61	O6	0.662840	0.605470	0.354160
O71	O7	0.256190	0.128760	0.321740
O81	O8	0.258010	0.187370	0.388070
O91	O9	0.174840	0.238180	0.312600
O101	O10	0.685930	0.802100	0.404850
O111	O11	0.620670	0.742190	0.382410
O121	O12	0.677630	0.923290	0.321590
O131	O13	0.608450	0.875190	0.291860
C671	C67	0.777890	0.787720	0.292230
C681	C68	0.133080	0.426240	0.308910
C691	C69	0.894640	0.723100	0.283040
H411	H41	0.905600	0.688100	0.267400
C701	C70	0.776140	0.649880	0.362930
C711	C71	0.701850	0.694240	0.489800
H421	H42	0.695300	0.741400	0.486400
C721	C72	0.829770	0.782450	0.299420
C731	C73	0.115920	0.358640	0.408370
C741	C74	0.111200	0.494140	0.313750
C751	C75	0.142040	0.298280	0.397480
C761	C76	0.974980	0.592900	0.448890
C771	C77	0.140630	0.418600	0.427230
H431	H43	0.172900	0.421300	0.431600
C781	C78	0.051550	0.817900	0.319700
C791	C79	0.847810	0.641100	0.433960
H441	H44	0.829600	0.656100	0.452900
C801	C80	0.854570	0.608810	0.357490
H451	H45	0.840800	0.600700	0.325200
C811	C81	0.719550	0.595380	0.540390
C821	C82	0.149710	0.074650	0.314890
C831	C83	0.827210	0.632050	0.385170
C841	C84	0.846670	0.730970	0.275650
H461	H46	0.825600	0.701700	0.254700
C851	C85	0.004280	0.821600	0.319170
H471	H47	0.990300	0.864600	0.319200
C861	C86	0.147940	0.710000	0.701400
C871	C87	0.067550	0.355900	0.400050
H481	H48	0.050800	0.316700	0.386200
C881	C88	0.117310	0.473500	0.439380
H491	H49	0.134000	0.513300	0.452100
C891	C89	0.923750	0.607000	0.426580
C901	C90	0.069110	0.623220	0.319910
C911	C91	0.725120	0.494400	0.593150
H501	H50	0.725900	0.467000	0.567400
C921	C92	0.709940	0.664860	0.534390
H511	H51	0.708900	0.692000	0.560100
C931	C93	0.902550	0.597530	0.377820
H521	H52	0.920800	0.583500	0.358700
C941	C94	0.978150	0.762100	0.318560
C951	C95	0.926700	0.767620	0.314000
C961	C96	0.999700	0.697920	0.319790
H531	H53	0.982400	0.657900	0.320300
C971	C97	0.861950	0.825960	0.331090
H541	H54	0.851100	0.859800	0.347700
C981	C98	0.724200	0.561600	0.586670
H551	H55	0.726600	0.589900	0.612900
C991	C99	0.725070	0.458200	0.636800
C1001	C100	0.999910	0.626500	0.490510
H561	H56	0.985200	0.661200	0.502900
C1011	C101	0.071870	0.752990	0.319790
H571	H57	0.103000	0.750200	0.319500
C1021	C102	0.072490	0.637800	0.561310
C1031	C103	0.895330	0.627800	0.454240
H581	H58	0.908600	0.632900	0.486900
C1041	C104	0.121610	0.686200	0.651960
C1051	C105	0.047030	0.692420	0.320330
C1061	C106	0.042120	0.563800	0.306400
H591	H59	0.009500	0.566900	0.299100
C1071	C107	0.997760	0.543500	0.429290
H601	H60	0.981400	0.521700	0.401100
C1081	C108	0.720530	0.350800	0.676520
H611	H61	0.720200	0.302600	0.675900
C1091	C109	0.070050	0.707100	0.573030
H621	H62	0.051500	0.737500	0.550700
C1101	C110	0.724610	0.490780	0.678890
H631	H63	0.726900	0.538700	0.681400
C1111	C111	0.062440	0.500400	0.303430
H641	H64	0.043400	0.461400	0.294500
C1121	C112	0.068480	0.559000	0.493670
H651	H65	0.099700	0.547400	0.508900
C1131	C113	0.044050	0.411500	0.412320
H661	H66	0.011600	0.409300	0.406700
C1141	C114	0.909710	0.818700	0.337640
H671	H67	0.930800	0.848500	0.358200
C1151	C115	0.068730	0.470700	0.432980
C1161	C116	0.046310	0.609200	0.513860
C1171	C117	0.723540	0.559300	0.501040
H681	H68	0.732100	0.512800	0.503900
C1181	C118	0.720810	0.452030	0.716560
H691	H69	0.720500	0.475000	0.744200
C1191	C119	0.100860	0.893700	0.284660
H701	H70	0.101400	0.858700	0.263200
C1201	C120	0.044800	0.526100	0.451260
C1211	C121	0.102600	0.996400	0.350000
H711	H71	0.104100	0.030100	0.373000
C1221	C122	0.099340	0.593500	0.595770
H721	H72	0.101200	0.546900	0.588400
C1231	C123	0.077990	0.882940	0.318310
C1241	C124	0.123380	0.616600	0.640810
H731	H73	0.140700	0.585700	0.663600
C1251	C125	0.715020	0.591900	0.458190
H741	H74	0.717700	0.566300	0.432400
C1261	C126	0.124420	0.007370	0.314970
C1271	C127	0.095160	0.731600	0.617920
H751	H75	0.094200	0.778300	0.625100
C1281	C128	0.117810	0.615700	0.331900
H761	H76	0.137000	0.654200	0.342200
C1291	C129	0.138350	0.552300	0.328870
H771	H77	0.171000	0.548900	0.337200
C1301	C130	0.123180	0.956200	0.282240
H781	H78	0.137300	0.963400	0.258400
C1311	C131	0.078400	0.935200	0.350500
H791	H79	0.062300	0.929100	0.372900
C1321	C132	0.724120	0.385900	0.636620
H801	H80	0.725900	0.361500	0.610000
Co41	Co4	0.700920	0.674580	0.269700
Co51	Co5	0.688940	0.699070	0.381140
Co61	Co6	0.692830	0.832140	0.299560
N31	N3	0.703010	0.658480	0.451300
N41	N4	0.717560	0.382530	0.715750
O141	O14	0.147720	0.773090	0.711600
O151	O15	0.168390	0.662460	0.729220
O161	O16	0.751450	0.747030	0.263090
O171	O17	0.763240	0.832720	0.316010
O181	O18	0.155640	0.094390	0.276260
O191	O19	0.162840	0.105470	0.354160
O201	O20	0.756190	0.628760	0.321740
O211	O21	0.758010	0.687370	0.388070
O221	O22	0.674840	0.738180	0.312600
O231	O23	0.185930	0.302100	0.404850
O241	O24	0.120670	0.242190	0.382410
O251	O25	0.177630	0.423290	0.321590
O261	O26	0.108450	0.375190	0.291860
C1331	C133	0.277890	0.712280	0.792230
C1341	C134	0.633080	0.073760	0.808910
C1351	C135	0.394640	0.776900	0.783040
H811	H81	0.405600	0.811900	0.767400
C1361	C136	0.276140	0.850120	0.862930
C1371	C137	0.201850	0.805760	0.989800
H821	H82	0.195300	0.758600	0.986400
C1381	C138	0.329770	0.717550	0.799420
C1391	C139	0.615920	0.141360	0.908370
C1401	C140	0.611200	0.005860	0.813750
C1411	C141	0.642040	0.201720	0.897480
C1421	C142	0.474980	0.907100	0.948890
C1431	C143	0.640630	0.081400	0.927230
H831	H83	0.672900	0.078700	0.931600
C1441	C144	0.551550	0.682100	0.819700
C1451	C145	0.347810	0.858900	0.933960
H841	H84	0.329600	0.843900	0.952900
C1461	C146	0.354570	0.891190	0.857490
H851	H85	0.340800	0.899300	0.825200
C1471	C147	0.219550	0.904620	0.040390
C1481	C148	0.649710	0.425350	0.814890
C1491	C149	0.327210	0.867950	0.885170
C1501	C150	0.346670	0.769030	0.775650
H861	H86	0.325600	0.798300	0.754700
C1511	C151	0.504280	0.678400	0.819170
H871	H87	0.490300	0.635400	0.819200
C1521	C152	0.647940	0.790000	0.201400
C1531	C153	0.567550	0.144100	0.900050
H881	H88	0.550800	0.183300	0.886200
C1541	C154	0.617310	0.026500	0.939380
H891	H89	0.634000	0.986700	0.952100
C1551	C155	0.423750	0.893000	0.926580
C1561	C156	0.569110	0.876780	0.819910
C1571	C157	0.225120	0.005600	0.093150
H901	H90	0.225900	0.033000	0.067400
C1581	C158	0.209940	0.835140	0.034390
H911	H91	0.208900	0.808000	0.060100
C1591	C159	0.402550	0.902470	0.877820
H921	H92	0.420800	0.916500	0.858700
C1601	C160	0.478150	0.737900	0.818560
C1611	C161	0.426700	0.732380	0.814000
C1621	C162	0.499700	0.802080	0.819790
H931	H93	0.482400	0.842100	0.820300
C1631	C163	0.361950	0.674040	0.831090
H941	H94	0.351100	0.640200	0.847700
C1641	C164	0.224200	0.938400	0.086670
H951	H95	0.226600	0.910100	0.112900
C1651	C165	0.225070	0.041800	0.136800
C1661	C166	0.499910	0.873500	0.990510
H961	H96	0.485200	0.838800	0.002900
C1671	C167	0.571870	0.747010	0.819790
H971	H97	0.603000	0.749800	0.819500
C1681	C168	0.572490	0.862200	0.061310
C1691	C169	0.395330	0.872200	0.954240
H981	H98	0.408600	0.867100	0.986900
C1701	C170	0.621610	0.813800	0.151960
C1711	C171	0.547030	0.807580	0.820330
C1721	C172	0.542120	0.936200	0.806400
H991	H99	0.509500	0.933100	0.799100
C1731	C173	0.497760	0.956500	0.929290
H1001	H100	0.481400	0.978300	0.901100
C1741	C174	0.220530	0.149200	0.176520
H1011	H101	0.220200	0.197400	0.175900
C1751	C175	0.570050	0.792900	0.073030
H1021	H102	0.551500	0.762500	0.050700
C1761	C176	0.224610	0.009220	0.178890
H1031	H103	0.226900	0.961300	0.181400
C1771	C177	0.562440	0.999600	0.803430
H1041	H104	0.543400	0.038600	0.794500
C1781	C178	0.568480	0.941000	0.993670
H1051	H105	0.599700	0.952600	0.008900
C1791	C179	0.544050	0.088500	0.912320
H1061	H106	0.511600	0.090700	0.906700
C1801	C180	0.409710	0.681300	0.837640
H1071	H107	0.430800	0.651500	0.858200
C1811	C181	0.568730	0.029300	0.932980
C1821	C182	0.546310	0.890800	0.013860
C1831	C183	0.223540	0.940700	0.001040
H1081	H108	0.232100	0.987200	0.003900
C1841	C184	0.220810	0.047970	0.216560
H1091	H109	0.220500	0.025000	0.244200
C1851	C185	0.600860	0.606300	0.784660
H1101	H110	0.601400	0.641300	0.763200
C1861	C186	0.544800	0.973900	0.951260
C1871	C187	0.602600	0.503600	0.850000
H1111	H111	0.604100	0.469900	0.873000
C1881	C188	0.599340	0.906500	0.095770
H1121	H112	0.601200	0.953100	0.088400
C1891	C189	0.577990	0.617060	0.818310
C1901	C190	0.623380	0.883400	0.140810
H1131	H113	0.640700	0.914300	0.163600
C1911	C191	0.215020	0.908100	0.958190
H1141	H114	0.217700	0.933700	0.932400
C1921	C192	0.624420	0.492630	0.814970
C1931	C193	0.595160	0.768400	0.117920
H1151	H115	0.594200	0.721700	0.125100
C1941	C194	0.617810	0.884300	0.831900
H1161	H116	0.637000	0.845800	0.842200
C1951	C195	0.638350	0.947700	0.828870
H1171	H117	0.671000	0.951100	0.837200
C1961	C196	0.623180	0.543800	0.782240
H1181	H118	0.637300	0.536600	0.758400
C1971	C197	0.578400	0.564800	0.850500
H1191	H119	0.562300	0.570900	0.872900
C1981	C198	0.224120	0.114100	0.136620
H1201	H120	0.225900	0.138500	0.110000
Co71	Co7	0.200920	0.825420	0.769700
Co81	Co8	0.188940	0.800930	0.881140
Co91	Co9	0.192830	0.667860	0.799560
N51	N5	0.203010	0.841520	0.951300
N61	N6	0.217560	0.117470	0.215750
O271	O27	0.647720	0.726910	0.211600
O281	O28	0.668390	0.837540	0.229220
O291	O29	0.251450	0.752970	0.763090
O301	O30	0.263240	0.667280	0.816010
O311	O31	0.655640	0.405610	0.776260
O321	O32	0.662840	0.394530	0.854160
O331	O33	0.256190	0.871240	0.821740
O341	O34	0.258010	0.812630	0.888070
O351	O35	0.174840	0.761820	0.812600
O361	O36	0.685930	0.197900	0.904850
O371	O37	0.620670	0.257810	0.882410
O381	O38	0.677630	0.076710	0.821590
O391	O39	0.608450	0.124810	0.791860
C1991	C199	0.777890	0.212280	0.792230
C2001	C200	0.133080	0.573760	0.808910
C2011	C201	0.894640	0.276900	0.783040
H1211	H121	0.905600	0.311900	0.767400
C2021	C202	0.776140	0.350120	0.862930
C2031	C203	0.701850	0.305760	0.989800
H1221	H122	0.695300	0.258600	0.986400
C2041	C204	0.829770	0.217550	0.799420
C2051	C205	0.115920	0.641360	0.908370
C2061	C206	0.111200	0.505860	0.813750
C2071	C207	0.142040	0.701720	0.897480
C2081	C208	0.974980	0.407100	0.948890
C2091	C209	0.140630	0.581400	0.927230
H1231	H123	0.172900	0.578700	0.931600
C2101	C210	0.051550	0.182100	0.819700
C2111	C211	0.847810	0.358900	0.933960
H1241	H124	0.829600	0.343900	0.952900
C2121	C212	0.854570	0.391190	0.857490
H1251	H125	0.840800	0.399300	0.825200
C2131	C213	0.719550	0.404620	0.040390
C2141	C214	0.149710	0.925350	0.814890
C2151	C215	0.827210	0.367950	0.885170
C2161	C216	0.846670	0.269030	0.775650
H1261	H126	0.825600	0.298300	0.754700
C2171	C217	0.004280	0.178400	0.819170
H1271	H127	0.990300	0.135400	0.819200
C2181	C218	0.147940	0.290000	0.201400
C2191	C219	0.067550	0.644100	0.900050
H1281	H128	0.050800	0.683300	0.886200
C2201	C220	0.117310	0.526500	0.939380
H1291	H129	0.134000	0.486700	0.952100
C2211	C221	0.923750	0.393000	0.926580
C2221	C222	0.069110	0.376780	0.819910
C2231	C223	0.725120	0.505600	0.093150
H1301	H130	0.725900	0.533000	0.067400
C2241	C224	0.709940	0.335140	0.034390
H1311	H131	0.708900	0.308000	0.060100
C2251	C225	0.902550	0.402470	0.877820
H1321	H132	0.920800	0.416500	0.858700
C2261	C226	0.978150	0.237900	0.818560
C2271	C227	0.926700	0.232380	0.814000
C2281	C228	0.999700	0.302080	0.819790
H1331	H133	0.982400	0.342100	0.820300
C2291	C229	0.861950	0.174040	0.831090
H1341	H134	0.851100	0.140200	0.847700
C2301	C230	0.724200	0.438400	0.086670
H1351	H135	0.726600	0.410100	0.112900
C2311	C231	0.725070	0.541800	0.136800
C2321	C232	0.999910	0.373500	0.990510
H1361	H136	0.985200	0.338800	0.002900
C2331	C233	0.071870	0.247010	0.819790
H1371	H137	0.103000	0.249800	0.819500
C2341	C234	0.072490	0.362200	0.061310
C2351	C235	0.895330	0.372200	0.954240
H1381	H138	0.908600	0.367100	0.986900
C2361	C236	0.121610	0.313800	0.151960
C2371	C237	0.047030	0.307580	0.820330
C2381	C238	0.042120	0.436200	0.806400
H1391	H139	0.009500	0.433100	0.799100
C2391	C239	0.997760	0.456500	0.929290
H1401	H140	0.981400	0.478300	0.901100
C2401	C240	0.720530	0.649200	0.176520
H1411	H141	0.720200	0.697400	0.175900
C2411	C241	0.070050	0.292900	0.073030
H1421	H142	0.051500	0.262500	0.050700
C2421	C242	0.724610	0.509220	0.178890
H1431	H143	0.726900	0.461300	0.181400
C2431	C243	0.062440	0.499600	0.803430
H1441	H144	0.043400	0.538600	0.794500
C2441	C244	0.068480	0.441000	0.993670
H1451	H145	0.099700	0.452600	0.008900
C2451	C245	0.044050	0.588500	0.912320
H1461	H146	0.011600	0.590700	0.906700
C2461	C246	0.909710	0.181300	0.837640
H1471	H147	0.930800	0.151500	0.858200
C2471	C247	0.068730	0.529300	0.932980
C2481	C248	0.046310	0.390800	0.013860
C2491	C249	0.723540	0.440700	0.001040
H1481	H148	0.732100	0.487200	0.003900
C2501	C250	0.720810	0.547970	0.216560
H1491	H149	0.720500	0.525000	0.244200
C2511	C251	0.100860	0.106300	0.784660
H1501	H150	0.101400	0.141300	0.763200
C2521	C252	0.044800	0.473900	0.951260
C2531	C253	0.102600	0.003600	0.850000
H1511	H151	0.104100	0.969900	0.873000
C2541	C254	0.099340	0.406500	0.095770
H1521	H152	0.101200	0.453100	0.088400
C2551	C255	0.077990	0.117060	0.818310
C2561	C256	0.123380	0.383400	0.140810
H1531	H153	0.140700	0.414300	0.163600
C2571	C257	0.715020	0.408100	0.958190
H1541	H154	0.717700	0.433700	0.932400
C2581	C258	0.124420	0.992630	0.814970
C2591	C259	0.095160	0.268400	0.117920
H1551	H155	0.094200	0.221700	0.125100
C2601	C260	0.117810	0.384300	0.831900
H1561	H156	0.137000	0.345800	0.842200
C2611	C261	0.138350	0.447700	0.828870
H1571	H157	0.171000	0.451100	0.837200
C2621	C262	0.123180	0.043800	0.782240
H1581	H158	0.137300	0.036600	0.758400
C2631	C263	0.078400	0.064800	0.850500
H1591	H159	0.062300	0.070900	0.872900
C2641	C264	0.724120	0.614100	0.136620
H1601	H160	0.725900	0.638500	0.110000
Co101	Co10	0.700920	0.325420	0.769700
Co111	Co11	0.688940	0.300930	0.881140
Co121	Co12	0.692830	0.167860	0.799560
N71	N7	0.703010	0.341520	0.951300
N81	N8	0.717560	0.617470	0.215750
O401	O40	0.147720	0.226910	0.211600
O411	O41	0.168390	0.337540	0.229220
O421	O42	0.751450	0.252970	0.763090
O431	O43	0.763240	0.167280	0.816010
O441	O44	0.155640	0.905610	0.776260
O451	O45	0.162840	0.894530	0.854160
O461	O46	0.756190	0.371240	0.821740
O471	O47	0.758010	0.312630	0.888070
O481	O48	0.674840	0.261820	0.812600
O491	O49	0.185930	0.697900	0.904850
O501	O50	0.120670	0.757810	0.882410
O511	O51	0.177630	0.576710	0.821590
O521	O52	0.108450	0.624810	0.791860
C2651	C265	0.722110	0.287720	0.207770
C2661	C266	0.366920	0.926240	0.191090
C2671	C267	0.605360	0.223100	0.216960
H1611	H161	0.594400	0.188100	0.232600
C2681	C268	0.723860	0.149880	0.137070
C2691	C269	0.798150	0.194240	0.010200
H1621	H162	0.804700	0.241400	0.013600
C2701	C270	0.670230	0.282450	0.200580
C2711	C271	0.384080	0.858640	0.091630
C2721	C272	0.388800	0.994140	0.186250
C2731	C273	0.357960	0.798280	0.102520
C2741	C274	0.525020	0.092900	0.051110
C2751	C275	0.359370	0.918600	0.072770
H1631	H163	0.327100	0.921300	0.068400
C2761	C276	0.448450	0.317900	0.180300
C2771	C277	0.652190	0.141100	0.066040
H1641	H164	0.670400	0.156100	0.047100
C2781	C278	0.645430	0.108810	0.142510
H1651	H165	0.659200	0.100700	0.174800
C2791	C279	0.780450	0.095380	0.959610
C2801	C280	0.350290	0.574650	0.185110
C2811	C281	0.672790	0.132050	0.114830
C2821	C282	0.653330	0.230970	0.224350
H1661	H166	0.674400	0.201700	0.245300
C2831	C283	0.495720	0.321600	0.180830
H1671	H167	0.509700	0.364600	0.180800
C2841	C284	0.352060	0.210000	0.798600
C2851	C285	0.432450	0.855900	0.099950
H1681	H168	0.449200	0.816700	0.113800
C2861	C286	0.382690	0.973500	0.060620
H1691	H169	0.366000	0.013300	0.047900
C2871	C287	0.576250	0.107000	0.073420
C2881	C288	0.430890	0.123220	0.180090
C2891	C289	0.774880	0.994400	0.906850
H1701	H170	0.774100	0.967000	0.932600
C2901	C290	0.790060	0.164860	0.965610
H1711	H171	0.791100	0.192000	0.939900
C2911	C291	0.597450	0.097530	0.122180
H1721	H172	0.579200	0.083500	0.141300
C2921	C292	0.521850	0.262100	0.181440
C2931	C293	0.573300	0.267620	0.186000
C2941	C294	0.500300	0.197920	0.180210
H1731	H173	0.517600	0.157900	0.179700
C2951	C295	0.638050	0.325960	0.168910
H1741	H174	0.648900	0.359800	0.152300
C2961	C296	0.775800	0.061600	0.913330
H1751	H175	0.773400	0.089900	0.887100
C2971	C297	0.774930	0.958200	0.863200
C2981	C298	0.500090	0.126500	0.009490
H1761	H176	0.514800	0.161200	0.997100
C2991	C299	0.428130	0.252990	0.180210
H1771	H177	0.397000	0.250200	0.180500
C3001	C300	0.427510	0.137800	0.938690
C3011	C301	0.604670	0.127800	0.045760
H1781	H178	0.591400	0.132900	0.013100
C3021	C302	0.378390	0.186200	0.848040
C3031	C303	0.452970	0.192420	0.179670
C3041	C304	0.457880	0.063800	0.193600
H1791	H179	0.490500	0.066900	0.200900
C3051	C305	0.502240	0.043500	0.070710
H1801	H180	0.518600	0.021700	0.098900
C3061	C306	0.779470	0.850800	0.823480
H1811	H181	0.779800	0.802600	0.824100
C3071	C307	0.429950	0.207100	0.926970
H1821	H182	0.448500	0.237500	0.949300
C3081	C308	0.775390	0.990780	0.821110
H1831	H183	0.773100	0.038700	0.818600
C3091	C309	0.437560	0.000400	0.196570
H1841	H184	0.456600	0.961400	0.205500
C3101	C310	0.431520	0.059000	0.006330
H1851	H185	0.400300	0.047400	0.991100
C3111	C311	0.455950	0.911500	0.087680
H1861	H186	0.488400	0.909300	0.093300
C3121	C312	0.590290	0.318700	0.162360
H1871	H187	0.569200	0.348500	0.141800
C3131	C313	0.431270	0.970700	0.067020
C3141	C314	0.453690	0.109200	0.986140
C3151	C315	0.776460	0.059300	0.998960
H1881	H188	0.767900	0.012800	0.996100
C3161	C316	0.779190	0.952030	0.783440
H1891	H189	0.779500	0.975000	0.755800
C3171	C317	0.399140	0.393700	0.215340
H1901	H190	0.398600	0.358700	0.236800
C3181	C318	0.455200	0.026100	0.048740
C3191	C319	0.397400	0.496400	0.150000
H1911	H191	0.395900	0.530100	0.127000
C3201	C320	0.400660	0.093500	0.904230
H1921	H192	0.398800	0.046900	0.911600
C3211	C321	0.422010	0.382940	0.181690
C3221	C322	0.376620	0.116600	0.859190
H1931	H193	0.359300	0.085700	0.836400
C3231	C323	0.784980	0.091900	0.041810
H1941	H194	0.782300	0.066300	0.067600
C3241	C324	0.375580	0.507370	0.185030
C3251	C325	0.404840	0.231600	0.882080
H1951	H195	0.405800	0.278300	0.874900
C3261	C326	0.382190	0.115700	0.168100
H1961	H196	0.363000	0.154200	0.157800
C3271	C327	0.361650	0.052300	0.171130
H1971	H197	0.329000	0.048900	0.162800
C3281	C328	0.376820	0.456200	0.217760
H1981	H198	0.362700	0.463400	0.241600
C3291	C329	0.421600	0.435200	0.149500
H1991	H199	0.437700	0.429100	0.127100
C3301	C330	0.775880	0.885900	0.863380
H2001	H200	0.774100	0.861500	0.890000
Co131	Co13	0.799080	0.174580	0.230300
Co141	Co14	0.811060	0.199070	0.118860
Co151	Co15	0.807170	0.332140	0.200440
N91	N9	0.796990	0.158480	0.048700
N101	N10	0.782440	0.882530	0.784250
O531	O53	0.352280	0.273090	0.788400
O541	O54	0.331610	0.162460	0.770780
O551	O55	0.748550	0.247030	0.236910
O561	O56	0.736760	0.332720	0.183990
O571	O57	0.344360	0.594390	0.223740
O581	O58	0.337160	0.605470	0.145840
O591	O59	0.743810	0.128760	0.178260
O601	O60	0.741990	0.187370	0.111930
O611	O61	0.825160	0.238180	0.187400
O621	O62	0.314070	0.802100	0.095150
O631	O63	0.379330	0.742190	0.117590
O641	O64	0.322370	0.923290	0.178410
O651	O65	0.391550	0.875190	0.208140
C3311	C331	0.222110	0.787720	0.207770
C3321	C332	0.866920	0.426240	0.191090
C3331	C333	0.105360	0.723100	0.216960
H2011	H201	0.094400	0.688100	0.232600
C3341	C334	0.223860	0.649880	0.137070
C3351	C335	0.298150	0.694240	0.010200
H2021	H202	0.304700	0.741400	0.013600
C3361	C336	0.170230	0.782450	0.200580
C3371	C337	0.884080	0.358640	0.091630
C3381	C338	0.888800	0.494140	0.186250
C3391	C339	0.857960	0.298280	0.102520
C3401	C340	0.025020	0.592900	0.051110
C3411	C341	0.859370	0.418600	0.072770
H2031	H203	0.827100	0.421300	0.068400
C3421	C342	0.948450	0.817900	0.180300
C3431	C343	0.152190	0.641100	0.066040
H2041	H204	0.170400	0.656100	0.047100
C3441	C344	0.145430	0.608810	0.142510
H2051	H205	0.159200	0.600700	0.174800
C3451	C345	0.280450	0.595380	0.959610
C3461	C346	0.850290	0.074650	0.185110
C3471	C347	0.172790	0.632050	0.114830
C3481	C348	0.153330	0.730970	0.224350
H2061	H206	0.174400	0.701700	0.245300
C3491	C349	0.995720	0.821600	0.180830
H2071	H207	0.009700	0.864600	0.180800
C3501	C350	0.852060	0.710000	0.798600
C3511	C351	0.932450	0.355900	0.099950
H2081	H208	0.949200	0.316700	0.113800
C3521	C352	0.882690	0.473500	0.060620
H2091	H209	0.866000	0.513300	0.047900
C3531	C353	0.076250	0.607000	0.073420
C3541	C354	0.930890	0.623220	0.180090
C3551	C355	0.274880	0.494400	0.906850
H2101	H210	0.274100	0.467000	0.932600
C3561	C356	0.290060	0.664860	0.965610
H2111	H211	0.291100	0.692000	0.939900
C3571	C357	0.097450	0.597530	0.122180
H2121	H212	0.079200	0.583500	0.141300
C3581	C358	0.021850	0.762100	0.181440
C3591	C359	0.073300	0.767620	0.186000
C3601	C360	0.000300	0.697920	0.180210
H2131	H213	0.017600	0.657900	0.179700
C3611	C361	0.138050	0.825960	0.168910
H2141	H214	0.148900	0.859800	0.152300
C3621	C362	0.275800	0.561600	0.913330
H2151	H215	0.273400	0.589900	0.887100
C3631	C363	0.274930	0.458200	0.863200
C3641	C364	0.000090	0.626500	0.009490
H2161	H216	0.014800	0.661200	0.997100
C3651	C365	0.928130	0.752990	0.180210
H2171	H217	0.897000	0.750200	0.180500
C3661	C366	0.927510	0.637800	0.938690
C3671	C367	0.104670	0.627800	0.045760
H2181	H218	0.091400	0.632900	0.013100
C3681	C368	0.878390	0.686200	0.848040
C3691	C369	0.952970	0.692420	0.179670
C3701	C370	0.957880	0.563800	0.193600
H2191	H219	0.990500	0.566900	0.200900
C3711	C371	0.002240	0.543500	0.070710
H2201	H220	0.018600	0.521700	0.098900
C3721	C372	0.279470	0.350800	0.823480
H2211	H221	0.279800	0.302600	0.824100
C3731	C373	0.929950	0.707100	0.926970
H2221	H222	0.948500	0.737500	0.949300
C3741	C374	0.275390	0.490780	0.821110
H2231	H223	0.273100	0.538700	0.818600
C3751	C375	0.937560	0.500400	0.196570
H2241	H224	0.956600	0.461400	0.205500
C3761	C376	0.931520	0.559000	0.006330
H2251	H225	0.900300	0.547400	0.991100
C3771	C377	0.955950	0.411500	0.087680
H2261	H226	0.988400	0.409300	0.093300
C3781	C378	0.090290	0.818700	0.162360
H2271	H227	0.069200	0.848500	0.141800
C3791	C379	0.931270	0.470700	0.067020
C3801	C380	0.953690	0.609200	0.986140
C3811	C381	0.276460	0.559300	0.998960
H2281	H228	0.267900	0.512800	0.996100
C3821	C382	0.279190	0.452030	0.783440
H2291	H229	0.279500	0.475000	0.755800
C3831	C383	0.899140	0.893700	0.215340
H2301	H230	0.898600	0.858700	0.236800
C3841	C384	0.955200	0.526100	0.048740
C3851	C385	0.897400	0.996400	0.150000
H2311	H231	0.895900	0.030100	0.127000
C3861	C386	0.900660	0.593500	0.904230
H2321	H232	0.898800	0.546900	0.911600
C3871	C387	0.922010	0.882940	0.181690
C3881	C388	0.876620	0.616600	0.859190
H2331	H233	0.859300	0.585700	0.836400
C3891	C389	0.284980	0.591900	0.041810
H2341	H234	0.282300	0.566300	0.067600
C3901	C390	0.875580	0.007370	0.185030
C3911	C391	0.904840	0.731600	0.882080
H2351	H235	0.905800	0.778300	0.874900
C3921	C392	0.882190	0.615700	0.168100
H2361	H236	0.863000	0.654200	0.157800
C3931	C393	0.861650	0.552300	0.171130
H2371	H237	0.829000	0.548900	0.162800
C3941	C394	0.876820	0.956200	0.217760
H2381	H238	0.862700	0.963400	0.241600
C3951	C395	0.921600	0.935200	0.149500
H2391	H239	0.937700	0.929100	0.127100
C3961	C396	0.275880	0.385900	0.863380
H2401	H240	0.274100	0.361500	0.890000
Co161	Co16	0.299080	0.674580	0.230300
Co171	Co17	0.311060	0.699070	0.118860
Co181	Co18	0.307170	0.832140	0.200440
N111	N11	0.296990	0.658480	0.048700
N121	N12	0.282440	0.382530	0.784250
O661	O66	0.852280	0.773090	0.788400
O671	O67	0.831610	0.662460	0.770780
O681	O68	0.248550	0.747030	0.236910
O691	O69	0.236760	0.832720	0.183990
O701	O70	0.844360	0.094390	0.223740
O711	O71	0.837160	0.105470	0.145840
O721	O72	0.243810	0.628760	0.178260
O731	O73	0.241990	0.687370	0.111930
O741	O74	0.325160	0.738180	0.187400
O751	O75	0.814070	0.302100	0.095150
O761	O76	0.879330	0.242190	0.117590
O771	O77	0.822370	0.423290	0.178410
O781	O78	0.891550	0.375190	0.208140
C3971	C397	0.722110	0.712280	0.707770
C3981	C398	0.366920	0.073760	0.691090
C3991	C399	0.605360	0.776900	0.716960
H2411	H241	0.594400	0.811900	0.732600
C4001	C400	0.723860	0.850120	0.637070
C4011	C401	0.798150	0.805760	0.510200
H2421	H242	0.804700	0.758600	0.513600
C4021	C402	0.670230	0.717550	0.700580
C4031	C403	0.384080	0.141360	0.591630
C4041	C404	0.388800	0.005860	0.686250
C4051	C405	0.357960	0.201720	0.602520
C4061	C406	0.525020	0.907100	0.551110
C4071	C407	0.359370	0.081400	0.572770
H2431	H243	0.327100	0.078700	0.568400
C4081	C408	0.448450	0.682100	0.680300
C4091	C409	0.652190	0.858900	0.566040
H2441	H244	0.670400	0.843900	0.547100
C4101	C410	0.645430	0.891190	0.642510
H2451	H245	0.659200	0.899300	0.674800
C4111	C411	0.780450	0.904620	0.459610
C4121	C412	0.350290	0.425350	0.685110
C4131	C413	0.672790	0.867950	0.614830
C4141	C414	0.653330	0.769030	0.724350
H2461	H246	0.674400	0.798300	0.745300
C4151	C415	0.495720	0.678400	0.680830
H2471	H247	0.509700	0.635400	0.680800
C4161	C416	0.352060	0.790000	0.298600
C4171	C417	0.432450	0.144100	0.599950
H2481	H248	0.449200	0.183300	0.613800
C4181	C418	0.382690	0.026500	0.560620
H2491	H249	0.366000	0.986700	0.547900
C4191	C419	0.576250	0.893000	0.573420
C4201	C420	0.430890	0.876780	0.680090
C4211	C421	0.774880	0.005600	0.406850
H2501	H250	0.774100	0.033000	0.432600
C4221	C422	0.790060	0.835140	0.465610
H2511	H251	0.791100	0.808000	0.439900
C4231	C423	0.597450	0.902470	0.622180
H2521	H252	0.579200	0.916500	0.641300
C4241	C424	0.521850	0.737900	0.681440
C4251	C425	0.573300	0.732380	0.686000
C4261	C426	0.500300	0.802080	0.680210
H2531	H253	0.517600	0.842100	0.679700
C4271	C427	0.638050	0.674040	0.668910
H2541	H254	0.648900	0.640200	0.652300
C4281	C428	0.775800	0.938400	0.413330
H2551	H255	0.773400	0.910100	0.387100
C4291	C429	0.774930	0.041800	0.363200
C4301	C430	0.500090	0.873500	0.509490
H2561	H256	0.514800	0.838800	0.497100
C4311	C431	0.428130	0.747010	0.680210
H2571	H257	0.397000	0.749800	0.680500
C4321	C432	0.427510	0.862200	0.438690
C4331	C433	0.604670	0.872200	0.545760
H2581	H258	0.591400	0.867100	0.513100
C4341	C434	0.378390	0.813800	0.348040
C4351	C435	0.452970	0.807580	0.679670
C4361	C436	0.457880	0.936200	0.693600
H2591	H259	0.490500	0.933100	0.700900
C4371	C437	0.502240	0.956500	0.570710
H2601	H260	0.518600	0.978300	0.598900
C4381	C438	0.779470	0.149200	0.323480
H2611	H261	0.779800	0.197400	0.324100
C4391	C439	0.429950	0.792900	0.426970
H2621	H262	0.448500	0.762500	0.449300
C4401	C440	0.775390	0.009220	0.321110
H2631	H263	0.773100	0.961300	0.318600
C4411	C441	0.437560	0.999600	0.696570
H2641	H264	0.456600	0.038600	0.705500
C4421	C442	0.431520	0.941000	0.506330
H2651	H265	0.400300	0.952600	0.491100
C4431	C443	0.455950	0.088500	0.587680
H2661	H266	0.488400	0.090700	0.593300
C4441	C444	0.590290	0.681300	0.662360
H2671	H267	0.569200	0.651500	0.641800
C4451	C445	0.431270	0.029300	0.567020
C4461	C446	0.453690	0.890800	0.486140
C4471	C447	0.776460	0.940700	0.498960
H2681	H268	0.767900	0.987200	0.496100
C4481	C448	0.779190	0.047970	0.283440
H2691	H269	0.779500	0.025000	0.255800
C4491	C449	0.399140	0.606300	0.715340
H2701	H270	0.398600	0.641300	0.736800
C4501	C450	0.455200	0.973900	0.548740
C4511	C451	0.397400	0.503600	0.650000
H2711	H271	0.395900	0.469900	0.627000
C4521	C452	0.400660	0.906500	0.404230
H2721	H272	0.398800	0.953100	0.411600
C4531	C453	0.422010	0.617060	0.681690
C4541	C454	0.376620	0.883400	0.359190
H2731	H273	0.359300	0.914300	0.336400
C4551	C455	0.784980	0.908100	0.541810
H2741	H274	0.782300	0.933700	0.567600
C4561	C456	0.375580	0.492630	0.685030
C4571	C457	0.404840	0.768400	0.382080
H2751	H275	0.405800	0.721700	0.374900
C4581	C458	0.382190	0.884300	0.668100
H2761	H276	0.363000	0.845800	0.657800
C4591	C459	0.361650	0.947700	0.671130
H2771	H277	0.329000	0.951100	0.662800
C4601	C460	0.376820	0.543800	0.717760
H2781	H278	0.362700	0.536600	0.741600
C4611	C461	0.421600	0.564800	0.649500
H2791	H279	0.437700	0.570900	0.627100
C4621	C462	0.775880	0.114100	0.363380
H2801	H280	0.774100	0.138500	0.390000
Co191	Co19	0.799080	0.825420	0.730300
Co201	Co20	0.811060	0.800930	0.618860
Co211	Co21	0.807170	0.667860	0.700440
N131	N13	0.796990	0.841520	0.548700
N141	N14	0.782440	0.117470	0.284250
O791	O79	0.352280	0.726910	0.288400
O801	O80	0.331610	0.837540	0.270780
O811	O81	0.748550	0.752970	0.736910
O821	O82	0.736760	0.667280	0.683990
O831	O83	0.344360	0.405610	0.723740
O841	O84	0.337160	0.394530	0.645840
O851	O85	0.743810	0.871240	0.678260
O861	O86	0.741990	0.812630	0.611930
O871	O87	0.825160	0.761820	0.687400
O881	O88	0.314070	0.197900	0.595150
O891	O89	0.379330	0.257810	0.617590
O901	O90	0.322370	0.076710	0.678410
O911	O91	0.391550	0.124810	0.708140
C4631	C463	0.222110	0.212280	0.707770
C4641	C464	0.866920	0.573760	0.691090
C4651	C465	0.105360	0.276900	0.716960
H2811	H281	0.094400	0.311900	0.732600
C4661	C466	0.223860	0.350120	0.637070
C4671	C467	0.298150	0.305760	0.510200
H2821	H282	0.304700	0.258600	0.513600
C4681	C468	0.170230	0.217550	0.700580
C4691	C469	0.884080	0.641360	0.591630
C4701	C470	0.888800	0.505860	0.686250
C4711	C471	0.857960	0.701720	0.602520
C4721	C472	0.025020	0.407100	0.551110
C4731	C473	0.859370	0.581400	0.572770
H2831	H283	0.827100	0.578700	0.568400
C4741	C474	0.948450	0.182100	0.680300
C4751	C475	0.152190	0.358900	0.566040
H2841	H284	0.170400	0.343900	0.547100
C4761	C476	0.145430	0.391190	0.642510
H2851	H285	0.159200	0.399300	0.674800
C4771	C477	0.280450	0.404620	0.459610
C4781	C478	0.850290	0.925350	0.685110
C4791	C479	0.172790	0.367950	0.614830
C4801	C480	0.153330	0.269030	0.724350
H2861	H286	0.174400	0.298300	0.745300
C4811	C481	0.995720	0.178400	0.680830
H2871	H287	0.009700	0.135400	0.680800
C4821	C482	0.852060	0.290000	0.298600
C4831	C483	0.932450	0.644100	0.599950
H2881	H288	0.949200	0.683300	0.613800
C4841	C484	0.882690	0.526500	0.560620
H2891	H289	0.866000	0.486700	0.547900
C4851	C485	0.076250	0.393000	0.573420
C4861	C486	0.930890	0.376780	0.680090
C4871	C487	0.274880	0.505600	0.406850
H2901	H290	0.274100	0.533000	0.432600
C4881	C488	0.290060	0.335140	0.465610
H2911	H291	0.291100	0.308000	0.439900
C4891	C489	0.097450	0.402470	0.622180
H2921	H292	0.079200	0.416500	0.641300
C4901	C490	0.021850	0.237900	0.681440
C4911	C491	0.073300	0.232380	0.686000
C4921	C492	0.000300	0.302080	0.680210
H2931	H293	0.017600	0.342100	0.679700
C4931	C493	0.138050	0.174040	0.668910
H2941	H294	0.148900	0.140200	0.652300
C4941	C494	0.275800	0.438400	0.413330
H2951	H295	0.273400	0.410100	0.387100
C4951	C495	0.274930	0.541800	0.363200
C4961	C496	0.000090	0.373500	0.509490
H2961	H296	0.014800	0.338800	0.497100
C4971	C497	0.928130	0.247010	0.680210
H2971	H297	0.897000	0.249800	0.680500
C4981	C498	0.927510	0.362200	0.438690
C4991	C499	0.104670	0.372200	0.545760
H2981	H298	0.091400	0.367100	0.513100
C5001	C500	0.878390	0.313800	0.348040
C5011	C501	0.952970	0.307580	0.679670
C5021	C502	0.957880	0.436200	0.693600
H2991	H299	0.990500	0.433100	0.700900
C5031	C503	0.002240	0.456500	0.570710
H3001	H300	0.018600	0.478300	0.598900
C5041	C504	0.279470	0.649200	0.323480
H3011	H301	0.279800	0.697400	0.324100
C5051	C505	0.929950	0.292900	0.426970
H3021	H302	0.948500	0.262500	0.449300
C5061	C506	0.275390	0.509220	0.321110
H3031	H303	0.273100	0.461300	0.318600
C5071	C507	0.937560	0.499600	0.696570
H3041	H304	0.956600	0.538600	0.705500
C5081	C508	0.931520	0.441000	0.506330
H3051	H305	0.900300	0.452600	0.491100
C5091	C509	0.955950	0.588500	0.587680
H3061	H306	0.988400	0.590700	0.593300
C5101	C510	0.090290	0.181300	0.662360
H3071	H307	0.069200	0.151500	0.641800
C5111	C511	0.931270	0.529300	0.567020
C5121	C512	0.953690	0.390800	0.486140
C5131	C513	0.276460	0.440700	0.498960
H3081	H308	0.267900	0.487200	0.496100
C5141	C514	0.279190	0.547970	0.283440
H3091	H309	0.279500	0.525000	0.255800
C5151	C515	0.899140	0.106300	0.715340
H3101	H310	0.898600	0.141300	0.736800
C5161	C516	0.955200	0.473900	0.548740
C5171	C517	0.897400	0.003600	0.650000
H3111	H311	0.895900	0.969900	0.627000
C5181	C518	0.900660	0.406500	0.404230
H3121	H312	0.898800	0.453100	0.411600
C5191	C519	0.922010	0.117060	0.681690
C5201	C520	0.876620	0.383400	0.359190
H3131	H313	0.859300	0.414300	0.336400
C5211	C521	0.284980	0.408100	0.541810
H3141	H314	0.282300	0.433700	0.567600
C5221	C522	0.875580	0.992630	0.685030
C5231	C523	0.904840	0.268400	0.382080
H3151	H315	0.905800	0.221700	0.374900
C5241	C524	0.882190	0.384300	0.668100
H3161	H316	0.863000	0.345800	0.657800
C5251	C525	0.861650	0.447700	0.671130
H3171	H317	0.829000	0.451100	0.662800
C5261	C526	0.876820	0.043800	0.717760
H3181	H318	0.862700	0.036600	0.741600
C5271	C527	0.921600	0.064800	0.649500
H3191	H319	0.937700	0.070900	0.627100
C5281	C528	0.275880	0.614100	0.363380
H3201	H320	0.274100	0.638500	0.390000
Co221	Co22	0.299080	0.325420	0.730300
Co231	Co23	0.311060	0.300930	0.618860
Co241	Co24	0.307170	0.167860	0.700440
N151	N15	0.296990	0.341520	0.548700
N161	N16	0.282440	0.617470	0.284250
O921	O92	0.852280	0.226910	0.288400
O931	O93	0.831610	0.337540	0.270780
O941	O94	0.248550	0.252970	0.736910
O951	O95	0.236760	0.167280	0.683990
O961	O96	0.844360	0.905610	0.723740
O971	O97	0.837160	0.894530	0.645840
O981	O98	0.243810	0.371240	0.678260
O991	O99	0.241990	0.312630	0.611930
O1001	O100	0.325160	0.261820	0.687400
O1011	O101	0.814070	0.697900	0.595150
O1021	O102	0.879330	0.757810	0.617590
O1031	O103	0.822370	0.576710	0.678410
O1041	O104	0.891550	0.624810	0.708140
