data_LACGIH_freeONLY_PM
_symmetry_space_group_name_H-M	'P1'
_cell_length_a	9.810800
_cell_length_b	10.497100
_cell_length_c	12.356800
_cell_angle_alpha	68.336000
_cell_angle_beta	87.529000
_cell_angle_gamma	68.261000
_symmetry_Int_Tables_number 1

loop_
_symmetry_equiv_pos_as_xyz
'x,y,z'

loop_
_atom_site_label
_atom_site_type_symbol
_atom_site_fract_x
_atom_site_fract_y
_atom_site_fract_z
Pb11	Pb1	0.048810	0.385880	0.721760
Sr11	Sr1	0.954850	0.814610	0.498830
O11	O1	0.117700	0.470000	0.866800
O21	O2	0.064100	0.666300	0.700700
O31	O3	0.107300	0.120400	0.711800
O41	O4	0.176600	0.122200	0.878600
O51	O5	0.868300	0.424100	0.532400
O61	O6	0.827500	0.624400	0.570400
O71	O7	0.305800	0.008500	0.484900
O81	O8	0.134700	0.939700	0.445200
O91	O9	0.145300	0.651900	0.182900
O101	O10	0.425900	0.569600	0.256800
H11	H1	0.336500	0.602500	0.239600
C11	C1	0.100800	0.604300	0.809700
C21	C2	0.143200	0.059700	0.822000
C31	C3	0.785900	0.554000	0.524700
C41	C4	0.268700	0.923900	0.454400
C51	C5	0.117900	0.690600	0.876400
C61	C6	0.122400	0.634600	0.997400
H21	H2	0.114800	0.543100	0.035100
C71	C7	0.137900	0.711500	0.064500
C81	C8	0.147000	0.849100	0.005500
H31	H3	0.158900	0.902300	0.047600
C91	C9	0.138300	0.907600	0.884000
C101	C10	0.122700	0.830900	0.818100
H41	H4	0.115600	0.871900	0.736700
C111	C11	0.635600	0.626600	0.457900
C121	C12	0.598700	0.567700	0.384600
H51	H5	0.669500	0.487000	0.373100
C131	C13	0.456000	0.629300	0.328500
C141	C14	0.346300	0.745800	0.353000
H61	H6	0.249100	0.783700	0.320200
C151	C15	0.385200	0.802000	0.425900
C161	C16	0.529900	0.745600	0.476200
H71	H7	0.555700	0.787800	0.522100
Pb21	Pb2	0.951190	0.614120	0.278240
Sr21	Sr2	0.045150	0.185390	0.501170
O111	O11	0.882300	0.530000	0.133200
O121	O12	0.935900	0.333700	0.299300
O131	O13	0.892700	0.879600	0.288200
O141	O14	0.823400	0.877800	0.121400
O151	O15	0.131700	0.575900	0.467600
O161	O16	0.172500	0.375600	0.429600
O171	O17	0.694200	0.991500	0.515100
O181	O18	0.865300	0.060300	0.554800
O191	O19	0.854700	0.348100	0.817100
O201	O20	0.574100	0.430400	0.743200
H81	H8	0.663500	0.397500	0.760400
C171	C17	0.899200	0.395700	0.190300
C181	C18	0.856800	0.940300	0.178000
C191	C19	0.214100	0.446000	0.475300
C201	C20	0.731300	0.076100	0.545600
C211	C21	0.882100	0.309400	0.123600
C221	C22	0.877600	0.365400	0.002600
H91	H9	0.885200	0.456900	0.964900
C231	C23	0.862100	0.288500	0.935500
C241	C24	0.853000	0.150900	0.994500
H101	H10	0.841100	0.097700	0.952400
C251	C25	0.861700	0.092400	0.116000
C261	C26	0.877300	0.169100	0.181900
H111	H11	0.884400	0.128100	0.263300
C271	C27	0.364400	0.373400	0.542100
C281	C28	0.401300	0.432300	0.615400
H121	H12	0.330500	0.513000	0.626900
C291	C29	0.544000	0.370700	0.671500
C301	C30	0.653700	0.254200	0.647000
H131	H13	0.750900	0.216300	0.679800
C311	C31	0.614800	0.198000	0.574100
C321	C32	0.470100	0.254400	0.523800
H141	H14	0.444300	0.212200	0.477900
