data_LACZEX_freeONLY_PM
_symmetry_space_group_name_H-M	'P1'
_cell_length_a	28.691000
_cell_length_b	29.061000
_cell_length_c	12.491800
_cell_angle_alpha	90.000000
_cell_angle_beta	90.000000
_cell_angle_gamma	90.000000
_symmetry_Int_Tables_number 1

loop_
_symmetry_equiv_pos_as_xyz
'x,y,z'

loop_
_atom_site_label
_atom_site_type_symbol
_atom_site_fract_x
_atom_site_fract_y
_atom_site_fract_z
O11	O1	0.696170	0.490700	0.810620
O21	O2	0.745030	0.447080	0.441290
O31	O3	0.654720	0.441460	0.901300
O41	O4	0.696510	0.406370	0.345150
C11	C1	0.663670	0.428360	0.714700
C21	C2	0.621140	0.369510	0.620460
C31	C3	0.689210	0.437550	0.623500
H11	H1	0.712400	0.460900	0.624500
C41	C4	0.681260	0.413160	0.531690
C51	C5	0.537920	0.346780	0.619420
C61	C6	0.598000	0.287540	0.616410
C71	C7	0.584200	0.332900	0.618440
C81	C8	0.629890	0.394080	0.712960
H21	H2	0.612600	0.387500	0.776000
C91	C9	0.646890	0.379070	0.529180
H31	H3	0.641200	0.362500	0.465000
C101	C10	0.645880	0.273100	0.618140
H41	H4	0.672500	0.292500	0.619100
C111	C11	0.523430	0.393670	0.620030
H51	H5	0.543100	0.419900	0.620400
C121	C12	0.672190	0.455310	0.817130
C131	C13	0.709400	0.423010	0.431970
O51	O5	0.196170	0.990700	0.310620
O61	O6	0.245030	0.947080	0.941290
O71	O7	0.154720	0.941460	0.401300
O81	O8	0.196510	0.906370	0.845150
C141	C14	0.163670	0.928360	0.214700
C151	C15	0.121140	0.869510	0.120460
C161	C16	0.189210	0.937550	0.123500
H61	H6	0.212400	0.960900	0.124500
C171	C17	0.181260	0.913160	0.031690
C181	C18	0.037920	0.846780	0.119420
C191	C19	0.098000	0.787540	0.116410
C201	C20	0.084200	0.832900	0.118440
C211	C21	0.129890	0.894080	0.212960
H71	H7	0.112600	0.887500	0.276000
C221	C22	0.146890	0.879070	0.029180
H81	H8	0.141200	0.862500	0.965000
C231	C23	0.145880	0.773100	0.118140
H91	H9	0.172500	0.792500	0.119100
C241	C24	0.023430	0.893670	0.120030
H101	H10	0.043100	0.919900	0.120400
C251	C25	0.172190	0.955310	0.317130
C261	C26	0.209400	0.923010	0.931970
O91	O9	0.303830	0.009300	0.810620
O101	O10	0.254970	0.052920	0.441290
O111	O11	0.345280	0.058540	0.901300
O121	O12	0.303490	0.093630	0.345150
C271	C27	0.336330	0.071640	0.714700
C281	C28	0.378860	0.130490	0.620460
C291	C29	0.310790	0.062450	0.623500
H111	H11	0.287600	0.039100	0.624500
C301	C30	0.318740	0.086840	0.531690
C311	C31	0.462080	0.153220	0.619420
C321	C32	0.402000	0.212460	0.616410
C331	C33	0.415800	0.167100	0.618440
C341	C34	0.370110	0.105920	0.712960
H121	H12	0.387400	0.112500	0.776000
C351	C35	0.353110	0.120930	0.529180
H131	H13	0.358800	0.137500	0.465000
C361	C36	0.354120	0.226900	0.618140
H141	H14	0.327500	0.207500	0.619100
C371	C37	0.476570	0.106330	0.620030
H151	H15	0.456900	0.080100	0.620400
C381	C38	0.327810	0.044690	0.817130
C391	C39	0.290600	0.076990	0.431970
O131	O13	0.803830	0.509300	0.310620
O141	O14	0.754970	0.552920	0.941290
O151	O15	0.845280	0.558540	0.401300
O161	O16	0.803490	0.593630	0.845150
C401	C40	0.836330	0.571640	0.214700
C411	C41	0.878860	0.630490	0.120460
C421	C42	0.810790	0.562450	0.123500
H161	H16	0.787600	0.539100	0.124500
C431	C43	0.818740	0.586840	0.031690
C441	C44	0.962080	0.653220	0.119420
C451	C45	0.902000	0.712460	0.116410
C461	C46	0.915800	0.667100	0.118440
C471	C47	0.870110	0.605920	0.212960
H171	H17	0.887400	0.612500	0.276000
C481	C48	0.853110	0.620930	0.029180
H181	H18	0.858800	0.637500	0.965000
C491	C49	0.854120	0.726900	0.118140
H191	H19	0.827500	0.707500	0.119100
C501	C50	0.976570	0.606330	0.120030
H201	H20	0.956900	0.580100	0.120400
C511	C51	0.827810	0.544690	0.317130
C521	C52	0.790600	0.576990	0.931970
O171	O17	0.303830	0.990700	0.189380
O181	O18	0.254970	0.947080	0.558710
O191	O19	0.345280	0.941460	0.098700
O201	O20	0.303490	0.906370	0.654850
C531	C53	0.336330	0.928360	0.285300
C541	C54	0.378860	0.869510	0.379540
C551	C55	0.310790	0.937550	0.376500
H211	H21	0.287600	0.960900	0.375500
C561	C56	0.318740	0.913160	0.468310
C571	C57	0.462080	0.846780	0.380580
C581	C58	0.402000	0.787540	0.383590
C591	C59	0.415800	0.832900	0.381560
C601	C60	0.370110	0.894080	0.287040
H221	H22	0.387400	0.887500	0.224000
C611	C61	0.353110	0.879070	0.470820
H231	H23	0.358800	0.862500	0.535000
C621	C62	0.354120	0.773100	0.381860
H241	H24	0.327500	0.792500	0.380900
C631	C63	0.476570	0.893670	0.379970
H251	H25	0.456900	0.919900	0.379600
C641	C64	0.327810	0.955310	0.182870
C651	C65	0.290600	0.923010	0.568030
O211	O21	0.803830	0.490700	0.689380
O221	O22	0.754970	0.447080	0.058710
O231	O23	0.845280	0.441460	0.598700
O241	O24	0.803490	0.406370	0.154850
C661	C66	0.836330	0.428360	0.785300
C671	C67	0.878860	0.369510	0.879540
C681	C68	0.810790	0.437550	0.876500
H261	H26	0.787600	0.460900	0.875500
C691	C69	0.818740	0.413160	0.968310
C701	C70	0.962080	0.346780	0.880580
C711	C71	0.902000	0.287540	0.883590
C721	C72	0.915800	0.332900	0.881560
C731	C73	0.870110	0.394080	0.787040
H271	H27	0.887400	0.387500	0.724000
C741	C74	0.853110	0.379070	0.970820
H281	H28	0.858800	0.362500	0.035000
C751	C75	0.854120	0.273100	0.881860
H291	H29	0.827500	0.292500	0.880900
C761	C76	0.976570	0.393670	0.879970
H301	H30	0.956900	0.419900	0.879600
C771	C77	0.827810	0.455310	0.682870
C781	C78	0.790600	0.423010	0.068030
O251	O25	0.696170	0.509300	0.189380
O261	O26	0.745030	0.552920	0.558710
O271	O27	0.654720	0.558540	0.098700
O281	O28	0.696510	0.593630	0.654850
C791	C79	0.663670	0.571640	0.285300
C801	C80	0.621140	0.630490	0.379540
C811	C81	0.689210	0.562450	0.376500
H311	H31	0.712400	0.539100	0.375500
C821	C82	0.681260	0.586840	0.468310
C831	C83	0.537920	0.653220	0.380580
C841	C84	0.598000	0.712460	0.383590
C851	C85	0.584200	0.667100	0.381560
C861	C86	0.629890	0.605920	0.287040
H321	H32	0.612600	0.612500	0.224000
C871	C87	0.646890	0.620930	0.470820
H331	H33	0.641200	0.637500	0.535000
C881	C88	0.645880	0.726900	0.381860
H341	H34	0.672500	0.707500	0.380900
C891	C89	0.523430	0.606330	0.379970
H351	H35	0.543100	0.580100	0.379600
C901	C90	0.672190	0.544690	0.182870
C911	C91	0.709400	0.576990	0.568030
O291	O29	0.196170	0.009300	0.689380
O301	O30	0.245030	0.052920	0.058710
O311	O31	0.154720	0.058540	0.598700
O321	O32	0.196510	0.093630	0.154850
C921	C92	0.163670	0.071640	0.785300
C931	C93	0.121140	0.130490	0.879540
C941	C94	0.189210	0.062450	0.876500
H361	H36	0.212400	0.039100	0.875500
C951	C95	0.181260	0.086840	0.968310
C961	C96	0.037920	0.153220	0.880580
C971	C97	0.098000	0.212460	0.883590
C981	C98	0.084200	0.167100	0.881560
C991	C99	0.129890	0.105920	0.787040
H371	H37	0.112600	0.112500	0.724000
C1001	C100	0.146890	0.120930	0.970820
H381	H38	0.141200	0.137500	0.035000
C1011	C101	0.145880	0.226900	0.881860
H391	H39	0.172500	0.207500	0.880900
C1021	C102	0.023430	0.106330	0.879970
H401	H40	0.043100	0.080100	0.879600
C1031	C103	0.172190	0.044690	0.682870
C1041	C104	0.209400	0.076990	0.068030
O331	O33	0.303830	0.509300	0.189380
O341	O34	0.254970	0.552920	0.558710
O351	O35	0.345280	0.558540	0.098700
O361	O36	0.303490	0.593630	0.654850
C1051	C105	0.336330	0.571640	0.285300
C1061	C106	0.378860	0.630490	0.379540
C1071	C107	0.310790	0.562450	0.376500
H411	H41	0.287600	0.539100	0.375500
C1081	C108	0.318740	0.586840	0.468310
C1091	C109	0.462080	0.653220	0.380580
C1101	C110	0.402000	0.712460	0.383590
C1111	C111	0.415800	0.667100	0.381560
C1121	C112	0.370110	0.605920	0.287040
H421	H42	0.387400	0.612500	0.224000
C1131	C113	0.353110	0.620930	0.470820
H431	H43	0.358800	0.637500	0.535000
C1141	C114	0.354120	0.726900	0.381860
H441	H44	0.327500	0.707500	0.380900
C1151	C115	0.476570	0.606330	0.379970
H451	H45	0.456900	0.580100	0.379600
C1161	C116	0.327810	0.544690	0.182870
C1171	C117	0.290600	0.576990	0.568030
O371	O37	0.803830	0.009300	0.689380
O381	O38	0.754970	0.052920	0.058710
O391	O39	0.845280	0.058540	0.598700
O401	O40	0.803490	0.093630	0.154850
C1181	C118	0.836330	0.071640	0.785300
C1191	C119	0.878860	0.130490	0.879540
C1201	C120	0.810790	0.062450	0.876500
H461	H46	0.787600	0.039100	0.875500
C1211	C121	0.818740	0.086840	0.968310
C1221	C122	0.962080	0.153220	0.880580
C1231	C123	0.902000	0.212460	0.883590
C1241	C124	0.915800	0.167100	0.881560
C1251	C125	0.870110	0.105920	0.787040
H471	H47	0.887400	0.112500	0.724000
C1261	C126	0.853110	0.120930	0.970820
H481	H48	0.858800	0.137500	0.035000
C1271	C127	0.854120	0.226900	0.881860
H491	H49	0.827500	0.207500	0.880900
C1281	C128	0.976570	0.106330	0.879970
H501	H50	0.956900	0.080100	0.879600
C1291	C129	0.827810	0.044690	0.682870
C1301	C130	0.790600	0.076990	0.068030
O411	O41	0.696170	0.990700	0.189380
O421	O42	0.745030	0.947080	0.558710
O431	O43	0.654720	0.941460	0.098700
O441	O44	0.696510	0.906370	0.654850
C1311	C131	0.663670	0.928360	0.285300
C1321	C132	0.621140	0.869510	0.379540
C1331	C133	0.689210	0.937550	0.376500
H511	H51	0.712400	0.960900	0.375500
C1341	C134	0.681260	0.913160	0.468310
C1351	C135	0.537920	0.846780	0.380580
C1361	C136	0.598000	0.787540	0.383590
C1371	C137	0.584200	0.832900	0.381560
C1381	C138	0.629890	0.894080	0.287040
H521	H52	0.612600	0.887500	0.224000
C1391	C139	0.646890	0.879070	0.470820
H531	H53	0.641200	0.862500	0.535000
C1401	C140	0.645880	0.773100	0.381860
H541	H54	0.672500	0.792500	0.380900
C1411	C141	0.523430	0.893670	0.379970
H551	H55	0.543100	0.919900	0.379600
C1421	C142	0.672190	0.955310	0.182870
C1431	C143	0.709400	0.923010	0.568030
O451	O45	0.196170	0.490700	0.689380
O461	O46	0.245030	0.447080	0.058710
O471	O47	0.154720	0.441460	0.598700
O481	O48	0.196510	0.406370	0.154850
C1441	C144	0.163670	0.428360	0.785300
C1451	C145	0.121140	0.369510	0.879540
C1461	C146	0.189210	0.437550	0.876500
H561	H56	0.212400	0.460900	0.875500
C1471	C147	0.181260	0.413160	0.968310
C1481	C148	0.037920	0.346780	0.880580
C1491	C149	0.098000	0.287540	0.883590
C1501	C150	0.084200	0.332900	0.881560
C1511	C151	0.129890	0.394080	0.787040
H571	H57	0.112600	0.387500	0.724000
C1521	C152	0.146890	0.379070	0.970820
H581	H58	0.141200	0.362500	0.035000
C1531	C153	0.145880	0.273100	0.881860
H591	H59	0.172500	0.292500	0.880900
C1541	C154	0.023430	0.393670	0.879970
H601	H60	0.043100	0.419900	0.879600
C1551	C155	0.172190	0.455310	0.682870
C1561	C156	0.209400	0.423010	0.068030
O491	O49	0.696170	0.009300	0.810620
O501	O50	0.745030	0.052920	0.441290
O511	O51	0.654720	0.058540	0.901300
O521	O52	0.696510	0.093630	0.345150
C1571	C157	0.663670	0.071640	0.714700
C1581	C158	0.621140	0.130490	0.620460
C1591	C159	0.689210	0.062450	0.623500
H611	H61	0.712400	0.039100	0.624500
C1601	C160	0.681260	0.086840	0.531690
C1611	C161	0.537920	0.153220	0.619420
C1621	C162	0.598000	0.212460	0.616410
C1631	C163	0.584200	0.167100	0.618440
C1641	C164	0.629890	0.105920	0.712960
H621	H62	0.612600	0.112500	0.776000
C1651	C165	0.646890	0.120930	0.529180
H631	H63	0.641200	0.137500	0.465000
C1661	C166	0.645880	0.226900	0.618140
H641	H64	0.672500	0.207500	0.619100
C1671	C167	0.523430	0.106330	0.620030
H651	H65	0.543100	0.080100	0.620400
C1681	C168	0.672190	0.044690	0.817130
C1691	C169	0.709400	0.076990	0.431970
O531	O53	0.196170	0.509300	0.310620
O541	O54	0.245030	0.552920	0.941290
O551	O55	0.154720	0.558540	0.401300
O561	O56	0.196510	0.593630	0.845150
C1701	C170	0.163670	0.571640	0.214700
C1711	C171	0.121140	0.630490	0.120460
C1721	C172	0.189210	0.562450	0.123500
H661	H66	0.212400	0.539100	0.124500
C1731	C173	0.181260	0.586840	0.031690
C1741	C174	0.037920	0.653220	0.119420
C1751	C175	0.098000	0.712460	0.116410
C1761	C176	0.084200	0.667100	0.118440
C1771	C177	0.129890	0.605920	0.212960
H671	H67	0.112600	0.612500	0.276000
C1781	C178	0.146890	0.620930	0.029180
H681	H68	0.141200	0.637500	0.965000
C1791	C179	0.145880	0.726900	0.118140
H691	H69	0.172500	0.707500	0.119100
C1801	C180	0.023430	0.606330	0.120030
H701	H70	0.043100	0.580100	0.120400
C1811	C181	0.172190	0.544690	0.317130
C1821	C182	0.209400	0.576990	0.931970
O571	O57	0.303830	0.490700	0.810620
O581	O58	0.254970	0.447080	0.441290
O591	O59	0.345280	0.441460	0.901300
O601	O60	0.303490	0.406370	0.345150
C1831	C183	0.336330	0.428360	0.714700
C1841	C184	0.378860	0.369510	0.620460
C1851	C185	0.310790	0.437550	0.623500
H711	H71	0.287600	0.460900	0.624500
C1861	C186	0.318740	0.413160	0.531690
C1871	C187	0.462080	0.346780	0.619420
C1881	C188	0.402000	0.287540	0.616410
C1891	C189	0.415800	0.332900	0.618440
C1901	C190	0.370110	0.394080	0.712960
H721	H72	0.387400	0.387500	0.776000
C1911	C191	0.353110	0.379070	0.529180
H731	H73	0.358800	0.362500	0.465000
C1921	C192	0.354120	0.273100	0.618140
H741	H74	0.327500	0.292500	0.619100
C1931	C193	0.476570	0.393670	0.620030
H751	H75	0.456900	0.419900	0.620400
C1941	C194	0.327810	0.455310	0.817130
C1951	C195	0.290600	0.423010	0.431970
O611	O61	0.803830	0.990700	0.310620
O621	O62	0.754970	0.947080	0.941290
O631	O63	0.845280	0.941460	0.401300
O641	O64	0.803490	0.906370	0.845150
C1961	C196	0.836330	0.928360	0.214700
C1971	C197	0.878860	0.869510	0.120460
C1981	C198	0.810790	0.937550	0.123500
H761	H76	0.787600	0.960900	0.124500
C1991	C199	0.818740	0.913160	0.031690
C2001	C200	0.962080	0.846780	0.119420
C2011	C201	0.902000	0.787540	0.116410
C2021	C202	0.915800	0.832900	0.118440
C2031	C203	0.870110	0.894080	0.212960
H771	H77	0.887400	0.887500	0.276000
C2041	C204	0.853110	0.879070	0.029180
H781	H78	0.858800	0.862500	0.965000
C2051	C205	0.854120	0.773100	0.118140
H791	H79	0.827500	0.792500	0.119100
C2061	C206	0.976570	0.893670	0.120030
H801	H80	0.956900	0.919900	0.120400
C2071	C207	0.827810	0.955310	0.317130
C2081	C208	0.790600	0.923010	0.931970
Co11	Co1	0.500000	0.250000	0.617960
O651	O65	0.500000	0.250000	0.433800
Co21	Co2	0.000000	0.750000	0.117960
O661	O66	0.000000	0.750000	0.933800
Co31	Co3	0.500000	0.750000	0.382040
O671	O67	0.500000	0.750000	0.566200
Co41	Co4	0.000000	0.250000	0.882040
O681	O68	0.000000	0.250000	0.066200
Na11	Na1	0.800720	0.500000	0.500000
Na21	Na2	0.300720	0.000000	0.000000
Na31	Na3	0.199280	0.000000	0.500000
Na41	Na4	0.699280	0.500000	0.000000
Na51	Na5	0.199280	0.500000	0.500000
Na61	Na6	0.699280	0.000000	0.000000
Na71	Na7	0.800720	0.000000	0.500000
Na81	Na8	0.300720	0.500000	0.000000
Na91	Na9	0.750000	0.542950	0.750000
Na101	Na10	0.250000	0.957050	0.750000
Na111	Na11	0.250000	0.042950	0.250000
Na121	Na12	0.750000	0.457050	0.250000
Na131	Na13	0.250000	0.457050	0.250000
Na141	Na14	0.750000	0.042950	0.250000
Na151	Na15	0.750000	0.957050	0.750000
Na161	Na16	0.250000	0.542950	0.750000
N11	N1	0.500000	0.317950	0.620020
H811	H81	0.500000	0.278300	0.395800
N21	N2	0.000000	0.817950	0.120020
H821	H82	0.000000	0.778300	0.895800
N31	N3	0.500000	0.182050	0.620020
H831	H83	0.500000	0.221700	0.395800
N41	N4	0.000000	0.682050	0.120020
H841	H84	0.000000	0.721700	0.895800
N51	N5	0.500000	0.817950	0.379980
H851	H85	0.500000	0.778300	0.604200
N61	N6	0.000000	0.317950	0.879980
H861	H86	0.000000	0.278300	0.104200
N71	N7	0.500000	0.682050	0.379980
H871	H87	0.500000	0.721700	0.604200
N81	N8	0.000000	0.182050	0.879980
H881	H88	0.000000	0.221700	0.104200
N91	N9	0.568910	0.250000	0.615720
N101	N10	0.068910	0.750000	0.115720
N111	N11	0.431090	0.250000	0.615720
N121	N12	0.931090	0.750000	0.115720
N131	N13	0.431090	0.750000	0.384280
N141	N14	0.931090	0.250000	0.884280
N151	N15	0.568910	0.750000	0.384280
N161	N16	0.068910	0.250000	0.884280
