data_LADHEF_freeONLY_PM
_symmetry_space_group_name_H-M	'P1'
_cell_length_a	12.837700
_cell_length_b	12.837700
_cell_length_c	19.045700
_cell_angle_alpha	83.776600
_cell_angle_beta	83.776600
_cell_angle_gamma	68.744600
_symmetry_Int_Tables_number 1

loop_
_symmetry_equiv_pos_as_xyz
'x,y,z'

loop_
_atom_site_label
_atom_site_type_symbol
_atom_site_fract_x
_atom_site_fract_y
_atom_site_fract_z
Zn11	Zn1	0.723820	0.935700	0.774430
Zn21	Zn2	0.107910	0.712950	0.560220
Zn31	Zn3	0.064300	0.276180	0.725570
Zn41	Zn4	0.287050	0.892090	0.939780
Zn51	Zn5	0.276180	0.064300	0.225570
Zn61	Zn6	0.892090	0.287050	0.439780
Zn71	Zn7	0.935700	0.723820	0.274430
Zn81	Zn8	0.712950	0.107910	0.060220
Zn91	Zn9	0.893080	0.106920	0.750000
Zn101	Zn10	0.106920	0.893080	0.250000
H11	H1	0.045300	0.520900	0.595000
H21	H2	0.945100	0.605100	0.570600
H31	H3	0.648300	0.320300	0.623000
H41	H4	0.513000	0.467200	0.567000
H51	H5	0.413400	0.199000	0.710800
H61	H6	0.855400	0.147800	0.917400
H71	H7	0.670100	0.964100	0.945300
H81	H8	0.077800	0.927400	0.644200
H91	H9	0.880500	0.756500	0.662400
H101	H10	0.479100	0.954700	0.905000
H111	H11	0.394900	0.054900	0.929400
H121	H12	0.679700	0.351700	0.877000
H131	H13	0.532800	0.487000	0.933000
H141	H14	0.801000	0.586600	0.789200
H151	H15	0.852200	0.144600	0.582600
H161	H16	0.035900	0.329900	0.554700
H171	H17	0.072600	0.922200	0.855800
H181	H18	0.243500	0.119500	0.837600
H191	H19	0.954700	0.479100	0.405000
H201	H20	0.054900	0.394900	0.429400
H211	H21	0.351700	0.679700	0.377000
H221	H22	0.487000	0.532800	0.433000
H231	H23	0.586600	0.801000	0.289200
H241	H24	0.144600	0.852200	0.082600
H251	H25	0.329900	0.035900	0.054700
H261	H26	0.922200	0.072600	0.355800
H271	H27	0.119500	0.243500	0.337600
H281	H28	0.520900	0.045300	0.095000
H291	H29	0.605100	0.945100	0.070600
H301	H30	0.320300	0.648300	0.123000
H311	H31	0.467200	0.513000	0.067000
H321	H32	0.199000	0.413400	0.210800
H331	H33	0.147800	0.855400	0.417400
H341	H34	0.964100	0.670100	0.445300
H351	H35	0.927400	0.077800	0.144200
H361	H36	0.756500	0.880500	0.162400
C11	C1	0.634180	0.145120	0.705300
C21	C2	0.545020	0.243060	0.671600
C31	C3	0.573880	0.325080	0.629010
C41	C4	0.492750	0.413150	0.595720
C51	C5	0.380720	0.422060	0.604560
C61	C6	0.350440	0.342460	0.649020
C71	C7	0.433290	0.252870	0.681760
C81	C8	0.295510	0.520930	0.567580
C91	C9	0.231470	0.346410	0.660020
C101	C10	0.817780	0.101020	0.909370
C111	C11	0.717300	0.001160	0.924680
C121	C12	0.018160	0.903160	0.658150
C131	C13	0.911130	0.810290	0.667880
C141	C14	0.854880	0.365820	0.794700
C151	C15	0.756940	0.454980	0.828400
C161	C16	0.674920	0.426120	0.870990
C171	C17	0.586850	0.507250	0.904280
C181	C18	0.577940	0.619280	0.895440
C191	C19	0.657540	0.649560	0.850980
C201	C20	0.747130	0.566710	0.818240
C211	C21	0.479070	0.704490	0.932420
C221	C22	0.653590	0.768530	0.839980
C231	C23	0.898980	0.182220	0.590630
C241	C24	0.998840	0.282700	0.575320
C251	C25	0.096840	0.981840	0.841850
C261	C26	0.189710	0.088870	0.832120
C271	C27	0.365820	0.854880	0.294700
C281	C28	0.454980	0.756940	0.328400
C291	C29	0.426120	0.674920	0.370990
C301	C30	0.507250	0.586850	0.404280
C311	C31	0.619280	0.577940	0.395440
C321	C32	0.649560	0.657540	0.350980
C331	C33	0.566710	0.747130	0.318240
C341	C34	0.704490	0.479070	0.432420
C351	C35	0.768530	0.653590	0.339980
C361	C36	0.182220	0.898980	0.090630
C371	C37	0.282700	0.998840	0.075320
C381	C38	0.981840	0.096840	0.341850
C391	C39	0.088870	0.189710	0.332120
C401	C40	0.145120	0.634180	0.205300
C411	C41	0.243060	0.545020	0.171600
C421	C42	0.325080	0.573880	0.129010
C431	C43	0.413150	0.492750	0.095720
C441	C44	0.422060	0.380720	0.104560
C451	C45	0.342460	0.350440	0.149020
C461	C46	0.252870	0.433290	0.181760
C471	C47	0.520930	0.295510	0.067580
C481	C48	0.346410	0.231470	0.160020
C491	C49	0.101020	0.817780	0.409370
C501	C50	0.001160	0.717300	0.424680
C511	C51	0.903160	0.018160	0.158150
C521	C52	0.810290	0.911130	0.167880
N11	N1	0.820580	0.063520	0.847240
N21	N2	0.755230	0.997870	0.857750
N31	N3	0.754650	0.064490	0.959990
N41	N4	0.935790	0.952130	0.704700
N51	N5	0.865860	0.891720	0.710850
N61	N6	0.006760	0.814020	0.632870
N71	N7	0.936480	0.179420	0.652760
N81	N8	0.002130	0.244770	0.642250
N91	N9	0.935510	0.245350	0.540010
N101	N10	0.047870	0.064210	0.795300
N111	N11	0.108280	0.134140	0.789150
N121	N12	0.185980	0.993240	0.867130
N131	N13	0.179420	0.936480	0.152760
N141	N14	0.244770	0.002130	0.142250
N151	N15	0.245350	0.935510	0.040010
N161	N16	0.064210	0.047870	0.295300
N171	N17	0.134140	0.108280	0.289150
N181	N18	0.993240	0.185980	0.367130
N191	N19	0.063520	0.820580	0.347240
N201	N20	0.997870	0.755230	0.357750
N211	N21	0.064490	0.754650	0.459990
N221	N22	0.952130	0.935790	0.204700
N231	N23	0.891720	0.865860	0.210850
N241	N24	0.814020	0.006760	0.132870
O11	O1	0.727400	0.151540	0.708860
O21	O2	0.606990	0.059970	0.727720
O31	O3	0.232860	0.596140	0.606410
O41	O4	0.293290	0.525130	0.502790
O51	O5	0.165610	0.392670	0.614200
O61	O6	0.207210	0.296650	0.717220
O71	O7	0.018630	0.600250	0.578890
O81	O8	0.848460	0.272600	0.791140
O91	O9	0.940030	0.393010	0.772280
O101	O10	0.403860	0.767140	0.893590
O111	O11	0.474870	0.706710	0.997210
O121	O12	0.607330	0.834390	0.885800
O131	O13	0.703350	0.792790	0.782780
O141	O14	0.399750	0.981370	0.921110
O151	O15	0.272600	0.848460	0.291140
O161	O16	0.393010	0.940030	0.272280
O171	O17	0.767140	0.403860	0.393590
O181	O18	0.706710	0.474870	0.497210
O191	O19	0.834390	0.607330	0.385800
O201	O20	0.792790	0.703350	0.282780
O211	O21	0.981370	0.399750	0.421110
O221	O22	0.151540	0.727400	0.208860
O231	O23	0.059970	0.606990	0.227720
O241	O24	0.596140	0.232860	0.106410
O251	O25	0.525130	0.293290	0.002790
O261	O26	0.392670	0.165610	0.114200
O271	O27	0.296650	0.207210	0.217220
O281	O28	0.600250	0.018630	0.078890
