data_LAFRIV_manual_PM
_symmetry_space_group_name_H-M	'P1'
_cell_length_a	45.198300
_cell_length_b	45.198300
_cell_length_c	45.198300
_cell_angle_alpha	60.000000
_cell_angle_beta	60.000000
_cell_angle_gamma	60.000000
_symmetry_Int_Tables_number 1

loop_
_symmetry_equiv_pos_as_xyz
'x,y,z'

loop_
_atom_site_label
_atom_site_type_symbol
_atom_site_fract_x
_atom_site_fract_y
_atom_site_fract_z
S11	S1	0.203410	0.879290	0.466410
C11	C1	0.226990	0.836110	0.476290
N11	N1	0.242330	0.805110	0.484410
N21	N2	0.290360	0.739300	0.530560
C21	C2	0.314000	0.707580	0.542660
H11	H1	0.313100	0.686300	0.544100
C31	C3	0.339870	0.703710	0.553310
H21	H2	0.355700	0.680300	0.562300
C41	C4	0.342680	0.734020	0.550780
H31	H3	0.360500	0.732100	0.557500
C51	C5	0.318070	0.767670	0.537770
C61	C6	0.292010	0.768670	0.528850
H41	H4	0.274700	0.791500	0.521100
N31	N3	0.239650	0.960450	0.506530
C71	C7	0.265960	0.927840	0.511880
H51	H5	0.287300	0.926700	0.512300
C81	C8	0.264250	0.896450	0.516770
C91	C9	0.232880	0.897820	0.516000
H61	H6	0.230900	0.876700	0.518300
C101	C10	0.205490	0.930010	0.511910
H71	H7	0.183600	0.931400	0.512400
C111	C11	0.209280	0.961060	0.507020
H81	H8	0.189900	0.983300	0.503900
C121	C12	0.295320	0.862260	0.519880
N41	N4	0.290730	0.831630	0.528810
C131	C13	0.320490	0.801950	0.530870
N51	N5	0.353040	0.801780	0.524260
C141	C14	0.354870	0.833810	0.514310
N61	N6	0.327000	0.865480	0.511580
C151	C15	0.390840	0.835840	0.503560
C161	C16	0.420660	0.804500	0.503220
H91	H9	0.417200	0.782600	0.509800
N71	N7	0.453720	0.803660	0.494120
C171	C17	0.458340	0.834780	0.484920
H101	H10	0.481900	0.834500	0.478700
C181	C18	0.429940	0.867160	0.484220
H111	H11	0.434100	0.888500	0.477900
C191	C19	0.395460	0.868240	0.492820
H121	H12	0.375800	0.890400	0.491400
N81	N8	0.464300	0.720580	0.534000
C201	C20	0.445920	0.704200	0.556840
S21	S2	0.419150	0.681190	0.590810
N91	N9	0.493440	0.756700	0.545780
C211	C21	0.521270	0.758530	0.547690
H131	H13	0.543600	0.756000	0.528400
C221	C22	0.518530	0.764010	0.576590
C231	C23	0.484730	0.768350	0.604730
H141	H14	0.481900	0.771900	0.625100
C241	C24	0.456630	0.767410	0.602510
H151	H15	0.433500	0.771300	0.620900
C251	C25	0.461530	0.760710	0.573410
H161	H16	0.441800	0.758800	0.572800
C261	C26	0.550450	0.764390	0.577790
N101	N10	0.579160	0.765180	0.547860
S31	S3	0.879290	0.203410	0.950890
C271	C27	0.836110	0.226990	0.960610
N111	N11	0.805110	0.242330	0.968150
N121	N12	0.739300	0.290360	0.939780
C281	C28	0.707580	0.314000	0.935760
H171	H17	0.686300	0.313100	0.956500
C291	C29	0.703710	0.339870	0.903110
H181	H18	0.680300	0.355700	0.901700
C301	C30	0.734020	0.342680	0.872520
H191	H19	0.732100	0.360500	0.849900
C311	C31	0.767670	0.318070	0.876490
C321	C32	0.768670	0.292010	0.910470
H201	H20	0.791500	0.274700	0.912700
N131	N13	0.960450	0.239650	0.793370
C331	C33	0.927840	0.265960	0.794320
H211	H21	0.926700	0.287300	0.773700
C341	C34	0.896450	0.264250	0.822530
C351	C35	0.897820	0.232880	0.853300
H221	H22	0.876700	0.230900	0.874100
C361	C36	0.930010	0.205490	0.852590
H231	H23	0.931400	0.183600	0.872600
C371	C37	0.961060	0.209280	0.822640
H241	H24	0.983300	0.189900	0.822900
C381	C38	0.862260	0.295320	0.822540
N141	N14	0.831630	0.290730	0.848830
C391	C39	0.801950	0.320490	0.846690
N151	N15	0.801780	0.353040	0.820920
C401	C40	0.833810	0.354870	0.797010
N161	N16	0.865480	0.327000	0.795940
C411	C41	0.835840	0.390840	0.769760
C421	C42	0.804500	0.420660	0.771620
H251	H25	0.782600	0.417200	0.790400
N171	N17	0.803660	0.453720	0.748500
C431	C43	0.834780	0.458340	0.721960
H261	H26	0.834500	0.481900	0.704900
C441	C44	0.867160	0.429940	0.718680
H271	H27	0.888500	0.434100	0.699500
C451	C45	0.868240	0.395460	0.743480
H281	H28	0.890400	0.375800	0.742400
N181	N18	0.720580	0.464300	0.781120
C461	C46	0.704200	0.445920	0.793040
S41	S4	0.681190	0.419150	0.808850
N191	N19	0.756700	0.493440	0.704080
C471	C47	0.758530	0.521270	0.672510
H291	H29	0.756000	0.543600	0.672000
C481	C48	0.764010	0.518530	0.640870
C491	C49	0.768350	0.484730	0.642190
H301	H30	0.771900	0.481900	0.621100
C501	C50	0.767410	0.456630	0.673450
H311	H31	0.771300	0.433500	0.674300
C511	C51	0.760710	0.461530	0.704350
H321	H32	0.758800	0.441800	0.726600
C521	C52	0.764390	0.550450	0.607370
N201	N20	0.765180	0.579160	0.607800
S51	S5	0.466410	0.950890	0.203410
C531	C53	0.476290	0.960610	0.226990
N211	N21	0.484410	0.968150	0.242330
N221	N22	0.530560	0.939780	0.290360
C541	C54	0.542660	0.935760	0.314000
H331	H33	0.544100	0.956500	0.313100
C551	C55	0.553310	0.903110	0.339870
H341	H34	0.562300	0.901700	0.355700
C561	C56	0.550780	0.872520	0.342680
H351	H35	0.557500	0.849900	0.360500
C571	C57	0.537770	0.876490	0.318070
C581	C58	0.528850	0.910470	0.292010
H361	H36	0.521100	0.912700	0.274700
N231	N23	0.506530	0.793370	0.239650
C591	C59	0.511880	0.794320	0.265960
H371	H37	0.512300	0.773700	0.287300
C601	C60	0.516770	0.822530	0.264250
C611	C61	0.516000	0.853300	0.232880
H381	H38	0.518300	0.874100	0.230900
C621	C62	0.511910	0.852590	0.205490
H391	H39	0.512400	0.872600	0.183600
C631	C63	0.507020	0.822640	0.209280
H401	H40	0.503900	0.822900	0.189900
C641	C64	0.519880	0.822540	0.295320
N241	N24	0.528810	0.848830	0.290730
C651	C65	0.530870	0.846690	0.320490
N251	N25	0.524260	0.820920	0.353040
C661	C66	0.514310	0.797010	0.354870
N261	N26	0.511580	0.795940	0.327000
C671	C67	0.503560	0.769760	0.390840
C681	C68	0.503220	0.771620	0.420660
H411	H41	0.509800	0.790400	0.417200
N271	N27	0.494120	0.748500	0.453720
C691	C69	0.484920	0.721960	0.458340
H421	H42	0.478700	0.704900	0.481900
C701	C70	0.484220	0.718680	0.429940
H431	H43	0.477900	0.699500	0.434100
C711	C71	0.492820	0.743480	0.395460
H441	H44	0.491400	0.742400	0.375800
N281	N28	0.534000	0.781120	0.464300
C721	C72	0.556840	0.793040	0.445920
S61	S6	0.590810	0.808850	0.419150
N291	N29	0.545780	0.704080	0.493440
C731	C73	0.547690	0.672510	0.521270
H451	H45	0.528400	0.672000	0.543600
C741	C74	0.576590	0.640870	0.518530
C751	C75	0.604730	0.642190	0.484730
H461	H46	0.625100	0.621100	0.481900
C761	C76	0.602510	0.673450	0.456630
H471	H47	0.620900	0.674300	0.433500
C771	C77	0.573410	0.704350	0.461530
H481	H48	0.572800	0.726600	0.441800
C781	C78	0.577790	0.607370	0.550450
N301	N30	0.547860	0.607800	0.579160
S71	S7	0.950890	0.466410	0.879290
C791	C79	0.960610	0.476290	0.836110
N311	N31	0.968150	0.484410	0.805110
N321	N32	0.939780	0.530560	0.739300
C801	C80	0.935760	0.542660	0.707580
H491	H49	0.956500	0.544100	0.686300
C811	C81	0.903110	0.553310	0.703710
H501	H50	0.901700	0.562300	0.680300
C821	C82	0.872520	0.550780	0.734020
H511	H51	0.849900	0.557500	0.732100
C831	C83	0.876490	0.537770	0.767670
C841	C84	0.910470	0.528850	0.768670
H521	H52	0.912700	0.521100	0.791500
N331	N33	0.793370	0.506530	0.960450
C851	C85	0.794320	0.511880	0.927840
H531	H53	0.773700	0.512300	0.926700
C861	C86	0.822530	0.516770	0.896450
C871	C87	0.853300	0.516000	0.897820
H541	H54	0.874100	0.518300	0.876700
C881	C88	0.852590	0.511910	0.930010
H551	H55	0.872600	0.512400	0.931400
C891	C89	0.822640	0.507020	0.961060
H561	H56	0.822900	0.503900	0.983300
C901	C90	0.822540	0.519880	0.862260
N341	N34	0.848830	0.528810	0.831630
C911	C91	0.846690	0.530870	0.801950
N351	N35	0.820920	0.524260	0.801780
C921	C92	0.797010	0.514310	0.833810
N361	N36	0.795940	0.511580	0.865480
C931	C93	0.769760	0.503560	0.835840
C941	C94	0.771620	0.503220	0.804500
H571	H57	0.790400	0.509800	0.782600
N371	N37	0.748500	0.494120	0.803660
C951	C95	0.721960	0.484920	0.834780
H581	H58	0.704900	0.478700	0.834500
C961	C96	0.718680	0.484220	0.867160
H591	H59	0.699500	0.477900	0.888500
C971	C97	0.743480	0.492820	0.868240
H601	H60	0.742400	0.491400	0.890400
N381	N38	0.781120	0.534000	0.720580
C981	C98	0.793040	0.556840	0.704200
S81	S8	0.808850	0.590810	0.681190
N391	N39	0.704080	0.545780	0.756700
C991	C99	0.672510	0.547690	0.758530
H611	H61	0.672000	0.528400	0.756000
C1001	C100	0.640870	0.576590	0.764010
C1011	C101	0.642190	0.604730	0.768350
H621	H62	0.621100	0.625100	0.771900
C1021	C102	0.673450	0.602510	0.767410
H631	H63	0.674300	0.620900	0.771300
C1031	C103	0.704350	0.573410	0.760710
H641	H64	0.726600	0.572800	0.758800
C1041	C104	0.607370	0.577790	0.764390
N401	N40	0.607800	0.547860	0.765180
S91	S9	0.466410	0.203410	0.879290
C1051	C105	0.476290	0.226990	0.836110
N411	N41	0.484410	0.242330	0.805110
N421	N42	0.530560	0.290360	0.739300
C1061	C106	0.542660	0.314000	0.707580
H651	H65	0.544100	0.313100	0.686300
C1071	C107	0.553310	0.339870	0.703710
H661	H66	0.562300	0.355700	0.680300
C1081	C108	0.550780	0.342680	0.734020
H671	H67	0.557500	0.360500	0.732100
C1091	C109	0.537770	0.318070	0.767670
C1101	C110	0.528850	0.292010	0.768670
H681	H68	0.521100	0.274700	0.791500
N431	N43	0.506530	0.239650	0.960450
C1111	C111	0.511880	0.265960	0.927840
H691	H69	0.512300	0.287300	0.926700
C1121	C112	0.516770	0.264250	0.896450
C1131	C113	0.516000	0.232880	0.897820
H701	H70	0.518300	0.230900	0.876700
C1141	C114	0.511910	0.205490	0.930010
H711	H71	0.512400	0.183600	0.931400
C1151	C115	0.507020	0.209280	0.961060
H721	H72	0.503900	0.189900	0.983300
C1161	C116	0.519880	0.295320	0.862260
N441	N44	0.528810	0.290730	0.831630
C1171	C117	0.530870	0.320490	0.801950
N451	N45	0.524260	0.353040	0.801780
C1181	C118	0.514310	0.354870	0.833810
N461	N46	0.511580	0.327000	0.865480
C1191	C119	0.503560	0.390840	0.835840
C1201	C120	0.503220	0.420660	0.804500
H731	H73	0.509800	0.417200	0.782600
N471	N47	0.494120	0.453720	0.803660
C1211	C121	0.484920	0.458340	0.834780
H741	H74	0.478700	0.481900	0.834500
C1221	C122	0.484220	0.429940	0.867160
H751	H75	0.477900	0.434100	0.888500
C1231	C123	0.492820	0.395460	0.868240
H761	H76	0.491400	0.375800	0.890400
N481	N48	0.534000	0.464300	0.720580
C1241	C124	0.556840	0.445920	0.704200
S101	S10	0.590810	0.419150	0.681190
N491	N49	0.545780	0.493440	0.756700
C1251	C125	0.547690	0.521270	0.758530
H771	H77	0.528400	0.543600	0.756000
C1261	C126	0.576590	0.518530	0.764010
C1271	C127	0.604730	0.484730	0.768350
H781	H78	0.625100	0.481900	0.771900
C1281	C128	0.602510	0.456630	0.767410
H791	H79	0.620900	0.433500	0.771300
C1291	C129	0.573410	0.461530	0.760710
H801	H80	0.572800	0.441800	0.758800
C1301	C130	0.577790	0.550450	0.764390
N501	N50	0.547860	0.579160	0.765180
S111	S11	0.950890	0.879290	0.203410
C1311	C131	0.960610	0.836110	0.226990
N511	N51	0.968150	0.805110	0.242330
N521	N52	0.939780	0.739300	0.290360
C1321	C132	0.935760	0.707580	0.314000
H811	H81	0.956500	0.686300	0.313100
C1331	C133	0.903110	0.703710	0.339870
H821	H82	0.901700	0.680300	0.355700
C1341	C134	0.872520	0.734020	0.342680
H831	H83	0.849900	0.732100	0.360500
C1351	C135	0.876490	0.767670	0.318070
C1361	C136	0.910470	0.768670	0.292010
H841	H84	0.912700	0.791500	0.274700
N531	N53	0.793370	0.960450	0.239650
C1371	C137	0.794320	0.927840	0.265960
H851	H85	0.773700	0.926700	0.287300
C1381	C138	0.822530	0.896450	0.264250
C1391	C139	0.853300	0.897820	0.232880
H861	H86	0.874100	0.876700	0.230900
C1401	C140	0.852590	0.930010	0.205490
H871	H87	0.872600	0.931400	0.183600
C1411	C141	0.822640	0.961060	0.209280
H881	H88	0.822900	0.983300	0.189900
C1421	C142	0.822540	0.862260	0.295320
N541	N54	0.848830	0.831630	0.290730
C1431	C143	0.846690	0.801950	0.320490
N551	N55	0.820920	0.801780	0.353040
C1441	C144	0.797010	0.833810	0.354870
N561	N56	0.795940	0.865480	0.327000
C1451	C145	0.769760	0.835840	0.390840
C1461	C146	0.771620	0.804500	0.420660
H891	H89	0.790400	0.782600	0.417200
N571	N57	0.748500	0.803660	0.453720
C1471	C147	0.721960	0.834780	0.458340
H901	H90	0.704900	0.834500	0.481900
C1481	C148	0.718680	0.867160	0.429940
H911	H91	0.699500	0.888500	0.434100
C1491	C149	0.743480	0.868240	0.395460
H921	H92	0.742400	0.890400	0.375800
N581	N58	0.781120	0.720580	0.464300
C1501	C150	0.793040	0.704200	0.445920
S121	S12	0.808850	0.681190	0.419150
N591	N59	0.704080	0.756700	0.493440
C1511	C151	0.672510	0.758530	0.521270
H931	H93	0.672000	0.756000	0.543600
C1521	C152	0.640870	0.764010	0.518530
C1531	C153	0.642190	0.768350	0.484730
H941	H94	0.621100	0.771900	0.481900
C1541	C154	0.673450	0.767410	0.456630
H951	H95	0.674300	0.771300	0.433500
C1551	C155	0.704350	0.760710	0.461530
H961	H96	0.726600	0.758800	0.441800
C1561	C156	0.607370	0.764390	0.550450
N601	N60	0.607800	0.765180	0.579160
S131	S13	0.203410	0.466410	0.950890
C1571	C157	0.226990	0.476290	0.960610
N611	N61	0.242330	0.484410	0.968150
N621	N62	0.290360	0.530560	0.939780
C1581	C158	0.314000	0.542660	0.935760
H971	H97	0.313100	0.544100	0.956500
C1591	C159	0.339870	0.553310	0.903110
H981	H98	0.355700	0.562300	0.901700
C1601	C160	0.342680	0.550780	0.872520
H991	H99	0.360500	0.557500	0.849900
C1611	C161	0.318070	0.537770	0.876490
C1621	C162	0.292010	0.528850	0.910470
H1001	H100	0.274700	0.521100	0.912700
N631	N63	0.239650	0.506530	0.793370
C1631	C163	0.265960	0.511880	0.794320
H1011	H101	0.287300	0.512300	0.773700
C1641	C164	0.264250	0.516770	0.822530
C1651	C165	0.232880	0.516000	0.853300
H1021	H102	0.230900	0.518300	0.874100
C1661	C166	0.205490	0.511910	0.852590
H1031	H103	0.183600	0.512400	0.872600
C1671	C167	0.209280	0.507020	0.822640
H1041	H104	0.189900	0.503900	0.822900
C1681	C168	0.295320	0.519880	0.822540
N641	N64	0.290730	0.528810	0.848830
C1691	C169	0.320490	0.530870	0.846690
N651	N65	0.353040	0.524260	0.820920
C1701	C170	0.354870	0.514310	0.797010
N661	N66	0.327000	0.511580	0.795940
C1711	C171	0.390840	0.503560	0.769760
C1721	C172	0.420660	0.503220	0.771620
H1051	H105	0.417200	0.509800	0.790400
N671	N67	0.453720	0.494120	0.748500
C1731	C173	0.458340	0.484920	0.721960
H1061	H106	0.481900	0.478700	0.704900
C1741	C174	0.429940	0.484220	0.718680
H1071	H107	0.434100	0.477900	0.699500
C1751	C175	0.395460	0.492820	0.743480
H1081	H108	0.375800	0.491400	0.742400
N681	N68	0.464300	0.534000	0.781120
C1761	C176	0.445920	0.556840	0.793040
S141	S14	0.419150	0.590810	0.808850
N691	N69	0.493440	0.545780	0.704080
C1771	C177	0.521270	0.547690	0.672510
H1091	H109	0.543600	0.528400	0.672000
C1781	C178	0.518530	0.576590	0.640870
C1791	C179	0.484730	0.604730	0.642190
H1101	H110	0.481900	0.625100	0.621100
C1801	C180	0.456630	0.602510	0.673450
H1111	H111	0.433500	0.620900	0.674300
C1811	C181	0.461530	0.573410	0.704350
H1121	H112	0.441800	0.572800	0.726600
C1821	C182	0.550450	0.577790	0.607370
N701	N70	0.579160	0.547860	0.607800
S151	S15	0.879290	0.950890	0.466410
C1831	C183	0.836110	0.960610	0.476290
N711	N71	0.805110	0.968150	0.484410
N721	N72	0.739300	0.939780	0.530560
C1841	C184	0.707580	0.935760	0.542660
H1131	H113	0.686300	0.956500	0.544100
C1851	C185	0.703710	0.903110	0.553310
H1141	H114	0.680300	0.901700	0.562300
C1861	C186	0.734020	0.872520	0.550780
H1151	H115	0.732100	0.849900	0.557500
C1871	C187	0.767670	0.876490	0.537770
C1881	C188	0.768670	0.910470	0.528850
H1161	H116	0.791500	0.912700	0.521100
N731	N73	0.960450	0.793370	0.506530
C1891	C189	0.927840	0.794320	0.511880
H1171	H117	0.926700	0.773700	0.512300
C1901	C190	0.896450	0.822530	0.516770
C1911	C191	0.897820	0.853300	0.516000
H1181	H118	0.876700	0.874100	0.518300
C1921	C192	0.930010	0.852590	0.511910
H1191	H119	0.931400	0.872600	0.512400
C1931	C193	0.961060	0.822640	0.507020
H1201	H120	0.983300	0.822900	0.503900
C1941	C194	0.862260	0.822540	0.519880
N741	N74	0.831630	0.848830	0.528810
C1951	C195	0.801950	0.846690	0.530870
N751	N75	0.801780	0.820920	0.524260
C1961	C196	0.833810	0.797010	0.514310
N761	N76	0.865480	0.795940	0.511580
C1971	C197	0.835840	0.769760	0.503560
C1981	C198	0.804500	0.771620	0.503220
H1211	H121	0.782600	0.790400	0.509800
N771	N77	0.803660	0.748500	0.494120
C1991	C199	0.834780	0.721960	0.484920
H1221	H122	0.834500	0.704900	0.478700
C2001	C200	0.867160	0.718680	0.484220
H1231	H123	0.888500	0.699500	0.477900
C2011	C201	0.868240	0.743480	0.492820
H1241	H124	0.890400	0.742400	0.491400
N781	N78	0.720580	0.781120	0.534000
C2021	C202	0.704200	0.793040	0.556840
S161	S16	0.681190	0.808850	0.590810
N791	N79	0.756700	0.704080	0.545780
C2031	C203	0.758530	0.672510	0.547690
H1251	H125	0.756000	0.672000	0.528400
C2041	C204	0.764010	0.640870	0.576590
C2051	C205	0.768350	0.642190	0.604730
H1261	H126	0.771900	0.621100	0.625100
C2061	C206	0.767410	0.673450	0.602510
H1271	H127	0.771300	0.674300	0.620900
C2071	C207	0.760710	0.704350	0.573410
H1281	H128	0.758800	0.726600	0.572800
C2081	C208	0.764390	0.607370	0.577790
N801	N80	0.765180	0.607800	0.547860
S171	S17	0.879290	0.466410	0.203410
C2091	C209	0.836110	0.476290	0.226990
N811	N81	0.805110	0.484410	0.242330
N821	N82	0.739300	0.530560	0.290360
C2101	C210	0.707580	0.542660	0.314000
H1291	H129	0.686300	0.544100	0.313100
C2111	C211	0.703710	0.553310	0.339870
H1301	H130	0.680300	0.562300	0.355700
C2121	C212	0.734020	0.550780	0.342680
H1311	H131	0.732100	0.557500	0.360500
C2131	C213	0.767670	0.537770	0.318070
C2141	C214	0.768670	0.528850	0.292010
H1321	H132	0.791500	0.521100	0.274700
N831	N83	0.960450	0.506530	0.239650
C2151	C215	0.927840	0.511880	0.265960
H1331	H133	0.926700	0.512300	0.287300
C2161	C216	0.896450	0.516770	0.264250
C2171	C217	0.897820	0.516000	0.232880
H1341	H134	0.876700	0.518300	0.230900
C2181	C218	0.930010	0.511910	0.205490
H1351	H135	0.931400	0.512400	0.183600
C2191	C219	0.961060	0.507020	0.209280
H1361	H136	0.983300	0.503900	0.189900
C2201	C220	0.862260	0.519880	0.295320
N841	N84	0.831630	0.528810	0.290730
C2211	C221	0.801950	0.530870	0.320490
N851	N85	0.801780	0.524260	0.353040
C2221	C222	0.833810	0.514310	0.354870
N861	N86	0.865480	0.511580	0.327000
C2231	C223	0.835840	0.503560	0.390840
C2241	C224	0.804500	0.503220	0.420660
H1371	H137	0.782600	0.509800	0.417200
N871	N87	0.803660	0.494120	0.453720
C2251	C225	0.834780	0.484920	0.458340
H1381	H138	0.834500	0.478700	0.481900
C2261	C226	0.867160	0.484220	0.429940
H1391	H139	0.888500	0.477900	0.434100
C2271	C227	0.868240	0.492820	0.395460
H1401	H140	0.890400	0.491400	0.375800
N881	N88	0.720580	0.534000	0.464300
C2281	C228	0.704200	0.556840	0.445920
S181	S18	0.681190	0.590810	0.419150
N891	N89	0.756700	0.545780	0.493440
C2291	C229	0.758530	0.547690	0.521270
H1411	H141	0.756000	0.528400	0.543600
C2301	C230	0.764010	0.576590	0.518530
C2311	C231	0.768350	0.604730	0.484730
H1421	H142	0.771900	0.625100	0.481900
C2321	C232	0.767410	0.602510	0.456630
H1431	H143	0.771300	0.620900	0.433500
C2331	C233	0.760710	0.573410	0.461530
H1441	H144	0.758800	0.572800	0.441800
C2341	C234	0.764390	0.577790	0.550450
N901	N90	0.765180	0.547860	0.579160
S191	S19	0.203410	0.950890	0.879290
C2351	C235	0.226990	0.960610	0.836110
N911	N91	0.242330	0.968150	0.805110
N921	N92	0.290360	0.939780	0.739300
C2361	C236	0.314000	0.935760	0.707580
H1451	H145	0.313100	0.956500	0.686300
C2371	C237	0.339870	0.903110	0.703710
H1461	H146	0.355700	0.901700	0.680300
C2381	C238	0.342680	0.872520	0.734020
H1471	H147	0.360500	0.849900	0.732100
C2391	C239	0.318070	0.876490	0.767670
C2401	C240	0.292010	0.910470	0.768670
H1481	H148	0.274700	0.912700	0.791500
N931	N93	0.239650	0.793370	0.960450
C2411	C241	0.265960	0.794320	0.927840
H1491	H149	0.287300	0.773700	0.926700
C2421	C242	0.264250	0.822530	0.896450
C2431	C243	0.232880	0.853300	0.897820
H1501	H150	0.230900	0.874100	0.876700
C2441	C244	0.205490	0.852590	0.930010
H1511	H151	0.183600	0.872600	0.931400
C2451	C245	0.209280	0.822640	0.961060
H1521	H152	0.189900	0.822900	0.983300
C2461	C246	0.295320	0.822540	0.862260
N941	N94	0.290730	0.848830	0.831630
C2471	C247	0.320490	0.846690	0.801950
N951	N95	0.353040	0.820920	0.801780
C2481	C248	0.354870	0.797010	0.833810
N961	N96	0.327000	0.795940	0.865480
C2491	C249	0.390840	0.769760	0.835840
C2501	C250	0.420660	0.771620	0.804500
H1531	H153	0.417200	0.790400	0.782600
N971	N97	0.453720	0.748500	0.803660
C2511	C251	0.458340	0.721960	0.834780
H1541	H154	0.481900	0.704900	0.834500
C2521	C252	0.429940	0.718680	0.867160
H1551	H155	0.434100	0.699500	0.888500
C2531	C253	0.395460	0.743480	0.868240
H1561	H156	0.375800	0.742400	0.890400
N981	N98	0.464300	0.781120	0.720580
C2541	C254	0.445920	0.793040	0.704200
S201	S20	0.419150	0.808850	0.681190
N991	N99	0.493440	0.704080	0.756700
C2551	C255	0.521270	0.672510	0.758530
H1571	H157	0.543600	0.672000	0.756000
C2561	C256	0.518530	0.640870	0.764010
C2571	C257	0.484730	0.642190	0.768350
H1581	H158	0.481900	0.621100	0.771900
C2581	C258	0.456630	0.673450	0.767410
H1591	H159	0.433500	0.674300	0.771300
C2591	C259	0.461530	0.704350	0.760710
H1601	H160	0.441800	0.726600	0.758800
C2601	C260	0.550450	0.607370	0.764390
N1001	N100	0.579160	0.607800	0.765180
S211	S21	0.950890	0.203410	0.466410
C2611	C261	0.960610	0.226990	0.476290
N1011	N101	0.968150	0.242330	0.484410
N1021	N102	0.939780	0.290360	0.530560
C2621	C262	0.935760	0.314000	0.542660
H1611	H161	0.956500	0.313100	0.544100
C2631	C263	0.903110	0.339870	0.553310
H1621	H162	0.901700	0.355700	0.562300
C2641	C264	0.872520	0.342680	0.550780
H1631	H163	0.849900	0.360500	0.557500
C2651	C265	0.876490	0.318070	0.537770
C2661	C266	0.910470	0.292010	0.528850
H1641	H164	0.912700	0.274700	0.521100
N1031	N103	0.793370	0.239650	0.506530
C2671	C267	0.794320	0.265960	0.511880
H1651	H165	0.773700	0.287300	0.512300
C2681	C268	0.822530	0.264250	0.516770
C2691	C269	0.853300	0.232880	0.516000
H1661	H166	0.874100	0.230900	0.518300
C2701	C270	0.852590	0.205490	0.511910
H1671	H167	0.872600	0.183600	0.512400
C2711	C271	0.822640	0.209280	0.507020
H1681	H168	0.822900	0.189900	0.503900
C2721	C272	0.822540	0.295320	0.519880
N1041	N104	0.848830	0.290730	0.528810
C2731	C273	0.846690	0.320490	0.530870
N1051	N105	0.820920	0.353040	0.524260
C2741	C274	0.797010	0.354870	0.514310
N1061	N106	0.795940	0.327000	0.511580
C2751	C275	0.769760	0.390840	0.503560
C2761	C276	0.771620	0.420660	0.503220
H1691	H169	0.790400	0.417200	0.509800
N1071	N107	0.748500	0.453720	0.494120
C2771	C277	0.721960	0.458340	0.484920
H1701	H170	0.704900	0.481900	0.478700
C2781	C278	0.718680	0.429940	0.484220
H1711	H171	0.699500	0.434100	0.477900
C2791	C279	0.743480	0.395460	0.492820
H1721	H172	0.742400	0.375800	0.491400
N1081	N108	0.781120	0.464300	0.534000
C2801	C280	0.793040	0.445920	0.556840
S221	S22	0.808850	0.419150	0.590810
N1091	N109	0.704080	0.493440	0.545780
C2811	C281	0.672510	0.521270	0.547690
H1731	H173	0.672000	0.543600	0.528400
C2821	C282	0.640870	0.518530	0.576590
C2831	C283	0.642190	0.484730	0.604730
H1741	H174	0.621100	0.481900	0.625100
C2841	C284	0.673450	0.456630	0.602510
H1751	H175	0.674300	0.433500	0.620900
C2851	C285	0.704350	0.461530	0.573410
H1761	H176	0.726600	0.441800	0.572800
C2861	C286	0.607370	0.550450	0.577790
N1101	N110	0.607800	0.579160	0.547860
S231	S23	0.466410	0.879290	0.950890
C2871	C287	0.476290	0.836110	0.960610
N1111	N111	0.484410	0.805110	0.968150
N1121	N112	0.530560	0.739300	0.939780
C2881	C288	0.542660	0.707580	0.935760
H1771	H177	0.544100	0.686300	0.956500
C2891	C289	0.553310	0.703710	0.903110
H1781	H178	0.562300	0.680300	0.901700
C2901	C290	0.550780	0.734020	0.872520
H1791	H179	0.557500	0.732100	0.849900
C2911	C291	0.537770	0.767670	0.876490
C2921	C292	0.528850	0.768670	0.910470
H1801	H180	0.521100	0.791500	0.912700
N1131	N113	0.506530	0.960450	0.793370
C2931	C293	0.511880	0.927840	0.794320
H1811	H181	0.512300	0.926700	0.773700
C2941	C294	0.516770	0.896450	0.822530
C2951	C295	0.516000	0.897820	0.853300
H1821	H182	0.518300	0.876700	0.874100
C2961	C296	0.511910	0.930010	0.852590
H1831	H183	0.512400	0.931400	0.872600
C2971	C297	0.507020	0.961060	0.822640
H1841	H184	0.503900	0.983300	0.822900
C2981	C298	0.519880	0.862260	0.822540
N1141	N114	0.528810	0.831630	0.848830
C2991	C299	0.530870	0.801950	0.846690
N1151	N115	0.524260	0.801780	0.820920
C3001	C300	0.514310	0.833810	0.797010
N1161	N116	0.511580	0.865480	0.795940
C3011	C301	0.503560	0.835840	0.769760
C3021	C302	0.503220	0.804500	0.771620
H1851	H185	0.509800	0.782600	0.790400
N1171	N117	0.494120	0.803660	0.748500
C3031	C303	0.484920	0.834780	0.721960
H1861	H186	0.478700	0.834500	0.704900
C3041	C304	0.484220	0.867160	0.718680
H1871	H187	0.477900	0.888500	0.699500
C3051	C305	0.492820	0.868240	0.743480
H1881	H188	0.491400	0.890400	0.742400
N1181	N118	0.534000	0.720580	0.781120
C3061	C306	0.556840	0.704200	0.793040
S241	S24	0.590810	0.681190	0.808850
N1191	N119	0.545780	0.756700	0.704080
C3071	C307	0.547690	0.758530	0.672510
H1891	H189	0.528400	0.756000	0.672000
C3081	C308	0.576590	0.764010	0.640870
C3091	C309	0.604730	0.768350	0.642190
H1901	H190	0.625100	0.771900	0.621100
C3101	C310	0.602510	0.767410	0.673450
H1911	H191	0.620900	0.771300	0.674300
C3111	C311	0.573410	0.760710	0.704350
H1921	H192	0.572800	0.758800	0.726600
C3121	C312	0.577790	0.764390	0.607370
N1201	N120	0.547860	0.765180	0.607800
S251	S25	0.296590	0.620710	0.549110
C3131	C313	0.273010	0.663890	0.539390
N1211	N121	0.257670	0.694890	0.531850
N1221	N122	0.209640	0.760700	0.560220
C3141	C314	0.186000	0.792420	0.564240
H1931	H193	0.186900	0.813700	0.543500
C3151	C315	0.160130	0.796290	0.596890
H1941	H194	0.144300	0.819700	0.598300
C3161	C316	0.157320	0.765980	0.627480
H1951	H195	0.139500	0.767900	0.650100
C3171	C317	0.181930	0.732330	0.623510
C3181	C318	0.207990	0.731330	0.589530
H1961	H196	0.225300	0.708500	0.587300
N1231	N123	0.260350	0.539550	0.706630
C3191	C319	0.234040	0.572160	0.705680
H1971	H197	0.212700	0.573300	0.726300
C3201	C320	0.235750	0.603550	0.677470
C3211	C321	0.267120	0.602180	0.646700
H1981	H198	0.269100	0.623300	0.625900
C3221	C322	0.294510	0.569990	0.647410
H1991	H199	0.316400	0.568600	0.627400
C3231	C323	0.290720	0.538940	0.677360
H2001	H200	0.310100	0.516700	0.677100
C3241	C324	0.204680	0.637740	0.677460
N1241	N124	0.209270	0.668370	0.651170
C3251	C325	0.179510	0.698050	0.653310
N1251	N125	0.146960	0.698220	0.679080
C3261	C326	0.145130	0.666190	0.702990
N1261	N126	0.173000	0.634520	0.704060
C3271	C327	0.109160	0.664160	0.730240
C3281	C328	0.079340	0.695500	0.728380
H2011	H201	0.082800	0.717400	0.709600
N1271	N127	0.046280	0.696340	0.751500
C3291	C329	0.041660	0.665220	0.778040
H2021	H202	0.018100	0.665500	0.795100
C3301	C330	0.070060	0.632840	0.781320
H2031	H203	0.065900	0.611500	0.800500
C3311	C331	0.104540	0.631760	0.756520
H2041	H204	0.124200	0.609600	0.757600
N1281	N128	0.035700	0.779420	0.718880
C3321	C332	0.054080	0.795800	0.706960
S261	S26	0.080850	0.818810	0.691150
N1291	N129	0.006560	0.743300	0.795920
C3331	C333	0.978730	0.741470	0.827490
H2051	H205	0.956400	0.744000	0.828000
C3341	C334	0.981470	0.735990	0.859130
C3351	C335	0.015270	0.731650	0.857810
H2061	H206	0.018100	0.728100	0.878900
C3361	C336	0.043370	0.732590	0.826550
H2071	H207	0.066500	0.728700	0.825700
C3371	C337	0.038470	0.739290	0.795650
H2081	H208	0.058200	0.741200	0.773400
C3381	C338	0.949550	0.735610	0.892630
N1301	N130	0.920840	0.734820	0.892200
S271	S27	0.620710	0.296590	0.033590
C3391	C339	0.663890	0.273010	0.023710
N1311	N131	0.694890	0.257670	0.015590
N1321	N132	0.760700	0.209640	0.969440
C3401	C340	0.792420	0.186000	0.957340
H2091	H209	0.813700	0.186900	0.955900
C3411	C341	0.796290	0.160130	0.946690
H2101	H210	0.819700	0.144300	0.937700
C3421	C342	0.765980	0.157320	0.949220
H2111	H211	0.767900	0.139500	0.942500
C3431	C343	0.732330	0.181930	0.962230
C3441	C344	0.731330	0.207990	0.971150
H2121	H212	0.708500	0.225300	0.978900
N1331	N133	0.539550	0.260350	0.993470
C3451	C345	0.572160	0.234040	0.988120
H2131	H213	0.573300	0.212700	0.987700
C3461	C346	0.603550	0.235750	0.983230
C3471	C347	0.602180	0.267120	0.984000
H2141	H214	0.623300	0.269100	0.981700
C3481	C348	0.569990	0.294510	0.988090
H2151	H215	0.568600	0.316400	0.987600
C3491	C349	0.538940	0.290720	0.992980
H2161	H216	0.516700	0.310100	0.996100
C3501	C350	0.637740	0.204680	0.980120
N1341	N134	0.668370	0.209270	0.971190
C3511	C351	0.698050	0.179510	0.969130
N1351	N135	0.698220	0.146960	0.975740
C3521	C352	0.666190	0.145130	0.985690
N1361	N136	0.634520	0.173000	0.988420
C3531	C353	0.664160	0.109160	0.996440
C3541	C354	0.695500	0.079340	0.996780
H2171	H217	0.717400	0.082800	0.990200
N1371	N137	0.696340	0.046280	0.005880
C3551	C355	0.665220	0.041660	0.015080
H2181	H218	0.665500	0.018100	0.021300
C3561	C356	0.632840	0.070060	0.015780
H2191	H219	0.611500	0.065900	0.022100
C3571	C357	0.631760	0.104540	0.007180
H2201	H220	0.609600	0.124200	0.008600
N1381	N138	0.779420	0.035700	0.966000
C3581	C358	0.795800	0.054080	0.943160
S281	S28	0.818810	0.080850	0.909190
N1391	N139	0.743300	0.006560	0.954220
C3591	C359	0.741470	0.978730	0.952310
H2211	H221	0.744000	0.956400	0.971600
C3601	C360	0.735990	0.981470	0.923410
C3611	C361	0.731650	0.015270	0.895270
H2221	H222	0.728100	0.018100	0.874900
C3621	C362	0.732590	0.043370	0.897490
H2231	H223	0.728700	0.066500	0.879100
C3631	C363	0.739290	0.038470	0.926590
H2241	H224	0.741200	0.058200	0.927200
C3641	C364	0.735610	0.949550	0.922210
N1401	N140	0.734820	0.920840	0.952140
S291	S29	0.033590	0.549110	0.620710
C3651	C365	0.023710	0.539390	0.663890
N1411	N141	0.015590	0.531850	0.694890
N1421	N142	0.969440	0.560220	0.760700
C3661	C366	0.957340	0.564240	0.792420
H2251	H225	0.955900	0.543500	0.813700
C3671	C367	0.946690	0.596890	0.796290
H2261	H226	0.937700	0.598300	0.819700
C3681	C368	0.949220	0.627480	0.765980
H2271	H227	0.942500	0.650100	0.767900
C3691	C369	0.962230	0.623510	0.732330
C3701	C370	0.971150	0.589530	0.731330
H2281	H228	0.978900	0.587300	0.708500
N1431	N143	0.993470	0.706630	0.539550
C3711	C371	0.988120	0.705680	0.572160
H2291	H229	0.987700	0.726300	0.573300
C3721	C372	0.983230	0.677470	0.603550
C3731	C373	0.984000	0.646700	0.602180
H2301	H230	0.981700	0.625900	0.623300
C3741	C374	0.988090	0.647410	0.569990
H2311	H231	0.987600	0.627400	0.568600
C3751	C375	0.992980	0.677360	0.538940
H2321	H232	0.996100	0.677100	0.516700
C3761	C376	0.980120	0.677460	0.637740
N1441	N144	0.971190	0.651170	0.668370
C3771	C377	0.969130	0.653310	0.698050
N1451	N145	0.975740	0.679080	0.698220
C3781	C378	0.985690	0.702990	0.666190
N1461	N146	0.988420	0.704060	0.634520
C3791	C379	0.996440	0.730240	0.664160
C3801	C380	0.996780	0.728380	0.695500
H2331	H233	0.990200	0.709600	0.717400
N1471	N147	0.005880	0.751500	0.696340
C3811	C381	0.015080	0.778040	0.665220
H2341	H234	0.021300	0.795100	0.665500
C3821	C382	0.015780	0.781320	0.632840
H2351	H235	0.022100	0.800500	0.611500
C3831	C383	0.007180	0.756520	0.631760
H2361	H236	0.008600	0.757600	0.609600
N1481	N148	0.966000	0.718880	0.779420
C3841	C384	0.943160	0.706960	0.795800
S301	S30	0.909190	0.691150	0.818810
N1491	N149	0.954220	0.795920	0.743300
C3851	C385	0.952310	0.827490	0.741470
H2371	H237	0.971600	0.828000	0.744000
C3861	C386	0.923410	0.859130	0.735990
C3871	C387	0.895270	0.857810	0.731650
H2381	H238	0.874900	0.878900	0.728100
C3881	C388	0.897490	0.826550	0.732590
H2391	H239	0.879100	0.825700	0.728700
C3891	C389	0.926590	0.795650	0.739290
H2401	H240	0.927200	0.773400	0.741200
C3901	C390	0.922210	0.892630	0.735610
N1501	N150	0.952140	0.892200	0.734820
S311	S31	0.549110	0.033590	0.296590
C3911	C391	0.539390	0.023710	0.273010
N1511	N151	0.531850	0.015590	0.257670
N1521	N152	0.560220	0.969440	0.209640
C3921	C392	0.564240	0.957340	0.186000
H2411	H241	0.543500	0.955900	0.186900
C3931	C393	0.596890	0.946690	0.160130
H2421	H242	0.598300	0.937700	0.144300
C3941	C394	0.627480	0.949220	0.157320
H2431	H243	0.650100	0.942500	0.139500
C3951	C395	0.623510	0.962230	0.181930
C3961	C396	0.589530	0.971150	0.207990
H2441	H244	0.587300	0.978900	0.225300
N1531	N153	0.706630	0.993470	0.260350
C3971	C397	0.705680	0.988120	0.234040
H2451	H245	0.726300	0.987700	0.212700
C3981	C398	0.677470	0.983230	0.235750
C3991	C399	0.646700	0.984000	0.267120
H2461	H246	0.625900	0.981700	0.269100
C4001	C400	0.647410	0.988090	0.294510
H2471	H247	0.627400	0.987600	0.316400
C4011	C401	0.677360	0.992980	0.290720
H2481	H248	0.677100	0.996100	0.310100
C4021	C402	0.677460	0.980120	0.204680
N1541	N154	0.651170	0.971190	0.209270
C4031	C403	0.653310	0.969130	0.179510
N1551	N155	0.679080	0.975740	0.146960
C4041	C404	0.702990	0.985690	0.145130
N1561	N156	0.704060	0.988420	0.173000
C4051	C405	0.730240	0.996440	0.109160
C4061	C406	0.728380	0.996780	0.079340
H2491	H249	0.709600	0.990200	0.082800
N1571	N157	0.751500	0.005880	0.046280
C4071	C407	0.778040	0.015080	0.041660
H2501	H250	0.795100	0.021300	0.018100
C4081	C408	0.781320	0.015780	0.070060
H2511	H251	0.800500	0.022100	0.065900
C4091	C409	0.756520	0.007180	0.104540
H2521	H252	0.757600	0.008600	0.124200
N1581	N158	0.718880	0.966000	0.035700
C4101	C410	0.706960	0.943160	0.054080
S321	S32	0.691150	0.909190	0.080850
N1591	N159	0.795920	0.954220	0.006560
C4111	C411	0.827490	0.952310	0.978730
H2531	H253	0.828000	0.971600	0.956400
C4121	C412	0.859130	0.923410	0.981470
C4131	C413	0.857810	0.895270	0.015270
H2541	H254	0.878900	0.874900	0.018100
C4141	C414	0.826550	0.897490	0.043370
H2551	H255	0.825700	0.879100	0.066500
C4151	C415	0.795650	0.926590	0.038470
H2561	H256	0.773400	0.927200	0.058200
C4161	C416	0.892630	0.922210	0.949550
N1601	N160	0.892200	0.952140	0.920840
S331	S33	0.033590	0.296590	0.549110
C4171	C417	0.023710	0.273010	0.539390
N1611	N161	0.015590	0.257670	0.531850
N1621	N162	0.969440	0.209640	0.560220
C4181	C418	0.957340	0.186000	0.564240
H2571	H257	0.955900	0.186900	0.543500
C4191	C419	0.946690	0.160130	0.596890
H2581	H258	0.937700	0.144300	0.598300
C4201	C420	0.949220	0.157320	0.627480
H2591	H259	0.942500	0.139500	0.650100
C4211	C421	0.962230	0.181930	0.623510
C4221	C422	0.971150	0.207990	0.589530
H2601	H260	0.978900	0.225300	0.587300
N1631	N163	0.993470	0.260350	0.706630
C4231	C423	0.988120	0.234040	0.705680
H2611	H261	0.987700	0.212700	0.726300
C4241	C424	0.983230	0.235750	0.677470
C4251	C425	0.984000	0.267120	0.646700
H2621	H262	0.981700	0.269100	0.625900
C4261	C426	0.988090	0.294510	0.647410
H2631	H263	0.987600	0.316400	0.627400
C4271	C427	0.992980	0.290720	0.677360
H2641	H264	0.996100	0.310100	0.677100
C4281	C428	0.980120	0.204680	0.677460
N1641	N164	0.971190	0.209270	0.651170
C4291	C429	0.969130	0.179510	0.653310
N1651	N165	0.975740	0.146960	0.679080
C4301	C430	0.985690	0.145130	0.702990
N1661	N166	0.988420	0.173000	0.704060
C4311	C431	0.996440	0.109160	0.730240
C4321	C432	0.996780	0.079340	0.728380
H2651	H265	0.990200	0.082800	0.709600
N1671	N167	0.005880	0.046280	0.751500
C4331	C433	0.015080	0.041660	0.778040
H2661	H266	0.021300	0.018100	0.795100
C4341	C434	0.015780	0.070060	0.781320
H2671	H267	0.022100	0.065900	0.800500
C4351	C435	0.007180	0.104540	0.756520
H2681	H268	0.008600	0.124200	0.757600
N1681	N168	0.966000	0.035700	0.718880
C4361	C436	0.943160	0.054080	0.706960
S341	S34	0.909190	0.080850	0.691150
N1691	N169	0.954220	0.006560	0.795920
C4371	C437	0.952310	0.978730	0.827490
H2691	H269	0.971600	0.956400	0.828000
C4381	C438	0.923410	0.981470	0.859130
C4391	C439	0.895270	0.015270	0.857810
H2701	H270	0.874900	0.018100	0.878900
C4401	C440	0.897490	0.043370	0.826550
H2711	H271	0.879100	0.066500	0.825700
C4411	C441	0.926590	0.038470	0.795650
H2721	H272	0.927200	0.058200	0.773400
C4421	C442	0.922210	0.949550	0.892630
N1701	N170	0.952140	0.920840	0.892200
S351	S35	0.549110	0.620710	0.033590
C4431	C443	0.539390	0.663890	0.023710
N1711	N171	0.531850	0.694890	0.015590
N1721	N172	0.560220	0.760700	0.969440
C4441	C444	0.564240	0.792420	0.957340
H2731	H273	0.543500	0.813700	0.955900
C4451	C445	0.596890	0.796290	0.946690
H2741	H274	0.598300	0.819700	0.937700
C4461	C446	0.627480	0.765980	0.949220
H2751	H275	0.650100	0.767900	0.942500
C4471	C447	0.623510	0.732330	0.962230
C4481	C448	0.589530	0.731330	0.971150
H2761	H276	0.587300	0.708500	0.978900
N1731	N173	0.706630	0.539550	0.993470
C4491	C449	0.705680	0.572160	0.988120
H2771	H277	0.726300	0.573300	0.987700
C4501	C450	0.677470	0.603550	0.983230
C4511	C451	0.646700	0.602180	0.984000
H2781	H278	0.625900	0.623300	0.981700
C4521	C452	0.647410	0.569990	0.988090
H2791	H279	0.627400	0.568600	0.987600
C4531	C453	0.677360	0.538940	0.992980
H2801	H280	0.677100	0.516700	0.996100
C4541	C454	0.677460	0.637740	0.980120
N1741	N174	0.651170	0.668370	0.971190
C4551	C455	0.653310	0.698050	0.969130
N1751	N175	0.679080	0.698220	0.975740
C4561	C456	0.702990	0.666190	0.985690
N1761	N176	0.704060	0.634520	0.988420
C4571	C457	0.730240	0.664160	0.996440
C4581	C458	0.728380	0.695500	0.996780
H2811	H281	0.709600	0.717400	0.990200
N1771	N177	0.751500	0.696340	0.005880
C4591	C459	0.778040	0.665220	0.015080
H2821	H282	0.795100	0.665500	0.021300
C4601	C460	0.781320	0.632840	0.015780
H2831	H283	0.800500	0.611500	0.022100
C4611	C461	0.756520	0.631760	0.007180
H2841	H284	0.757600	0.609600	0.008600
N1781	N178	0.718880	0.779420	0.966000
C4621	C462	0.706960	0.795800	0.943160
S361	S36	0.691150	0.818810	0.909190
N1791	N179	0.795920	0.743300	0.954220
C4631	C463	0.827490	0.741470	0.952310
H2851	H285	0.828000	0.744000	0.971600
C4641	C464	0.859130	0.735990	0.923410
C4651	C465	0.857810	0.731650	0.895270
H2861	H286	0.878900	0.728100	0.874900
C4661	C466	0.826550	0.732590	0.897490
H2871	H287	0.825700	0.728700	0.879100
C4671	C467	0.795650	0.739290	0.926590
H2881	H288	0.773400	0.741200	0.927200
C4681	C468	0.892630	0.735610	0.922210
N1801	N180	0.892200	0.734820	0.952140
S371	S37	0.296590	0.033590	0.620710
C4691	C469	0.273010	0.023710	0.663890
N1811	N181	0.257670	0.015590	0.694890
N1821	N182	0.209640	0.969440	0.760700
C4701	C470	0.186000	0.957340	0.792420
H2891	H289	0.186900	0.955900	0.813700
C4711	C471	0.160130	0.946690	0.796290
H2901	H290	0.144300	0.937700	0.819700
C4721	C472	0.157320	0.949220	0.765980
H2911	H291	0.139500	0.942500	0.767900
C4731	C473	0.181930	0.962230	0.732330
C4741	C474	0.207990	0.971150	0.731330
H2921	H292	0.225300	0.978900	0.708500
N1831	N183	0.260350	0.993470	0.539550
C4751	C475	0.234040	0.988120	0.572160
H2931	H293	0.212700	0.987700	0.573300
C4761	C476	0.235750	0.983230	0.603550
C4771	C477	0.267120	0.984000	0.602180
H2941	H294	0.269100	0.981700	0.623300
C4781	C478	0.294510	0.988090	0.569990
H2951	H295	0.316400	0.987600	0.568600
C4791	C479	0.290720	0.992980	0.538940
H2961	H296	0.310100	0.996100	0.516700
C4801	C480	0.204680	0.980120	0.637740
N1841	N184	0.209270	0.971190	0.668370
C4811	C481	0.179510	0.969130	0.698050
N1851	N185	0.146960	0.975740	0.698220
C4821	C482	0.145130	0.985690	0.666190
N1861	N186	0.173000	0.988420	0.634520
C4831	C483	0.109160	0.996440	0.664160
C4841	C484	0.079340	0.996780	0.695500
H2971	H297	0.082800	0.990200	0.717400
N1871	N187	0.046280	0.005880	0.696340
C4851	C485	0.041660	0.015080	0.665220
H2981	H298	0.018100	0.021300	0.665500
C4861	C486	0.070060	0.015780	0.632840
H2991	H299	0.065900	0.022100	0.611500
C4871	C487	0.104540	0.007180	0.631760
H3001	H300	0.124200	0.008600	0.609600
N1881	N188	0.035700	0.966000	0.779420
C4881	C488	0.054080	0.943160	0.795800
S381	S38	0.080850	0.909190	0.818810
N1891	N189	0.006560	0.954220	0.743300
C4891	C489	0.978730	0.952310	0.741470
H3011	H301	0.956400	0.971600	0.744000
C4901	C490	0.981470	0.923410	0.735990
C4911	C491	0.015270	0.895270	0.731650
H3021	H302	0.018100	0.874900	0.728100
C4921	C492	0.043370	0.897490	0.732590
H3031	H303	0.066500	0.879100	0.728700
C4931	C493	0.038470	0.926590	0.739290
H3041	H304	0.058200	0.927200	0.741200
C4941	C494	0.949550	0.922210	0.735610
N1901	N190	0.920840	0.952140	0.734820
S391	S39	0.620710	0.549110	0.296590
C4951	C495	0.663890	0.539390	0.273010
N1911	N191	0.694890	0.531850	0.257670
N1921	N192	0.760700	0.560220	0.209640
C4961	C496	0.792420	0.564240	0.186000
H3051	H305	0.813700	0.543500	0.186900
C4971	C497	0.796290	0.596890	0.160130
H3061	H306	0.819700	0.598300	0.144300
C4981	C498	0.765980	0.627480	0.157320
H3071	H307	0.767900	0.650100	0.139500
C4991	C499	0.732330	0.623510	0.181930
C5001	C500	0.731330	0.589530	0.207990
H3081	H308	0.708500	0.587300	0.225300
N1931	N193	0.539550	0.706630	0.260350
C5011	C501	0.572160	0.705680	0.234040
H3091	H309	0.573300	0.726300	0.212700
C5021	C502	0.603550	0.677470	0.235750
C5031	C503	0.602180	0.646700	0.267120
H3101	H310	0.623300	0.625900	0.269100
C5041	C504	0.569990	0.647410	0.294510
H3111	H311	0.568600	0.627400	0.316400
C5051	C505	0.538940	0.677360	0.290720
H3121	H312	0.516700	0.677100	0.310100
C5061	C506	0.637740	0.677460	0.204680
N1941	N194	0.668370	0.651170	0.209270
C5071	C507	0.698050	0.653310	0.179510
N1951	N195	0.698220	0.679080	0.146960
C5081	C508	0.666190	0.702990	0.145130
N1961	N196	0.634520	0.704060	0.173000
C5091	C509	0.664160	0.730240	0.109160
C5101	C510	0.695500	0.728380	0.079340
H3131	H313	0.717400	0.709600	0.082800
N1971	N197	0.696340	0.751500	0.046280
C5111	C511	0.665220	0.778040	0.041660
H3141	H314	0.665500	0.795100	0.018100
C5121	C512	0.632840	0.781320	0.070060
H3151	H315	0.611500	0.800500	0.065900
C5131	C513	0.631760	0.756520	0.104540
H3161	H316	0.609600	0.757600	0.124200
N1981	N198	0.779420	0.718880	0.035700
C5141	C514	0.795800	0.706960	0.054080
S401	S40	0.818810	0.691150	0.080850
N1991	N199	0.743300	0.795920	0.006560
C5151	C515	0.741470	0.827490	0.978730
H3171	H317	0.744000	0.828000	0.956400
C5161	C516	0.735990	0.859130	0.981470
C5171	C517	0.731650	0.857810	0.015270
H3181	H318	0.728100	0.878900	0.018100
C5181	C518	0.732590	0.826550	0.043370
H3191	H319	0.728700	0.825700	0.066500
C5191	C519	0.739290	0.795650	0.038470
H3201	H320	0.741200	0.773400	0.058200
C5201	C520	0.735610	0.892630	0.949550
N2001	N200	0.734820	0.892200	0.920840
S411	S41	0.620710	0.033590	0.549110
C5211	C521	0.663890	0.023710	0.539390
N2011	N201	0.694890	0.015590	0.531850
N2021	N202	0.760700	0.969440	0.560220
C5221	C522	0.792420	0.957340	0.564240
H3211	H321	0.813700	0.955900	0.543500
C5231	C523	0.796290	0.946690	0.596890
H3221	H322	0.819700	0.937700	0.598300
C5241	C524	0.765980	0.949220	0.627480
H3231	H323	0.767900	0.942500	0.650100
C5251	C525	0.732330	0.962230	0.623510
C5261	C526	0.731330	0.971150	0.589530
H3241	H324	0.708500	0.978900	0.587300
N2031	N203	0.539550	0.993470	0.706630
C5271	C527	0.572160	0.988120	0.705680
H3251	H325	0.573300	0.987700	0.726300
C5281	C528	0.603550	0.983230	0.677470
C5291	C529	0.602180	0.984000	0.646700
H3261	H326	0.623300	0.981700	0.625900
C5301	C530	0.569990	0.988090	0.647410
H3271	H327	0.568600	0.987600	0.627400
C5311	C531	0.538940	0.992980	0.677360
H3281	H328	0.516700	0.996100	0.677100
C5321	C532	0.637740	0.980120	0.677460
N2041	N204	0.668370	0.971190	0.651170
C5331	C533	0.698050	0.969130	0.653310
N2051	N205	0.698220	0.975740	0.679080
C5341	C534	0.666190	0.985690	0.702990
N2061	N206	0.634520	0.988420	0.704060
C5351	C535	0.664160	0.996440	0.730240
C5361	C536	0.695500	0.996780	0.728380
H3291	H329	0.717400	0.990200	0.709600
N2071	N207	0.696340	0.005880	0.751500
C5371	C537	0.665220	0.015080	0.778040
H3301	H330	0.665500	0.021300	0.795100
C5381	C538	0.632840	0.015780	0.781320
H3311	H331	0.611500	0.022100	0.800500
C5391	C539	0.631760	0.007180	0.756520
H3321	H332	0.609600	0.008600	0.757600
N2081	N208	0.779420	0.966000	0.718880
C5401	C540	0.795800	0.943160	0.706960
S421	S42	0.818810	0.909190	0.691150
N2091	N209	0.743300	0.954220	0.795920
C5411	C541	0.741470	0.952310	0.827490
H3331	H333	0.744000	0.971600	0.828000
C5421	C542	0.735990	0.923410	0.859130
C5431	C543	0.731650	0.895270	0.857810
H3341	H334	0.728100	0.874900	0.878900
C5441	C544	0.732590	0.897490	0.826550
H3351	H335	0.728700	0.879100	0.825700
C5451	C545	0.739290	0.926590	0.795650
H3361	H336	0.741200	0.927200	0.773400
C5461	C546	0.735610	0.922210	0.892630
N2101	N210	0.734820	0.952140	0.892200
S431	S43	0.296590	0.549110	0.033590
C5471	C547	0.273010	0.539390	0.023710
N2111	N211	0.257670	0.531850	0.015590
N2121	N212	0.209640	0.560220	0.969440
C5481	C548	0.186000	0.564240	0.957340
H3371	H337	0.186900	0.543500	0.955900
C5491	C549	0.160130	0.596890	0.946690
H3381	H338	0.144300	0.598300	0.937700
C5501	C550	0.157320	0.627480	0.949220
H3391	H339	0.139500	0.650100	0.942500
C5511	C551	0.181930	0.623510	0.962230
C5521	C552	0.207990	0.589530	0.971150
H3401	H340	0.225300	0.587300	0.978900
N2131	N213	0.260350	0.706630	0.993470
C5531	C553	0.234040	0.705680	0.988120
H3411	H341	0.212700	0.726300	0.987700
C5541	C554	0.235750	0.677470	0.983230
C5551	C555	0.267120	0.646700	0.984000
H3421	H342	0.269100	0.625900	0.981700
C5561	C556	0.294510	0.647410	0.988090
H3431	H343	0.316400	0.627400	0.987600
C5571	C557	0.290720	0.677360	0.992980
H3441	H344	0.310100	0.677100	0.996100
C5581	C558	0.204680	0.677460	0.980120
N2141	N214	0.209270	0.651170	0.971190
C5591	C559	0.179510	0.653310	0.969130
N2151	N215	0.146960	0.679080	0.975740
C5601	C560	0.145130	0.702990	0.985690
N2161	N216	0.173000	0.704060	0.988420
C5611	C561	0.109160	0.730240	0.996440
C5621	C562	0.079340	0.728380	0.996780
H3451	H345	0.082800	0.709600	0.990200
N2171	N217	0.046280	0.751500	0.005880
C5631	C563	0.041660	0.778040	0.015080
H3461	H346	0.018100	0.795100	0.021300
C5641	C564	0.070060	0.781320	0.015780
H3471	H347	0.065900	0.800500	0.022100
C5651	C565	0.104540	0.756520	0.007180
H3481	H348	0.124200	0.757600	0.008600
N2181	N218	0.035700	0.718880	0.966000
C5661	C566	0.054080	0.706960	0.943160
S441	S44	0.080850	0.691150	0.909190
N2191	N219	0.006560	0.795920	0.954220
C5671	C567	0.978730	0.827490	0.952310
H3491	H349	0.956400	0.828000	0.971600
C5681	C568	0.981470	0.859130	0.923410
C5691	C569	0.015270	0.857810	0.895270
H3501	H350	0.018100	0.878900	0.874900
C5701	C570	0.043370	0.826550	0.897490
H3511	H351	0.066500	0.825700	0.879100
C5711	C571	0.038470	0.795650	0.926590
H3521	H352	0.058200	0.773400	0.927200
C5721	C572	0.949550	0.892630	0.922210
N2201	N220	0.920840	0.892200	0.952140
S451	S45	0.549110	0.296590	0.620710
C5731	C573	0.539390	0.273010	0.663890
N2211	N221	0.531850	0.257670	0.694890
N2221	N222	0.560220	0.209640	0.760700
C5741	C574	0.564240	0.186000	0.792420
H3531	H353	0.543500	0.186900	0.813700
C5751	C575	0.596890	0.160130	0.796290
H3541	H354	0.598300	0.144300	0.819700
C5761	C576	0.627480	0.157320	0.765980
H3551	H355	0.650100	0.139500	0.767900
C5771	C577	0.623510	0.181930	0.732330
C5781	C578	0.589530	0.207990	0.731330
H3561	H356	0.587300	0.225300	0.708500
N2231	N223	0.706630	0.260350	0.539550
C5791	C579	0.705680	0.234040	0.572160
H3571	H357	0.726300	0.212700	0.573300
C5801	C580	0.677470	0.235750	0.603550
C5811	C581	0.646700	0.267120	0.602180
H3581	H358	0.625900	0.269100	0.623300
C5821	C582	0.647410	0.294510	0.569990
H3591	H359	0.627400	0.316400	0.568600
C5831	C583	0.677360	0.290720	0.538940
H3601	H360	0.677100	0.310100	0.516700
C5841	C584	0.677460	0.204680	0.637740
N2241	N224	0.651170	0.209270	0.668370
C5851	C585	0.653310	0.179510	0.698050
N2251	N225	0.679080	0.146960	0.698220
C5861	C586	0.702990	0.145130	0.666190
N2261	N226	0.704060	0.173000	0.634520
C5871	C587	0.730240	0.109160	0.664160
C5881	C588	0.728380	0.079340	0.695500
H3611	H361	0.709600	0.082800	0.717400
N2271	N227	0.751500	0.046280	0.696340
C5891	C589	0.778040	0.041660	0.665220
H3621	H362	0.795100	0.018100	0.665500
C5901	C590	0.781320	0.070060	0.632840
H3631	H363	0.800500	0.065900	0.611500
C5911	C591	0.756520	0.104540	0.631760
H3641	H364	0.757600	0.124200	0.609600
N2281	N228	0.718880	0.035700	0.779420
C5921	C592	0.706960	0.054080	0.795800
S461	S46	0.691150	0.080850	0.818810
N2291	N229	0.795920	0.006560	0.743300
C5931	C593	0.827490	0.978730	0.741470
H3651	H365	0.828000	0.956400	0.744000
C5941	C594	0.859130	0.981470	0.735990
C5951	C595	0.857810	0.015270	0.731650
H3661	H366	0.878900	0.018100	0.728100
C5961	C596	0.826550	0.043370	0.732590
H3671	H367	0.825700	0.066500	0.728700
C5971	C597	0.795650	0.038470	0.739290
H3681	H368	0.773400	0.058200	0.741200
C5981	C598	0.892630	0.949550	0.735610
N2301	N230	0.892200	0.920840	0.734820
S471	S47	0.033590	0.620710	0.296590
C5991	C599	0.023710	0.663890	0.273010
N2311	N231	0.015590	0.694890	0.257670
N2321	N232	0.969440	0.760700	0.209640
C6001	C600	0.957340	0.792420	0.186000
H3691	H369	0.955900	0.813700	0.186900
C6011	C601	0.946690	0.796290	0.160130
H3701	H370	0.937700	0.819700	0.144300
C6021	C602	0.949220	0.765980	0.157320
H3711	H371	0.942500	0.767900	0.139500
C6031	C603	0.962230	0.732330	0.181930
C6041	C604	0.971150	0.731330	0.207990
H3721	H372	0.978900	0.708500	0.225300
N2331	N233	0.993470	0.539550	0.260350
C6051	C605	0.988120	0.572160	0.234040
H3731	H373	0.987700	0.573300	0.212700
C6061	C606	0.983230	0.603550	0.235750
C6071	C607	0.984000	0.602180	0.267120
H3741	H374	0.981700	0.623300	0.269100
C6081	C608	0.988090	0.569990	0.294510
H3751	H375	0.987600	0.568600	0.316400
C6091	C609	0.992980	0.538940	0.290720
H3761	H376	0.996100	0.516700	0.310100
C6101	C610	0.980120	0.637740	0.204680
N2341	N234	0.971190	0.668370	0.209270
C6111	C611	0.969130	0.698050	0.179510
N2351	N235	0.975740	0.698220	0.146960
C6121	C612	0.985690	0.666190	0.145130
N2361	N236	0.988420	0.634520	0.173000
C6131	C613	0.996440	0.664160	0.109160
C6141	C614	0.996780	0.695500	0.079340
H3771	H377	0.990200	0.717400	0.082800
N2371	N237	0.005880	0.696340	0.046280
C6151	C615	0.015080	0.665220	0.041660
H3781	H378	0.021300	0.665500	0.018100
C6161	C616	0.015780	0.632840	0.070060
H3791	H379	0.022100	0.611500	0.065900
C6171	C617	0.007180	0.631760	0.104540
H3801	H380	0.008600	0.609600	0.124200
N2381	N238	0.966000	0.779420	0.035700
C6181	C618	0.943160	0.795800	0.054080
S481	S48	0.909190	0.818810	0.080850
N2391	N239	0.954220	0.743300	0.006560
C6191	C619	0.952310	0.741470	0.978730
H3811	H381	0.971600	0.744000	0.956400
C6201	C620	0.923410	0.735990	0.981470
C6211	C621	0.895270	0.731650	0.015270
H3821	H382	0.874900	0.728100	0.018100
C6221	C622	0.897490	0.732590	0.043370
H3831	H383	0.879100	0.728700	0.066500
C6231	C623	0.926590	0.739290	0.038470
H3841	H384	0.927200	0.741200	0.058200
C6241	C624	0.922210	0.735610	0.949550
N2401	N240	0.952140	0.734820	0.920840
S491	S49	0.796590	0.120710	0.533590
C6251	C625	0.773010	0.163890	0.523710
N2411	N241	0.757670	0.194890	0.515590
N2421	N242	0.709640	0.260700	0.469440
C6261	C626	0.686000	0.292420	0.457340
H3851	H385	0.686900	0.313700	0.455900
C6271	C627	0.660130	0.296290	0.446690
H3861	H386	0.644300	0.319700	0.437700
C6281	C628	0.657320	0.265980	0.449220
H3871	H387	0.639500	0.267900	0.442500
C6291	C629	0.681930	0.232330	0.462230
C6301	C630	0.707990	0.231330	0.471150
H3881	H388	0.725300	0.208500	0.478900
N2431	N243	0.760350	0.039550	0.493470
C6311	C631	0.734040	0.072160	0.488120
H3891	H389	0.712700	0.073300	0.487700
C6321	C632	0.735750	0.103550	0.483230
C6331	C633	0.767120	0.102180	0.484000
H3901	H390	0.769100	0.123300	0.481700
C6341	C634	0.794510	0.069990	0.488090
H3911	H391	0.816400	0.068600	0.487600
C6351	C635	0.790720	0.038940	0.492980
H3921	H392	0.810100	0.016700	0.496100
C6361	C636	0.704680	0.137740	0.480120
N2441	N244	0.709270	0.168370	0.471190
C6371	C637	0.679510	0.198050	0.469130
N2451	N245	0.646960	0.198220	0.475740
C6381	C638	0.645130	0.166190	0.485690
N2461	N246	0.673000	0.134520	0.488420
C6391	C639	0.609160	0.164160	0.496440
C6401	C640	0.579340	0.195500	0.496780
H3931	H393	0.582800	0.217400	0.490200
N2471	N247	0.546280	0.196340	0.505880
C6411	C641	0.541660	0.165220	0.515080
H3941	H394	0.518100	0.165500	0.521300
C6421	C642	0.570060	0.132840	0.515780
H3951	H395	0.565900	0.111500	0.522100
C6431	C643	0.604540	0.131760	0.507180
H3961	H396	0.624200	0.109600	0.508600
N2481	N248	0.535700	0.279420	0.466000
C6441	C644	0.554080	0.295800	0.443160
S501	S50	0.580850	0.318810	0.409190
N2491	N249	0.506560	0.243300	0.454220
C6451	C645	0.478730	0.241470	0.452310
H3971	H397	0.456400	0.244000	0.471600
C6461	C646	0.481470	0.235990	0.423410
C6471	C647	0.515270	0.231650	0.395270
H3981	H398	0.518100	0.228100	0.374900
C6481	C648	0.543370	0.232590	0.397490
H3991	H399	0.566500	0.228700	0.379100
C6491	C649	0.538470	0.239290	0.426590
H4001	H400	0.558200	0.241200	0.427200
C6501	C650	0.449550	0.235610	0.422210
N2501	N250	0.420840	0.234820	0.452140
S511	S51	0.120710	0.796590	0.049110
C6511	C651	0.163890	0.773010	0.039390
N2511	N251	0.194890	0.757670	0.031850
N2521	N252	0.260700	0.709640	0.060220
C6521	C652	0.292420	0.686000	0.064240
H4011	H401	0.313700	0.686900	0.043500
C6531	C653	0.296290	0.660130	0.096890
H4021	H402	0.319700	0.644300	0.098300
C6541	C654	0.265980	0.657320	0.127480
H4031	H403	0.267900	0.639500	0.150100
C6551	C655	0.232330	0.681930	0.123510
C6561	C656	0.231330	0.707990	0.089530
H4041	H404	0.208500	0.725300	0.087300
N2531	N253	0.039550	0.760350	0.206630
C6571	C657	0.072160	0.734040	0.205680
H4051	H405	0.073300	0.712700	0.226300
C6581	C658	0.103550	0.735750	0.177470
C6591	C659	0.102180	0.767120	0.146700
H4061	H406	0.123300	0.769100	0.125900
C6601	C660	0.069990	0.794510	0.147410
H4071	H407	0.068600	0.816400	0.127400
C6611	C661	0.038940	0.790720	0.177360
H4081	H408	0.016700	0.810100	0.177100
C6621	C662	0.137740	0.704680	0.177460
N2541	N254	0.168370	0.709270	0.151170
C6631	C663	0.198050	0.679510	0.153310
N2551	N255	0.198220	0.646960	0.179080
C6641	C664	0.166190	0.645130	0.202990
N2561	N256	0.134520	0.673000	0.204060
C6651	C665	0.164160	0.609160	0.230240
C6661	C666	0.195500	0.579340	0.228380
H4091	H409	0.217400	0.582800	0.209600
N2571	N257	0.196340	0.546280	0.251500
C6671	C667	0.165220	0.541660	0.278040
H4101	H410	0.165500	0.518100	0.295100
C6681	C668	0.132840	0.570060	0.281320
H4111	H411	0.111500	0.565900	0.300500
C6691	C669	0.131760	0.604540	0.256520
H4121	H412	0.109600	0.624200	0.257600
N2581	N258	0.279420	0.535700	0.218880
C6701	C670	0.295800	0.554080	0.206960
S521	S52	0.318810	0.580850	0.191150
N2591	N259	0.243300	0.506560	0.295920
C6711	C671	0.241470	0.478730	0.327490
H4131	H413	0.244000	0.456400	0.328000
C6721	C672	0.235990	0.481470	0.359130
C6731	C673	0.231650	0.515270	0.357810
H4141	H414	0.228100	0.518100	0.378900
C6741	C674	0.232590	0.543370	0.326550
H4151	H415	0.228700	0.566500	0.325700
C6751	C675	0.239290	0.538470	0.295650
H4161	H416	0.241200	0.558200	0.273400
C6761	C676	0.235610	0.449550	0.392630
N2601	N260	0.234820	0.420840	0.392200
S531	S53	0.533590	0.049110	0.796590
C6771	C677	0.523710	0.039390	0.773010
N2611	N261	0.515590	0.031850	0.757670
N2621	N262	0.469440	0.060220	0.709640
C6781	C678	0.457340	0.064240	0.686000
H4171	H417	0.455900	0.043500	0.686900
C6791	C679	0.446690	0.096890	0.660130
H4181	H418	0.437700	0.098300	0.644300
C6801	C680	0.449220	0.127480	0.657320
H4191	H419	0.442500	0.150100	0.639500
C6811	C681	0.462230	0.123510	0.681930
C6821	C682	0.471150	0.089530	0.707990
H4201	H420	0.478900	0.087300	0.725300
N2631	N263	0.493470	0.206630	0.760350
C6831	C683	0.488120	0.205680	0.734040
H4211	H421	0.487700	0.226300	0.712700
C6841	C684	0.483230	0.177470	0.735750
C6851	C685	0.484000	0.146700	0.767120
H4221	H422	0.481700	0.125900	0.769100
C6861	C686	0.488090	0.147410	0.794510
H4231	H423	0.487600	0.127400	0.816400
C6871	C687	0.492980	0.177360	0.790720
H4241	H424	0.496100	0.177100	0.810100
C6881	C688	0.480120	0.177460	0.704680
N2641	N264	0.471190	0.151170	0.709270
C6891	C689	0.469130	0.153310	0.679510
N2651	N265	0.475740	0.179080	0.646960
C6901	C690	0.485690	0.202990	0.645130
N2661	N266	0.488420	0.204060	0.673000
C6911	C691	0.496440	0.230240	0.609160
C6921	C692	0.496780	0.228380	0.579340
H4251	H425	0.490200	0.209600	0.582800
N2671	N267	0.505880	0.251500	0.546280
C6931	C693	0.515080	0.278040	0.541660
H4261	H426	0.521300	0.295100	0.518100
C6941	C694	0.515780	0.281320	0.570060
H4271	H427	0.522100	0.300500	0.565900
C6951	C695	0.507180	0.256520	0.604540
H4281	H428	0.508600	0.257600	0.624200
N2681	N268	0.466000	0.218880	0.535700
C6961	C696	0.443160	0.206960	0.554080
S541	S54	0.409190	0.191150	0.580850
N2691	N269	0.454220	0.295920	0.506560
C6971	C697	0.452310	0.327490	0.478730
H4291	H429	0.471600	0.328000	0.456400
C6981	C698	0.423410	0.359130	0.481470
C6991	C699	0.395270	0.357810	0.515270
H4301	H430	0.374900	0.378900	0.518100
C7001	C700	0.397490	0.326550	0.543370
H4311	H431	0.379100	0.325700	0.566500
C7011	C701	0.426590	0.295650	0.538470
H4321	H432	0.427200	0.273400	0.558200
C7021	C702	0.422210	0.392630	0.449550
N2701	N270	0.452140	0.392200	0.420840
S551	S55	0.049110	0.533590	0.120710
C7031	C703	0.039390	0.523710	0.163890
N2711	N271	0.031850	0.515590	0.194890
N2721	N272	0.060220	0.469440	0.260700
C7041	C704	0.064240	0.457340	0.292420
H4331	H433	0.043500	0.455900	0.313700
C7051	C705	0.096890	0.446690	0.296290
H4341	H434	0.098300	0.437700	0.319700
C7061	C706	0.127480	0.449220	0.265980
H4351	H435	0.150100	0.442500	0.267900
C7071	C707	0.123510	0.462230	0.232330
C7081	C708	0.089530	0.471150	0.231330
H4361	H436	0.087300	0.478900	0.208500
N2731	N273	0.206630	0.493470	0.039550
C7091	C709	0.205680	0.488120	0.072160
H4371	H437	0.226300	0.487700	0.073300
C7101	C710	0.177470	0.483230	0.103550
C7111	C711	0.146700	0.484000	0.102180
H4381	H438	0.125900	0.481700	0.123300
C7121	C712	0.147410	0.488090	0.069990
H4391	H439	0.127400	0.487600	0.068600
C7131	C713	0.177360	0.492980	0.038940
H4401	H440	0.177100	0.496100	0.016700
C7141	C714	0.177460	0.480120	0.137740
N2741	N274	0.151170	0.471190	0.168370
C7151	C715	0.153310	0.469130	0.198050
N2751	N275	0.179080	0.475740	0.198220
C7161	C716	0.202990	0.485690	0.166190
N2761	N276	0.204060	0.488420	0.134520
C7171	C717	0.230240	0.496440	0.164160
C7181	C718	0.228380	0.496780	0.195500
H4411	H441	0.209600	0.490200	0.217400
N2771	N277	0.251500	0.505880	0.196340
C7191	C719	0.278040	0.515080	0.165220
H4421	H442	0.295100	0.521300	0.165500
C7201	C720	0.281320	0.515780	0.132840
H4431	H443	0.300500	0.522100	0.111500
C7211	C721	0.256520	0.507180	0.131760
H4441	H444	0.257600	0.508600	0.109600
N2781	N278	0.218880	0.466000	0.279420
C7221	C722	0.206960	0.443160	0.295800
S561	S56	0.191150	0.409190	0.318810
N2791	N279	0.295920	0.454220	0.243300
C7231	C723	0.327490	0.452310	0.241470
H4451	H445	0.328000	0.471600	0.244000
C7241	C724	0.359130	0.423410	0.235990
C7251	C725	0.357810	0.395270	0.231650
H4461	H446	0.378900	0.374900	0.228100
C7261	C726	0.326550	0.397490	0.232590
H4471	H447	0.325700	0.379100	0.228700
C7271	C727	0.295650	0.426590	0.239290
H4481	H448	0.273400	0.427200	0.241200
C7281	C728	0.392630	0.422210	0.235610
N2801	N280	0.392200	0.452140	0.234820
S571	S57	0.533590	0.796590	0.120710
C7291	C729	0.523710	0.773010	0.163890
N2811	N281	0.515590	0.757670	0.194890
N2821	N282	0.469440	0.709640	0.260700
C7301	C730	0.457340	0.686000	0.292420
H4491	H449	0.455900	0.686900	0.313700
C7311	C731	0.446690	0.660130	0.296290
H4501	H450	0.437700	0.644300	0.319700
C7321	C732	0.449220	0.657320	0.265980
H4511	H451	0.442500	0.639500	0.267900
C7331	C733	0.462230	0.681930	0.232330
C7341	C734	0.471150	0.707990	0.231330
H4521	H452	0.478900	0.725300	0.208500
N2831	N283	0.493470	0.760350	0.039550
C7351	C735	0.488120	0.734040	0.072160
H4531	H453	0.487700	0.712700	0.073300
C7361	C736	0.483230	0.735750	0.103550
C7371	C737	0.484000	0.767120	0.102180
H4541	H454	0.481700	0.769100	0.123300
C7381	C738	0.488090	0.794510	0.069990
H4551	H455	0.487600	0.816400	0.068600
C7391	C739	0.492980	0.790720	0.038940
H4561	H456	0.496100	0.810100	0.016700
C7401	C740	0.480120	0.704680	0.137740
N2841	N284	0.471190	0.709270	0.168370
C7411	C741	0.469130	0.679510	0.198050
N2851	N285	0.475740	0.646960	0.198220
C7421	C742	0.485690	0.645130	0.166190
N2861	N286	0.488420	0.673000	0.134520
C7431	C743	0.496440	0.609160	0.164160
C7441	C744	0.496780	0.579340	0.195500
H4571	H457	0.490200	0.582800	0.217400
N2871	N287	0.505880	0.546280	0.196340
C7451	C745	0.515080	0.541660	0.165220
H4581	H458	0.521300	0.518100	0.165500
C7461	C746	0.515780	0.570060	0.132840
H4591	H459	0.522100	0.565900	0.111500
C7471	C747	0.507180	0.604540	0.131760
H4601	H460	0.508600	0.624200	0.109600
N2881	N288	0.466000	0.535700	0.279420
C7481	C748	0.443160	0.554080	0.295800
S581	S58	0.409190	0.580850	0.318810
N2891	N289	0.454220	0.506560	0.243300
C7491	C749	0.452310	0.478730	0.241470
H4611	H461	0.471600	0.456400	0.244000
C7501	C750	0.423410	0.481470	0.235990
C7511	C751	0.395270	0.515270	0.231650
H4621	H462	0.374900	0.518100	0.228100
C7521	C752	0.397490	0.543370	0.232590
H4631	H463	0.379100	0.566500	0.228700
C7531	C753	0.426590	0.538470	0.239290
H4641	H464	0.427200	0.558200	0.241200
C7541	C754	0.422210	0.449550	0.235610
N2901	N290	0.452140	0.420840	0.234820
S591	S59	0.049110	0.120710	0.796590
C7551	C755	0.039390	0.163890	0.773010
N2911	N291	0.031850	0.194890	0.757670
N2921	N292	0.060220	0.260700	0.709640
C7561	C756	0.064240	0.292420	0.686000
H4651	H465	0.043500	0.313700	0.686900
C7571	C757	0.096890	0.296290	0.660130
H4661	H466	0.098300	0.319700	0.644300
C7581	C758	0.127480	0.265980	0.657320
H4671	H467	0.150100	0.267900	0.639500
C7591	C759	0.123510	0.232330	0.681930
C7601	C760	0.089530	0.231330	0.707990
H4681	H468	0.087300	0.208500	0.725300
N2931	N293	0.206630	0.039550	0.760350
C7611	C761	0.205680	0.072160	0.734040
H4691	H469	0.226300	0.073300	0.712700
C7621	C762	0.177470	0.103550	0.735750
C7631	C763	0.146700	0.102180	0.767120
H4701	H470	0.125900	0.123300	0.769100
C7641	C764	0.147410	0.069990	0.794510
H4711	H471	0.127400	0.068600	0.816400
C7651	C765	0.177360	0.038940	0.790720
H4721	H472	0.177100	0.016700	0.810100
C7661	C766	0.177460	0.137740	0.704680
N2941	N294	0.151170	0.168370	0.709270
C7671	C767	0.153310	0.198050	0.679510
N2951	N295	0.179080	0.198220	0.646960
C7681	C768	0.202990	0.166190	0.645130
N2961	N296	0.204060	0.134520	0.673000
C7691	C769	0.230240	0.164160	0.609160
C7701	C770	0.228380	0.195500	0.579340
H4731	H473	0.209600	0.217400	0.582800
N2971	N297	0.251500	0.196340	0.546280
C7711	C771	0.278040	0.165220	0.541660
H4741	H474	0.295100	0.165500	0.518100
C7721	C772	0.281320	0.132840	0.570060
H4751	H475	0.300500	0.111500	0.565900
C7731	C773	0.256520	0.131760	0.604540
H4761	H476	0.257600	0.109600	0.624200
N2981	N298	0.218880	0.279420	0.535700
C7741	C774	0.206960	0.295800	0.554080
S601	S60	0.191150	0.318810	0.580850
N2991	N299	0.295920	0.243300	0.506560
C7751	C775	0.327490	0.241470	0.478730
H4771	H477	0.328000	0.244000	0.456400
C7761	C776	0.359130	0.235990	0.481470
C7771	C777	0.357810	0.231650	0.515270
H4781	H478	0.378900	0.228100	0.518100
C7781	C778	0.326550	0.232590	0.543370
H4791	H479	0.325700	0.228700	0.566500
C7791	C779	0.295650	0.239290	0.538470
H4801	H480	0.273400	0.241200	0.558200
C7801	C780	0.392630	0.235610	0.449550
N3001	N300	0.392200	0.234820	0.420840
S611	S61	0.796590	0.533590	0.049110
C7811	C781	0.773010	0.523710	0.039390
N3011	N301	0.757670	0.515590	0.031850
N3021	N302	0.709640	0.469440	0.060220
C7821	C782	0.686000	0.457340	0.064240
H4811	H481	0.686900	0.455900	0.043500
C7831	C783	0.660130	0.446690	0.096890
H4821	H482	0.644300	0.437700	0.098300
C7841	C784	0.657320	0.449220	0.127480
H4831	H483	0.639500	0.442500	0.150100
C7851	C785	0.681930	0.462230	0.123510
C7861	C786	0.707990	0.471150	0.089530
H4841	H484	0.725300	0.478900	0.087300
N3031	N303	0.760350	0.493470	0.206630
C7871	C787	0.734040	0.488120	0.205680
H4851	H485	0.712700	0.487700	0.226300
C7881	C788	0.735750	0.483230	0.177470
C7891	C789	0.767120	0.484000	0.146700
H4861	H486	0.769100	0.481700	0.125900
C7901	C790	0.794510	0.488090	0.147410
H4871	H487	0.816400	0.487600	0.127400
C7911	C791	0.790720	0.492980	0.177360
H4881	H488	0.810100	0.496100	0.177100
C7921	C792	0.704680	0.480120	0.177460
N3041	N304	0.709270	0.471190	0.151170
C7931	C793	0.679510	0.469130	0.153310
N3051	N305	0.646960	0.475740	0.179080
C7941	C794	0.645130	0.485690	0.202990
N3061	N306	0.673000	0.488420	0.204060
C7951	C795	0.609160	0.496440	0.230240
C7961	C796	0.579340	0.496780	0.228380
H4891	H489	0.582800	0.490200	0.209600
N3071	N307	0.546280	0.505880	0.251500
C7971	C797	0.541660	0.515080	0.278040
H4901	H490	0.518100	0.521300	0.295100
C7981	C798	0.570060	0.515780	0.281320
H4911	H491	0.565900	0.522100	0.300500
C7991	C799	0.604540	0.507180	0.256520
H4921	H492	0.624200	0.508600	0.257600
N3081	N308	0.535700	0.466000	0.218880
C8001	C800	0.554080	0.443160	0.206960
S621	S62	0.580850	0.409190	0.191150
N3091	N309	0.506560	0.454220	0.295920
C8011	C801	0.478730	0.452310	0.327490
H4931	H493	0.456400	0.471600	0.328000
C8021	C802	0.481470	0.423410	0.359130
C8031	C803	0.515270	0.395270	0.357810
H4941	H494	0.518100	0.374900	0.378900
C8041	C804	0.543370	0.397490	0.326550
H4951	H495	0.566500	0.379100	0.325700
C8051	C805	0.538470	0.426590	0.295650
H4961	H496	0.558200	0.427200	0.273400
C8061	C806	0.449550	0.422210	0.392630
N3101	N310	0.420840	0.452140	0.392200
S631	S63	0.120710	0.049110	0.533590
C8071	C807	0.163890	0.039390	0.523710
N3111	N311	0.194890	0.031850	0.515590
N3121	N312	0.260700	0.060220	0.469440
C8081	C808	0.292420	0.064240	0.457340
H4971	H497	0.313700	0.043500	0.455900
C8091	C809	0.296290	0.096890	0.446690
H4981	H498	0.319700	0.098300	0.437700
C8101	C810	0.265980	0.127480	0.449220
H4991	H499	0.267900	0.150100	0.442500
C8111	C811	0.232330	0.123510	0.462230
C8121	C812	0.231330	0.089530	0.471150
H5001	H500	0.208500	0.087300	0.478900
N3131	N313	0.039550	0.206630	0.493470
C8131	C813	0.072160	0.205680	0.488120
H5011	H501	0.073300	0.226300	0.487700
C8141	C814	0.103550	0.177470	0.483230
C8151	C815	0.102180	0.146700	0.484000
H5021	H502	0.123300	0.125900	0.481700
C8161	C816	0.069990	0.147410	0.488090
H5031	H503	0.068600	0.127400	0.487600
C8171	C817	0.038940	0.177360	0.492980
H5041	H504	0.016700	0.177100	0.496100
C8181	C818	0.137740	0.177460	0.480120
N3141	N314	0.168370	0.151170	0.471190
C8191	C819	0.198050	0.153310	0.469130
N3151	N315	0.198220	0.179080	0.475740
C8201	C820	0.166190	0.202990	0.485690
N3161	N316	0.134520	0.204060	0.488420
C8211	C821	0.164160	0.230240	0.496440
C8221	C822	0.195500	0.228380	0.496780
H5051	H505	0.217400	0.209600	0.490200
N3171	N317	0.196340	0.251500	0.505880
C8231	C823	0.165220	0.278040	0.515080
H5061	H506	0.165500	0.295100	0.521300
C8241	C824	0.132840	0.281320	0.515780
H5071	H507	0.111500	0.300500	0.522100
C8251	C825	0.131760	0.256520	0.507180
H5081	H508	0.109600	0.257600	0.508600
N3181	N318	0.279420	0.218880	0.466000
C8261	C826	0.295800	0.206960	0.443160
S641	S64	0.318810	0.191150	0.409190
N3191	N319	0.243300	0.295920	0.454220
C8271	C827	0.241470	0.327490	0.452310
H5091	H509	0.244000	0.328000	0.471600
C8281	C828	0.235990	0.359130	0.423410
C8291	C829	0.231650	0.357810	0.395270
H5101	H510	0.228100	0.378900	0.374900
C8301	C830	0.232590	0.326550	0.397490
H5111	H511	0.228700	0.325700	0.379100
C8311	C831	0.239290	0.295650	0.426590
H5121	H512	0.241200	0.273400	0.427200
C8321	C832	0.235610	0.392630	0.422210
N3201	N320	0.234820	0.392200	0.452140
S651	S65	0.120710	0.533590	0.796590
C8331	C833	0.163890	0.523710	0.773010
N3211	N321	0.194890	0.515590	0.757670
N3221	N322	0.260700	0.469440	0.709640
C8341	C834	0.292420	0.457340	0.686000
H5131	H513	0.313700	0.455900	0.686900
C8351	C835	0.296290	0.446690	0.660130
H5141	H514	0.319700	0.437700	0.644300
C8361	C836	0.265980	0.449220	0.657320
H5151	H515	0.267900	0.442500	0.639500
C8371	C837	0.232330	0.462230	0.681930
C8381	C838	0.231330	0.471150	0.707990
H5161	H516	0.208500	0.478900	0.725300
N3231	N323	0.039550	0.493470	0.760350
C8391	C839	0.072160	0.488120	0.734040
H5171	H517	0.073300	0.487700	0.712700
C8401	C840	0.103550	0.483230	0.735750
C8411	C841	0.102180	0.484000	0.767120
H5181	H518	0.123300	0.481700	0.769100
C8421	C842	0.069990	0.488090	0.794510
H5191	H519	0.068600	0.487600	0.816400
C8431	C843	0.038940	0.492980	0.790720
H5201	H520	0.016700	0.496100	0.810100
C8441	C844	0.137740	0.480120	0.704680
N3241	N324	0.168370	0.471190	0.709270
C8451	C845	0.198050	0.469130	0.679510
N3251	N325	0.198220	0.475740	0.646960
C8461	C846	0.166190	0.485690	0.645130
N3261	N326	0.134520	0.488420	0.673000
C8471	C847	0.164160	0.496440	0.609160
C8481	C848	0.195500	0.496780	0.579340
H5211	H521	0.217400	0.490200	0.582800
N3271	N327	0.196340	0.505880	0.546280
C8491	C849	0.165220	0.515080	0.541660
H5221	H522	0.165500	0.521300	0.518100
C8501	C850	0.132840	0.515780	0.570060
H5231	H523	0.111500	0.522100	0.565900
C8511	C851	0.131760	0.507180	0.604540
H5241	H524	0.109600	0.508600	0.624200
N3281	N328	0.279420	0.466000	0.535700
C8521	C852	0.295800	0.443160	0.554080
S661	S66	0.318810	0.409190	0.580850
N3291	N329	0.243300	0.454220	0.506560
C8531	C853	0.241470	0.452310	0.478730
H5251	H525	0.244000	0.471600	0.456400
C8541	C854	0.235990	0.423410	0.481470
C8551	C855	0.231650	0.395270	0.515270
H5261	H526	0.228100	0.374900	0.518100
C8561	C856	0.232590	0.397490	0.543370
H5271	H527	0.228700	0.379100	0.566500
C8571	C857	0.239290	0.426590	0.538470
H5281	H528	0.241200	0.427200	0.558200
C8581	C858	0.235610	0.422210	0.449550
N3301	N330	0.234820	0.452140	0.420840
S671	S67	0.796590	0.049110	0.120710
C8591	C859	0.773010	0.039390	0.163890
N3311	N331	0.757670	0.031850	0.194890
N3321	N332	0.709640	0.060220	0.260700
C8601	C860	0.686000	0.064240	0.292420
H5291	H529	0.686900	0.043500	0.313700
C8611	C861	0.660130	0.096890	0.296290
H5301	H530	0.644300	0.098300	0.319700
C8621	C862	0.657320	0.127480	0.265980
H5311	H531	0.639500	0.150100	0.267900
C8631	C863	0.681930	0.123510	0.232330
C8641	C864	0.707990	0.089530	0.231330
H5321	H532	0.725300	0.087300	0.208500
N3331	N333	0.760350	0.206630	0.039550
C8651	C865	0.734040	0.205680	0.072160
H5331	H533	0.712700	0.226300	0.073300
C8661	C866	0.735750	0.177470	0.103550
C8671	C867	0.767120	0.146700	0.102180
H5341	H534	0.769100	0.125900	0.123300
C8681	C868	0.794510	0.147410	0.069990
H5351	H535	0.816400	0.127400	0.068600
C8691	C869	0.790720	0.177360	0.038940
H5361	H536	0.810100	0.177100	0.016700
C8701	C870	0.704680	0.177460	0.137740
N3341	N334	0.709270	0.151170	0.168370
C8711	C871	0.679510	0.153310	0.198050
N3351	N335	0.646960	0.179080	0.198220
C8721	C872	0.645130	0.202990	0.166190
N3361	N336	0.673000	0.204060	0.134520
C8731	C873	0.609160	0.230240	0.164160
C8741	C874	0.579340	0.228380	0.195500
H5371	H537	0.582800	0.209600	0.217400
N3371	N337	0.546280	0.251500	0.196340
C8751	C875	0.541660	0.278040	0.165220
H5381	H538	0.518100	0.295100	0.165500
C8761	C876	0.570060	0.281320	0.132840
H5391	H539	0.565900	0.300500	0.111500
C8771	C877	0.604540	0.256520	0.131760
H5401	H540	0.624200	0.257600	0.109600
N3381	N338	0.535700	0.218880	0.279420
C8781	C878	0.554080	0.206960	0.295800
S681	S68	0.580850	0.191150	0.318810
N3391	N339	0.506560	0.295920	0.243300
C8791	C879	0.478730	0.327490	0.241470
H5411	H541	0.456400	0.328000	0.244000
C8801	C880	0.481470	0.359130	0.235990
C8811	C881	0.515270	0.357810	0.231650
H5421	H542	0.518100	0.378900	0.228100
C8821	C882	0.543370	0.326550	0.232590
H5431	H543	0.566500	0.325700	0.228700
C8831	C883	0.538470	0.295650	0.239290
H5441	H544	0.558200	0.273400	0.241200
C8841	C884	0.449550	0.392630	0.235610
N3401	N340	0.420840	0.392200	0.234820
S691	S69	0.049110	0.796590	0.533590
C8851	C885	0.039390	0.773010	0.523710
N3411	N341	0.031850	0.757670	0.515590
N3421	N342	0.060220	0.709640	0.469440
C8861	C886	0.064240	0.686000	0.457340
H5451	H545	0.043500	0.686900	0.455900
C8871	C887	0.096890	0.660130	0.446690
H5461	H546	0.098300	0.644300	0.437700
C8881	C888	0.127480	0.657320	0.449220
H5471	H547	0.150100	0.639500	0.442500
C8891	C889	0.123510	0.681930	0.462230
C8901	C890	0.089530	0.707990	0.471150
H5481	H548	0.087300	0.725300	0.478900
N3431	N343	0.206630	0.760350	0.493470
C8911	C891	0.205680	0.734040	0.488120
H5491	H549	0.226300	0.712700	0.487700
C8921	C892	0.177470	0.735750	0.483230
C8931	C893	0.146700	0.767120	0.484000
H5501	H550	0.125900	0.769100	0.481700
C8941	C894	0.147410	0.794510	0.488090
H5511	H551	0.127400	0.816400	0.487600
C8951	C895	0.177360	0.790720	0.492980
H5521	H552	0.177100	0.810100	0.496100
C8961	C896	0.177460	0.704680	0.480120
N3441	N344	0.151170	0.709270	0.471190
C8971	C897	0.153310	0.679510	0.469130
N3451	N345	0.179080	0.646960	0.475740
C8981	C898	0.202990	0.645130	0.485690
N3461	N346	0.204060	0.673000	0.488420
C8991	C899	0.230240	0.609160	0.496440
C9001	C900	0.228380	0.579340	0.496780
H5531	H553	0.209600	0.582800	0.490200
N3471	N347	0.251500	0.546280	0.505880
C9011	C901	0.278040	0.541660	0.515080
H5541	H554	0.295100	0.518100	0.521300
C9021	C902	0.281320	0.570060	0.515780
H5551	H555	0.300500	0.565900	0.522100
C9031	C903	0.256520	0.604540	0.507180
H5561	H556	0.257600	0.624200	0.508600
N3481	N348	0.218880	0.535700	0.466000
C9041	C904	0.206960	0.554080	0.443160
S701	S70	0.191150	0.580850	0.409190
N3491	N349	0.295920	0.506560	0.454220
C9051	C905	0.327490	0.478730	0.452310
H5571	H557	0.328000	0.456400	0.471600
C9061	C906	0.359130	0.481470	0.423410
C9071	C907	0.357810	0.515270	0.395270
H5581	H558	0.378900	0.518100	0.374900
C9081	C908	0.326550	0.543370	0.397490
H5591	H559	0.325700	0.566500	0.379100
C9091	C909	0.295650	0.538470	0.426590
H5601	H560	0.273400	0.558200	0.427200
C9101	C910	0.392630	0.449550	0.422210
N3501	N350	0.392200	0.420840	0.452140
S711	S71	0.533590	0.120710	0.049110
C9111	C911	0.523710	0.163890	0.039390
N3511	N351	0.515590	0.194890	0.031850
N3521	N352	0.469440	0.260700	0.060220
C9121	C912	0.457340	0.292420	0.064240
H5611	H561	0.455900	0.313700	0.043500
C9131	C913	0.446690	0.296290	0.096890
H5621	H562	0.437700	0.319700	0.098300
C9141	C914	0.449220	0.265980	0.127480
H5631	H563	0.442500	0.267900	0.150100
C9151	C915	0.462230	0.232330	0.123510
C9161	C916	0.471150	0.231330	0.089530
H5641	H564	0.478900	0.208500	0.087300
N3531	N353	0.493470	0.039550	0.206630
C9171	C917	0.488120	0.072160	0.205680
H5651	H565	0.487700	0.073300	0.226300
C9181	C918	0.483230	0.103550	0.177470
C9191	C919	0.484000	0.102180	0.146700
H5661	H566	0.481700	0.123300	0.125900
C9201	C920	0.488090	0.069990	0.147410
H5671	H567	0.487600	0.068600	0.127400
C9211	C921	0.492980	0.038940	0.177360
H5681	H568	0.496100	0.016700	0.177100
C9221	C922	0.480120	0.137740	0.177460
N3541	N354	0.471190	0.168370	0.151170
C9231	C923	0.469130	0.198050	0.153310
N3551	N355	0.475740	0.198220	0.179080
C9241	C924	0.485690	0.166190	0.202990
N3561	N356	0.488420	0.134520	0.204060
C9251	C925	0.496440	0.164160	0.230240
C9261	C926	0.496780	0.195500	0.228380
H5691	H569	0.490200	0.217400	0.209600
N3571	N357	0.505880	0.196340	0.251500
C9271	C927	0.515080	0.165220	0.278040
H5701	H570	0.521300	0.165500	0.295100
C9281	C928	0.515780	0.132840	0.281320
H5711	H571	0.522100	0.111500	0.300500
C9291	C929	0.507180	0.131760	0.256520
H5721	H572	0.508600	0.109600	0.257600
N3581	N358	0.466000	0.279420	0.218880
C9301	C930	0.443160	0.295800	0.206960
S721	S72	0.409190	0.318810	0.191150
N3591	N359	0.454220	0.243300	0.295920
C9311	C931	0.452310	0.241470	0.327490
H5731	H573	0.471600	0.244000	0.328000
C9321	C932	0.423410	0.235990	0.359130
C9331	C933	0.395270	0.231650	0.357810
H5741	H574	0.374900	0.228100	0.378900
C9341	C934	0.397490	0.232590	0.326550
H5751	H575	0.379100	0.228700	0.325700
C9351	C935	0.426590	0.239290	0.295650
H5761	H576	0.427200	0.241200	0.273400
C9361	C936	0.422210	0.235610	0.392630
N3601	N360	0.452140	0.234820	0.392200
S731	S73	0.703410	0.379290	0.450890
C9371	C937	0.726990	0.336110	0.460610
N3611	N361	0.742330	0.305110	0.468150
N3621	N362	0.790360	0.239300	0.439780
C9381	C938	0.814000	0.207580	0.435760
H5771	H577	0.813100	0.186300	0.456500
C9391	C939	0.839870	0.203710	0.403110
H5781	H578	0.855700	0.180300	0.401700
C9401	C940	0.842680	0.234020	0.372520
H5791	H579	0.860500	0.232100	0.349900
C9411	C941	0.818070	0.267670	0.376490
C9421	C942	0.792010	0.268670	0.410470
H5801	H580	0.774700	0.291500	0.412700
N3631	N363	0.739650	0.460450	0.293370
C9431	C943	0.765960	0.427840	0.294320
H5811	H581	0.787300	0.426700	0.273700
C9441	C944	0.764250	0.396450	0.322530
C9451	C945	0.732880	0.397820	0.353300
H5821	H582	0.730900	0.376700	0.374100
C9461	C946	0.705490	0.430010	0.352590
H5831	H583	0.683600	0.431400	0.372600
C9471	C947	0.709280	0.461060	0.322640
H5841	H584	0.689900	0.483300	0.322900
C9481	C948	0.795320	0.362260	0.322540
N3641	N364	0.790730	0.331630	0.348830
C9491	C949	0.820490	0.301950	0.346690
N3651	N365	0.853040	0.301780	0.320920
C9501	C950	0.854870	0.333810	0.297010
N3661	N366	0.827000	0.365480	0.295940
C9511	C951	0.890840	0.335840	0.269760
C9521	C952	0.920660	0.304500	0.271620
H5851	H585	0.917200	0.282600	0.290400
N3671	N367	0.953720	0.303660	0.248500
C9531	C953	0.958340	0.334780	0.221960
H5861	H586	0.981900	0.334500	0.204900
C9541	C954	0.929940	0.367160	0.218680
H5871	H587	0.934100	0.388500	0.199500
C9551	C955	0.895460	0.368240	0.243480
H5881	H588	0.875800	0.390400	0.242400
N3681	N368	0.964300	0.220580	0.281120
C9561	C956	0.945920	0.204200	0.293040
S741	S74	0.919150	0.181190	0.308850
N3691	N369	0.993440	0.256700	0.204080
C9571	C957	0.021270	0.258530	0.172510
H5891	H589	0.043600	0.256000	0.172000
C9581	C958	0.018530	0.264010	0.140870
C9591	C959	0.984730	0.268350	0.142190
H5901	H590	0.981900	0.271900	0.121100
C9601	C960	0.956630	0.267410	0.173450
H5911	H591	0.933500	0.271300	0.174300
C9611	C961	0.961530	0.260710	0.204350
H5921	H592	0.941800	0.258800	0.226600
C9621	C962	0.050450	0.264390	0.107370
N3701	N370	0.079160	0.265180	0.107800
S751	S75	0.379290	0.703410	0.966410
C9631	C963	0.336110	0.726990	0.976290
N3711	N371	0.305110	0.742330	0.984410
N3721	N372	0.239300	0.790360	0.030560
C9641	C964	0.207580	0.814000	0.042660
H5931	H593	0.186300	0.813100	0.044100
C9651	C965	0.203710	0.839870	0.053310
H5941	H594	0.180300	0.855700	0.062300
C9661	C966	0.234020	0.842680	0.050780
H5951	H595	0.232100	0.860500	0.057500
C9671	C967	0.267670	0.818070	0.037770
C9681	C968	0.268670	0.792010	0.028850
H5961	H596	0.291500	0.774700	0.021100
N3731	N373	0.460450	0.739650	0.006530
C9691	C969	0.427840	0.765960	0.011880
H5971	H597	0.426700	0.787300	0.012300
C9701	C970	0.396450	0.764250	0.016770
C9711	C971	0.397820	0.732880	0.016000
H5981	H598	0.376700	0.730900	0.018300
C9721	C972	0.430010	0.705490	0.011910
H5991	H599	0.431400	0.683600	0.012400
C9731	C973	0.461060	0.709280	0.007020
H6001	H600	0.483300	0.689900	0.003900
C9741	C974	0.362260	0.795320	0.019880
N3741	N374	0.331630	0.790730	0.028810
C9751	C975	0.301950	0.820490	0.030870
N3751	N375	0.301780	0.853040	0.024260
C9761	C976	0.333810	0.854870	0.014310
N3761	N376	0.365480	0.827000	0.011580
C9771	C977	0.335840	0.890840	0.003560
C9781	C978	0.304500	0.920660	0.003220
H6011	H601	0.282600	0.917200	0.009800
N3771	N377	0.303660	0.953720	0.994120
C9791	C979	0.334780	0.958340	0.984920
H6021	H602	0.334500	0.981900	0.978700
C9801	C980	0.367160	0.929940	0.984220
H6031	H603	0.388500	0.934100	0.977900
C9811	C981	0.368240	0.895460	0.992820
H6041	H604	0.390400	0.875800	0.991400
N3781	N378	0.220580	0.964300	0.034000
C9821	C982	0.204200	0.945920	0.056840
S761	S76	0.181190	0.919150	0.090810
N3791	N379	0.256700	0.993440	0.045780
C9831	C983	0.258530	0.021270	0.047690
H6051	H605	0.256000	0.043600	0.028400
C9841	C984	0.264010	0.018530	0.076590
C9851	C985	0.268350	0.984730	0.104730
H6061	H606	0.271900	0.981900	0.125100
C9861	C986	0.267410	0.956630	0.102510
H6071	H607	0.271300	0.933500	0.120900
C9871	C987	0.260710	0.961530	0.073410
H6081	H608	0.258800	0.941800	0.072800
C9881	C988	0.264390	0.050450	0.077790
N3801	N380	0.265180	0.079160	0.047860
S771	S77	0.966410	0.450890	0.379290
C9891	C989	0.976290	0.460610	0.336110
N3811	N381	0.984410	0.468150	0.305110
N3821	N382	0.030560	0.439780	0.239300
C9901	C990	0.042660	0.435760	0.207580
H6091	H609	0.044100	0.456500	0.186300
C9911	C991	0.053310	0.403110	0.203710
H6101	H610	0.062300	0.401700	0.180300
C9921	C992	0.050780	0.372520	0.234020
H6111	H611	0.057500	0.349900	0.232100
C9931	C993	0.037770	0.376490	0.267670
C9941	C994	0.028850	0.410470	0.268670
H6121	H612	0.021100	0.412700	0.291500
N3831	N383	0.006530	0.293370	0.460450
C9951	C995	0.011880	0.294320	0.427840
H6131	H613	0.012300	0.273700	0.426700
C9961	C996	0.016770	0.322530	0.396450
C9971	C997	0.016000	0.353300	0.397820
H6141	H614	0.018300	0.374100	0.376700
C9981	C998	0.011910	0.352590	0.430010
H6151	H615	0.012400	0.372600	0.431400
C9991	C999	0.007020	0.322640	0.461060
H6161	H616	0.003900	0.322900	0.483300
C10001	C1000	0.019880	0.322540	0.362260
N3841	N384	0.028810	0.348830	0.331630
C10011	C1001	0.030870	0.346690	0.301950
N3851	N385	0.024260	0.320920	0.301780
C10021	C1002	0.014310	0.297010	0.333810
N3861	N386	0.011580	0.295940	0.365480
C10031	C1003	0.003560	0.269760	0.335840
C10041	C1004	0.003220	0.271620	0.304500
H6171	H617	0.009800	0.290400	0.282600
N3871	N387	0.994120	0.248500	0.303660
C10051	C1005	0.984920	0.221960	0.334780
H6181	H618	0.978700	0.204900	0.334500
C10061	C1006	0.984220	0.218680	0.367160
H6191	H619	0.977900	0.199500	0.388500
C10071	C1007	0.992820	0.243480	0.368240
H6201	H620	0.991400	0.242400	0.390400
N3881	N388	0.034000	0.281120	0.220580
C10081	C1008	0.056840	0.293040	0.204200
S781	S78	0.090810	0.308850	0.181190
N3891	N389	0.045780	0.204080	0.256700
C10091	C1009	0.047690	0.172510	0.258530
H6211	H621	0.028400	0.172000	0.256000
C10101	C1010	0.076590	0.140870	0.264010
C10111	C1011	0.104730	0.142190	0.268350
H6221	H622	0.125100	0.121100	0.271900
C10121	C1012	0.102510	0.173450	0.267410
H6231	H623	0.120900	0.174300	0.271300
C10131	C1013	0.073410	0.204350	0.260710
H6241	H624	0.072800	0.226600	0.258800
C10141	C1014	0.077790	0.107370	0.264390
N3901	N390	0.047860	0.107800	0.265180
S791	S79	0.450890	0.966410	0.703410
C10151	C1015	0.460610	0.976290	0.726990
N3911	N391	0.468150	0.984410	0.742330
N3921	N392	0.439780	0.030560	0.790360
C10161	C1016	0.435760	0.042660	0.814000
H6251	H625	0.456500	0.044100	0.813100
C10171	C1017	0.403110	0.053310	0.839870
H6261	H626	0.401700	0.062300	0.855700
C10181	C1018	0.372520	0.050780	0.842680
H6271	H627	0.349900	0.057500	0.860500
C10191	C1019	0.376490	0.037770	0.818070
C10201	C1020	0.410470	0.028850	0.792010
H6281	H628	0.412700	0.021100	0.774700
N3931	N393	0.293370	0.006530	0.739650
C10211	C1021	0.294320	0.011880	0.765960
H6291	H629	0.273700	0.012300	0.787300
C10221	C1022	0.322530	0.016770	0.764250
C10231	C1023	0.353300	0.016000	0.732880
H6301	H630	0.374100	0.018300	0.730900
C10241	C1024	0.352590	0.011910	0.705490
H6311	H631	0.372600	0.012400	0.683600
C10251	C1025	0.322640	0.007020	0.709280
H6321	H632	0.322900	0.003900	0.689900
C10261	C1026	0.322540	0.019880	0.795320
N3941	N394	0.348830	0.028810	0.790730
C10271	C1027	0.346690	0.030870	0.820490
N3951	N395	0.320920	0.024260	0.853040
C10281	C1028	0.297010	0.014310	0.854870
N3961	N396	0.295940	0.011580	0.827000
C10291	C1029	0.269760	0.003560	0.890840
C10301	C1030	0.271620	0.003220	0.920660
H6331	H633	0.290400	0.009800	0.917200
N3971	N397	0.248500	0.994120	0.953720
C10311	C1031	0.221960	0.984920	0.958340
H6341	H634	0.204900	0.978700	0.981900
C10321	C1032	0.218680	0.984220	0.929940
H6351	H635	0.199500	0.977900	0.934100
C10331	C1033	0.243480	0.992820	0.895460
H6361	H636	0.242400	0.991400	0.875800
N3981	N398	0.281120	0.034000	0.964300
C10341	C1034	0.293040	0.056840	0.945920
S801	S80	0.308850	0.090810	0.919150
N3991	N399	0.204080	0.045780	0.993440
C10351	C1035	0.172510	0.047690	0.021270
H6371	H637	0.172000	0.028400	0.043600
C10361	C1036	0.140870	0.076590	0.018530
C10371	C1037	0.142190	0.104730	0.984730
H6381	H638	0.121100	0.125100	0.981900
C10381	C1038	0.173450	0.102510	0.956630
H6391	H639	0.174300	0.120900	0.933500
C10391	C1039	0.204350	0.073410	0.961530
H6401	H640	0.226600	0.072800	0.941800
C10401	C1040	0.107370	0.077790	0.050450
N4001	N400	0.107800	0.047860	0.079160
S811	S81	0.966410	0.703410	0.450890
C10411	C1041	0.976290	0.726990	0.460610
N4011	N401	0.984410	0.742330	0.468150
N4021	N402	0.030560	0.790360	0.439780
C10421	C1042	0.042660	0.814000	0.435760
H6411	H641	0.044100	0.813100	0.456500
C10431	C1043	0.053310	0.839870	0.403110
H6421	H642	0.062300	0.855700	0.401700
C10441	C1044	0.050780	0.842680	0.372520
H6431	H643	0.057500	0.860500	0.349900
C10451	C1045	0.037770	0.818070	0.376490
C10461	C1046	0.028850	0.792010	0.410470
H6441	H644	0.021100	0.774700	0.412700
N4031	N403	0.006530	0.739650	0.293370
C10471	C1047	0.011880	0.765960	0.294320
H6451	H645	0.012300	0.787300	0.273700
C10481	C1048	0.016770	0.764250	0.322530
C10491	C1049	0.016000	0.732880	0.353300
H6461	H646	0.018300	0.730900	0.374100
C10501	C1050	0.011910	0.705490	0.352590
H6471	H647	0.012400	0.683600	0.372600
C10511	C1051	0.007020	0.709280	0.322640
H6481	H648	0.003900	0.689900	0.322900
C10521	C1052	0.019880	0.795320	0.322540
N4041	N404	0.028810	0.790730	0.348830
C10531	C1053	0.030870	0.820490	0.346690
N4051	N405	0.024260	0.853040	0.320920
C10541	C1054	0.014310	0.854870	0.297010
N4061	N406	0.011580	0.827000	0.295940
C10551	C1055	0.003560	0.890840	0.269760
C10561	C1056	0.003220	0.920660	0.271620
H6491	H649	0.009800	0.917200	0.290400
N4071	N407	0.994120	0.953720	0.248500
C10571	C1057	0.984920	0.958340	0.221960
H6501	H650	0.978700	0.981900	0.204900
C10581	C1058	0.984220	0.929940	0.218680
H6511	H651	0.977900	0.934100	0.199500
C10591	C1059	0.992820	0.895460	0.243480
H6521	H652	0.991400	0.875800	0.242400
N4081	N408	0.034000	0.964300	0.281120
C10601	C1060	0.056840	0.945920	0.293040
S821	S82	0.090810	0.919150	0.308850
N4091	N409	0.045780	0.993440	0.204080
C10611	C1061	0.047690	0.021270	0.172510
H6531	H653	0.028400	0.043600	0.172000
C10621	C1062	0.076590	0.018530	0.140870
C10631	C1063	0.104730	0.984730	0.142190
H6541	H654	0.125100	0.981900	0.121100
C10641	C1064	0.102510	0.956630	0.173450
H6551	H655	0.120900	0.933500	0.174300
C10651	C1065	0.073410	0.961530	0.204350
H6561	H656	0.072800	0.941800	0.226600
C10661	C1066	0.077790	0.050450	0.107370
N4101	N410	0.047860	0.079160	0.107800
S831	S83	0.450890	0.379290	0.966410
C10671	C1067	0.460610	0.336110	0.976290
N4111	N411	0.468150	0.305110	0.984410
N4121	N412	0.439780	0.239300	0.030560
C10681	C1068	0.435760	0.207580	0.042660
H6571	H657	0.456500	0.186300	0.044100
C10691	C1069	0.403110	0.203710	0.053310
H6581	H658	0.401700	0.180300	0.062300
C10701	C1070	0.372520	0.234020	0.050780
H6591	H659	0.349900	0.232100	0.057500
C10711	C1071	0.376490	0.267670	0.037770
C10721	C1072	0.410470	0.268670	0.028850
H6601	H660	0.412700	0.291500	0.021100
N4131	N413	0.293370	0.460450	0.006530
C10731	C1073	0.294320	0.427840	0.011880
H6611	H661	0.273700	0.426700	0.012300
C10741	C1074	0.322530	0.396450	0.016770
C10751	C1075	0.353300	0.397820	0.016000
H6621	H662	0.374100	0.376700	0.018300
C10761	C1076	0.352590	0.430010	0.011910
H6631	H663	0.372600	0.431400	0.012400
C10771	C1077	0.322640	0.461060	0.007020
H6641	H664	0.322900	0.483300	0.003900
C10781	C1078	0.322540	0.362260	0.019880
N4141	N414	0.348830	0.331630	0.028810
C10791	C1079	0.346690	0.301950	0.030870
N4151	N415	0.320920	0.301780	0.024260
C10801	C1080	0.297010	0.333810	0.014310
N4161	N416	0.295940	0.365480	0.011580
C10811	C1081	0.269760	0.335840	0.003560
C10821	C1082	0.271620	0.304500	0.003220
H6651	H665	0.290400	0.282600	0.009800
N4171	N417	0.248500	0.303660	0.994120
C10831	C1083	0.221960	0.334780	0.984920
H6661	H666	0.204900	0.334500	0.978700
C10841	C1084	0.218680	0.367160	0.984220
H6671	H667	0.199500	0.388500	0.977900
C10851	C1085	0.243480	0.368240	0.992820
H6681	H668	0.242400	0.390400	0.991400
N4181	N418	0.281120	0.220580	0.034000
C10861	C1086	0.293040	0.204200	0.056840
S841	S84	0.308850	0.181190	0.090810
N4191	N419	0.204080	0.256700	0.045780
C10871	C1087	0.172510	0.258530	0.047690
H6691	H669	0.172000	0.256000	0.028400
C10881	C1088	0.140870	0.264010	0.076590
C10891	C1089	0.142190	0.268350	0.104730
H6701	H670	0.121100	0.271900	0.125100
C10901	C1090	0.173450	0.267410	0.102510
H6711	H671	0.174300	0.271300	0.120900
C10911	C1091	0.204350	0.260710	0.073410
H6721	H672	0.226600	0.258800	0.072800
C10921	C1092	0.107370	0.264390	0.077790
N4201	N420	0.107800	0.265180	0.047860
S851	S85	0.703410	0.966410	0.379290
C10931	C1093	0.726990	0.976290	0.336110
N4211	N421	0.742330	0.984410	0.305110
N4221	N422	0.790360	0.030560	0.239300
C10941	C1094	0.814000	0.042660	0.207580
H6731	H673	0.813100	0.044100	0.186300
C10951	C1095	0.839870	0.053310	0.203710
H6741	H674	0.855700	0.062300	0.180300
C10961	C1096	0.842680	0.050780	0.234020
H6751	H675	0.860500	0.057500	0.232100
C10971	C1097	0.818070	0.037770	0.267670
C10981	C1098	0.792010	0.028850	0.268670
H6761	H676	0.774700	0.021100	0.291500
N4231	N423	0.739650	0.006530	0.460450
C10991	C1099	0.765960	0.011880	0.427840
H6771	H677	0.787300	0.012300	0.426700
C11001	C1100	0.764250	0.016770	0.396450
C11011	C1101	0.732880	0.016000	0.397820
H6781	H678	0.730900	0.018300	0.376700
C11021	C1102	0.705490	0.011910	0.430010
H6791	H679	0.683600	0.012400	0.431400
C11031	C1103	0.709280	0.007020	0.461060
H6801	H680	0.689900	0.003900	0.483300
C11041	C1104	0.795320	0.019880	0.362260
N4241	N424	0.790730	0.028810	0.331630
C11051	C1105	0.820490	0.030870	0.301950
N4251	N425	0.853040	0.024260	0.301780
C11061	C1106	0.854870	0.014310	0.333810
N4261	N426	0.827000	0.011580	0.365480
C11071	C1107	0.890840	0.003560	0.335840
C11081	C1108	0.920660	0.003220	0.304500
H6811	H681	0.917200	0.009800	0.282600
N4271	N427	0.953720	0.994120	0.303660
C11091	C1109	0.958340	0.984920	0.334780
H6821	H682	0.981900	0.978700	0.334500
C11101	C1110	0.929940	0.984220	0.367160
H6831	H683	0.934100	0.977900	0.388500
C11111	C1111	0.895460	0.992820	0.368240
H6841	H684	0.875800	0.991400	0.390400
N4281	N428	0.964300	0.034000	0.220580
C11121	C1112	0.945920	0.056840	0.204200
S861	S86	0.919150	0.090810	0.181190
N4291	N429	0.993440	0.045780	0.256700
C11131	C1113	0.021270	0.047690	0.258530
H6851	H685	0.043600	0.028400	0.256000
C11141	C1114	0.018530	0.076590	0.264010
C11151	C1115	0.984730	0.104730	0.268350
H6861	H686	0.981900	0.125100	0.271900
C11161	C1116	0.956630	0.102510	0.267410
H6871	H687	0.933500	0.120900	0.271300
C11171	C1117	0.961530	0.073410	0.260710
H6881	H688	0.941800	0.072800	0.258800
C11181	C1118	0.050450	0.077790	0.264390
N4301	N430	0.079160	0.047860	0.265180
S871	S87	0.379290	0.450890	0.703410
C11191	C1119	0.336110	0.460610	0.726990
N4311	N431	0.305110	0.468150	0.742330
N4321	N432	0.239300	0.439780	0.790360
C11201	C1120	0.207580	0.435760	0.814000
H6891	H689	0.186300	0.456500	0.813100
C11211	C1121	0.203710	0.403110	0.839870
H6901	H690	0.180300	0.401700	0.855700
C11221	C1122	0.234020	0.372520	0.842680
H6911	H691	0.232100	0.349900	0.860500
C11231	C1123	0.267670	0.376490	0.818070
C11241	C1124	0.268670	0.410470	0.792010
H6921	H692	0.291500	0.412700	0.774700
N4331	N433	0.460450	0.293370	0.739650
C11251	C1125	0.427840	0.294320	0.765960
H6931	H693	0.426700	0.273700	0.787300
C11261	C1126	0.396450	0.322530	0.764250
C11271	C1127	0.397820	0.353300	0.732880
H6941	H694	0.376700	0.374100	0.730900
C11281	C1128	0.430010	0.352590	0.705490
H6951	H695	0.431400	0.372600	0.683600
C11291	C1129	0.461060	0.322640	0.709280
H6961	H696	0.483300	0.322900	0.689900
C11301	C1130	0.362260	0.322540	0.795320
N4341	N434	0.331630	0.348830	0.790730
C11311	C1131	0.301950	0.346690	0.820490
N4351	N435	0.301780	0.320920	0.853040
C11321	C1132	0.333810	0.297010	0.854870
N4361	N436	0.365480	0.295940	0.827000
C11331	C1133	0.335840	0.269760	0.890840
C11341	C1134	0.304500	0.271620	0.920660
H6971	H697	0.282600	0.290400	0.917200
N4371	N437	0.303660	0.248500	0.953720
C11351	C1135	0.334780	0.221960	0.958340
H6981	H698	0.334500	0.204900	0.981900
C11361	C1136	0.367160	0.218680	0.929940
H6991	H699	0.388500	0.199500	0.934100
C11371	C1137	0.368240	0.243480	0.895460
H7001	H700	0.390400	0.242400	0.875800
N4381	N438	0.220580	0.281120	0.964300
C11381	C1138	0.204200	0.293040	0.945920
S881	S88	0.181190	0.308850	0.919150
N4391	N439	0.256700	0.204080	0.993440
C11391	C1139	0.258530	0.172510	0.021270
H7011	H701	0.256000	0.172000	0.043600
C11401	C1140	0.264010	0.140870	0.018530
C11411	C1141	0.268350	0.142190	0.984730
H7021	H702	0.271900	0.121100	0.981900
C11421	C1142	0.267410	0.173450	0.956630
H7031	H703	0.271300	0.174300	0.933500
C11431	C1143	0.260710	0.204350	0.961530
H7041	H704	0.258800	0.226600	0.941800
C11441	C1144	0.264390	0.107370	0.050450
N4401	N440	0.265180	0.107800	0.079160
S891	S89	0.379290	0.966410	0.450890
C11451	C1145	0.336110	0.976290	0.460610
N4411	N441	0.305110	0.984410	0.468150
N4421	N442	0.239300	0.030560	0.439780
C11461	C1146	0.207580	0.042660	0.435760
H7051	H705	0.186300	0.044100	0.456500
C11471	C1147	0.203710	0.053310	0.403110
H7061	H706	0.180300	0.062300	0.401700
C11481	C1148	0.234020	0.050780	0.372520
H7071	H707	0.232100	0.057500	0.349900
C11491	C1149	0.267670	0.037770	0.376490
C11501	C1150	0.268670	0.028850	0.410470
H7081	H708	0.291500	0.021100	0.412700
N4431	N443	0.460450	0.006530	0.293370
C11511	C1151	0.427840	0.011880	0.294320
H7091	H709	0.426700	0.012300	0.273700
C11521	C1152	0.396450	0.016770	0.322530
C11531	C1153	0.397820	0.016000	0.353300
H7101	H710	0.376700	0.018300	0.374100
C11541	C1154	0.430010	0.011910	0.352590
H7111	H711	0.431400	0.012400	0.372600
C11551	C1155	0.461060	0.007020	0.322640
H7121	H712	0.483300	0.003900	0.322900
C11561	C1156	0.362260	0.019880	0.322540
N4441	N444	0.331630	0.028810	0.348830
C11571	C1157	0.301950	0.030870	0.346690
N4451	N445	0.301780	0.024260	0.320920
C11581	C1158	0.333810	0.014310	0.297010
N4461	N446	0.365480	0.011580	0.295940
C11591	C1159	0.335840	0.003560	0.269760
C11601	C1160	0.304500	0.003220	0.271620
H7131	H713	0.282600	0.009800	0.290400
N4471	N447	0.303660	0.994120	0.248500
C11611	C1161	0.334780	0.984920	0.221960
H7141	H714	0.334500	0.978700	0.204900
C11621	C1162	0.367160	0.984220	0.218680
H7151	H715	0.388500	0.977900	0.199500
C11631	C1163	0.368240	0.992820	0.243480
H7161	H716	0.390400	0.991400	0.242400
N4481	N448	0.220580	0.034000	0.281120
C11641	C1164	0.204200	0.056840	0.293040
S901	S90	0.181190	0.090810	0.308850
N4491	N449	0.256700	0.045780	0.204080
C11651	C1165	0.258530	0.047690	0.172510
H7171	H717	0.256000	0.028400	0.172000
C11661	C1166	0.264010	0.076590	0.140870
C11671	C1167	0.268350	0.104730	0.142190
H7181	H718	0.271900	0.125100	0.121100
C11681	C1168	0.267410	0.102510	0.173450
H7191	H719	0.271300	0.120900	0.174300
C11691	C1169	0.260710	0.073410	0.204350
H7201	H720	0.258800	0.072800	0.226600
C11701	C1170	0.264390	0.077790	0.107370
N4501	N450	0.265180	0.047860	0.107800
S911	S91	0.703410	0.450890	0.966410
C11711	C1171	0.726990	0.460610	0.976290
N4511	N451	0.742330	0.468150	0.984410
N4521	N452	0.790360	0.439780	0.030560
C11721	C1172	0.814000	0.435760	0.042660
H7211	H721	0.813100	0.456500	0.044100
C11731	C1173	0.839870	0.403110	0.053310
H7221	H722	0.855700	0.401700	0.062300
C11741	C1174	0.842680	0.372520	0.050780
H7231	H723	0.860500	0.349900	0.057500
C11751	C1175	0.818070	0.376490	0.037770
C11761	C1176	0.792010	0.410470	0.028850
H7241	H724	0.774700	0.412700	0.021100
N4531	N453	0.739650	0.293370	0.006530
C11771	C1177	0.765960	0.294320	0.011880
H7251	H725	0.787300	0.273700	0.012300
C11781	C1178	0.764250	0.322530	0.016770
C11791	C1179	0.732880	0.353300	0.016000
H7261	H726	0.730900	0.374100	0.018300
C11801	C1180	0.705490	0.352590	0.011910
H7271	H727	0.683600	0.372600	0.012400
C11811	C1181	0.709280	0.322640	0.007020
H7281	H728	0.689900	0.322900	0.003900
C11821	C1182	0.795320	0.322540	0.019880
N4541	N454	0.790730	0.348830	0.028810
C11831	C1183	0.820490	0.346690	0.030870
N4551	N455	0.853040	0.320920	0.024260
C11841	C1184	0.854870	0.297010	0.014310
N4561	N456	0.827000	0.295940	0.011580
C11851	C1185	0.890840	0.269760	0.003560
C11861	C1186	0.920660	0.271620	0.003220
H7291	H729	0.917200	0.290400	0.009800
N4571	N457	0.953720	0.248500	0.994120
C11871	C1187	0.958340	0.221960	0.984920
H7301	H730	0.981900	0.204900	0.978700
C11881	C1188	0.929940	0.218680	0.984220
H7311	H731	0.934100	0.199500	0.977900
C11891	C1189	0.895460	0.243480	0.992820
H7321	H732	0.875800	0.242400	0.991400
N4581	N458	0.964300	0.281120	0.034000
C11901	C1190	0.945920	0.293040	0.056840
S921	S92	0.919150	0.308850	0.090810
N4591	N459	0.993440	0.204080	0.045780
C11911	C1191	0.021270	0.172510	0.047690
H7331	H733	0.043600	0.172000	0.028400
C11921	C1192	0.018530	0.140870	0.076590
C11931	C1193	0.984730	0.142190	0.104730
H7341	H734	0.981900	0.121100	0.125100
C11941	C1194	0.956630	0.173450	0.102510
H7351	H735	0.933500	0.174300	0.120900
C11951	C1195	0.961530	0.204350	0.073410
H7361	H736	0.941800	0.226600	0.072800
C11961	C1196	0.050450	0.107370	0.077790
N4601	N460	0.079160	0.107800	0.047860
S931	S93	0.450890	0.703410	0.379290
C11971	C1197	0.460610	0.726990	0.336110
N4611	N461	0.468150	0.742330	0.305110
N4621	N462	0.439780	0.790360	0.239300
C11981	C1198	0.435760	0.814000	0.207580
H7371	H737	0.456500	0.813100	0.186300
C11991	C1199	0.403110	0.839870	0.203710
H7381	H738	0.401700	0.855700	0.180300
C12001	C1200	0.372520	0.842680	0.234020
H7391	H739	0.349900	0.860500	0.232100
C12011	C1201	0.376490	0.818070	0.267670
C12021	C1202	0.410470	0.792010	0.268670
H7401	H740	0.412700	0.774700	0.291500
N4631	N463	0.293370	0.739650	0.460450
C12031	C1203	0.294320	0.765960	0.427840
H7411	H741	0.273700	0.787300	0.426700
C12041	C1204	0.322530	0.764250	0.396450
C12051	C1205	0.353300	0.732880	0.397820
H7421	H742	0.374100	0.730900	0.376700
C12061	C1206	0.352590	0.705490	0.430010
H7431	H743	0.372600	0.683600	0.431400
C12071	C1207	0.322640	0.709280	0.461060
H7441	H744	0.322900	0.689900	0.483300
C12081	C1208	0.322540	0.795320	0.362260
N4641	N464	0.348830	0.790730	0.331630
C12091	C1209	0.346690	0.820490	0.301950
N4651	N465	0.320920	0.853040	0.301780
C12101	C1210	0.297010	0.854870	0.333810
N4661	N466	0.295940	0.827000	0.365480
C12111	C1211	0.269760	0.890840	0.335840
C12121	C1212	0.271620	0.920660	0.304500
H7451	H745	0.290400	0.917200	0.282600
N4671	N467	0.248500	0.953720	0.303660
C12131	C1213	0.221960	0.958340	0.334780
H7461	H746	0.204900	0.981900	0.334500
C12141	C1214	0.218680	0.929940	0.367160
H7471	H747	0.199500	0.934100	0.388500
C12151	C1215	0.243480	0.895460	0.368240
H7481	H748	0.242400	0.875800	0.390400
N4681	N468	0.281120	0.964300	0.220580
C12161	C1216	0.293040	0.945920	0.204200
S941	S94	0.308850	0.919150	0.181190
N4691	N469	0.204080	0.993440	0.256700
C12171	C1217	0.172510	0.021270	0.258530
H7491	H749	0.172000	0.043600	0.256000
C12181	C1218	0.140870	0.018530	0.264010
C12191	C1219	0.142190	0.984730	0.268350
H7501	H750	0.121100	0.981900	0.271900
C12201	C1220	0.173450	0.956630	0.267410
H7511	H751	0.174300	0.933500	0.271300
C12211	C1221	0.204350	0.961530	0.260710
H7521	H752	0.226600	0.941800	0.258800
C12221	C1222	0.107370	0.050450	0.264390
N4701	N470	0.107800	0.079160	0.265180
S951	S95	0.966410	0.379290	0.703410
C12231	C1223	0.976290	0.336110	0.726990
N4711	N471	0.984410	0.305110	0.742330
N4721	N472	0.030560	0.239300	0.790360
C12241	C1224	0.042660	0.207580	0.814000
H7531	H753	0.044100	0.186300	0.813100
C12251	C1225	0.053310	0.203710	0.839870
H7541	H754	0.062300	0.180300	0.855700
C12261	C1226	0.050780	0.234020	0.842680
H7551	H755	0.057500	0.232100	0.860500
C12271	C1227	0.037770	0.267670	0.818070
C12281	C1228	0.028850	0.268670	0.792010
H7561	H756	0.021100	0.291500	0.774700
N4731	N473	0.006530	0.460450	0.739650
C12291	C1229	0.011880	0.427840	0.765960
H7571	H757	0.012300	0.426700	0.787300
C12301	C1230	0.016770	0.396450	0.764250
C12311	C1231	0.016000	0.397820	0.732880
H7581	H758	0.018300	0.376700	0.730900
C12321	C1232	0.011910	0.430010	0.705490
H7591	H759	0.012400	0.431400	0.683600
C12331	C1233	0.007020	0.461060	0.709280
H7601	H760	0.003900	0.483300	0.689900
C12341	C1234	0.019880	0.362260	0.795320
N4741	N474	0.028810	0.331630	0.790730
C12351	C1235	0.030870	0.301950	0.820490
N4751	N475	0.024260	0.301780	0.853040
C12361	C1236	0.014310	0.333810	0.854870
N4761	N476	0.011580	0.365480	0.827000
C12371	C1237	0.003560	0.335840	0.890840
C12381	C1238	0.003220	0.304500	0.920660
H7611	H761	0.009800	0.282600	0.917200
N4771	N477	0.994120	0.303660	0.953720
C12391	C1239	0.984920	0.334780	0.958340
H7621	H762	0.978700	0.334500	0.981900
C12401	C1240	0.984220	0.367160	0.929940
H7631	H763	0.977900	0.388500	0.934100
C12411	C1241	0.992820	0.368240	0.895460
H7641	H764	0.991400	0.390400	0.875800
N4781	N478	0.034000	0.220580	0.964300
C12421	C1242	0.056840	0.204200	0.945920
S961	S96	0.090810	0.181190	0.919150
N4791	N479	0.045780	0.256700	0.993440
C12431	C1243	0.047690	0.258530	0.021270
H7651	H765	0.028400	0.256000	0.043600
C12441	C1244	0.076590	0.264010	0.018530
C12451	C1245	0.104730	0.268350	0.984730
H7661	H766	0.125100	0.271900	0.981900
C12461	C1246	0.102510	0.267410	0.956630
H7671	H767	0.120900	0.271300	0.933500
C12471	C1247	0.073410	0.260710	0.961530
H7681	H768	0.072800	0.258800	0.941800
C12481	C1248	0.077790	0.264390	0.050450
N4801	N480	0.047860	0.265180	0.079160
Co11	Co1	0.250000	0.750000	0.509440
Co21	Co2	0.750000	0.250000	0.990560
Co31	Co3	0.509440	0.990560	0.250000
Co41	Co4	0.990560	0.509440	0.750000
Co51	Co5	0.509440	0.250000	0.750000
Co61	Co6	0.990560	0.750000	0.250000
Co71	Co7	0.250000	0.509440	0.990560
Co81	Co8	0.750000	0.990560	0.509440
Co91	Co9	0.750000	0.509440	0.250000
Co101	Co10	0.250000	0.990560	0.750000
Co111	Co11	0.990560	0.250000	0.509440
Co121	Co12	0.509440	0.750000	0.990560
Co131	Co13	0.750000	0.250000	0.490560
Co141	Co14	0.250000	0.750000	0.009440
Co151	Co15	0.490560	0.009440	0.750000
Co161	Co16	0.009440	0.490560	0.250000
Co171	Co17	0.490560	0.750000	0.250000
Co181	Co18	0.009440	0.250000	0.750000
Co191	Co19	0.750000	0.490560	0.009440
Co201	Co20	0.250000	0.009440	0.490560
Co211	Co21	0.250000	0.490560	0.750000
Co221	Co22	0.750000	0.009440	0.250000
Co231	Co23	0.009440	0.750000	0.490560
Co241	Co24	0.490560	0.250000	0.009440
Co251	Co25	0.497900	0.752100	0.497900
Co261	Co26	0.752100	0.497900	0.752100
Co271	Co27	0.497900	0.497900	0.752100
Co281	Co28	0.752100	0.752100	0.497900
Co291	Co29	0.752100	0.497900	0.497900
Co301	Co30	0.497900	0.752100	0.752100
Co311	Co31	0.002100	0.747900	0.747900
Co321	Co32	0.747900	0.002100	0.002100
Co331	Co33	0.002100	0.002100	0.747900
Co341	Co34	0.747900	0.747900	0.002100
Co351	Co35	0.747900	0.002100	0.747900
Co361	Co36	0.002100	0.747900	0.002100
Co371	Co37	0.502100	0.247900	0.502100
Co381	Co38	0.247900	0.502100	0.247900
Co391	Co39	0.502100	0.502100	0.247900
Co401	Co40	0.247900	0.247900	0.502100
Co411	Co41	0.247900	0.502100	0.502100
Co421	Co42	0.502100	0.247900	0.247900
Co431	Co43	0.997900	0.252100	0.252100
Co441	Co44	0.252100	0.997900	0.997900
Co451	Co45	0.997900	0.997900	0.252100
Co461	Co46	0.252100	0.252100	0.997900
Co471	Co47	0.252100	0.997900	0.252100
Co481	Co48	0.997900	0.252100	0.997900
