data_LAFRAN_manual_PM
_symmetry_space_group_name_H-M	'P1'
_cell_length_a	45.096400
_cell_length_b	45.096400
_cell_length_c	45.096400
_cell_angle_alpha	60.000000
_cell_angle_beta	60.000000
_cell_angle_gamma	60.000000
_symmetry_Int_Tables_number 1

loop_
_symmetry_equiv_pos_as_xyz
'x,y,z'

loop_
_atom_site_label
_atom_site_type_symbol
_atom_site_fract_x
_atom_site_fract_y
_atom_site_fract_z
S11	S1	0.428470	0.494750	0.166910
S21	S2	0.287880	0.453120	0.060760
N11	N1	0.329260	0.381780	0.170680
N21	N2	0.362110	0.548730	0.079490
N31	N3	0.344880	0.584720	0.026660
C11	C1	0.353380	0.580440	0.053020
N41	N4	0.380930	0.421250	0.126830
N51	N5	0.341630	0.410870	0.093570
C21	C2	0.355520	0.612180	0.052820
C31	C3	0.362880	0.609220	0.080780
H11	H1	0.365500	0.586700	0.100100
N61	N6	0.350110	0.522350	0.053950
C41	C4	0.345610	0.582650	0.964990
H21	H2	0.352900	0.600100	0.963100
C51	C5	0.326590	0.353930	0.202210
H31	H3	0.345600	0.331200	0.202800
N71	N7	0.366600	0.636300	0.082080
C61	C6	0.332540	0.560680	0.938860
H41	H4	0.331000	0.562000	0.918000
C71	C7	0.343710	0.554650	0.028390
C81	C8	0.297820	0.356600	0.233660
N81	N8	0.407470	0.569630	0.131810
N91	N9	0.266290	0.327070	0.295350
N101	N10	0.344510	0.584410	0.935050
C91	C9	0.296890	0.324950	0.267150
C101	C10	0.336740	0.556680	0.998680
C111	C11	0.352580	0.644520	0.024240
H51	H5	0.347600	0.647400	0.004600
C121	C12	0.416620	0.538220	0.145240
C131	C13	0.324650	0.531450	0.002170
H61	H6	0.318400	0.513200	0.024800
C141	C14	0.372170	0.454450	0.103330
H71	H7	0.367200	0.457400	0.083600
C151	C15	0.322240	0.534040	0.971460
H81	H8	0.313700	0.517900	0.972700
C161	C16	0.369810	0.485430	0.105910
C171	C17	0.389170	0.416730	0.154110
H91	H9	0.395100	0.393100	0.171300
C181	C18	0.320080	0.427740	0.079920
C191	C19	0.356920	0.673000	0.024260
H101	H10	0.355300	0.695500	0.004700
C201	C20	0.389250	0.445410	0.158030
H111	H11	0.395600	0.441400	0.177200
C211	C21	0.269890	0.389830	0.233130
H121	H12	0.249600	0.392400	0.254400
C221	C22	0.302040	0.413800	0.170780
H131	H13	0.303600	0.433800	0.148800
C231	C23	0.363710	0.667470	0.053770
H141	H14	0.366500	0.686900	0.053900
C241	C24	0.379650	0.480570	0.133090
H151	H15	0.379900	0.500500	0.134900
C251	C25	0.359910	0.520590	0.078710
C261	C26	0.272050	0.419170	0.200990
H161	H16	0.253500	0.442100	0.199900
S31	S3	0.494750	0.428470	0.909870
S41	S4	0.453120	0.287880	0.198240
N111	N11	0.381780	0.329260	0.118280
N121	N12	0.548730	0.362110	0.009670
N131	N13	0.584720	0.344880	0.043740
C271	C27	0.580440	0.353380	0.013160
N141	N14	0.421250	0.380930	0.070990
N151	N15	0.410870	0.341630	0.153930
C281	C28	0.612180	0.355520	0.979480
C291	C29	0.609220	0.362880	0.947120
H171	H17	0.586700	0.365500	0.947700
N161	N16	0.522350	0.350110	0.073590
C301	C30	0.582650	0.345610	0.106750
H181	H18	0.600100	0.352900	0.083900
C311	C31	0.353930	0.326590	0.117270
H191	H19	0.331200	0.345600	0.120400
N171	N17	0.636300	0.366600	0.915020
C321	C32	0.560680	0.332540	0.167920
H201	H20	0.562000	0.331000	0.189000
C331	C33	0.554650	0.343710	0.073250
C341	C34	0.356600	0.297820	0.111920
N181	N18	0.569630	0.407470	0.891090
N191	N19	0.327070	0.266290	0.111290
N201	N20	0.584410	0.344510	0.136030
C351	C35	0.324950	0.296890	0.111010
C361	C36	0.556680	0.336740	0.107900
C371	C37	0.644520	0.352580	0.978660
H211	H21	0.647400	0.347600	0.000400
C381	C38	0.538220	0.416620	0.899920
C391	C39	0.531450	0.324650	0.141730
H221	H22	0.513200	0.318400	0.143600
C401	C40	0.454450	0.372170	0.070050
H231	H23	0.457400	0.367200	0.091800
C411	C41	0.534040	0.322240	0.172260
H241	H24	0.517900	0.313700	0.195700
C421	C42	0.485430	0.369810	0.038850
C431	C43	0.416730	0.389170	0.039990
H251	H25	0.393100	0.395100	0.040500
C441	C44	0.427740	0.320080	0.172260
C451	C45	0.673000	0.356920	0.945820
H261	H26	0.695500	0.355300	0.944500
C461	C46	0.445410	0.389250	0.007310
H271	H27	0.441400	0.395600	0.985800
C471	C47	0.389830	0.269890	0.107150
H281	H28	0.392400	0.249600	0.103600
C481	C48	0.413800	0.302040	0.113380
H291	H29	0.433800	0.303600	0.113800
C491	C49	0.667470	0.363710	0.915050
H301	H30	0.686900	0.366500	0.892700
C501	C50	0.480570	0.379650	0.006690
H311	H31	0.500500	0.379900	0.984700
C511	C51	0.520590	0.359910	0.040790
C521	C52	0.419170	0.272050	0.107790
H321	H32	0.442100	0.253500	0.104500
S51	S5	0.166910	0.909870	0.428470
S61	S6	0.060760	0.198240	0.287880
N211	N21	0.170680	0.118280	0.329260
N221	N22	0.079490	0.009670	0.362110
N231	N23	0.026660	0.043740	0.344880
C531	C53	0.053020	0.013160	0.353380
N241	N24	0.126830	0.070990	0.380930
N251	N25	0.093570	0.153930	0.341630
C541	C54	0.052820	0.979480	0.355520
C551	C55	0.080780	0.947120	0.362880
H331	H33	0.100100	0.947700	0.365500
N261	N26	0.053950	0.073590	0.350110
C561	C56	0.964990	0.106750	0.345610
H341	H34	0.963100	0.083900	0.352900
C571	C57	0.202210	0.117270	0.326590
H351	H35	0.202800	0.120400	0.345600
N271	N27	0.082080	0.915020	0.366600
C581	C58	0.938860	0.167920	0.332540
H361	H36	0.918000	0.189000	0.331000
C591	C59	0.028390	0.073250	0.343710
C601	C60	0.233660	0.111920	0.297820
N281	N28	0.131810	0.891090	0.407470
N291	N29	0.295350	0.111290	0.266290
N301	N30	0.935050	0.136030	0.344510
C611	C61	0.267150	0.111010	0.296890
C621	C62	0.998680	0.107900	0.336740
C631	C63	0.024240	0.978660	0.352580
H371	H37	0.004600	0.000400	0.347600
C641	C64	0.145240	0.899920	0.416620
C651	C65	0.002170	0.141730	0.324650
H381	H38	0.024800	0.143600	0.318400
C661	C66	0.103330	0.070050	0.372170
H391	H39	0.083600	0.091800	0.367200
C671	C67	0.971460	0.172260	0.322240
H401	H40	0.972700	0.195700	0.313700
C681	C68	0.105910	0.038850	0.369810
C691	C69	0.154110	0.039990	0.389170
H411	H41	0.171300	0.040500	0.395100
C701	C70	0.079920	0.172260	0.320080
C711	C71	0.024260	0.945820	0.356920
H421	H42	0.004700	0.944500	0.355300
C721	C72	0.158030	0.007310	0.389250
H431	H43	0.177200	0.985800	0.395600
C731	C73	0.233130	0.107150	0.269890
H441	H44	0.254400	0.103600	0.249600
C741	C74	0.170780	0.113380	0.302040
H451	H45	0.148800	0.113800	0.303600
C751	C75	0.053770	0.915050	0.363710
H461	H46	0.053900	0.892700	0.366500
C761	C76	0.133090	0.006690	0.379650
H471	H47	0.134900	0.984700	0.379900
C771	C77	0.078710	0.040790	0.359910
C781	C78	0.200990	0.107790	0.272050
H481	H48	0.199900	0.104500	0.253500
S71	S7	0.909870	0.166910	0.494750
S81	S8	0.198240	0.060760	0.453120
N311	N31	0.118280	0.170680	0.381780
N321	N32	0.009670	0.079490	0.548730
N331	N33	0.043740	0.026660	0.584720
C791	C79	0.013160	0.053020	0.580440
N341	N34	0.070990	0.126830	0.421250
N351	N35	0.153930	0.093570	0.410870
C801	C80	0.979480	0.052820	0.612180
C811	C81	0.947120	0.080780	0.609220
H491	H49	0.947700	0.100100	0.586700
N361	N36	0.073590	0.053950	0.522350
C821	C82	0.106750	0.964990	0.582650
H501	H50	0.083900	0.963100	0.600100
C831	C83	0.117270	0.202210	0.353930
H511	H51	0.120400	0.202800	0.331200
N371	N37	0.915020	0.082080	0.636300
C841	C84	0.167920	0.938860	0.560680
H521	H52	0.189000	0.918000	0.562000
C851	C85	0.073250	0.028390	0.554650
C861	C86	0.111920	0.233660	0.356600
N381	N38	0.891090	0.131810	0.569630
N391	N39	0.111290	0.295350	0.327070
N401	N40	0.136030	0.935050	0.584410
C871	C87	0.111010	0.267150	0.324950
C881	C88	0.107900	0.998680	0.556680
C891	C89	0.978660	0.024240	0.644520
H531	H53	0.000400	0.004600	0.647400
C901	C90	0.899920	0.145240	0.538220
C911	C91	0.141730	0.002170	0.531450
H541	H54	0.143600	0.024800	0.513200
C921	C92	0.070050	0.103330	0.454450
H551	H55	0.091800	0.083600	0.457400
C931	C93	0.172260	0.971460	0.534040
H561	H56	0.195700	0.972700	0.517900
C941	C94	0.038850	0.105910	0.485430
C951	C95	0.039990	0.154110	0.416730
H571	H57	0.040500	0.171300	0.393100
C961	C96	0.172260	0.079920	0.427740
C971	C97	0.945820	0.024260	0.673000
H581	H58	0.944500	0.004700	0.695500
C981	C98	0.007310	0.158030	0.445410
H591	H59	0.985800	0.177200	0.441400
C991	C99	0.107150	0.233130	0.389830
H601	H60	0.103600	0.254400	0.392400
C1001	C100	0.113380	0.170780	0.413800
H611	H61	0.113800	0.148800	0.433800
C1011	C101	0.915050	0.053770	0.667470
H621	H62	0.892700	0.053900	0.686900
C1021	C102	0.006690	0.133090	0.480570
H631	H63	0.984700	0.134900	0.500500
C1031	C103	0.040790	0.078710	0.520590
C1041	C104	0.107790	0.200990	0.419170
H641	H64	0.104500	0.199900	0.442100
S91	S9	0.166910	0.428470	0.494750
S101	S10	0.060760	0.287880	0.453120
N411	N41	0.170680	0.329260	0.381780
N421	N42	0.079490	0.362110	0.548730
N431	N43	0.026660	0.344880	0.584720
C1051	C105	0.053020	0.353380	0.580440
N441	N44	0.126830	0.380930	0.421250
N451	N45	0.093570	0.341630	0.410870
C1061	C106	0.052820	0.355520	0.612180
C1071	C107	0.080780	0.362880	0.609220
H651	H65	0.100100	0.365500	0.586700
N461	N46	0.053950	0.350110	0.522350
C1081	C108	0.964990	0.345610	0.582650
H661	H66	0.963100	0.352900	0.600100
C1091	C109	0.202210	0.326590	0.353930
H671	H67	0.202800	0.345600	0.331200
N471	N47	0.082080	0.366600	0.636300
C1101	C110	0.938860	0.332540	0.560680
H681	H68	0.918000	0.331000	0.562000
C1111	C111	0.028390	0.343710	0.554650
C1121	C112	0.233660	0.297820	0.356600
N481	N48	0.131810	0.407470	0.569630
N491	N49	0.295350	0.266290	0.327070
N501	N50	0.935050	0.344510	0.584410
C1131	C113	0.267150	0.296890	0.324950
C1141	C114	0.998680	0.336740	0.556680
C1151	C115	0.024240	0.352580	0.644520
H691	H69	0.004600	0.347600	0.647400
C1161	C116	0.145240	0.416620	0.538220
C1171	C117	0.002170	0.324650	0.531450
H701	H70	0.024800	0.318400	0.513200
C1181	C118	0.103330	0.372170	0.454450
H711	H71	0.083600	0.367200	0.457400
C1191	C119	0.971460	0.322240	0.534040
H721	H72	0.972700	0.313700	0.517900
C1201	C120	0.105910	0.369810	0.485430
C1211	C121	0.154110	0.389170	0.416730
H731	H73	0.171300	0.395100	0.393100
C1221	C122	0.079920	0.320080	0.427740
C1231	C123	0.024260	0.356920	0.673000
H741	H74	0.004700	0.355300	0.695500
C1241	C124	0.158030	0.389250	0.445410
H751	H75	0.177200	0.395600	0.441400
C1251	C125	0.233130	0.269890	0.389830
H761	H76	0.254400	0.249600	0.392400
C1261	C126	0.170780	0.302040	0.413800
H771	H77	0.148800	0.303600	0.433800
C1271	C127	0.053770	0.363710	0.667470
H781	H78	0.053900	0.366500	0.686900
C1281	C128	0.133090	0.379650	0.480570
H791	H79	0.134900	0.379900	0.500500
C1291	C129	0.078710	0.359910	0.520590
C1301	C130	0.200990	0.272050	0.419170
H801	H80	0.199900	0.253500	0.442100
S111	S11	0.909870	0.494750	0.428470
S121	S12	0.198240	0.453120	0.287880
N511	N51	0.118280	0.381780	0.329260
N521	N52	0.009670	0.548730	0.362110
N531	N53	0.043740	0.584720	0.344880
C1311	C131	0.013160	0.580440	0.353380
N541	N54	0.070990	0.421250	0.380930
N551	N55	0.153930	0.410870	0.341630
C1321	C132	0.979480	0.612180	0.355520
C1331	C133	0.947120	0.609220	0.362880
H811	H81	0.947700	0.586700	0.365500
N561	N56	0.073590	0.522350	0.350110
C1341	C134	0.106750	0.582650	0.345610
H821	H82	0.083900	0.600100	0.352900
C1351	C135	0.117270	0.353930	0.326590
H831	H83	0.120400	0.331200	0.345600
N571	N57	0.915020	0.636300	0.366600
C1361	C136	0.167920	0.560680	0.332540
H841	H84	0.189000	0.562000	0.331000
C1371	C137	0.073250	0.554650	0.343710
C1381	C138	0.111920	0.356600	0.297820
N581	N58	0.891090	0.569630	0.407470
N591	N59	0.111290	0.327070	0.266290
N601	N60	0.136030	0.584410	0.344510
C1391	C139	0.111010	0.324950	0.296890
C1401	C140	0.107900	0.556680	0.336740
C1411	C141	0.978660	0.644520	0.352580
H851	H85	0.000400	0.647400	0.347600
C1421	C142	0.899920	0.538220	0.416620
C1431	C143	0.141730	0.531450	0.324650
H861	H86	0.143600	0.513200	0.318400
C1441	C144	0.070050	0.454450	0.372170
H871	H87	0.091800	0.457400	0.367200
C1451	C145	0.172260	0.534040	0.322240
H881	H88	0.195700	0.517900	0.313700
C1461	C146	0.038850	0.485430	0.369810
C1471	C147	0.039990	0.416730	0.389170
H891	H89	0.040500	0.393100	0.395100
C1481	C148	0.172260	0.427740	0.320080
C1491	C149	0.945820	0.673000	0.356920
H901	H90	0.944500	0.695500	0.355300
C1501	C150	0.007310	0.445410	0.389250
H911	H91	0.985800	0.441400	0.395600
C1511	C151	0.107150	0.389830	0.269890
H921	H92	0.103600	0.392400	0.249600
C1521	C152	0.113380	0.413800	0.302040
H931	H93	0.113800	0.433800	0.303600
C1531	C153	0.915050	0.667470	0.363710
H941	H94	0.892700	0.686900	0.366500
C1541	C154	0.006690	0.480570	0.379650
H951	H95	0.984700	0.500500	0.379900
C1551	C155	0.040790	0.520590	0.359910
C1561	C156	0.107790	0.419170	0.272050
H961	H96	0.104500	0.442100	0.253500
S131	S13	0.428470	0.166910	0.909870
S141	S14	0.287880	0.060760	0.198240
N611	N61	0.329260	0.170680	0.118280
N621	N62	0.362110	0.079490	0.009670
N631	N63	0.344880	0.026660	0.043740
C1571	C157	0.353380	0.053020	0.013160
N641	N64	0.380930	0.126830	0.070990
N651	N65	0.341630	0.093570	0.153930
C1581	C158	0.355520	0.052820	0.979480
C1591	C159	0.362880	0.080780	0.947120
H971	H97	0.365500	0.100100	0.947700
N661	N66	0.350110	0.053950	0.073590
C1601	C160	0.345610	0.964990	0.106750
H981	H98	0.352900	0.963100	0.083900
C1611	C161	0.326590	0.202210	0.117270
H991	H99	0.345600	0.202800	0.120400
N671	N67	0.366600	0.082080	0.915020
C1621	C162	0.332540	0.938860	0.167920
H1001	H100	0.331000	0.918000	0.189000
C1631	C163	0.343710	0.028390	0.073250
C1641	C164	0.297820	0.233660	0.111920
N681	N68	0.407470	0.131810	0.891090
N691	N69	0.266290	0.295350	0.111290
N701	N70	0.344510	0.935050	0.136030
C1651	C165	0.296890	0.267150	0.111010
C1661	C166	0.336740	0.998680	0.107900
C1671	C167	0.352580	0.024240	0.978660
H1011	H101	0.347600	0.004600	0.000400
C1681	C168	0.416620	0.145240	0.899920
C1691	C169	0.324650	0.002170	0.141730
H1021	H102	0.318400	0.024800	0.143600
C1701	C170	0.372170	0.103330	0.070050
H1031	H103	0.367200	0.083600	0.091800
C1711	C171	0.322240	0.971460	0.172260
H1041	H104	0.313700	0.972700	0.195700
C1721	C172	0.369810	0.105910	0.038850
C1731	C173	0.389170	0.154110	0.039990
H1051	H105	0.395100	0.171300	0.040500
C1741	C174	0.320080	0.079920	0.172260
C1751	C175	0.356920	0.024260	0.945820
H1061	H106	0.355300	0.004700	0.944500
C1761	C176	0.389250	0.158030	0.007310
H1071	H107	0.395600	0.177200	0.985800
C1771	C177	0.269890	0.233130	0.107150
H1081	H108	0.249600	0.254400	0.103600
C1781	C178	0.302040	0.170780	0.113380
H1091	H109	0.303600	0.148800	0.113800
C1791	C179	0.363710	0.053770	0.915050
H1101	H110	0.366500	0.053900	0.892700
C1801	C180	0.379650	0.133090	0.006690
H1111	H111	0.379900	0.134900	0.984700
C1811	C181	0.359910	0.078710	0.040790
C1821	C182	0.272050	0.200990	0.107790
H1121	H112	0.253500	0.199900	0.104500
S151	S15	0.494750	0.909870	0.166910
S161	S16	0.453120	0.198240	0.060760
N711	N71	0.381780	0.118280	0.170680
N721	N72	0.548730	0.009670	0.079490
N731	N73	0.584720	0.043740	0.026660
C1831	C183	0.580440	0.013160	0.053020
N741	N74	0.421250	0.070990	0.126830
N751	N75	0.410870	0.153930	0.093570
C1841	C184	0.612180	0.979480	0.052820
C1851	C185	0.609220	0.947120	0.080780
H1131	H113	0.586700	0.947700	0.100100
N761	N76	0.522350	0.073590	0.053950
C1861	C186	0.582650	0.106750	0.964990
H1141	H114	0.600100	0.083900	0.963100
C1871	C187	0.353930	0.117270	0.202210
H1151	H115	0.331200	0.120400	0.202800
N771	N77	0.636300	0.915020	0.082080
C1881	C188	0.560680	0.167920	0.938860
H1161	H116	0.562000	0.189000	0.918000
C1891	C189	0.554650	0.073250	0.028390
C1901	C190	0.356600	0.111920	0.233660
N781	N78	0.569630	0.891090	0.131810
N791	N79	0.327070	0.111290	0.295350
N801	N80	0.584410	0.136030	0.935050
C1911	C191	0.324950	0.111010	0.267150
C1921	C192	0.556680	0.107900	0.998680
C1931	C193	0.644520	0.978660	0.024240
H1171	H117	0.647400	0.000400	0.004600
C1941	C194	0.538220	0.899920	0.145240
C1951	C195	0.531450	0.141730	0.002170
H1181	H118	0.513200	0.143600	0.024800
C1961	C196	0.454450	0.070050	0.103330
H1191	H119	0.457400	0.091800	0.083600
C1971	C197	0.534040	0.172260	0.971460
H1201	H120	0.517900	0.195700	0.972700
C1981	C198	0.485430	0.038850	0.105910
C1991	C199	0.416730	0.039990	0.154110
H1211	H121	0.393100	0.040500	0.171300
C2001	C200	0.427740	0.172260	0.079920
C2011	C201	0.673000	0.945820	0.024260
H1221	H122	0.695500	0.944500	0.004700
C2021	C202	0.445410	0.007310	0.158030
H1231	H123	0.441400	0.985800	0.177200
C2031	C203	0.389830	0.107150	0.233130
H1241	H124	0.392400	0.103600	0.254400
C2041	C204	0.413800	0.113380	0.170780
H1251	H125	0.433800	0.113800	0.148800
C2051	C205	0.667470	0.915050	0.053770
H1261	H126	0.686900	0.892700	0.053900
C2061	C206	0.480570	0.006690	0.133090
H1271	H127	0.500500	0.984700	0.134900
C2071	C207	0.520590	0.040790	0.078710
C2081	C208	0.419170	0.107790	0.200990
H1281	H128	0.442100	0.104500	0.199900
S171	S17	0.494750	0.166910	0.428470
S181	S18	0.453120	0.060760	0.287880
N811	N81	0.381780	0.170680	0.329260
N821	N82	0.548730	0.079490	0.362110
N831	N83	0.584720	0.026660	0.344880
C2091	C209	0.580440	0.053020	0.353380
N841	N84	0.421250	0.126830	0.380930
N851	N85	0.410870	0.093570	0.341630
C2101	C210	0.612180	0.052820	0.355520
C2111	C211	0.609220	0.080780	0.362880
H1291	H129	0.586700	0.100100	0.365500
N861	N86	0.522350	0.053950	0.350110
C2121	C212	0.582650	0.964990	0.345610
H1301	H130	0.600100	0.963100	0.352900
C2131	C213	0.353930	0.202210	0.326590
H1311	H131	0.331200	0.202800	0.345600
N871	N87	0.636300	0.082080	0.366600
C2141	C214	0.560680	0.938860	0.332540
H1321	H132	0.562000	0.918000	0.331000
C2151	C215	0.554650	0.028390	0.343710
C2161	C216	0.356600	0.233660	0.297820
N881	N88	0.569630	0.131810	0.407470
N891	N89	0.327070	0.295350	0.266290
N901	N90	0.584410	0.935050	0.344510
C2171	C217	0.324950	0.267150	0.296890
C2181	C218	0.556680	0.998680	0.336740
C2191	C219	0.644520	0.024240	0.352580
H1331	H133	0.647400	0.004600	0.347600
C2201	C220	0.538220	0.145240	0.416620
C2211	C221	0.531450	0.002170	0.324650
H1341	H134	0.513200	0.024800	0.318400
C2221	C222	0.454450	0.103330	0.372170
H1351	H135	0.457400	0.083600	0.367200
C2231	C223	0.534040	0.971460	0.322240
H1361	H136	0.517900	0.972700	0.313700
C2241	C224	0.485430	0.105910	0.369810
C2251	C225	0.416730	0.154110	0.389170
H1371	H137	0.393100	0.171300	0.395100
C2261	C226	0.427740	0.079920	0.320080
C2271	C227	0.673000	0.024260	0.356920
H1381	H138	0.695500	0.004700	0.355300
C2281	C228	0.445410	0.158030	0.389250
H1391	H139	0.441400	0.177200	0.395600
C2291	C229	0.389830	0.233130	0.269890
H1401	H140	0.392400	0.254400	0.249600
C2301	C230	0.413800	0.170780	0.302040
H1411	H141	0.433800	0.148800	0.303600
C2311	C231	0.667470	0.053770	0.363710
H1421	H142	0.686900	0.053900	0.366500
C2321	C232	0.480570	0.133090	0.379650
H1431	H143	0.500500	0.134900	0.379900
C2331	C233	0.520590	0.078710	0.359910
C2341	C234	0.419170	0.200990	0.272050
H1441	H144	0.442100	0.199900	0.253500
S191	S19	0.428470	0.909870	0.494750
S201	S20	0.287880	0.198240	0.453120
N911	N91	0.329260	0.118280	0.381780
N921	N92	0.362110	0.009670	0.548730
N931	N93	0.344880	0.043740	0.584720
C2351	C235	0.353380	0.013160	0.580440
N941	N94	0.380930	0.070990	0.421250
N951	N95	0.341630	0.153930	0.410870
C2361	C236	0.355520	0.979480	0.612180
C2371	C237	0.362880	0.947120	0.609220
H1451	H145	0.365500	0.947700	0.586700
N961	N96	0.350110	0.073590	0.522350
C2381	C238	0.345610	0.106750	0.582650
H1461	H146	0.352900	0.083900	0.600100
C2391	C239	0.326590	0.117270	0.353930
H1471	H147	0.345600	0.120400	0.331200
N971	N97	0.366600	0.915020	0.636300
C2401	C240	0.332540	0.167920	0.560680
H1481	H148	0.331000	0.189000	0.562000
C2411	C241	0.343710	0.073250	0.554650
C2421	C242	0.297820	0.111920	0.356600
N981	N98	0.407470	0.891090	0.569630
N991	N99	0.266290	0.111290	0.327070
N1001	N100	0.344510	0.136030	0.584410
C2431	C243	0.296890	0.111010	0.324950
C2441	C244	0.336740	0.107900	0.556680
C2451	C245	0.352580	0.978660	0.644520
H1491	H149	0.347600	0.000400	0.647400
C2461	C246	0.416620	0.899920	0.538220
C2471	C247	0.324650	0.141730	0.531450
H1501	H150	0.318400	0.143600	0.513200
C2481	C248	0.372170	0.070050	0.454450
H1511	H151	0.367200	0.091800	0.457400
C2491	C249	0.322240	0.172260	0.534040
H1521	H152	0.313700	0.195700	0.517900
C2501	C250	0.369810	0.038850	0.485430
C2511	C251	0.389170	0.039990	0.416730
H1531	H153	0.395100	0.040500	0.393100
C2521	C252	0.320080	0.172260	0.427740
C2531	C253	0.356920	0.945820	0.673000
H1541	H154	0.355300	0.944500	0.695500
C2541	C254	0.389250	0.007310	0.445410
H1551	H155	0.395600	0.985800	0.441400
C2551	C255	0.269890	0.107150	0.389830
H1561	H156	0.249600	0.103600	0.392400
C2561	C256	0.302040	0.113380	0.413800
H1571	H157	0.303600	0.113800	0.433800
C2571	C257	0.363710	0.915050	0.667470
H1581	H158	0.366500	0.892700	0.686900
C2581	C258	0.379650	0.006690	0.480570
H1591	H159	0.379900	0.984700	0.500500
C2591	C259	0.359910	0.040790	0.520590
C2601	C260	0.272050	0.107790	0.419170
H1601	H160	0.253500	0.104500	0.442100
S211	S21	0.909870	0.428470	0.166910
S221	S22	0.198240	0.287880	0.060760
N1011	N101	0.118280	0.329260	0.170680
N1021	N102	0.009670	0.362110	0.079490
N1031	N103	0.043740	0.344880	0.026660
C2611	C261	0.013160	0.353380	0.053020
N1041	N104	0.070990	0.380930	0.126830
N1051	N105	0.153930	0.341630	0.093570
C2621	C262	0.979480	0.355520	0.052820
C2631	C263	0.947120	0.362880	0.080780
H1611	H161	0.947700	0.365500	0.100100
N1061	N106	0.073590	0.350110	0.053950
C2641	C264	0.106750	0.345610	0.964990
H1621	H162	0.083900	0.352900	0.963100
C2651	C265	0.117270	0.326590	0.202210
H1631	H163	0.120400	0.345600	0.202800
N1071	N107	0.915020	0.366600	0.082080
C2661	C266	0.167920	0.332540	0.938860
H1641	H164	0.189000	0.331000	0.918000
C2671	C267	0.073250	0.343710	0.028390
C2681	C268	0.111920	0.297820	0.233660
N1081	N108	0.891090	0.407470	0.131810
N1091	N109	0.111290	0.266290	0.295350
N1101	N110	0.136030	0.344510	0.935050
C2691	C269	0.111010	0.296890	0.267150
C2701	C270	0.107900	0.336740	0.998680
C2711	C271	0.978660	0.352580	0.024240
H1651	H165	0.000400	0.347600	0.004600
C2721	C272	0.899920	0.416620	0.145240
C2731	C273	0.141730	0.324650	0.002170
H1661	H166	0.143600	0.318400	0.024800
C2741	C274	0.070050	0.372170	0.103330
H1671	H167	0.091800	0.367200	0.083600
C2751	C275	0.172260	0.322240	0.971460
H1681	H168	0.195700	0.313700	0.972700
C2761	C276	0.038850	0.369810	0.105910
C2771	C277	0.039990	0.389170	0.154110
H1691	H169	0.040500	0.395100	0.171300
C2781	C278	0.172260	0.320080	0.079920
C2791	C279	0.945820	0.356920	0.024260
H1701	H170	0.944500	0.355300	0.004700
C2801	C280	0.007310	0.389250	0.158030
H1711	H171	0.985800	0.395600	0.177200
C2811	C281	0.107150	0.269890	0.233130
H1721	H172	0.103600	0.249600	0.254400
C2821	C282	0.113380	0.302040	0.170780
H1731	H173	0.113800	0.303600	0.148800
C2831	C283	0.915050	0.363710	0.053770
H1741	H174	0.892700	0.366500	0.053900
C2841	C284	0.006690	0.379650	0.133090
H1751	H175	0.984700	0.379900	0.134900
C2851	C285	0.040790	0.359910	0.078710
C2861	C286	0.107790	0.272050	0.200990
H1761	H176	0.104500	0.253500	0.199900
S231	S23	0.166910	0.494750	0.909870
S241	S24	0.060760	0.453120	0.198240
N1111	N111	0.170680	0.381780	0.118280
N1121	N112	0.079490	0.548730	0.009670
N1131	N113	0.026660	0.584720	0.043740
C2871	C287	0.053020	0.580440	0.013160
N1141	N114	0.126830	0.421250	0.070990
N1151	N115	0.093570	0.410870	0.153930
C2881	C288	0.052820	0.612180	0.979480
C2891	C289	0.080780	0.609220	0.947120
H1771	H177	0.100100	0.586700	0.947700
N1161	N116	0.053950	0.522350	0.073590
C2901	C290	0.964990	0.582650	0.106750
H1781	H178	0.963100	0.600100	0.083900
C2911	C291	0.202210	0.353930	0.117270
H1791	H179	0.202800	0.331200	0.120400
N1171	N117	0.082080	0.636300	0.915020
C2921	C292	0.938860	0.560680	0.167920
H1801	H180	0.918000	0.562000	0.189000
C2931	C293	0.028390	0.554650	0.073250
C2941	C294	0.233660	0.356600	0.111920
N1181	N118	0.131810	0.569630	0.891090
N1191	N119	0.295350	0.327070	0.111290
N1201	N120	0.935050	0.584410	0.136030
C2951	C295	0.267150	0.324950	0.111010
C2961	C296	0.998680	0.556680	0.107900
C2971	C297	0.024240	0.644520	0.978660
H1811	H181	0.004600	0.647400	0.000400
C2981	C298	0.145240	0.538220	0.899920
C2991	C299	0.002170	0.531450	0.141730
H1821	H182	0.024800	0.513200	0.143600
C3001	C300	0.103330	0.454450	0.070050
H1831	H183	0.083600	0.457400	0.091800
C3011	C301	0.971460	0.534040	0.172260
H1841	H184	0.972700	0.517900	0.195700
C3021	C302	0.105910	0.485430	0.038850
C3031	C303	0.154110	0.416730	0.039990
H1851	H185	0.171300	0.393100	0.040500
C3041	C304	0.079920	0.427740	0.172260
C3051	C305	0.024260	0.673000	0.945820
H1861	H186	0.004700	0.695500	0.944500
C3061	C306	0.158030	0.445410	0.007310
H1871	H187	0.177200	0.441400	0.985800
C3071	C307	0.233130	0.389830	0.107150
H1881	H188	0.254400	0.392400	0.103600
C3081	C308	0.170780	0.413800	0.113380
H1891	H189	0.148800	0.433800	0.113800
C3091	C309	0.053770	0.667470	0.915050
H1901	H190	0.053900	0.686900	0.892700
C3101	C310	0.133090	0.480570	0.006690
H1911	H191	0.134900	0.500500	0.984700
C3111	C311	0.078710	0.520590	0.040790
C3121	C312	0.200990	0.419170	0.107790
H1921	H192	0.199900	0.442100	0.104500
S251	S25	0.821530	0.755250	0.340130
S261	S26	0.962120	0.796880	0.051760
N1211	N121	0.920740	0.868220	0.131720
N1221	N122	0.887890	0.701270	0.240330
N1231	N123	0.905120	0.665280	0.206260
C3131	C313	0.896620	0.669560	0.236840
N1241	N124	0.869070	0.828750	0.179010
N1251	N125	0.908370	0.839130	0.096070
C3141	C314	0.894480	0.637820	0.270520
C3151	C315	0.887120	0.640780	0.302880
H1931	H193	0.884500	0.663300	0.302300
N1261	N126	0.899890	0.727650	0.176410
C3161	C316	0.904390	0.667350	0.143250
H1941	H194	0.897100	0.649900	0.166100
C3171	C317	0.923410	0.896070	0.132730
H1951	H195	0.904400	0.918800	0.129600
N1271	N127	0.883400	0.613700	0.334980
C3181	C318	0.917460	0.689320	0.082080
H1961	H196	0.919000	0.688000	0.061000
C3191	C319	0.906290	0.695350	0.176750
C3201	C320	0.952180	0.893400	0.138080
N1281	N128	0.842530	0.680370	0.358910
N1291	N129	0.983710	0.922930	0.138710
N1301	N130	0.905490	0.665590	0.113970
C3211	C321	0.953110	0.925050	0.138990
C3221	C322	0.913260	0.693320	0.142100
C3231	C323	0.897420	0.605480	0.271340
H1971	H197	0.902400	0.602600	0.249600
C3241	C324	0.833380	0.711780	0.350080
C3251	C325	0.925350	0.718550	0.108270
H1981	H198	0.931600	0.736800	0.106400
C3261	C326	0.877830	0.795550	0.179950
H1991	H199	0.882800	0.792600	0.158200
C3271	C327	0.927760	0.715960	0.077740
H2001	H200	0.936300	0.732100	0.054300
C3281	C328	0.880190	0.764570	0.211150
C3291	C329	0.860830	0.833270	0.210010
H2011	H201	0.854900	0.856900	0.209500
C3301	C330	0.929920	0.822260	0.077740
C3311	C331	0.893080	0.577000	0.304180
H2021	H202	0.894700	0.554500	0.305500
C3321	C332	0.860750	0.804590	0.242690
H2031	H203	0.854400	0.808600	0.264200
C3331	C333	0.980110	0.860170	0.142850
H2041	H204	0.000400	0.857600	0.146400
C3341	C334	0.947960	0.836200	0.136620
H2051	H205	0.946400	0.816200	0.136200
C3351	C335	0.886290	0.582530	0.334950
H2061	H206	0.883500	0.563100	0.357300
C3361	C336	0.870350	0.769430	0.243310
H2071	H207	0.870100	0.749500	0.265300
C3371	C337	0.890090	0.729410	0.209210
C3381	C338	0.977950	0.830830	0.142210
H2081	H208	0.996500	0.807900	0.145500
S271	S27	0.755250	0.821530	0.083090
S281	S28	0.796880	0.962120	0.189240
N1311	N131	0.868220	0.920740	0.079320
N1321	N132	0.701270	0.887890	0.170510
N1331	N133	0.665280	0.905120	0.223340
C3391	C339	0.669560	0.896620	0.196980
N1341	N134	0.828750	0.869070	0.123170
N1351	N135	0.839130	0.908370	0.156430
C3401	C340	0.637820	0.894480	0.197180
C3411	C341	0.640780	0.887120	0.169220
H2091	H209	0.663300	0.884500	0.149900
N1361	N136	0.727650	0.899890	0.196050
C3421	C342	0.667350	0.904390	0.285010
H2101	H210	0.649900	0.897100	0.286900
C3431	C343	0.896070	0.923410	0.047790
H2111	H211	0.918800	0.904400	0.047200
N1371	N137	0.613700	0.883400	0.167920
C3441	C344	0.689320	0.917460	0.311140
H2121	H212	0.688000	0.919000	0.332000
C3451	C345	0.695350	0.906290	0.221610
C3461	C346	0.893400	0.952180	0.016340
N1381	N138	0.680370	0.842530	0.118190
N1391	N139	0.922930	0.983710	0.954650
N1401	N140	0.665590	0.905490	0.314950
C3471	C347	0.925050	0.953110	0.982850
C3481	C348	0.693320	0.913260	0.251320
C3491	C349	0.605480	0.897420	0.225760
H2131	H213	0.602600	0.902400	0.245400
C3501	C350	0.711780	0.833380	0.104760
C3511	C351	0.718550	0.925350	0.247830
H2141	H214	0.736800	0.931600	0.225200
C3521	C352	0.795550	0.877830	0.146670
H2151	H215	0.792600	0.882800	0.166400
C3531	C353	0.715960	0.927760	0.278540
H2161	H216	0.732100	0.936300	0.277300
C3541	C354	0.764570	0.880190	0.144090
C3551	C355	0.833270	0.860830	0.095890
H2171	H217	0.856900	0.854900	0.078700
C3561	C356	0.822260	0.929920	0.170080
C3571	C357	0.577000	0.893080	0.225740
H2181	H218	0.554500	0.894700	0.245300
C3581	C358	0.804590	0.860750	0.091970
H2191	H219	0.808600	0.854400	0.072800
C3591	C359	0.860170	0.980110	0.016870
H2201	H220	0.857600	0.000400	0.995600
C3601	C360	0.836200	0.947960	0.079220
H2211	H221	0.816200	0.946400	0.101200
C3611	C361	0.582530	0.886290	0.196230
H2221	H222	0.563100	0.883500	0.196100
C3621	C362	0.769430	0.870350	0.116910
H2231	H223	0.749500	0.870100	0.115100
C3631	C363	0.729410	0.890090	0.171290
C3641	C364	0.830830	0.977950	0.049010
H2241	H224	0.807900	0.996500	0.050100
S291	S29	0.083090	0.340130	0.755250
S301	S30	0.189240	0.051760	0.796880
N1411	N141	0.079320	0.131720	0.868220
N1421	N142	0.170510	0.240330	0.701270
N1431	N143	0.223340	0.206260	0.665280
C3651	C365	0.196980	0.236840	0.669560
N1441	N144	0.123170	0.179010	0.828750
N1451	N145	0.156430	0.096070	0.839130
C3661	C366	0.197180	0.270520	0.637820
C3671	C367	0.169220	0.302880	0.640780
H2251	H225	0.149900	0.302300	0.663300
N1461	N146	0.196050	0.176410	0.727650
C3681	C368	0.285010	0.143250	0.667350
H2261	H226	0.286900	0.166100	0.649900
C3691	C369	0.047790	0.132730	0.896070
H2271	H227	0.047200	0.129600	0.918800
N1471	N147	0.167920	0.334980	0.613700
C3701	C370	0.311140	0.082080	0.689320
H2281	H228	0.332000	0.061000	0.688000
C3711	C371	0.221610	0.176750	0.695350
C3721	C372	0.016340	0.138080	0.893400
N1481	N148	0.118190	0.358910	0.680370
N1491	N149	0.954650	0.138710	0.922930
N1501	N150	0.314950	0.113970	0.665590
C3731	C373	0.982850	0.138990	0.925050
C3741	C374	0.251320	0.142100	0.693320
C3751	C375	0.225760	0.271340	0.605480
H2291	H229	0.245400	0.249600	0.602600
C3761	C376	0.104760	0.350080	0.711780
C3771	C377	0.247830	0.108270	0.718550
H2301	H230	0.225200	0.106400	0.736800
C3781	C378	0.146670	0.179950	0.795550
H2311	H231	0.166400	0.158200	0.792600
C3791	C379	0.278540	0.077740	0.715960
H2321	H232	0.277300	0.054300	0.732100
C3801	C380	0.144090	0.211150	0.764570
C3811	C381	0.095890	0.210010	0.833270
H2331	H233	0.078700	0.209500	0.856900
C3821	C382	0.170080	0.077740	0.822260
C3831	C383	0.225740	0.304180	0.577000
H2341	H234	0.245300	0.305500	0.554500
C3841	C384	0.091970	0.242690	0.804590
H2351	H235	0.072800	0.264200	0.808600
C3851	C385	0.016870	0.142850	0.860170
H2361	H236	0.995600	0.146400	0.857600
C3861	C386	0.079220	0.136620	0.836200
H2371	H237	0.101200	0.136200	0.816200
C3871	C387	0.196230	0.334950	0.582530
H2381	H238	0.196100	0.357300	0.563100
C3881	C388	0.116910	0.243310	0.769430
H2391	H239	0.115100	0.265300	0.749500
C3891	C389	0.171290	0.209210	0.729410
C3901	C390	0.049010	0.142210	0.830830
H2401	H240	0.050100	0.145500	0.807900
S311	S31	0.340130	0.083090	0.821530
S321	S32	0.051760	0.189240	0.962120
N1511	N151	0.131720	0.079320	0.920740
N1521	N152	0.240330	0.170510	0.887890
N1531	N153	0.206260	0.223340	0.905120
C3911	C391	0.236840	0.196980	0.896620
N1541	N154	0.179010	0.123170	0.869070
N1551	N155	0.096070	0.156430	0.908370
C3921	C392	0.270520	0.197180	0.894480
C3931	C393	0.302880	0.169220	0.887120
H2411	H241	0.302300	0.149900	0.884500
N1561	N156	0.176410	0.196050	0.899890
C3941	C394	0.143250	0.285010	0.904390
H2421	H242	0.166100	0.286900	0.897100
C3951	C395	0.132730	0.047790	0.923410
H2431	H243	0.129600	0.047200	0.904400
N1571	N157	0.334980	0.167920	0.883400
C3961	C396	0.082080	0.311140	0.917460
H2441	H244	0.061000	0.332000	0.919000
C3971	C397	0.176750	0.221610	0.906290
C3981	C398	0.138080	0.016340	0.952180
N1581	N158	0.358910	0.118190	0.842530
N1591	N159	0.138710	0.954650	0.983710
N1601	N160	0.113970	0.314950	0.905490
C3991	C399	0.138990	0.982850	0.953110
C4001	C400	0.142100	0.251320	0.913260
C4011	C401	0.271340	0.225760	0.897420
H2451	H245	0.249600	0.245400	0.902400
C4021	C402	0.350080	0.104760	0.833380
C4031	C403	0.108270	0.247830	0.925350
H2461	H246	0.106400	0.225200	0.931600
C4041	C404	0.179950	0.146670	0.877830
H2471	H247	0.158200	0.166400	0.882800
C4051	C405	0.077740	0.278540	0.927760
H2481	H248	0.054300	0.277300	0.936300
C4061	C406	0.211150	0.144090	0.880190
C4071	C407	0.210010	0.095890	0.860830
H2491	H249	0.209500	0.078700	0.854900
C4081	C408	0.077740	0.170080	0.929920
C4091	C409	0.304180	0.225740	0.893080
H2501	H250	0.305500	0.245300	0.894700
C4101	C410	0.242690	0.091970	0.860750
H2511	H251	0.264200	0.072800	0.854400
C4111	C411	0.142850	0.016870	0.980110
H2521	H252	0.146400	0.995600	0.000400
C4121	C412	0.136620	0.079220	0.947960
H2531	H253	0.136200	0.101200	0.946400
C4131	C413	0.334950	0.196230	0.886290
H2541	H254	0.357300	0.196100	0.883500
C4141	C414	0.243310	0.116910	0.870350
H2551	H255	0.265300	0.115100	0.870100
C4151	C415	0.209210	0.171290	0.890090
C4161	C416	0.142210	0.049010	0.977950
H2561	H256	0.145500	0.050100	0.996500
S331	S33	0.083090	0.821530	0.340130
S341	S34	0.189240	0.962120	0.051760
N1611	N161	0.079320	0.920740	0.131720
N1621	N162	0.170510	0.887890	0.240330
N1631	N163	0.223340	0.905120	0.206260
C4171	C417	0.196980	0.896620	0.236840
N1641	N164	0.123170	0.869070	0.179010
N1651	N165	0.156430	0.908370	0.096070
C4181	C418	0.197180	0.894480	0.270520
C4191	C419	0.169220	0.887120	0.302880
H2571	H257	0.149900	0.884500	0.302300
N1661	N166	0.196050	0.899890	0.176410
C4201	C420	0.285010	0.904390	0.143250
H2581	H258	0.286900	0.897100	0.166100
C4211	C421	0.047790	0.923410	0.132730
H2591	H259	0.047200	0.904400	0.129600
N1671	N167	0.167920	0.883400	0.334980
C4221	C422	0.311140	0.917460	0.082080
H2601	H260	0.332000	0.919000	0.061000
C4231	C423	0.221610	0.906290	0.176750
C4241	C424	0.016340	0.952180	0.138080
N1681	N168	0.118190	0.842530	0.358910
N1691	N169	0.954650	0.983710	0.138710
N1701	N170	0.314950	0.905490	0.113970
C4251	C425	0.982850	0.953110	0.138990
C4261	C426	0.251320	0.913260	0.142100
C4271	C427	0.225760	0.897420	0.271340
H2611	H261	0.245400	0.902400	0.249600
C4281	C428	0.104760	0.833380	0.350080
C4291	C429	0.247830	0.925350	0.108270
H2621	H262	0.225200	0.931600	0.106400
C4301	C430	0.146670	0.877830	0.179950
H2631	H263	0.166400	0.882800	0.158200
C4311	C431	0.278540	0.927760	0.077740
H2641	H264	0.277300	0.936300	0.054300
C4321	C432	0.144090	0.880190	0.211150
C4331	C433	0.095890	0.860830	0.210010
H2651	H265	0.078700	0.854900	0.209500
C4341	C434	0.170080	0.929920	0.077740
C4351	C435	0.225740	0.893080	0.304180
H2661	H266	0.245300	0.894700	0.305500
C4361	C436	0.091970	0.860750	0.242690
H2671	H267	0.072800	0.854400	0.264200
C4371	C437	0.016870	0.980110	0.142850
H2681	H268	0.995600	0.000400	0.146400
C4381	C438	0.079220	0.947960	0.136620
H2691	H269	0.101200	0.946400	0.136200
C4391	C439	0.196230	0.886290	0.334950
H2701	H270	0.196100	0.883500	0.357300
C4401	C440	0.116910	0.870350	0.243310
H2711	H271	0.115100	0.870100	0.265300
C4411	C441	0.171290	0.890090	0.209210
C4421	C442	0.049010	0.977950	0.142210
H2721	H272	0.050100	0.996500	0.145500
S351	S35	0.340130	0.755250	0.083090
S361	S36	0.051760	0.796880	0.189240
N1711	N171	0.131720	0.868220	0.079320
N1721	N172	0.240330	0.701270	0.170510
N1731	N173	0.206260	0.665280	0.223340
C4431	C443	0.236840	0.669560	0.196980
N1741	N174	0.179010	0.828750	0.123170
N1751	N175	0.096070	0.839130	0.156430
C4441	C444	0.270520	0.637820	0.197180
C4451	C445	0.302880	0.640780	0.169220
H2731	H273	0.302300	0.663300	0.149900
N1761	N176	0.176410	0.727650	0.196050
C4461	C446	0.143250	0.667350	0.285010
H2741	H274	0.166100	0.649900	0.286900
C4471	C447	0.132730	0.896070	0.047790
H2751	H275	0.129600	0.918800	0.047200
N1771	N177	0.334980	0.613700	0.167920
C4481	C448	0.082080	0.689320	0.311140
H2761	H276	0.061000	0.688000	0.332000
C4491	C449	0.176750	0.695350	0.221610
C4501	C450	0.138080	0.893400	0.016340
N1781	N178	0.358910	0.680370	0.118190
N1791	N179	0.138710	0.922930	0.954650
N1801	N180	0.113970	0.665590	0.314950
C4511	C451	0.138990	0.925050	0.982850
C4521	C452	0.142100	0.693320	0.251320
C4531	C453	0.271340	0.605480	0.225760
H2771	H277	0.249600	0.602600	0.245400
C4541	C454	0.350080	0.711780	0.104760
C4551	C455	0.108270	0.718550	0.247830
H2781	H278	0.106400	0.736800	0.225200
C4561	C456	0.179950	0.795550	0.146670
H2791	H279	0.158200	0.792600	0.166400
C4571	C457	0.077740	0.715960	0.278540
H2801	H280	0.054300	0.732100	0.277300
C4581	C458	0.211150	0.764570	0.144090
C4591	C459	0.210010	0.833270	0.095890
H2811	H281	0.209500	0.856900	0.078700
C4601	C460	0.077740	0.822260	0.170080
C4611	C461	0.304180	0.577000	0.225740
H2821	H282	0.305500	0.554500	0.245300
C4621	C462	0.242690	0.804590	0.091970
H2831	H283	0.264200	0.808600	0.072800
C4631	C463	0.142850	0.860170	0.016870
H2841	H284	0.146400	0.857600	0.995600
C4641	C464	0.136620	0.836200	0.079220
H2851	H285	0.136200	0.816200	0.101200
C4651	C465	0.334950	0.582530	0.196230
H2861	H286	0.357300	0.563100	0.196100
C4661	C466	0.243310	0.769430	0.116910
H2871	H287	0.265300	0.749500	0.115100
C4671	C467	0.209210	0.729410	0.171290
C4681	C468	0.142210	0.830830	0.049010
H2881	H288	0.145500	0.807900	0.050100
S371	S37	0.821530	0.083090	0.755250
S381	S38	0.962120	0.189240	0.796880
N1811	N181	0.920740	0.079320	0.868220
N1821	N182	0.887890	0.170510	0.701270
N1831	N183	0.905120	0.223340	0.665280
C4691	C469	0.896620	0.196980	0.669560
N1841	N184	0.869070	0.123170	0.828750
N1851	N185	0.908370	0.156430	0.839130
C4701	C470	0.894480	0.197180	0.637820
C4711	C471	0.887120	0.169220	0.640780
H2891	H289	0.884500	0.149900	0.663300
N1861	N186	0.899890	0.196050	0.727650
C4721	C472	0.904390	0.285010	0.667350
H2901	H290	0.897100	0.286900	0.649900
C4731	C473	0.923410	0.047790	0.896070
H2911	H291	0.904400	0.047200	0.918800
N1871	N187	0.883400	0.167920	0.613700
C4741	C474	0.917460	0.311140	0.689320
H2921	H292	0.919000	0.332000	0.688000
C4751	C475	0.906290	0.221610	0.695350
C4761	C476	0.952180	0.016340	0.893400
N1881	N188	0.842530	0.118190	0.680370
N1891	N189	0.983710	0.954650	0.922930
N1901	N190	0.905490	0.314950	0.665590
C4771	C477	0.953110	0.982850	0.925050
C4781	C478	0.913260	0.251320	0.693320
C4791	C479	0.897420	0.225760	0.605480
H2931	H293	0.902400	0.245400	0.602600
C4801	C480	0.833380	0.104760	0.711780
C4811	C481	0.925350	0.247830	0.718550
H2941	H294	0.931600	0.225200	0.736800
C4821	C482	0.877830	0.146670	0.795550
H2951	H295	0.882800	0.166400	0.792600
C4831	C483	0.927760	0.278540	0.715960
H2961	H296	0.936300	0.277300	0.732100
C4841	C484	0.880190	0.144090	0.764570
C4851	C485	0.860830	0.095890	0.833270
H2971	H297	0.854900	0.078700	0.856900
C4861	C486	0.929920	0.170080	0.822260
C4871	C487	0.893080	0.225740	0.577000
H2981	H298	0.894700	0.245300	0.554500
C4881	C488	0.860750	0.091970	0.804590
H2991	H299	0.854400	0.072800	0.808600
C4891	C489	0.980110	0.016870	0.860170
H3001	H300	0.000400	0.995600	0.857600
C4901	C490	0.947960	0.079220	0.836200
H3011	H301	0.946400	0.101200	0.816200
C4911	C491	0.886290	0.196230	0.582530
H3021	H302	0.883500	0.196100	0.563100
C4921	C492	0.870350	0.116910	0.769430
H3031	H303	0.870100	0.115100	0.749500
C4931	C493	0.890090	0.171290	0.729410
C4941	C494	0.977950	0.049010	0.830830
H3041	H304	0.996500	0.050100	0.807900
S391	S39	0.755250	0.340130	0.821530
S401	S40	0.796880	0.051760	0.962120
N1911	N191	0.868220	0.131720	0.920740
N1921	N192	0.701270	0.240330	0.887890
N1931	N193	0.665280	0.206260	0.905120
C4951	C495	0.669560	0.236840	0.896620
N1941	N194	0.828750	0.179010	0.869070
N1951	N195	0.839130	0.096070	0.908370
C4961	C496	0.637820	0.270520	0.894480
C4971	C497	0.640780	0.302880	0.887120
H3051	H305	0.663300	0.302300	0.884500
N1961	N196	0.727650	0.176410	0.899890
C4981	C498	0.667350	0.143250	0.904390
H3061	H306	0.649900	0.166100	0.897100
C4991	C499	0.896070	0.132730	0.923410
H3071	H307	0.918800	0.129600	0.904400
N1971	N197	0.613700	0.334980	0.883400
C5001	C500	0.689320	0.082080	0.917460
H3081	H308	0.688000	0.061000	0.919000
C5011	C501	0.695350	0.176750	0.906290
C5021	C502	0.893400	0.138080	0.952180
N1981	N198	0.680370	0.358910	0.842530
N1991	N199	0.922930	0.138710	0.983710
N2001	N200	0.665590	0.113970	0.905490
C5031	C503	0.925050	0.138990	0.953110
C5041	C504	0.693320	0.142100	0.913260
C5051	C505	0.605480	0.271340	0.897420
H3091	H309	0.602600	0.249600	0.902400
C5061	C506	0.711780	0.350080	0.833380
C5071	C507	0.718550	0.108270	0.925350
H3101	H310	0.736800	0.106400	0.931600
C5081	C508	0.795550	0.179950	0.877830
H3111	H311	0.792600	0.158200	0.882800
C5091	C509	0.715960	0.077740	0.927760
H3121	H312	0.732100	0.054300	0.936300
C5101	C510	0.764570	0.211150	0.880190
C5111	C511	0.833270	0.210010	0.860830
H3131	H313	0.856900	0.209500	0.854900
C5121	C512	0.822260	0.077740	0.929920
C5131	C513	0.577000	0.304180	0.893080
H3141	H314	0.554500	0.305500	0.894700
C5141	C514	0.804590	0.242690	0.860750
H3151	H315	0.808600	0.264200	0.854400
C5151	C515	0.860170	0.142850	0.980110
H3161	H316	0.857600	0.146400	0.000400
C5161	C516	0.836200	0.136620	0.947960
H3171	H317	0.816200	0.136200	0.946400
C5171	C517	0.582530	0.334950	0.886290
H3181	H318	0.563100	0.357300	0.883500
C5181	C518	0.769430	0.243310	0.870350
H3191	H319	0.749500	0.265300	0.870100
C5191	C519	0.729410	0.209210	0.890090
C5201	C520	0.830830	0.142210	0.977950
H3201	H320	0.807900	0.145500	0.996500
S411	S41	0.755250	0.083090	0.340130
S421	S42	0.796880	0.189240	0.051760
N2011	N201	0.868220	0.079320	0.131720
N2021	N202	0.701270	0.170510	0.240330
N2031	N203	0.665280	0.223340	0.206260
C5211	C521	0.669560	0.196980	0.236840
N2041	N204	0.828750	0.123170	0.179010
N2051	N205	0.839130	0.156430	0.096070
C5221	C522	0.637820	0.197180	0.270520
C5231	C523	0.640780	0.169220	0.302880
H3211	H321	0.663300	0.149900	0.302300
N2061	N206	0.727650	0.196050	0.176410
C5241	C524	0.667350	0.285010	0.143250
H3221	H322	0.649900	0.286900	0.166100
C5251	C525	0.896070	0.047790	0.132730
H3231	H323	0.918800	0.047200	0.129600
N2071	N207	0.613700	0.167920	0.334980
C5261	C526	0.689320	0.311140	0.082080
H3241	H324	0.688000	0.332000	0.061000
C5271	C527	0.695350	0.221610	0.176750
C5281	C528	0.893400	0.016340	0.138080
N2081	N208	0.680370	0.118190	0.358910
N2091	N209	0.922930	0.954650	0.138710
N2101	N210	0.665590	0.314950	0.113970
C5291	C529	0.925050	0.982850	0.138990
C5301	C530	0.693320	0.251320	0.142100
C5311	C531	0.605480	0.225760	0.271340
H3251	H325	0.602600	0.245400	0.249600
C5321	C532	0.711780	0.104760	0.350080
C5331	C533	0.718550	0.247830	0.108270
H3261	H326	0.736800	0.225200	0.106400
C5341	C534	0.795550	0.146670	0.179950
H3271	H327	0.792600	0.166400	0.158200
C5351	C535	0.715960	0.278540	0.077740
H3281	H328	0.732100	0.277300	0.054300
C5361	C536	0.764570	0.144090	0.211150
C5371	C537	0.833270	0.095890	0.210010
H3291	H329	0.856900	0.078700	0.209500
C5381	C538	0.822260	0.170080	0.077740
C5391	C539	0.577000	0.225740	0.304180
H3301	H330	0.554500	0.245300	0.305500
C5401	C540	0.804590	0.091970	0.242690
H3311	H331	0.808600	0.072800	0.264200
C5411	C541	0.860170	0.016870	0.142850
H3321	H332	0.857600	0.995600	0.146400
C5421	C542	0.836200	0.079220	0.136620
H3331	H333	0.816200	0.101200	0.136200
C5431	C543	0.582530	0.196230	0.334950
H3341	H334	0.563100	0.196100	0.357300
C5441	C544	0.769430	0.116910	0.243310
H3351	H335	0.749500	0.115100	0.265300
C5451	C545	0.729410	0.171290	0.209210
C5461	C546	0.830830	0.049010	0.142210
H3361	H336	0.807900	0.050100	0.145500
S431	S43	0.821530	0.340130	0.083090
S441	S44	0.962120	0.051760	0.189240
N2111	N211	0.920740	0.131720	0.079320
N2121	N212	0.887890	0.240330	0.170510
N2131	N213	0.905120	0.206260	0.223340
C5471	C547	0.896620	0.236840	0.196980
N2141	N214	0.869070	0.179010	0.123170
N2151	N215	0.908370	0.096070	0.156430
C5481	C548	0.894480	0.270520	0.197180
C5491	C549	0.887120	0.302880	0.169220
H3371	H337	0.884500	0.302300	0.149900
N2161	N216	0.899890	0.176410	0.196050
C5501	C550	0.904390	0.143250	0.285010
H3381	H338	0.897100	0.166100	0.286900
C5511	C551	0.923410	0.132730	0.047790
H3391	H339	0.904400	0.129600	0.047200
N2171	N217	0.883400	0.334980	0.167920
C5521	C552	0.917460	0.082080	0.311140
H3401	H340	0.919000	0.061000	0.332000
C5531	C553	0.906290	0.176750	0.221610
C5541	C554	0.952180	0.138080	0.016340
N2181	N218	0.842530	0.358910	0.118190
N2191	N219	0.983710	0.138710	0.954650
N2201	N220	0.905490	0.113970	0.314950
C5551	C555	0.953110	0.138990	0.982850
C5561	C556	0.913260	0.142100	0.251320
C5571	C557	0.897420	0.271340	0.225760
H3411	H341	0.902400	0.249600	0.245400
C5581	C558	0.833380	0.350080	0.104760
C5591	C559	0.925350	0.108270	0.247830
H3421	H342	0.931600	0.106400	0.225200
C5601	C560	0.877830	0.179950	0.146670
H3431	H343	0.882800	0.158200	0.166400
C5611	C561	0.927760	0.077740	0.278540
H3441	H344	0.936300	0.054300	0.277300
C5621	C562	0.880190	0.211150	0.144090
C5631	C563	0.860830	0.210010	0.095890
H3451	H345	0.854900	0.209500	0.078700
C5641	C564	0.929920	0.077740	0.170080
C5651	C565	0.893080	0.304180	0.225740
H3461	H346	0.894700	0.305500	0.245300
C5661	C566	0.860750	0.242690	0.091970
H3471	H347	0.854400	0.264200	0.072800
C5671	C567	0.980110	0.142850	0.016870
H3481	H348	0.000400	0.146400	0.995600
C5681	C568	0.947960	0.136620	0.079220
H3491	H349	0.946400	0.136200	0.101200
C5691	C569	0.886290	0.334950	0.196230
H3501	H350	0.883500	0.357300	0.196100
C5701	C570	0.870350	0.243310	0.116910
H3511	H351	0.870100	0.265300	0.115100
C5711	C571	0.890090	0.209210	0.171290
C5721	C572	0.977950	0.142210	0.049010
H3521	H352	0.996500	0.145500	0.050100
S451	S45	0.340130	0.821530	0.755250
S461	S46	0.051760	0.962120	0.796880
N2211	N221	0.131720	0.920740	0.868220
N2221	N222	0.240330	0.887890	0.701270
N2231	N223	0.206260	0.905120	0.665280
C5731	C573	0.236840	0.896620	0.669560
N2241	N224	0.179010	0.869070	0.828750
N2251	N225	0.096070	0.908370	0.839130
C5741	C574	0.270520	0.894480	0.637820
C5751	C575	0.302880	0.887120	0.640780
H3531	H353	0.302300	0.884500	0.663300
N2261	N226	0.176410	0.899890	0.727650
C5761	C576	0.143250	0.904390	0.667350
H3541	H354	0.166100	0.897100	0.649900
C5771	C577	0.132730	0.923410	0.896070
H3551	H355	0.129600	0.904400	0.918800
N2271	N227	0.334980	0.883400	0.613700
C5781	C578	0.082080	0.917460	0.689320
H3561	H356	0.061000	0.919000	0.688000
C5791	C579	0.176750	0.906290	0.695350
C5801	C580	0.138080	0.952180	0.893400
N2281	N228	0.358910	0.842530	0.680370
N2291	N229	0.138710	0.983710	0.922930
N2301	N230	0.113970	0.905490	0.665590
C5811	C581	0.138990	0.953110	0.925050
C5821	C582	0.142100	0.913260	0.693320
C5831	C583	0.271340	0.897420	0.605480
H3571	H357	0.249600	0.902400	0.602600
C5841	C584	0.350080	0.833380	0.711780
C5851	C585	0.108270	0.925350	0.718550
H3581	H358	0.106400	0.931600	0.736800
C5861	C586	0.179950	0.877830	0.795550
H3591	H359	0.158200	0.882800	0.792600
C5871	C587	0.077740	0.927760	0.715960
H3601	H360	0.054300	0.936300	0.732100
C5881	C588	0.211150	0.880190	0.764570
C5891	C589	0.210010	0.860830	0.833270
H3611	H361	0.209500	0.854900	0.856900
C5901	C590	0.077740	0.929920	0.822260
C5911	C591	0.304180	0.893080	0.577000
H3621	H362	0.305500	0.894700	0.554500
C5921	C592	0.242690	0.860750	0.804590
H3631	H363	0.264200	0.854400	0.808600
C5931	C593	0.142850	0.980110	0.860170
H3641	H364	0.146400	0.000400	0.857600
C5941	C594	0.136620	0.947960	0.836200
H3651	H365	0.136200	0.946400	0.816200
C5951	C595	0.334950	0.886290	0.582530
H3661	H366	0.357300	0.883500	0.563100
C5961	C596	0.243310	0.870350	0.769430
H3671	H367	0.265300	0.870100	0.749500
C5971	C597	0.209210	0.890090	0.729410
C5981	C598	0.142210	0.977950	0.830830
H3681	H368	0.145500	0.996500	0.807900
S471	S47	0.083090	0.755250	0.821530
S481	S48	0.189240	0.796880	0.962120
N2311	N231	0.079320	0.868220	0.920740
N2321	N232	0.170510	0.701270	0.887890
N2331	N233	0.223340	0.665280	0.905120
C5991	C599	0.196980	0.669560	0.896620
N2341	N234	0.123170	0.828750	0.869070
N2351	N235	0.156430	0.839130	0.908370
C6001	C600	0.197180	0.637820	0.894480
C6011	C601	0.169220	0.640780	0.887120
H3691	H369	0.149900	0.663300	0.884500
N2361	N236	0.196050	0.727650	0.899890
C6021	C602	0.285010	0.667350	0.904390
H3701	H370	0.286900	0.649900	0.897100
C6031	C603	0.047790	0.896070	0.923410
H3711	H371	0.047200	0.918800	0.904400
N2371	N237	0.167920	0.613700	0.883400
C6041	C604	0.311140	0.689320	0.917460
H3721	H372	0.332000	0.688000	0.919000
C6051	C605	0.221610	0.695350	0.906290
C6061	C606	0.016340	0.893400	0.952180
N2381	N238	0.118190	0.680370	0.842530
N2391	N239	0.954650	0.922930	0.983710
N2401	N240	0.314950	0.665590	0.905490
C6071	C607	0.982850	0.925050	0.953110
C6081	C608	0.251320	0.693320	0.913260
C6091	C609	0.225760	0.605480	0.897420
H3731	H373	0.245400	0.602600	0.902400
C6101	C610	0.104760	0.711780	0.833380
C6111	C611	0.247830	0.718550	0.925350
H3741	H374	0.225200	0.736800	0.931600
C6121	C612	0.146670	0.795550	0.877830
H3751	H375	0.166400	0.792600	0.882800
C6131	C613	0.278540	0.715960	0.927760
H3761	H376	0.277300	0.732100	0.936300
C6141	C614	0.144090	0.764570	0.880190
C6151	C615	0.095890	0.833270	0.860830
H3771	H377	0.078700	0.856900	0.854900
C6161	C616	0.170080	0.822260	0.929920
C6171	C617	0.225740	0.577000	0.893080
H3781	H378	0.245300	0.554500	0.894700
C6181	C618	0.091970	0.804590	0.860750
H3791	H379	0.072800	0.808600	0.854400
C6191	C619	0.016870	0.860170	0.980110
H3801	H380	0.995600	0.857600	0.000400
C6201	C620	0.079220	0.836200	0.947960
H3811	H381	0.101200	0.816200	0.946400
C6211	C621	0.196230	0.582530	0.886290
H3821	H382	0.196100	0.563100	0.883500
C6221	C622	0.116910	0.769430	0.870350
H3831	H383	0.115100	0.749500	0.870100
C6231	C623	0.171290	0.729410	0.890090
C6241	C624	0.049010	0.830830	0.977950
H3841	H384	0.050100	0.807900	0.996500
S491	S49	0.321530	0.255250	0.583090
S501	S50	0.462120	0.296880	0.689240
N2411	N241	0.420740	0.368220	0.579320
N2421	N242	0.387890	0.201270	0.670510
N2431	N243	0.405120	0.165280	0.723340
C6251	C625	0.396620	0.169560	0.696980
N2441	N244	0.369070	0.328750	0.623170
N2451	N245	0.408370	0.339130	0.656430
C6261	C626	0.394480	0.137820	0.697180
C6271	C627	0.387120	0.140780	0.669220
H3851	H385	0.384500	0.163300	0.649900
N2461	N246	0.399890	0.227650	0.696050
C6281	C628	0.404390	0.167350	0.785010
H3861	H386	0.397100	0.149900	0.786900
C6291	C629	0.423410	0.396070	0.547790
H3871	H387	0.404400	0.418800	0.547200
N2471	N247	0.383400	0.113700	0.667920
C6301	C630	0.417460	0.189320	0.811140
H3881	H388	0.419000	0.188000	0.832000
C6311	C631	0.406290	0.195350	0.721610
C6321	C632	0.452180	0.393400	0.516340
N2481	N248	0.342530	0.180370	0.618190
N2491	N249	0.483710	0.422930	0.454650
N2501	N250	0.405490	0.165590	0.814950
C6331	C633	0.453110	0.425050	0.482850
C6341	C634	0.413260	0.193320	0.751320
C6351	C635	0.397420	0.105480	0.725760
H3891	H389	0.402400	0.102600	0.745400
C6361	C636	0.333380	0.211780	0.604760
C6371	C637	0.425350	0.218550	0.747830
H3901	H390	0.431600	0.236800	0.725200
C6381	C638	0.377830	0.295550	0.646670
H3911	H391	0.382800	0.292600	0.666400
C6391	C639	0.427760	0.215960	0.778540
H3921	H392	0.436300	0.232100	0.777300
C6401	C640	0.380190	0.264570	0.644090
C6411	C641	0.360830	0.333270	0.595890
H3931	H393	0.354900	0.356900	0.578700
C6421	C642	0.429920	0.322260	0.670080
C6431	C643	0.393080	0.077000	0.725740
H3941	H394	0.394700	0.054500	0.745300
C6441	C644	0.360750	0.304590	0.591970
H3951	H395	0.354400	0.308600	0.572800
C6451	C645	0.480110	0.360170	0.516870
H3961	H396	0.500400	0.357600	0.495600
C6461	C646	0.447960	0.336200	0.579220
H3971	H397	0.446400	0.316200	0.601200
C6471	C647	0.386290	0.082530	0.696230
H3981	H398	0.383500	0.063100	0.696100
C6481	C648	0.370350	0.269430	0.616910
H3991	H399	0.370100	0.249500	0.615100
C6491	C649	0.390090	0.229410	0.671290
C6501	C650	0.477950	0.330830	0.549010
H4001	H400	0.496500	0.307900	0.550100
S511	S51	0.255250	0.321530	0.840130
S521	S52	0.296880	0.462120	0.551760
N2511	N251	0.368220	0.420740	0.631720
N2521	N252	0.201270	0.387890	0.740330
N2531	N253	0.165280	0.405120	0.706260
C6511	C651	0.169560	0.396620	0.736840
N2541	N254	0.328750	0.369070	0.679010
N2551	N255	0.339130	0.408370	0.596070
C6521	C652	0.137820	0.394480	0.770520
C6531	C653	0.140780	0.387120	0.802880
H4011	H401	0.163300	0.384500	0.802300
N2561	N256	0.227650	0.399890	0.676410
C6541	C654	0.167350	0.404390	0.643250
H4021	H402	0.149900	0.397100	0.666100
C6551	C655	0.396070	0.423410	0.632730
H4031	H403	0.418800	0.404400	0.629600
N2571	N257	0.113700	0.383400	0.834980
C6561	C656	0.189320	0.417460	0.582080
H4041	H404	0.188000	0.419000	0.561000
C6571	C657	0.195350	0.406290	0.676750
C6581	C658	0.393400	0.452180	0.638080
N2581	N258	0.180370	0.342530	0.858910
N2591	N259	0.422930	0.483710	0.638710
N2601	N260	0.165590	0.405490	0.613970
C6591	C659	0.425050	0.453110	0.638990
C6601	C660	0.193320	0.413260	0.642100
C6611	C661	0.105480	0.397420	0.771340
H4051	H405	0.102600	0.402400	0.749600
C6621	C662	0.211780	0.333380	0.850080
C6631	C663	0.218550	0.425350	0.608270
H4061	H406	0.236800	0.431600	0.606400
C6641	C664	0.295550	0.377830	0.679950
H4071	H407	0.292600	0.382800	0.658200
C6651	C665	0.215960	0.427760	0.577740
H4081	H408	0.232100	0.436300	0.554300
C6661	C666	0.264570	0.380190	0.711150
C6671	C667	0.333270	0.360830	0.710010
H4091	H409	0.356900	0.354900	0.709500
C6681	C668	0.322260	0.429920	0.577740
C6691	C669	0.077000	0.393080	0.804180
H4101	H410	0.054500	0.394700	0.805500
C6701	C670	0.304590	0.360750	0.742690
H4111	H411	0.308600	0.354400	0.764200
C6711	C671	0.360170	0.480110	0.642850
H4121	H412	0.357600	0.500400	0.646400
C6721	C672	0.336200	0.447960	0.636620
H4131	H413	0.316200	0.446400	0.636200
C6731	C673	0.082530	0.386290	0.834950
H4141	H414	0.063100	0.383500	0.857300
C6741	C674	0.269430	0.370350	0.743310
H4151	H415	0.249500	0.370100	0.765300
C6751	C675	0.229410	0.390090	0.709210
C6761	C676	0.330830	0.477950	0.642210
H4161	H416	0.307900	0.496500	0.645500
S531	S53	0.583090	0.840130	0.321530
S541	S54	0.689240	0.551760	0.462120
N2611	N261	0.579320	0.631720	0.420740
N2621	N262	0.670510	0.740330	0.387890
N2631	N263	0.723340	0.706260	0.405120
C6771	C677	0.696980	0.736840	0.396620
N2641	N264	0.623170	0.679010	0.369070
N2651	N265	0.656430	0.596070	0.408370
C6781	C678	0.697180	0.770520	0.394480
C6791	C679	0.669220	0.802880	0.387120
H4171	H417	0.649900	0.802300	0.384500
N2661	N266	0.696050	0.676410	0.399890
C6801	C680	0.785010	0.643250	0.404390
H4181	H418	0.786900	0.666100	0.397100
C6811	C681	0.547790	0.632730	0.423410
H4191	H419	0.547200	0.629600	0.404400
N2671	N267	0.667920	0.834980	0.383400
C6821	C682	0.811140	0.582080	0.417460
H4201	H420	0.832000	0.561000	0.419000
C6831	C683	0.721610	0.676750	0.406290
C6841	C684	0.516340	0.638080	0.452180
N2681	N268	0.618190	0.858910	0.342530
N2691	N269	0.454650	0.638710	0.483710
N2701	N270	0.814950	0.613970	0.405490
C6851	C685	0.482850	0.638990	0.453110
C6861	C686	0.751320	0.642100	0.413260
C6871	C687	0.725760	0.771340	0.397420
H4211	H421	0.745400	0.749600	0.402400
C6881	C688	0.604760	0.850080	0.333380
C6891	C689	0.747830	0.608270	0.425350
H4221	H422	0.725200	0.606400	0.431600
C6901	C690	0.646670	0.679950	0.377830
H4231	H423	0.666400	0.658200	0.382800
C6911	C691	0.778540	0.577740	0.427760
H4241	H424	0.777300	0.554300	0.436300
C6921	C692	0.644090	0.711150	0.380190
C6931	C693	0.595890	0.710010	0.360830
H4251	H425	0.578700	0.709500	0.354900
C6941	C694	0.670080	0.577740	0.429920
C6951	C695	0.725740	0.804180	0.393080
H4261	H426	0.745300	0.805500	0.394700
C6961	C696	0.591970	0.742690	0.360750
H4271	H427	0.572800	0.764200	0.354400
C6971	C697	0.516870	0.642850	0.480110
H4281	H428	0.495600	0.646400	0.500400
C6981	C698	0.579220	0.636620	0.447960
H4291	H429	0.601200	0.636200	0.446400
C6991	C699	0.696230	0.834950	0.386290
H4301	H430	0.696100	0.857300	0.383500
C7001	C700	0.616910	0.743310	0.370350
H4311	H431	0.615100	0.765300	0.370100
C7011	C701	0.671290	0.709210	0.390090
C7021	C702	0.549010	0.642210	0.477950
H4321	H432	0.550100	0.645500	0.496500
S551	S55	0.840130	0.583090	0.255250
S561	S56	0.551760	0.689240	0.296880
N2711	N271	0.631720	0.579320	0.368220
N2721	N272	0.740330	0.670510	0.201270
N2731	N273	0.706260	0.723340	0.165280
C7031	C703	0.736840	0.696980	0.169560
N2741	N274	0.679010	0.623170	0.328750
N2751	N275	0.596070	0.656430	0.339130
C7041	C704	0.770520	0.697180	0.137820
C7051	C705	0.802880	0.669220	0.140780
H4331	H433	0.802300	0.649900	0.163300
N2761	N276	0.676410	0.696050	0.227650
C7061	C706	0.643250	0.785010	0.167350
H4341	H434	0.666100	0.786900	0.149900
C7071	C707	0.632730	0.547790	0.396070
H4351	H435	0.629600	0.547200	0.418800
N2771	N277	0.834980	0.667920	0.113700
C7081	C708	0.582080	0.811140	0.189320
H4361	H436	0.561000	0.832000	0.188000
C7091	C709	0.676750	0.721610	0.195350
C7101	C710	0.638080	0.516340	0.393400
N2781	N278	0.858910	0.618190	0.180370
N2791	N279	0.638710	0.454650	0.422930
N2801	N280	0.613970	0.814950	0.165590
C7111	C711	0.638990	0.482850	0.425050
C7121	C712	0.642100	0.751320	0.193320
C7131	C713	0.771340	0.725760	0.105480
H4371	H437	0.749600	0.745400	0.102600
C7141	C714	0.850080	0.604760	0.211780
C7151	C715	0.608270	0.747830	0.218550
H4381	H438	0.606400	0.725200	0.236800
C7161	C716	0.679950	0.646670	0.295550
H4391	H439	0.658200	0.666400	0.292600
C7171	C717	0.577740	0.778540	0.215960
H4401	H440	0.554300	0.777300	0.232100
C7181	C718	0.711150	0.644090	0.264570
C7191	C719	0.710010	0.595890	0.333270
H4411	H441	0.709500	0.578700	0.356900
C7201	C720	0.577740	0.670080	0.322260
C7211	C721	0.804180	0.725740	0.077000
H4421	H442	0.805500	0.745300	0.054500
C7221	C722	0.742690	0.591970	0.304590
H4431	H443	0.764200	0.572800	0.308600
C7231	C723	0.642850	0.516870	0.360170
H4441	H444	0.646400	0.495600	0.357600
C7241	C724	0.636620	0.579220	0.336200
H4451	H445	0.636200	0.601200	0.316200
C7251	C725	0.834950	0.696230	0.082530
H4461	H446	0.857300	0.696100	0.063100
C7261	C726	0.743310	0.616910	0.269430
H4471	H447	0.765300	0.615100	0.249500
C7271	C727	0.709210	0.671290	0.229410
C7281	C728	0.642210	0.549010	0.330830
H4481	H448	0.645500	0.550100	0.307900
S571	S57	0.583090	0.321530	0.255250
S581	S58	0.689240	0.462120	0.296880
N2811	N281	0.579320	0.420740	0.368220
N2821	N282	0.670510	0.387890	0.201270
N2831	N283	0.723340	0.405120	0.165280
C7291	C729	0.696980	0.396620	0.169560
N2841	N284	0.623170	0.369070	0.328750
N2851	N285	0.656430	0.408370	0.339130
C7301	C730	0.697180	0.394480	0.137820
C7311	C731	0.669220	0.387120	0.140780
H4491	H449	0.649900	0.384500	0.163300
N2861	N286	0.696050	0.399890	0.227650
C7321	C732	0.785010	0.404390	0.167350
H4501	H450	0.786900	0.397100	0.149900
C7331	C733	0.547790	0.423410	0.396070
H4511	H451	0.547200	0.404400	0.418800
N2871	N287	0.667920	0.383400	0.113700
C7341	C734	0.811140	0.417460	0.189320
H4521	H452	0.832000	0.419000	0.188000
C7351	C735	0.721610	0.406290	0.195350
C7361	C736	0.516340	0.452180	0.393400
N2881	N288	0.618190	0.342530	0.180370
N2891	N289	0.454650	0.483710	0.422930
N2901	N290	0.814950	0.405490	0.165590
C7371	C737	0.482850	0.453110	0.425050
C7381	C738	0.751320	0.413260	0.193320
C7391	C739	0.725760	0.397420	0.105480
H4531	H453	0.745400	0.402400	0.102600
C7401	C740	0.604760	0.333380	0.211780
C7411	C741	0.747830	0.425350	0.218550
H4541	H454	0.725200	0.431600	0.236800
C7421	C742	0.646670	0.377830	0.295550
H4551	H455	0.666400	0.382800	0.292600
C7431	C743	0.778540	0.427760	0.215960
H4561	H456	0.777300	0.436300	0.232100
C7441	C744	0.644090	0.380190	0.264570
C7451	C745	0.595890	0.360830	0.333270
H4571	H457	0.578700	0.354900	0.356900
C7461	C746	0.670080	0.429920	0.322260
C7471	C747	0.725740	0.393080	0.077000
H4581	H458	0.745300	0.394700	0.054500
C7481	C748	0.591970	0.360750	0.304590
H4591	H459	0.572800	0.354400	0.308600
C7491	C749	0.516870	0.480110	0.360170
H4601	H460	0.495600	0.500400	0.357600
C7501	C750	0.579220	0.447960	0.336200
H4611	H461	0.601200	0.446400	0.316200
C7511	C751	0.696230	0.386290	0.082530
H4621	H462	0.696100	0.383500	0.063100
C7521	C752	0.616910	0.370350	0.269430
H4631	H463	0.615100	0.370100	0.249500
C7531	C753	0.671290	0.390090	0.229410
C7541	C754	0.549010	0.477950	0.330830
H4641	H464	0.550100	0.496500	0.307900
S591	S59	0.840130	0.255250	0.321530
S601	S60	0.551760	0.296880	0.462120
N2911	N291	0.631720	0.368220	0.420740
N2921	N292	0.740330	0.201270	0.387890
N2931	N293	0.706260	0.165280	0.405120
C7551	C755	0.736840	0.169560	0.396620
N2941	N294	0.679010	0.328750	0.369070
N2951	N295	0.596070	0.339130	0.408370
C7561	C756	0.770520	0.137820	0.394480
C7571	C757	0.802880	0.140780	0.387120
H4651	H465	0.802300	0.163300	0.384500
N2961	N296	0.676410	0.227650	0.399890
C7581	C758	0.643250	0.167350	0.404390
H4661	H466	0.666100	0.149900	0.397100
C7591	C759	0.632730	0.396070	0.423410
H4671	H467	0.629600	0.418800	0.404400
N2971	N297	0.834980	0.113700	0.383400
C7601	C760	0.582080	0.189320	0.417460
H4681	H468	0.561000	0.188000	0.419000
C7611	C761	0.676750	0.195350	0.406290
C7621	C762	0.638080	0.393400	0.452180
N2981	N298	0.858910	0.180370	0.342530
N2991	N299	0.638710	0.422930	0.483710
N3001	N300	0.613970	0.165590	0.405490
C7631	C763	0.638990	0.425050	0.453110
C7641	C764	0.642100	0.193320	0.413260
C7651	C765	0.771340	0.105480	0.397420
H4691	H469	0.749600	0.102600	0.402400
C7661	C766	0.850080	0.211780	0.333380
C7671	C767	0.608270	0.218550	0.425350
H4701	H470	0.606400	0.236800	0.431600
C7681	C768	0.679950	0.295550	0.377830
H4711	H471	0.658200	0.292600	0.382800
C7691	C769	0.577740	0.215960	0.427760
H4721	H472	0.554300	0.232100	0.436300
C7701	C770	0.711150	0.264570	0.380190
C7711	C771	0.710010	0.333270	0.360830
H4731	H473	0.709500	0.356900	0.354900
C7721	C772	0.577740	0.322260	0.429920
C7731	C773	0.804180	0.077000	0.393080
H4741	H474	0.805500	0.054500	0.394700
C7741	C774	0.742690	0.304590	0.360750
H4751	H475	0.764200	0.308600	0.354400
C7751	C775	0.642850	0.360170	0.480110
H4761	H476	0.646400	0.357600	0.500400
C7761	C776	0.636620	0.336200	0.447960
H4771	H477	0.636200	0.316200	0.446400
C7771	C777	0.834950	0.082530	0.386290
H4781	H478	0.857300	0.063100	0.383500
C7781	C778	0.743310	0.269430	0.370350
H4791	H479	0.765300	0.249500	0.370100
C7791	C779	0.709210	0.229410	0.390090
C7801	C780	0.642210	0.330830	0.477950
H4801	H480	0.645500	0.307900	0.496500
S611	S61	0.321530	0.583090	0.840130
S621	S62	0.462120	0.689240	0.551760
N3011	N301	0.420740	0.579320	0.631720
N3021	N302	0.387890	0.670510	0.740330
N3031	N303	0.405120	0.723340	0.706260
C7811	C781	0.396620	0.696980	0.736840
N3041	N304	0.369070	0.623170	0.679010
N3051	N305	0.408370	0.656430	0.596070
C7821	C782	0.394480	0.697180	0.770520
C7831	C783	0.387120	0.669220	0.802880
H4811	H481	0.384500	0.649900	0.802300
N3061	N306	0.399890	0.696050	0.676410
C7841	C784	0.404390	0.785010	0.643250
H4821	H482	0.397100	0.786900	0.666100
C7851	C785	0.423410	0.547790	0.632730
H4831	H483	0.404400	0.547200	0.629600
N3071	N307	0.383400	0.667920	0.834980
C7861	C786	0.417460	0.811140	0.582080
H4841	H484	0.419000	0.832000	0.561000
C7871	C787	0.406290	0.721610	0.676750
C7881	C788	0.452180	0.516340	0.638080
N3081	N308	0.342530	0.618190	0.858910
N3091	N309	0.483710	0.454650	0.638710
N3101	N310	0.405490	0.814950	0.613970
C7891	C789	0.453110	0.482850	0.638990
C7901	C790	0.413260	0.751320	0.642100
C7911	C791	0.397420	0.725760	0.771340
H4851	H485	0.402400	0.745400	0.749600
C7921	C792	0.333380	0.604760	0.850080
C7931	C793	0.425350	0.747830	0.608270
H4861	H486	0.431600	0.725200	0.606400
C7941	C794	0.377830	0.646670	0.679950
H4871	H487	0.382800	0.666400	0.658200
C7951	C795	0.427760	0.778540	0.577740
H4881	H488	0.436300	0.777300	0.554300
C7961	C796	0.380190	0.644090	0.711150
C7971	C797	0.360830	0.595890	0.710010
H4891	H489	0.354900	0.578700	0.709500
C7981	C798	0.429920	0.670080	0.577740
C7991	C799	0.393080	0.725740	0.804180
H4901	H490	0.394700	0.745300	0.805500
C8001	C800	0.360750	0.591970	0.742690
H4911	H491	0.354400	0.572800	0.764200
C8011	C801	0.480110	0.516870	0.642850
H4921	H492	0.500400	0.495600	0.646400
C8021	C802	0.447960	0.579220	0.636620
H4931	H493	0.446400	0.601200	0.636200
C8031	C803	0.386290	0.696230	0.834950
H4941	H494	0.383500	0.696100	0.857300
C8041	C804	0.370350	0.616910	0.743310
H4951	H495	0.370100	0.615100	0.765300
C8051	C805	0.390090	0.671290	0.709210
C8061	C806	0.477950	0.549010	0.642210
H4961	H496	0.496500	0.550100	0.645500
S631	S63	0.255250	0.840130	0.583090
S641	S64	0.296880	0.551760	0.689240
N3111	N311	0.368220	0.631720	0.579320
N3121	N312	0.201270	0.740330	0.670510
N3131	N313	0.165280	0.706260	0.723340
C8071	C807	0.169560	0.736840	0.696980
N3141	N314	0.328750	0.679010	0.623170
N3151	N315	0.339130	0.596070	0.656430
C8081	C808	0.137820	0.770520	0.697180
C8091	C809	0.140780	0.802880	0.669220
H4971	H497	0.163300	0.802300	0.649900
N3161	N316	0.227650	0.676410	0.696050
C8101	C810	0.167350	0.643250	0.785010
H4981	H498	0.149900	0.666100	0.786900
C8111	C811	0.396070	0.632730	0.547790
H4991	H499	0.418800	0.629600	0.547200
N3171	N317	0.113700	0.834980	0.667920
C8121	C812	0.189320	0.582080	0.811140
H5001	H500	0.188000	0.561000	0.832000
C8131	C813	0.195350	0.676750	0.721610
C8141	C814	0.393400	0.638080	0.516340
N3181	N318	0.180370	0.858910	0.618190
N3191	N319	0.422930	0.638710	0.454650
N3201	N320	0.165590	0.613970	0.814950
C8151	C815	0.425050	0.638990	0.482850
C8161	C816	0.193320	0.642100	0.751320
C8171	C817	0.105480	0.771340	0.725760
H5011	H501	0.102600	0.749600	0.745400
C8181	C818	0.211780	0.850080	0.604760
C8191	C819	0.218550	0.608270	0.747830
H5021	H502	0.236800	0.606400	0.725200
C8201	C820	0.295550	0.679950	0.646670
H5031	H503	0.292600	0.658200	0.666400
C8211	C821	0.215960	0.577740	0.778540
H5041	H504	0.232100	0.554300	0.777300
C8221	C822	0.264570	0.711150	0.644090
C8231	C823	0.333270	0.710010	0.595890
H5051	H505	0.356900	0.709500	0.578700
C8241	C824	0.322260	0.577740	0.670080
C8251	C825	0.077000	0.804180	0.725740
H5061	H506	0.054500	0.805500	0.745300
C8261	C826	0.304590	0.742690	0.591970
H5071	H507	0.308600	0.764200	0.572800
C8271	C827	0.360170	0.642850	0.516870
H5081	H508	0.357600	0.646400	0.495600
C8281	C828	0.336200	0.636620	0.579220
H5091	H509	0.316200	0.636200	0.601200
C8291	C829	0.082530	0.834950	0.696230
H5101	H510	0.063100	0.857300	0.696100
C8301	C830	0.269430	0.743310	0.616910
H5111	H511	0.249500	0.765300	0.615100
C8311	C831	0.229410	0.709210	0.671290
C8321	C832	0.330830	0.642210	0.549010
H5121	H512	0.307900	0.645500	0.550100
S651	S65	0.255250	0.583090	0.321530
S661	S66	0.296880	0.689240	0.462120
N3211	N321	0.368220	0.579320	0.420740
N3221	N322	0.201270	0.670510	0.387890
N3231	N323	0.165280	0.723340	0.405120
C8331	C833	0.169560	0.696980	0.396620
N3241	N324	0.328750	0.623170	0.369070
N3251	N325	0.339130	0.656430	0.408370
C8341	C834	0.137820	0.697180	0.394480
C8351	C835	0.140780	0.669220	0.387120
H5131	H513	0.163300	0.649900	0.384500
N3261	N326	0.227650	0.696050	0.399890
C8361	C836	0.167350	0.785010	0.404390
H5141	H514	0.149900	0.786900	0.397100
C8371	C837	0.396070	0.547790	0.423410
H5151	H515	0.418800	0.547200	0.404400
N3271	N327	0.113700	0.667920	0.383400
C8381	C838	0.189320	0.811140	0.417460
H5161	H516	0.188000	0.832000	0.419000
C8391	C839	0.195350	0.721610	0.406290
C8401	C840	0.393400	0.516340	0.452180
N3281	N328	0.180370	0.618190	0.342530
N3291	N329	0.422930	0.454650	0.483710
N3301	N330	0.165590	0.814950	0.405490
C8411	C841	0.425050	0.482850	0.453110
C8421	C842	0.193320	0.751320	0.413260
C8431	C843	0.105480	0.725760	0.397420
H5171	H517	0.102600	0.745400	0.402400
C8441	C844	0.211780	0.604760	0.333380
C8451	C845	0.218550	0.747830	0.425350
H5181	H518	0.236800	0.725200	0.431600
C8461	C846	0.295550	0.646670	0.377830
H5191	H519	0.292600	0.666400	0.382800
C8471	C847	0.215960	0.778540	0.427760
H5201	H520	0.232100	0.777300	0.436300
C8481	C848	0.264570	0.644090	0.380190
C8491	C849	0.333270	0.595890	0.360830
H5211	H521	0.356900	0.578700	0.354900
C8501	C850	0.322260	0.670080	0.429920
C8511	C851	0.077000	0.725740	0.393080
H5221	H522	0.054500	0.745300	0.394700
C8521	C852	0.304590	0.591970	0.360750
H5231	H523	0.308600	0.572800	0.354400
C8531	C853	0.360170	0.516870	0.480110
H5241	H524	0.357600	0.495600	0.500400
C8541	C854	0.336200	0.579220	0.447960
H5251	H525	0.316200	0.601200	0.446400
C8551	C855	0.082530	0.696230	0.386290
H5261	H526	0.063100	0.696100	0.383500
C8561	C856	0.269430	0.616910	0.370350
H5271	H527	0.249500	0.615100	0.370100
C8571	C857	0.229410	0.671290	0.390090
C8581	C858	0.330830	0.549010	0.477950
H5281	H528	0.307900	0.550100	0.496500
S671	S67	0.321530	0.840130	0.255250
S681	S68	0.462120	0.551760	0.296880
N3311	N331	0.420740	0.631720	0.368220
N3321	N332	0.387890	0.740330	0.201270
N3331	N333	0.405120	0.706260	0.165280
C8591	C859	0.396620	0.736840	0.169560
N3341	N334	0.369070	0.679010	0.328750
N3351	N335	0.408370	0.596070	0.339130
C8601	C860	0.394480	0.770520	0.137820
C8611	C861	0.387120	0.802880	0.140780
H5291	H529	0.384500	0.802300	0.163300
N3361	N336	0.399890	0.676410	0.227650
C8621	C862	0.404390	0.643250	0.167350
H5301	H530	0.397100	0.666100	0.149900
C8631	C863	0.423410	0.632730	0.396070
H5311	H531	0.404400	0.629600	0.418800
N3371	N337	0.383400	0.834980	0.113700
C8641	C864	0.417460	0.582080	0.189320
H5321	H532	0.419000	0.561000	0.188000
C8651	C865	0.406290	0.676750	0.195350
C8661	C866	0.452180	0.638080	0.393400
N3381	N338	0.342530	0.858910	0.180370
N3391	N339	0.483710	0.638710	0.422930
N3401	N340	0.405490	0.613970	0.165590
C8671	C867	0.453110	0.638990	0.425050
C8681	C868	0.413260	0.642100	0.193320
C8691	C869	0.397420	0.771340	0.105480
H5331	H533	0.402400	0.749600	0.102600
C8701	C870	0.333380	0.850080	0.211780
C8711	C871	0.425350	0.608270	0.218550
H5341	H534	0.431600	0.606400	0.236800
C8721	C872	0.377830	0.679950	0.295550
H5351	H535	0.382800	0.658200	0.292600
C8731	C873	0.427760	0.577740	0.215960
H5361	H536	0.436300	0.554300	0.232100
C8741	C874	0.380190	0.711150	0.264570
C8751	C875	0.360830	0.710010	0.333270
H5371	H537	0.354900	0.709500	0.356900
C8761	C876	0.429920	0.577740	0.322260
C8771	C877	0.393080	0.804180	0.077000
H5381	H538	0.394700	0.805500	0.054500
C8781	C878	0.360750	0.742690	0.304590
H5391	H539	0.354400	0.764200	0.308600
C8791	C879	0.480110	0.642850	0.360170
H5401	H540	0.500400	0.646400	0.357600
C8801	C880	0.447960	0.636620	0.336200
H5411	H541	0.446400	0.636200	0.316200
C8811	C881	0.386290	0.834950	0.082530
H5421	H542	0.383500	0.857300	0.063100
C8821	C882	0.370350	0.743310	0.269430
H5431	H543	0.370100	0.765300	0.249500
C8831	C883	0.390090	0.709210	0.229410
C8841	C884	0.477950	0.642210	0.330830
H5441	H544	0.496500	0.645500	0.307900
S691	S69	0.840130	0.321530	0.583090
S701	S70	0.551760	0.462120	0.689240
N3411	N341	0.631720	0.420740	0.579320
N3421	N342	0.740330	0.387890	0.670510
N3431	N343	0.706260	0.405120	0.723340
C8851	C885	0.736840	0.396620	0.696980
N3441	N344	0.679010	0.369070	0.623170
N3451	N345	0.596070	0.408370	0.656430
C8861	C886	0.770520	0.394480	0.697180
C8871	C887	0.802880	0.387120	0.669220
H5451	H545	0.802300	0.384500	0.649900
N3461	N346	0.676410	0.399890	0.696050
C8881	C888	0.643250	0.404390	0.785010
H5461	H546	0.666100	0.397100	0.786900
C8891	C889	0.632730	0.423410	0.547790
H5471	H547	0.629600	0.404400	0.547200
N3471	N347	0.834980	0.383400	0.667920
C8901	C890	0.582080	0.417460	0.811140
H5481	H548	0.561000	0.419000	0.832000
C8911	C891	0.676750	0.406290	0.721610
C8921	C892	0.638080	0.452180	0.516340
N3481	N348	0.858910	0.342530	0.618190
N3491	N349	0.638710	0.483710	0.454650
N3501	N350	0.613970	0.405490	0.814950
C8931	C893	0.638990	0.453110	0.482850
C8941	C894	0.642100	0.413260	0.751320
C8951	C895	0.771340	0.397420	0.725760
H5491	H549	0.749600	0.402400	0.745400
C8961	C896	0.850080	0.333380	0.604760
C8971	C897	0.608270	0.425350	0.747830
H5501	H550	0.606400	0.431600	0.725200
C8981	C898	0.679950	0.377830	0.646670
H5511	H551	0.658200	0.382800	0.666400
C8991	C899	0.577740	0.427760	0.778540
H5521	H552	0.554300	0.436300	0.777300
C9001	C900	0.711150	0.380190	0.644090
C9011	C901	0.710010	0.360830	0.595890
H5531	H553	0.709500	0.354900	0.578700
C9021	C902	0.577740	0.429920	0.670080
C9031	C903	0.804180	0.393080	0.725740
H5541	H554	0.805500	0.394700	0.745300
C9041	C904	0.742690	0.360750	0.591970
H5551	H555	0.764200	0.354400	0.572800
C9051	C905	0.642850	0.480110	0.516870
H5561	H556	0.646400	0.500400	0.495600
C9061	C906	0.636620	0.447960	0.579220
H5571	H557	0.636200	0.446400	0.601200
C9071	C907	0.834950	0.386290	0.696230
H5581	H558	0.857300	0.383500	0.696100
C9081	C908	0.743310	0.370350	0.616910
H5591	H559	0.765300	0.370100	0.615100
C9091	C909	0.709210	0.390090	0.671290
C9101	C910	0.642210	0.477950	0.549010
H5601	H560	0.645500	0.496500	0.550100
S711	S71	0.583090	0.255250	0.840130
S721	S72	0.689240	0.296880	0.551760
N3511	N351	0.579320	0.368220	0.631720
N3521	N352	0.670510	0.201270	0.740330
N3531	N353	0.723340	0.165280	0.706260
C9111	C911	0.696980	0.169560	0.736840
N3541	N354	0.623170	0.328750	0.679010
N3551	N355	0.656430	0.339130	0.596070
C9121	C912	0.697180	0.137820	0.770520
C9131	C913	0.669220	0.140780	0.802880
H5611	H561	0.649900	0.163300	0.802300
N3561	N356	0.696050	0.227650	0.676410
C9141	C914	0.785010	0.167350	0.643250
H5621	H562	0.786900	0.149900	0.666100
C9151	C915	0.547790	0.396070	0.632730
H5631	H563	0.547200	0.418800	0.629600
N3571	N357	0.667920	0.113700	0.834980
C9161	C916	0.811140	0.189320	0.582080
H5641	H564	0.832000	0.188000	0.561000
C9171	C917	0.721610	0.195350	0.676750
C9181	C918	0.516340	0.393400	0.638080
N3581	N358	0.618190	0.180370	0.858910
N3591	N359	0.454650	0.422930	0.638710
N3601	N360	0.814950	0.165590	0.613970
C9191	C919	0.482850	0.425050	0.638990
C9201	C920	0.751320	0.193320	0.642100
C9211	C921	0.725760	0.105480	0.771340
H5651	H565	0.745400	0.102600	0.749600
C9221	C922	0.604760	0.211780	0.850080
C9231	C923	0.747830	0.218550	0.608270
H5661	H566	0.725200	0.236800	0.606400
C9241	C924	0.646670	0.295550	0.679950
H5671	H567	0.666400	0.292600	0.658200
C9251	C925	0.778540	0.215960	0.577740
H5681	H568	0.777300	0.232100	0.554300
C9261	C926	0.644090	0.264570	0.711150
C9271	C927	0.595890	0.333270	0.710010
H5691	H569	0.578700	0.356900	0.709500
C9281	C928	0.670080	0.322260	0.577740
C9291	C929	0.725740	0.077000	0.804180
H5701	H570	0.745300	0.054500	0.805500
C9301	C930	0.591970	0.304590	0.742690
H5711	H571	0.572800	0.308600	0.764200
C9311	C931	0.516870	0.360170	0.642850
H5721	H572	0.495600	0.357600	0.646400
C9321	C932	0.579220	0.336200	0.636620
H5731	H573	0.601200	0.316200	0.636200
C9331	C933	0.696230	0.082530	0.834950
H5741	H574	0.696100	0.063100	0.857300
C9341	C934	0.616910	0.269430	0.743310
H5751	H575	0.615100	0.249500	0.765300
C9351	C935	0.671290	0.229410	0.709210
C9361	C936	0.549010	0.330830	0.642210
H5761	H576	0.550100	0.307900	0.645500
S731	S73	0.928470	0.994750	0.409870
S741	S74	0.787880	0.953120	0.698240
N3611	N361	0.829260	0.881780	0.618280
N3621	N362	0.862110	0.048730	0.509670
N3631	N363	0.844880	0.084720	0.543740
C9371	C937	0.853380	0.080440	0.513160
N3641	N364	0.880930	0.921250	0.570990
N3651	N365	0.841630	0.910870	0.653930
C9381	C938	0.855520	0.112180	0.479480
C9391	C939	0.862880	0.109220	0.447120
H5771	H577	0.865500	0.086700	0.447700
N3661	N366	0.850110	0.022350	0.573590
C9401	C940	0.845610	0.082650	0.606750
H5781	H578	0.852900	0.100100	0.583900
C9411	C941	0.826590	0.853930	0.617270
H5791	H579	0.845600	0.831200	0.620400
N3671	N367	0.866600	0.136300	0.415020
C9421	C942	0.832540	0.060680	0.667920
H5801	H580	0.831000	0.062000	0.689000
C9431	C943	0.843710	0.054650	0.573250
C9441	C944	0.797820	0.856600	0.611920
N3681	N368	0.907470	0.069630	0.391090
N3691	N369	0.766290	0.827070	0.611290
N3701	N370	0.844510	0.084410	0.636030
C9451	C945	0.796890	0.824950	0.611010
C9461	C946	0.836740	0.056680	0.607900
C9471	C947	0.852580	0.144520	0.478660
H5811	H581	0.847600	0.147400	0.500400
C9481	C948	0.916620	0.038220	0.399920
C9491	C949	0.824650	0.031450	0.641730
H5821	H582	0.818400	0.013200	0.643600
C9501	C950	0.872170	0.954450	0.570050
H5831	H583	0.867200	0.957400	0.591800
C9511	C951	0.822240	0.034040	0.672260
H5841	H584	0.813700	0.017900	0.695700
C9521	C952	0.869810	0.985430	0.538850
C9531	C953	0.889170	0.916730	0.539990
H5851	H585	0.895100	0.893100	0.540500
C9541	C954	0.820080	0.927740	0.672260
C9551	C955	0.856920	0.173000	0.445820
H5861	H586	0.855300	0.195500	0.444500
C9561	C956	0.889250	0.945410	0.507310
H5871	H587	0.895600	0.941400	0.485800
C9571	C957	0.769890	0.889830	0.607150
H5881	H588	0.749600	0.892400	0.603600
C9581	C958	0.802040	0.913800	0.613380
H5891	H589	0.803600	0.933800	0.613800
C9591	C959	0.863710	0.167470	0.415050
H5901	H590	0.866500	0.186900	0.392700
C9601	C960	0.879650	0.980570	0.506690
H5911	H591	0.879900	0.000500	0.484700
C9611	C961	0.859910	0.020590	0.540790
C9621	C962	0.772050	0.919170	0.607790
H5921	H592	0.753500	0.942100	0.604500
S751	S75	0.994750	0.928470	0.666910
S761	S76	0.953120	0.787880	0.560760
N3711	N371	0.881780	0.829260	0.670680
N3721	N372	0.048730	0.862110	0.579490
N3731	N373	0.084720	0.844880	0.526660
C9631	C963	0.080440	0.853380	0.553020
N3741	N374	0.921250	0.880930	0.626830
N3751	N375	0.910870	0.841630	0.593570
C9641	C964	0.112180	0.855520	0.552820
C9651	C965	0.109220	0.862880	0.580780
H5931	H593	0.086700	0.865500	0.600100
N3761	N376	0.022350	0.850110	0.553950
C9661	C966	0.082650	0.845610	0.464990
H5941	H594	0.100100	0.852900	0.463100
C9671	C967	0.853930	0.826590	0.702210
H5951	H595	0.831200	0.845600	0.702800
N3771	N377	0.136300	0.866600	0.582080
C9681	C968	0.060680	0.832540	0.438860
H5961	H596	0.062000	0.831000	0.418000
C9691	C969	0.054650	0.843710	0.528390
C9701	C970	0.856600	0.797820	0.733660
N3781	N378	0.069630	0.907470	0.631810
N3791	N379	0.827070	0.766290	0.795350
N3801	N380	0.084410	0.844510	0.435050
C9711	C971	0.824950	0.796890	0.767150
C9721	C972	0.056680	0.836740	0.498680
C9731	C973	0.144520	0.852580	0.524240
H5971	H597	0.147400	0.847600	0.504600
C9741	C974	0.038220	0.916620	0.645240
C9751	C975	0.031450	0.824650	0.502170
H5981	H598	0.013200	0.818400	0.524800
C9761	C976	0.954450	0.872170	0.603330
H5991	H599	0.957400	0.867200	0.583600
C9771	C977	0.034040	0.822240	0.471460
H6001	H600	0.017900	0.813700	0.472700
C9781	C978	0.985430	0.869810	0.605910
C9791	C979	0.916730	0.889170	0.654110
H6011	H601	0.893100	0.895100	0.671300
C9801	C980	0.927740	0.820080	0.579920
C9811	C981	0.173000	0.856920	0.524260
H6021	H602	0.195500	0.855300	0.504700
C9821	C982	0.945410	0.889250	0.658030
H6031	H603	0.941400	0.895600	0.677200
C9831	C983	0.889830	0.769890	0.733130
H6041	H604	0.892400	0.749600	0.754400
C9841	C984	0.913800	0.802040	0.670780
H6051	H605	0.933800	0.803600	0.648800
C9851	C985	0.167470	0.863710	0.553770
H6061	H606	0.186900	0.866500	0.553900
C9861	C986	0.980570	0.879650	0.633090
H6071	H607	0.000500	0.879900	0.634900
C9871	C987	0.020590	0.859910	0.578710
C9881	C988	0.919170	0.772050	0.700990
H6081	H608	0.942100	0.753500	0.699900
S771	S77	0.666910	0.409870	0.994750
S781	S78	0.560760	0.698240	0.953120
N3811	N381	0.670680	0.618280	0.881780
N3821	N382	0.579490	0.509670	0.048730
N3831	N383	0.526660	0.543740	0.084720
C9891	C989	0.553020	0.513160	0.080440
N3841	N384	0.626830	0.570990	0.921250
N3851	N385	0.593570	0.653930	0.910870
C9901	C990	0.552820	0.479480	0.112180
C9911	C991	0.580780	0.447120	0.109220
H6091	H609	0.600100	0.447700	0.086700
N3861	N386	0.553950	0.573590	0.022350
C9921	C992	0.464990	0.606750	0.082650
H6101	H610	0.463100	0.583900	0.100100
C9931	C993	0.702210	0.617270	0.853930
H6111	H611	0.702800	0.620400	0.831200
N3871	N387	0.582080	0.415020	0.136300
C9941	C994	0.438860	0.667920	0.060680
H6121	H612	0.418000	0.689000	0.062000
C9951	C995	0.528390	0.573250	0.054650
C9961	C996	0.733660	0.611920	0.856600
N3881	N388	0.631810	0.391090	0.069630
N3891	N389	0.795350	0.611290	0.827070
N3901	N390	0.435050	0.636030	0.084410
C9971	C997	0.767150	0.611010	0.824950
C9981	C998	0.498680	0.607900	0.056680
C9991	C999	0.524240	0.478660	0.144520
H6131	H613	0.504600	0.500400	0.147400
C10001	C1000	0.645240	0.399920	0.038220
C10011	C1001	0.502170	0.641730	0.031450
H6141	H614	0.524800	0.643600	0.013200
C10021	C1002	0.603330	0.570050	0.954450
H6151	H615	0.583600	0.591800	0.957400
C10031	C1003	0.471460	0.672260	0.034040
H6161	H616	0.472700	0.695700	0.017900
C10041	C1004	0.605910	0.538850	0.985430
C10051	C1005	0.654110	0.539990	0.916730
H6171	H617	0.671300	0.540500	0.893100
C10061	C1006	0.579920	0.672260	0.927740
C10071	C1007	0.524260	0.445820	0.173000
H6181	H618	0.504700	0.444500	0.195500
C10081	C1008	0.658030	0.507310	0.945410
H6191	H619	0.677200	0.485800	0.941400
C10091	C1009	0.733130	0.607150	0.889830
H6201	H620	0.754400	0.603600	0.892400
C10101	C1010	0.670780	0.613380	0.913800
H6211	H621	0.648800	0.613800	0.933800
C10111	C1011	0.553770	0.415050	0.167470
H6221	H622	0.553900	0.392700	0.186900
C10121	C1012	0.633090	0.506690	0.980570
H6231	H623	0.634900	0.484700	0.000500
C10131	C1013	0.578710	0.540790	0.020590
C10141	C1014	0.700990	0.607790	0.919170
H6241	H624	0.699900	0.604500	0.942100
S791	S79	0.409870	0.666910	0.928470
S801	S80	0.698240	0.560760	0.787880
N3911	N391	0.618280	0.670680	0.829260
N3921	N392	0.509670	0.579490	0.862110
N3931	N393	0.543740	0.526660	0.844880
C10151	C1015	0.513160	0.553020	0.853380
N3941	N394	0.570990	0.626830	0.880930
N3951	N395	0.653930	0.593570	0.841630
C10161	C1016	0.479480	0.552820	0.855520
C10171	C1017	0.447120	0.580780	0.862880
H6251	H625	0.447700	0.600100	0.865500
N3961	N396	0.573590	0.553950	0.850110
C10181	C1018	0.606750	0.464990	0.845610
H6261	H626	0.583900	0.463100	0.852900
C10191	C1019	0.617270	0.702210	0.826590
H6271	H627	0.620400	0.702800	0.845600
N3971	N397	0.415020	0.582080	0.866600
C10201	C1020	0.667920	0.438860	0.832540
H6281	H628	0.689000	0.418000	0.831000
C10211	C1021	0.573250	0.528390	0.843710
C10221	C1022	0.611920	0.733660	0.797820
N3981	N398	0.391090	0.631810	0.907470
N3991	N399	0.611290	0.795350	0.766290
N4001	N400	0.636030	0.435050	0.844510
C10231	C1023	0.611010	0.767150	0.796890
C10241	C1024	0.607900	0.498680	0.836740
C10251	C1025	0.478660	0.524240	0.852580
H6291	H629	0.500400	0.504600	0.847600
C10261	C1026	0.399920	0.645240	0.916620
C10271	C1027	0.641730	0.502170	0.824650
H6301	H630	0.643600	0.524800	0.818400
C10281	C1028	0.570050	0.603330	0.872170
H6311	H631	0.591800	0.583600	0.867200
C10291	C1029	0.672260	0.471460	0.822240
H6321	H632	0.695700	0.472700	0.813700
C10301	C1030	0.538850	0.605910	0.869810
C10311	C1031	0.539990	0.654110	0.889170
H6331	H633	0.540500	0.671300	0.895100
C10321	C1032	0.672260	0.579920	0.820080
C10331	C1033	0.445820	0.524260	0.856920
H6341	H634	0.444500	0.504700	0.855300
C10341	C1034	0.507310	0.658030	0.889250
H6351	H635	0.485800	0.677200	0.895600
C10351	C1035	0.607150	0.733130	0.769890
H6361	H636	0.603600	0.754400	0.749600
C10361	C1036	0.613380	0.670780	0.802040
H6371	H637	0.613800	0.648800	0.803600
C10371	C1037	0.415050	0.553770	0.863710
H6381	H638	0.392700	0.553900	0.866500
C10381	C1038	0.506690	0.633090	0.879650
H6391	H639	0.484700	0.634900	0.879900
C10391	C1039	0.540790	0.578710	0.859910
C10401	C1040	0.607790	0.700990	0.772050
H6401	H640	0.604500	0.699900	0.753500
S811	S81	0.666910	0.928470	0.409870
S821	S82	0.560760	0.787880	0.698240
N4011	N401	0.670680	0.829260	0.618280
N4021	N402	0.579490	0.862110	0.509670
N4031	N403	0.526660	0.844880	0.543740
C10411	C1041	0.553020	0.853380	0.513160
N4041	N404	0.626830	0.880930	0.570990
N4051	N405	0.593570	0.841630	0.653930
C10421	C1042	0.552820	0.855520	0.479480
C10431	C1043	0.580780	0.862880	0.447120
H6411	H641	0.600100	0.865500	0.447700
N4061	N406	0.553950	0.850110	0.573590
C10441	C1044	0.464990	0.845610	0.606750
H6421	H642	0.463100	0.852900	0.583900
C10451	C1045	0.702210	0.826590	0.617270
H6431	H643	0.702800	0.845600	0.620400
N4071	N407	0.582080	0.866600	0.415020
C10461	C1046	0.438860	0.832540	0.667920
H6441	H644	0.418000	0.831000	0.689000
C10471	C1047	0.528390	0.843710	0.573250
C10481	C1048	0.733660	0.797820	0.611920
N4081	N408	0.631810	0.907470	0.391090
N4091	N409	0.795350	0.766290	0.611290
N4101	N410	0.435050	0.844510	0.636030
C10491	C1049	0.767150	0.796890	0.611010
C10501	C1050	0.498680	0.836740	0.607900
C10511	C1051	0.524240	0.852580	0.478660
H6451	H645	0.504600	0.847600	0.500400
C10521	C1052	0.645240	0.916620	0.399920
C10531	C1053	0.502170	0.824650	0.641730
H6461	H646	0.524800	0.818400	0.643600
C10541	C1054	0.603330	0.872170	0.570050
H6471	H647	0.583600	0.867200	0.591800
C10551	C1055	0.471460	0.822240	0.672260
H6481	H648	0.472700	0.813700	0.695700
C10561	C1056	0.605910	0.869810	0.538850
C10571	C1057	0.654110	0.889170	0.539990
H6491	H649	0.671300	0.895100	0.540500
C10581	C1058	0.579920	0.820080	0.672260
C10591	C1059	0.524260	0.856920	0.445820
H6501	H650	0.504700	0.855300	0.444500
C10601	C1060	0.658030	0.889250	0.507310
H6511	H651	0.677200	0.895600	0.485800
C10611	C1061	0.733130	0.769890	0.607150
H6521	H652	0.754400	0.749600	0.603600
C10621	C1062	0.670780	0.802040	0.613380
H6531	H653	0.648800	0.803600	0.613800
C10631	C1063	0.553770	0.863710	0.415050
H6541	H654	0.553900	0.866500	0.392700
C10641	C1064	0.633090	0.879650	0.506690
H6551	H655	0.634900	0.879900	0.484700
C10651	C1065	0.578710	0.859910	0.540790
C10661	C1066	0.700990	0.772050	0.607790
H6561	H656	0.699900	0.753500	0.604500
S831	S83	0.409870	0.994750	0.666910
S841	S84	0.698240	0.953120	0.560760
N4111	N411	0.618280	0.881780	0.670680
N4121	N412	0.509670	0.048730	0.579490
N4131	N413	0.543740	0.084720	0.526660
C10671	C1067	0.513160	0.080440	0.553020
N4141	N414	0.570990	0.921250	0.626830
N4151	N415	0.653930	0.910870	0.593570
C10681	C1068	0.479480	0.112180	0.552820
C10691	C1069	0.447120	0.109220	0.580780
H6571	H657	0.447700	0.086700	0.600100
N4161	N416	0.573590	0.022350	0.553950
C10701	C1070	0.606750	0.082650	0.464990
H6581	H658	0.583900	0.100100	0.463100
C10711	C1071	0.617270	0.853930	0.702210
H6591	H659	0.620400	0.831200	0.702800
N4171	N417	0.415020	0.136300	0.582080
C10721	C1072	0.667920	0.060680	0.438860
H6601	H660	0.689000	0.062000	0.418000
C10731	C1073	0.573250	0.054650	0.528390
C10741	C1074	0.611920	0.856600	0.733660
N4181	N418	0.391090	0.069630	0.631810
N4191	N419	0.611290	0.827070	0.795350
N4201	N420	0.636030	0.084410	0.435050
C10751	C1075	0.611010	0.824950	0.767150
C10761	C1076	0.607900	0.056680	0.498680
C10771	C1077	0.478660	0.144520	0.524240
H6611	H661	0.500400	0.147400	0.504600
C10781	C1078	0.399920	0.038220	0.645240
C10791	C1079	0.641730	0.031450	0.502170
H6621	H662	0.643600	0.013200	0.524800
C10801	C1080	0.570050	0.954450	0.603330
H6631	H663	0.591800	0.957400	0.583600
C10811	C1081	0.672260	0.034040	0.471460
H6641	H664	0.695700	0.017900	0.472700
C10821	C1082	0.538850	0.985430	0.605910
C10831	C1083	0.539990	0.916730	0.654110
H6651	H665	0.540500	0.893100	0.671300
C10841	C1084	0.672260	0.927740	0.579920
C10851	C1085	0.445820	0.173000	0.524260
H6661	H666	0.444500	0.195500	0.504700
C10861	C1086	0.507310	0.945410	0.658030
H6671	H667	0.485800	0.941400	0.677200
C10871	C1087	0.607150	0.889830	0.733130
H6681	H668	0.603600	0.892400	0.754400
C10881	C1088	0.613380	0.913800	0.670780
H6691	H669	0.613800	0.933800	0.648800
C10891	C1089	0.415050	0.167470	0.553770
H6701	H670	0.392700	0.186900	0.553900
C10901	C1090	0.506690	0.980570	0.633090
H6711	H671	0.484700	0.000500	0.634900
C10911	C1091	0.540790	0.020590	0.578710
C10921	C1092	0.607790	0.919170	0.700990
H6721	H672	0.604500	0.942100	0.699900
S851	S85	0.928470	0.666910	0.994750
S861	S86	0.787880	0.560760	0.953120
N4211	N421	0.829260	0.670680	0.881780
N4221	N422	0.862110	0.579490	0.048730
N4231	N423	0.844880	0.526660	0.084720
C10931	C1093	0.853380	0.553020	0.080440
N4241	N424	0.880930	0.626830	0.921250
N4251	N425	0.841630	0.593570	0.910870
C10941	C1094	0.855520	0.552820	0.112180
C10951	C1095	0.862880	0.580780	0.109220
H6731	H673	0.865500	0.600100	0.086700
N4261	N426	0.850110	0.553950	0.022350
C10961	C1096	0.845610	0.464990	0.082650
H6741	H674	0.852900	0.463100	0.100100
C10971	C1097	0.826590	0.702210	0.853930
H6751	H675	0.845600	0.702800	0.831200
N4271	N427	0.866600	0.582080	0.136300
C10981	C1098	0.832540	0.438860	0.060680
H6761	H676	0.831000	0.418000	0.062000
C10991	C1099	0.843710	0.528390	0.054650
C11001	C1100	0.797820	0.733660	0.856600
N4281	N428	0.907470	0.631810	0.069630
N4291	N429	0.766290	0.795350	0.827070
N4301	N430	0.844510	0.435050	0.084410
C11011	C1101	0.796890	0.767150	0.824950
C11021	C1102	0.836740	0.498680	0.056680
C11031	C1103	0.852580	0.524240	0.144520
H6771	H677	0.847600	0.504600	0.147400
C11041	C1104	0.916620	0.645240	0.038220
C11051	C1105	0.824650	0.502170	0.031450
H6781	H678	0.818400	0.524800	0.013200
C11061	C1106	0.872170	0.603330	0.954450
H6791	H679	0.867200	0.583600	0.957400
C11071	C1107	0.822240	0.471460	0.034040
H6801	H680	0.813700	0.472700	0.017900
C11081	C1108	0.869810	0.605910	0.985430
C11091	C1109	0.889170	0.654110	0.916730
H6811	H681	0.895100	0.671300	0.893100
C11101	C1110	0.820080	0.579920	0.927740
C11111	C1111	0.856920	0.524260	0.173000
H6821	H682	0.855300	0.504700	0.195500
C11121	C1112	0.889250	0.658030	0.945410
H6831	H683	0.895600	0.677200	0.941400
C11131	C1113	0.769890	0.733130	0.889830
H6841	H684	0.749600	0.754400	0.892400
C11141	C1114	0.802040	0.670780	0.913800
H6851	H685	0.803600	0.648800	0.933800
C11151	C1115	0.863710	0.553770	0.167470
H6861	H686	0.866500	0.553900	0.186900
C11161	C1116	0.879650	0.633090	0.980570
H6871	H687	0.879900	0.634900	0.000500
C11171	C1117	0.859910	0.578710	0.020590
C11181	C1118	0.772050	0.700990	0.919170
H6881	H688	0.753500	0.699900	0.942100
S871	S87	0.994750	0.409870	0.928470
S881	S88	0.953120	0.698240	0.787880
N4311	N431	0.881780	0.618280	0.829260
N4321	N432	0.048730	0.509670	0.862110
N4331	N433	0.084720	0.543740	0.844880
C11191	C1119	0.080440	0.513160	0.853380
N4341	N434	0.921250	0.570990	0.880930
N4351	N435	0.910870	0.653930	0.841630
C11201	C1120	0.112180	0.479480	0.855520
C11211	C1121	0.109220	0.447120	0.862880
H6891	H689	0.086700	0.447700	0.865500
N4361	N436	0.022350	0.573590	0.850110
C11221	C1122	0.082650	0.606750	0.845610
H6901	H690	0.100100	0.583900	0.852900
C11231	C1123	0.853930	0.617270	0.826590
H6911	H691	0.831200	0.620400	0.845600
N4371	N437	0.136300	0.415020	0.866600
C11241	C1124	0.060680	0.667920	0.832540
H6921	H692	0.062000	0.689000	0.831000
C11251	C1125	0.054650	0.573250	0.843710
C11261	C1126	0.856600	0.611920	0.797820
N4381	N438	0.069630	0.391090	0.907470
N4391	N439	0.827070	0.611290	0.766290
N4401	N440	0.084410	0.636030	0.844510
C11271	C1127	0.824950	0.611010	0.796890
C11281	C1128	0.056680	0.607900	0.836740
C11291	C1129	0.144520	0.478660	0.852580
H6931	H693	0.147400	0.500400	0.847600
C11301	C1130	0.038220	0.399920	0.916620
C11311	C1131	0.031450	0.641730	0.824650
H6941	H694	0.013200	0.643600	0.818400
C11321	C1132	0.954450	0.570050	0.872170
H6951	H695	0.957400	0.591800	0.867200
C11331	C1133	0.034040	0.672260	0.822240
H6961	H696	0.017900	0.695700	0.813700
C11341	C1134	0.985430	0.538850	0.869810
C11351	C1135	0.916730	0.539990	0.889170
H6971	H697	0.893100	0.540500	0.895100
C11361	C1136	0.927740	0.672260	0.820080
C11371	C1137	0.173000	0.445820	0.856920
H6981	H698	0.195500	0.444500	0.855300
C11381	C1138	0.945410	0.507310	0.889250
H6991	H699	0.941400	0.485800	0.895600
C11391	C1139	0.889830	0.607150	0.769890
H7001	H700	0.892400	0.603600	0.749600
C11401	C1140	0.913800	0.613380	0.802040
H7011	H701	0.933800	0.613800	0.803600
C11411	C1141	0.167470	0.415050	0.863710
H7021	H702	0.186900	0.392700	0.866500
C11421	C1142	0.980570	0.506690	0.879650
H7031	H703	0.000500	0.484700	0.879900
C11431	C1143	0.020590	0.540790	0.859910
C11441	C1144	0.919170	0.607790	0.772050
H7041	H704	0.942100	0.604500	0.753500
S891	S89	0.994750	0.666910	0.409870
S901	S90	0.953120	0.560760	0.698240
N4411	N441	0.881780	0.670680	0.618280
N4421	N442	0.048730	0.579490	0.509670
N4431	N443	0.084720	0.526660	0.543740
C11451	C1145	0.080440	0.553020	0.513160
N4441	N444	0.921250	0.626830	0.570990
N4451	N445	0.910870	0.593570	0.653930
C11461	C1146	0.112180	0.552820	0.479480
C11471	C1147	0.109220	0.580780	0.447120
H7051	H705	0.086700	0.600100	0.447700
N4461	N446	0.022350	0.553950	0.573590
C11481	C1148	0.082650	0.464990	0.606750
H7061	H706	0.100100	0.463100	0.583900
C11491	C1149	0.853930	0.702210	0.617270
H7071	H707	0.831200	0.702800	0.620400
N4471	N447	0.136300	0.582080	0.415020
C11501	C1150	0.060680	0.438860	0.667920
H7081	H708	0.062000	0.418000	0.689000
C11511	C1151	0.054650	0.528390	0.573250
C11521	C1152	0.856600	0.733660	0.611920
N4481	N448	0.069630	0.631810	0.391090
N4491	N449	0.827070	0.795350	0.611290
N4501	N450	0.084410	0.435050	0.636030
C11531	C1153	0.824950	0.767150	0.611010
C11541	C1154	0.056680	0.498680	0.607900
C11551	C1155	0.144520	0.524240	0.478660
H7091	H709	0.147400	0.504600	0.500400
C11561	C1156	0.038220	0.645240	0.399920
C11571	C1157	0.031450	0.502170	0.641730
H7101	H710	0.013200	0.524800	0.643600
C11581	C1158	0.954450	0.603330	0.570050
H7111	H711	0.957400	0.583600	0.591800
C11591	C1159	0.034040	0.471460	0.672260
H7121	H712	0.017900	0.472700	0.695700
C11601	C1160	0.985430	0.605910	0.538850
C11611	C1161	0.916730	0.654110	0.539990
H7131	H713	0.893100	0.671300	0.540500
C11621	C1162	0.927740	0.579920	0.672260
C11631	C1163	0.173000	0.524260	0.445820
H7141	H714	0.195500	0.504700	0.444500
C11641	C1164	0.945410	0.658030	0.507310
H7151	H715	0.941400	0.677200	0.485800
C11651	C1165	0.889830	0.733130	0.607150
H7161	H716	0.892400	0.754400	0.603600
C11661	C1166	0.913800	0.670780	0.613380
H7171	H717	0.933800	0.648800	0.613800
C11671	C1167	0.167470	0.553770	0.415050
H7181	H718	0.186900	0.553900	0.392700
C11681	C1168	0.980570	0.633090	0.506690
H7191	H719	0.000500	0.634900	0.484700
C11691	C1169	0.020590	0.578710	0.540790
C11701	C1170	0.919170	0.700990	0.607790
H7201	H720	0.942100	0.699900	0.604500
S911	S91	0.928470	0.409870	0.666910
S921	S92	0.787880	0.698240	0.560760
N4511	N451	0.829260	0.618280	0.670680
N4521	N452	0.862110	0.509670	0.579490
N4531	N453	0.844880	0.543740	0.526660
C11711	C1171	0.853380	0.513160	0.553020
N4541	N454	0.880930	0.570990	0.626830
N4551	N455	0.841630	0.653930	0.593570
C11721	C1172	0.855520	0.479480	0.552820
C11731	C1173	0.862880	0.447120	0.580780
H7211	H721	0.865500	0.447700	0.600100
N4561	N456	0.850110	0.573590	0.553950
C11741	C1174	0.845610	0.606750	0.464990
H7221	H722	0.852900	0.583900	0.463100
C11751	C1175	0.826590	0.617270	0.702210
H7231	H723	0.845600	0.620400	0.702800
N4571	N457	0.866600	0.415020	0.582080
C11761	C1176	0.832540	0.667920	0.438860
H7241	H724	0.831000	0.689000	0.418000
C11771	C1177	0.843710	0.573250	0.528390
C11781	C1178	0.797820	0.611920	0.733660
N4581	N458	0.907470	0.391090	0.631810
N4591	N459	0.766290	0.611290	0.795350
N4601	N460	0.844510	0.636030	0.435050
C11791	C1179	0.796890	0.611010	0.767150
C11801	C1180	0.836740	0.607900	0.498680
C11811	C1181	0.852580	0.478660	0.524240
H7251	H725	0.847600	0.500400	0.504600
C11821	C1182	0.916620	0.399920	0.645240
C11831	C1183	0.824650	0.641730	0.502170
H7261	H726	0.818400	0.643600	0.524800
C11841	C1184	0.872170	0.570050	0.603330
H7271	H727	0.867200	0.591800	0.583600
C11851	C1185	0.822240	0.672260	0.471460
H7281	H728	0.813700	0.695700	0.472700
C11861	C1186	0.869810	0.538850	0.605910
C11871	C1187	0.889170	0.539990	0.654110
H7291	H729	0.895100	0.540500	0.671300
C11881	C1188	0.820080	0.672260	0.579920
C11891	C1189	0.856920	0.445820	0.524260
H7301	H730	0.855300	0.444500	0.504700
C11901	C1190	0.889250	0.507310	0.658030
H7311	H731	0.895600	0.485800	0.677200
C11911	C1191	0.769890	0.607150	0.733130
H7321	H732	0.749600	0.603600	0.754400
C11921	C1192	0.802040	0.613380	0.670780
H7331	H733	0.803600	0.613800	0.648800
C11931	C1193	0.863710	0.415050	0.553770
H7341	H734	0.866500	0.392700	0.553900
C11941	C1194	0.879650	0.506690	0.633090
H7351	H735	0.879900	0.484700	0.634900
C11951	C1195	0.859910	0.540790	0.578710
C11961	C1196	0.772050	0.607790	0.700990
H7361	H736	0.753500	0.604500	0.699900
S931	S93	0.409870	0.928470	0.994750
S941	S94	0.698240	0.787880	0.953120
N4611	N461	0.618280	0.829260	0.881780
N4621	N462	0.509670	0.862110	0.048730
N4631	N463	0.543740	0.844880	0.084720
C11971	C1197	0.513160	0.853380	0.080440
N4641	N464	0.570990	0.880930	0.921250
N4651	N465	0.653930	0.841630	0.910870
C11981	C1198	0.479480	0.855520	0.112180
C11991	C1199	0.447120	0.862880	0.109220
H7371	H737	0.447700	0.865500	0.086700
N4661	N466	0.573590	0.850110	0.022350
C12001	C1200	0.606750	0.845610	0.082650
H7381	H738	0.583900	0.852900	0.100100
C12011	C1201	0.617270	0.826590	0.853930
H7391	H739	0.620400	0.845600	0.831200
N4671	N467	0.415020	0.866600	0.136300
C12021	C1202	0.667920	0.832540	0.060680
H7401	H740	0.689000	0.831000	0.062000
C12031	C1203	0.573250	0.843710	0.054650
C12041	C1204	0.611920	0.797820	0.856600
N4681	N468	0.391090	0.907470	0.069630
N4691	N469	0.611290	0.766290	0.827070
N4701	N470	0.636030	0.844510	0.084410
C12051	C1205	0.611010	0.796890	0.824950
C12061	C1206	0.607900	0.836740	0.056680
C12071	C1207	0.478660	0.852580	0.144520
H7411	H741	0.500400	0.847600	0.147400
C12081	C1208	0.399920	0.916620	0.038220
C12091	C1209	0.641730	0.824650	0.031450
H7421	H742	0.643600	0.818400	0.013200
C12101	C1210	0.570050	0.872170	0.954450
H7431	H743	0.591800	0.867200	0.957400
C12111	C1211	0.672260	0.822240	0.034040
H7441	H744	0.695700	0.813700	0.017900
C12121	C1212	0.538850	0.869810	0.985430
C12131	C1213	0.539990	0.889170	0.916730
H7451	H745	0.540500	0.895100	0.893100
C12141	C1214	0.672260	0.820080	0.927740
C12151	C1215	0.445820	0.856920	0.173000
H7461	H746	0.444500	0.855300	0.195500
C12161	C1216	0.507310	0.889250	0.945410
H7471	H747	0.485800	0.895600	0.941400
C12171	C1217	0.607150	0.769890	0.889830
H7481	H748	0.603600	0.749600	0.892400
C12181	C1218	0.613380	0.802040	0.913800
H7491	H749	0.613800	0.803600	0.933800
C12191	C1219	0.415050	0.863710	0.167470
H7501	H750	0.392700	0.866500	0.186900
C12201	C1220	0.506690	0.879650	0.980570
H7511	H751	0.484700	0.879900	0.000500
C12211	C1221	0.540790	0.859910	0.020590
C12221	C1222	0.607790	0.772050	0.919170
H7521	H752	0.604500	0.753500	0.942100
S951	S95	0.666910	0.994750	0.928470
S961	S96	0.560760	0.953120	0.787880
N4711	N471	0.670680	0.881780	0.829260
N4721	N472	0.579490	0.048730	0.862110
N4731	N473	0.526660	0.084720	0.844880
C12231	C1223	0.553020	0.080440	0.853380
N4741	N474	0.626830	0.921250	0.880930
N4751	N475	0.593570	0.910870	0.841630
C12241	C1224	0.552820	0.112180	0.855520
C12251	C1225	0.580780	0.109220	0.862880
H7531	H753	0.600100	0.086700	0.865500
N4761	N476	0.553950	0.022350	0.850110
C12261	C1226	0.464990	0.082650	0.845610
H7541	H754	0.463100	0.100100	0.852900
C12271	C1227	0.702210	0.853930	0.826590
H7551	H755	0.702800	0.831200	0.845600
N4771	N477	0.582080	0.136300	0.866600
C12281	C1228	0.438860	0.060680	0.832540
H7561	H756	0.418000	0.062000	0.831000
C12291	C1229	0.528390	0.054650	0.843710
C12301	C1230	0.733660	0.856600	0.797820
N4781	N478	0.631810	0.069630	0.907470
N4791	N479	0.795350	0.827070	0.766290
N4801	N480	0.435050	0.084410	0.844510
C12311	C1231	0.767150	0.824950	0.796890
C12321	C1232	0.498680	0.056680	0.836740
C12331	C1233	0.524240	0.144520	0.852580
H7571	H757	0.504600	0.147400	0.847600
C12341	C1234	0.645240	0.038220	0.916620
C12351	C1235	0.502170	0.031450	0.824650
H7581	H758	0.524800	0.013200	0.818400
C12361	C1236	0.603330	0.954450	0.872170
H7591	H759	0.583600	0.957400	0.867200
C12371	C1237	0.471460	0.034040	0.822240
H7601	H760	0.472700	0.017900	0.813700
C12381	C1238	0.605910	0.985430	0.869810
C12391	C1239	0.654110	0.916730	0.889170
H7611	H761	0.671300	0.893100	0.895100
C12401	C1240	0.579920	0.927740	0.820080
C12411	C1241	0.524260	0.173000	0.856920
H7621	H762	0.504700	0.195500	0.855300
C12421	C1242	0.658030	0.945410	0.889250
H7631	H763	0.677200	0.941400	0.895600
C12431	C1243	0.733130	0.889830	0.769890
H7641	H764	0.754400	0.892400	0.749600
C12441	C1244	0.670780	0.913800	0.802040
H7651	H765	0.648800	0.933800	0.803600
C12451	C1245	0.553770	0.167470	0.863710
H7661	H766	0.553900	0.186900	0.866500
C12461	C1246	0.633090	0.980570	0.879650
H7671	H767	0.634900	0.000500	0.879900
C12471	C1247	0.578710	0.020590	0.859910
C12481	C1248	0.700990	0.919170	0.772050
H7681	H768	0.699900	0.942100	0.753500
Co11	Co1	0.384160	0.625000	0.125000
Co21	Co2	0.625000	0.384160	0.865840
Co31	Co3	0.125000	0.865840	0.384160
Co41	Co4	0.865840	0.125000	0.625000
Co51	Co5	0.125000	0.384160	0.625000
Co61	Co6	0.865840	0.625000	0.384160
Co71	Co7	0.384160	0.125000	0.865840
Co81	Co8	0.625000	0.865840	0.125000
Co91	Co9	0.625000	0.125000	0.384160
Co101	Co10	0.384160	0.865840	0.625000
Co111	Co11	0.865840	0.384160	0.125000
Co121	Co12	0.125000	0.625000	0.865840
Co131	Co13	0.365840	0.125000	0.625000
Co141	Co14	0.125000	0.365840	0.884160
Co151	Co15	0.625000	0.884160	0.365840
Co161	Co16	0.884160	0.625000	0.125000
Co171	Co17	0.625000	0.365840	0.125000
Co181	Co18	0.884160	0.125000	0.365840
Co191	Co19	0.365840	0.625000	0.884160
Co201	Co20	0.125000	0.884160	0.625000
Co211	Co21	0.125000	0.625000	0.365840
Co221	Co22	0.365840	0.884160	0.125000
Co231	Co23	0.884160	0.365840	0.625000
Co241	Co24	0.625000	0.125000	0.884160
Co251	Co25	0.377330	0.377330	0.122670
Co261	Co26	0.122670	0.122670	0.377330
Co271	Co27	0.122670	0.377330	0.377330
Co281	Co28	0.377330	0.122670	0.122670
Co291	Co29	0.377330	0.122670	0.377330
Co301	Co30	0.122670	0.377330	0.122670
Co311	Co31	0.872670	0.872670	0.127330
Co321	Co32	0.127330	0.127330	0.872670
Co331	Co33	0.127330	0.872670	0.127330
Co341	Co34	0.872670	0.127330	0.872670
Co351	Co35	0.872670	0.127330	0.127330
Co361	Co36	0.127330	0.872670	0.872670
Co371	Co37	0.372670	0.372670	0.627330
Co381	Co38	0.627330	0.627330	0.372670
Co391	Co39	0.627330	0.372670	0.372670
Co401	Co40	0.372670	0.627330	0.627330
Co411	Co41	0.372670	0.627330	0.372670
Co421	Co42	0.627330	0.372670	0.627330
Co431	Co43	0.877330	0.877330	0.622670
Co441	Co44	0.622670	0.622670	0.877330
Co451	Co45	0.622670	0.877330	0.622670
Co461	Co46	0.877330	0.622670	0.877330
Co471	Co47	0.877330	0.622670	0.622670
Co481	Co48	0.622670	0.877330	0.877330
