data_LAFRER_manual_PM
_symmetry_space_group_name_H-M	'P1'
_cell_length_a	45.546200
_cell_length_b	45.546200
_cell_length_c	45.546200
_cell_angle_alpha	60.000000
_cell_angle_beta	60.000000
_cell_angle_gamma	60.000000
_symmetry_Int_Tables_number 1

loop_
_symmetry_equiv_pos_as_xyz
'x,y,z'

loop_
_atom_site_label
_atom_site_type_symbol
_atom_site_fract_x
_atom_site_fract_y
_atom_site_fract_z
N11	N1	0.570780	0.891340	0.132820
N21	N2	0.908200	0.840640	0.095220
N31	N3	0.664900	0.903080	0.316400
N41	N4	0.615830	0.884150	0.167290
N51	N5	0.702320	0.888740	0.170720
N61	N6	0.667320	0.902740	0.224300
N71	N7	0.728430	0.899190	0.197090
N81	N8	0.828730	0.872210	0.122750
N91	N9	0.921410	0.870030	0.130290
N101	N10	0.922950	0.954850	0.138870
S11	S1	0.496060	0.914340	0.159980
S21	S2	0.960240	0.798580	0.052640
C11	C1	0.539220	0.901660	0.143160
C21	C2	0.667460	0.902180	0.285860
H11	H1	0.650100	0.895700	0.286900
C31	C3	0.693620	0.910100	0.253860
C41	C4	0.718890	0.921470	0.250770
H21	H2	0.737500	0.927100	0.228700
C51	C5	0.715260	0.923940	0.281200
H31	H3	0.731100	0.932300	0.280300
C61	C6	0.689190	0.914530	0.312730
H41	H4	0.688000	0.916000	0.333400
C71	C7	0.584850	0.886690	0.195850
H51	H5	0.564900	0.885300	0.195500
C81	C8	0.581680	0.891020	0.224520
H61	H6	0.560000	0.891600	0.244400
C91	C9	0.608900	0.894580	0.225500
H71	H7	0.606200	0.898000	0.245800
C101	C10	0.640780	0.893200	0.196700
C111	C11	0.643260	0.887540	0.168380
H81	H8	0.665100	0.885900	0.148700
C121	C12	0.671890	0.895210	0.197290
C131	C13	0.696470	0.904110	0.222630
C141	C14	0.730100	0.891200	0.172200
C151	C15	0.831660	0.867360	0.094520
H91	H9	0.854700	0.862700	0.076700
C161	C16	0.803480	0.868720	0.089800
H101	H10	0.807000	0.864600	0.069600
C171	C17	0.769510	0.876450	0.115470
H111	H11	0.749400	0.877600	0.113000
C181	C18	0.765260	0.882360	0.143720
C191	C19	0.796180	0.879120	0.147400
H121	H12	0.793500	0.881900	0.168100
C201	C20	0.947920	0.838760	0.134540
H131	H13	0.947200	0.819600	0.132000
C211	C21	0.976890	0.832710	0.142490
H141	H14	0.994600	0.809600	0.147000
C221	C22	0.978850	0.861450	0.143550
H151	H15	0.998600	0.858600	0.147800
C231	C23	0.951940	0.894240	0.138380
C241	C24	0.923590	0.896970	0.131650
H161	H16	0.905000	0.919600	0.127800
C251	C25	0.952850	0.925770	0.138730
C261	C26	0.929250	0.823730	0.077150
N111	N11	0.891340	0.570780	0.405060
N121	N12	0.840640	0.908200	0.155940
N131	N13	0.903080	0.664900	0.115620
N141	N14	0.884150	0.615830	0.332730
N151	N15	0.888740	0.702320	0.238220
N161	N16	0.902740	0.667320	0.205640
N171	N17	0.899190	0.728430	0.175290
N181	N18	0.872210	0.828730	0.176310
N191	N19	0.870030	0.921410	0.078270
N201	N20	0.954850	0.922950	0.983330
S31	S3	0.914340	0.496060	0.429620
S41	S4	0.798580	0.960240	0.188540
C271	C27	0.901660	0.539220	0.415960
C281	C28	0.902180	0.667460	0.144500
H171	H17	0.895700	0.650100	0.167300
C291	C29	0.910100	0.693620	0.142420
C301	C30	0.921470	0.718890	0.108870
H181	H18	0.927100	0.737500	0.106700
C311	C31	0.923940	0.715260	0.079600
H191	H19	0.932300	0.731100	0.056300
C321	C32	0.914530	0.689190	0.083550
H201	H20	0.916000	0.688000	0.062600
C331	C33	0.886690	0.584850	0.332610
H211	H21	0.885300	0.564900	0.354300
C341	C34	0.891020	0.581680	0.302780
H221	H22	0.891600	0.560000	0.304000
C351	C35	0.894580	0.608900	0.271020
H231	H23	0.898000	0.606200	0.250000
C361	C36	0.893200	0.640780	0.269320
C371	C37	0.887540	0.643260	0.300820
H241	H24	0.885900	0.665100	0.300300
C381	C38	0.895210	0.671890	0.235610
C391	C39	0.904110	0.696470	0.176790
C401	C40	0.891200	0.730100	0.206500
C411	C41	0.867360	0.831660	0.206460
H251	H25	0.862700	0.854700	0.205900
C421	C42	0.868720	0.803480	0.238000
H261	H26	0.864600	0.807000	0.258800
C431	C43	0.876450	0.769510	0.238570
H271	H27	0.877600	0.749400	0.260000
C441	C44	0.882360	0.765260	0.208660
C451	C45	0.879120	0.796180	0.177300
H281	H28	0.881900	0.793500	0.156500
C461	C46	0.838760	0.947920	0.078780
H291	H29	0.819600	0.947200	0.101200
C471	C47	0.832710	0.976890	0.047910
H301	H30	0.809600	0.994600	0.048800
C481	C48	0.861450	0.978850	0.016150
H311	H31	0.858600	0.998600	0.995000
C491	C49	0.894240	0.951940	0.015440
C501	C50	0.896970	0.923590	0.047790
H321	H32	0.919600	0.905000	0.047600
C511	C51	0.925770	0.952850	0.982650
C521	C52	0.823730	0.929250	0.169870
N211	N21	0.132820	0.405060	0.570780
N221	N22	0.095220	0.155940	0.908200
N231	N23	0.316400	0.115620	0.664900
N241	N24	0.167290	0.332730	0.615830
N251	N25	0.170720	0.238220	0.702320
N261	N26	0.224300	0.205640	0.667320
N271	N27	0.197090	0.175290	0.728430
N281	N28	0.122750	0.176310	0.828730
N291	N29	0.130290	0.078270	0.921410
N301	N30	0.138870	0.983330	0.922950
S51	S5	0.159980	0.429620	0.496060
S61	S6	0.052640	0.188540	0.960240
C531	C53	0.143160	0.415960	0.539220
C541	C54	0.285860	0.144500	0.667460
H331	H33	0.286900	0.167300	0.650100
C551	C55	0.253860	0.142420	0.693620
C561	C56	0.250770	0.108870	0.718890
H341	H34	0.228700	0.106700	0.737500
C571	C57	0.281200	0.079600	0.715260
H351	H35	0.280300	0.056300	0.731100
C581	C58	0.312730	0.083550	0.689190
H361	H36	0.333400	0.062600	0.688000
C591	C59	0.195850	0.332610	0.584850
H371	H37	0.195500	0.354300	0.564900
C601	C60	0.224520	0.302780	0.581680
H381	H38	0.244400	0.304000	0.560000
C611	C61	0.225500	0.271020	0.608900
H391	H39	0.245800	0.250000	0.606200
C621	C62	0.196700	0.269320	0.640780
C631	C63	0.168380	0.300820	0.643260
H401	H40	0.148700	0.300300	0.665100
C641	C64	0.197290	0.235610	0.671890
C651	C65	0.222630	0.176790	0.696470
C661	C66	0.172200	0.206500	0.730100
C671	C67	0.094520	0.206460	0.831660
H411	H41	0.076700	0.205900	0.854700
C681	C68	0.089800	0.238000	0.803480
H421	H42	0.069600	0.258800	0.807000
C691	C69	0.115470	0.238570	0.769510
H431	H43	0.113000	0.260000	0.749400
C701	C70	0.143720	0.208660	0.765260
C711	C71	0.147400	0.177300	0.796180
H441	H44	0.168100	0.156500	0.793500
C721	C72	0.134540	0.078780	0.947920
H451	H45	0.132000	0.101200	0.947200
C731	C73	0.142490	0.047910	0.976890
H461	H46	0.147000	0.048800	0.994600
C741	C74	0.143550	0.016150	0.978850
H471	H47	0.147800	0.995000	0.998600
C751	C75	0.138380	0.015440	0.951940
C761	C76	0.131650	0.047790	0.923590
H481	H48	0.127800	0.047600	0.905000
C771	C77	0.138730	0.982650	0.952850
C781	C78	0.077150	0.169870	0.929250
N311	N31	0.405060	0.132820	0.891340
N321	N32	0.155940	0.095220	0.840640
N331	N33	0.115620	0.316400	0.903080
N341	N34	0.332730	0.167290	0.884150
N351	N35	0.238220	0.170720	0.888740
N361	N36	0.205640	0.224300	0.902740
N371	N37	0.175290	0.197090	0.899190
N381	N38	0.176310	0.122750	0.872210
N391	N39	0.078270	0.130290	0.870030
N401	N40	0.983330	0.138870	0.954850
S71	S7	0.429620	0.159980	0.914340
S81	S8	0.188540	0.052640	0.798580
C791	C79	0.415960	0.143160	0.901660
C801	C80	0.144500	0.285860	0.902180
H491	H49	0.167300	0.286900	0.895700
C811	C81	0.142420	0.253860	0.910100
C821	C82	0.108870	0.250770	0.921470
H501	H50	0.106700	0.228700	0.927100
C831	C83	0.079600	0.281200	0.923940
H511	H51	0.056300	0.280300	0.932300
C841	C84	0.083550	0.312730	0.914530
H521	H52	0.062600	0.333400	0.916000
C851	C85	0.332610	0.195850	0.886690
H531	H53	0.354300	0.195500	0.885300
C861	C86	0.302780	0.224520	0.891020
H541	H54	0.304000	0.244400	0.891600
C871	C87	0.271020	0.225500	0.894580
H551	H55	0.250000	0.245800	0.898000
C881	C88	0.269320	0.196700	0.893200
C891	C89	0.300820	0.168380	0.887540
H561	H56	0.300300	0.148700	0.885900
C901	C90	0.235610	0.197290	0.895210
C911	C91	0.176790	0.222630	0.904110
C921	C92	0.206500	0.172200	0.891200
C931	C93	0.206460	0.094520	0.867360
H571	H57	0.205900	0.076700	0.862700
C941	C94	0.238000	0.089800	0.868720
H581	H58	0.258800	0.069600	0.864600
C951	C95	0.238570	0.115470	0.876450
H591	H59	0.260000	0.113000	0.877600
C961	C96	0.208660	0.143720	0.882360
C971	C97	0.177300	0.147400	0.879120
H601	H60	0.156500	0.168100	0.881900
C981	C98	0.078780	0.134540	0.838760
H611	H61	0.101200	0.132000	0.819600
C991	C99	0.047910	0.142490	0.832710
H621	H62	0.048800	0.147000	0.809600
C1001	C100	0.016150	0.143550	0.861450
H631	H63	0.995000	0.147800	0.858600
C1011	C101	0.015440	0.138380	0.894240
C1021	C102	0.047790	0.131650	0.896970
H641	H64	0.047600	0.127800	0.919600
C1031	C103	0.982650	0.138730	0.925770
C1041	C104	0.169870	0.077150	0.823730
N411	N41	0.132820	0.570780	0.891340
N421	N42	0.095220	0.908200	0.840640
N431	N43	0.316400	0.664900	0.903080
N441	N44	0.167290	0.615830	0.884150
N451	N45	0.170720	0.702320	0.888740
N461	N46	0.224300	0.667320	0.902740
N471	N47	0.197090	0.728430	0.899190
N481	N48	0.122750	0.828730	0.872210
N491	N49	0.130290	0.921410	0.870030
N501	N50	0.138870	0.922950	0.954850
S91	S9	0.159980	0.496060	0.914340
S101	S10	0.052640	0.960240	0.798580
C1051	C105	0.143160	0.539220	0.901660
C1061	C106	0.285860	0.667460	0.902180
H651	H65	0.286900	0.650100	0.895700
C1071	C107	0.253860	0.693620	0.910100
C1081	C108	0.250770	0.718890	0.921470
H661	H66	0.228700	0.737500	0.927100
C1091	C109	0.281200	0.715260	0.923940
H671	H67	0.280300	0.731100	0.932300
C1101	C110	0.312730	0.689190	0.914530
H681	H68	0.333400	0.688000	0.916000
C1111	C111	0.195850	0.584850	0.886690
H691	H69	0.195500	0.564900	0.885300
C1121	C112	0.224520	0.581680	0.891020
H701	H70	0.244400	0.560000	0.891600
C1131	C113	0.225500	0.608900	0.894580
H711	H71	0.245800	0.606200	0.898000
C1141	C114	0.196700	0.640780	0.893200
C1151	C115	0.168380	0.643260	0.887540
H721	H72	0.148700	0.665100	0.885900
C1161	C116	0.197290	0.671890	0.895210
C1171	C117	0.222630	0.696470	0.904110
C1181	C118	0.172200	0.730100	0.891200
C1191	C119	0.094520	0.831660	0.867360
H731	H73	0.076700	0.854700	0.862700
C1201	C120	0.089800	0.803480	0.868720
H741	H74	0.069600	0.807000	0.864600
C1211	C121	0.115470	0.769510	0.876450
H751	H75	0.113000	0.749400	0.877600
C1221	C122	0.143720	0.765260	0.882360
C1231	C123	0.147400	0.796180	0.879120
H761	H76	0.168100	0.793500	0.881900
C1241	C124	0.134540	0.947920	0.838760
H771	H77	0.132000	0.947200	0.819600
C1251	C125	0.142490	0.976890	0.832710
H781	H78	0.147000	0.994600	0.809600
C1261	C126	0.143550	0.978850	0.861450
H791	H79	0.147800	0.998600	0.858600
C1271	C127	0.138380	0.951940	0.894240
C1281	C128	0.131650	0.923590	0.896970
H801	H80	0.127800	0.905000	0.919600
C1291	C129	0.138730	0.952850	0.925770
C1301	C130	0.077150	0.929250	0.823730
N511	N51	0.405060	0.891340	0.570780
N521	N52	0.155940	0.840640	0.908200
N531	N53	0.115620	0.903080	0.664900
N541	N54	0.332730	0.884150	0.615830
N551	N55	0.238220	0.888740	0.702320
N561	N56	0.205640	0.902740	0.667320
N571	N57	0.175290	0.899190	0.728430
N581	N58	0.176310	0.872210	0.828730
N591	N59	0.078270	0.870030	0.921410
N601	N60	0.983330	0.954850	0.922950
S111	S11	0.429620	0.914340	0.496060
S121	S12	0.188540	0.798580	0.960240
C1311	C131	0.415960	0.901660	0.539220
C1321	C132	0.144500	0.902180	0.667460
H811	H81	0.167300	0.895700	0.650100
C1331	C133	0.142420	0.910100	0.693620
C1341	C134	0.108870	0.921470	0.718890
H821	H82	0.106700	0.927100	0.737500
C1351	C135	0.079600	0.923940	0.715260
H831	H83	0.056300	0.932300	0.731100
C1361	C136	0.083550	0.914530	0.689190
H841	H84	0.062600	0.916000	0.688000
C1371	C137	0.332610	0.886690	0.584850
H851	H85	0.354300	0.885300	0.564900
C1381	C138	0.302780	0.891020	0.581680
H861	H86	0.304000	0.891600	0.560000
C1391	C139	0.271020	0.894580	0.608900
H871	H87	0.250000	0.898000	0.606200
C1401	C140	0.269320	0.893200	0.640780
C1411	C141	0.300820	0.887540	0.643260
H881	H88	0.300300	0.885900	0.665100
C1421	C142	0.235610	0.895210	0.671890
C1431	C143	0.176790	0.904110	0.696470
C1441	C144	0.206500	0.891200	0.730100
C1451	C145	0.206460	0.867360	0.831660
H891	H89	0.205900	0.862700	0.854700
C1461	C146	0.238000	0.868720	0.803480
H901	H90	0.258800	0.864600	0.807000
C1471	C147	0.238570	0.876450	0.769510
H911	H91	0.260000	0.877600	0.749400
C1481	C148	0.208660	0.882360	0.765260
C1491	C149	0.177300	0.879120	0.796180
H921	H92	0.156500	0.881900	0.793500
C1501	C150	0.078780	0.838760	0.947920
H931	H93	0.101200	0.819600	0.947200
C1511	C151	0.047910	0.832710	0.976890
H941	H94	0.048800	0.809600	0.994600
C1521	C152	0.016150	0.861450	0.978850
H951	H95	0.995000	0.858600	0.998600
C1531	C153	0.015440	0.894240	0.951940
C1541	C154	0.047790	0.896970	0.923590
H961	H96	0.047600	0.919600	0.905000
C1551	C155	0.982650	0.925770	0.952850
C1561	C156	0.169870	0.823730	0.929250
N611	N61	0.570780	0.132820	0.405060
N621	N62	0.908200	0.095220	0.155940
N631	N63	0.664900	0.316400	0.115620
N641	N64	0.615830	0.167290	0.332730
N651	N65	0.702320	0.170720	0.238220
N661	N66	0.667320	0.224300	0.205640
N671	N67	0.728430	0.197090	0.175290
N681	N68	0.828730	0.122750	0.176310
N691	N69	0.921410	0.130290	0.078270
N701	N70	0.922950	0.138870	0.983330
S131	S13	0.496060	0.159980	0.429620
S141	S14	0.960240	0.052640	0.188540
C1571	C157	0.539220	0.143160	0.415960
C1581	C158	0.667460	0.285860	0.144500
H971	H97	0.650100	0.286900	0.167300
C1591	C159	0.693620	0.253860	0.142420
C1601	C160	0.718890	0.250770	0.108870
H981	H98	0.737500	0.228700	0.106700
C1611	C161	0.715260	0.281200	0.079600
H991	H99	0.731100	0.280300	0.056300
C1621	C162	0.689190	0.312730	0.083550
H1001	H100	0.688000	0.333400	0.062600
C1631	C163	0.584850	0.195850	0.332610
H1011	H101	0.564900	0.195500	0.354300
C1641	C164	0.581680	0.224520	0.302780
H1021	H102	0.560000	0.244400	0.304000
C1651	C165	0.608900	0.225500	0.271020
H1031	H103	0.606200	0.245800	0.250000
C1661	C166	0.640780	0.196700	0.269320
C1671	C167	0.643260	0.168380	0.300820
H1041	H104	0.665100	0.148700	0.300300
C1681	C168	0.671890	0.197290	0.235610
C1691	C169	0.696470	0.222630	0.176790
C1701	C170	0.730100	0.172200	0.206500
C1711	C171	0.831660	0.094520	0.206460
H1051	H105	0.854700	0.076700	0.205900
C1721	C172	0.803480	0.089800	0.238000
H1061	H106	0.807000	0.069600	0.258800
C1731	C173	0.769510	0.115470	0.238570
H1071	H107	0.749400	0.113000	0.260000
C1741	C174	0.765260	0.143720	0.208660
C1751	C175	0.796180	0.147400	0.177300
H1081	H108	0.793500	0.168100	0.156500
C1761	C176	0.947920	0.134540	0.078780
H1091	H109	0.947200	0.132000	0.101200
C1771	C177	0.976890	0.142490	0.047910
H1101	H110	0.994600	0.147000	0.048800
C1781	C178	0.978850	0.143550	0.016150
H1111	H111	0.998600	0.147800	0.995000
C1791	C179	0.951940	0.138380	0.015440
C1801	C180	0.923590	0.131650	0.047790
H1121	H112	0.905000	0.127800	0.047600
C1811	C181	0.952850	0.138730	0.982650
C1821	C182	0.929250	0.077150	0.169870
N711	N71	0.891340	0.405060	0.132820
N721	N72	0.840640	0.155940	0.095220
N731	N73	0.903080	0.115620	0.316400
N741	N74	0.884150	0.332730	0.167290
N751	N75	0.888740	0.238220	0.170720
N761	N76	0.902740	0.205640	0.224300
N771	N77	0.899190	0.175290	0.197090
N781	N78	0.872210	0.176310	0.122750
N791	N79	0.870030	0.078270	0.130290
N801	N80	0.954850	0.983330	0.138870
S151	S15	0.914340	0.429620	0.159980
S161	S16	0.798580	0.188540	0.052640
C1831	C183	0.901660	0.415960	0.143160
C1841	C184	0.902180	0.144500	0.285860
H1131	H113	0.895700	0.167300	0.286900
C1851	C185	0.910100	0.142420	0.253860
C1861	C186	0.921470	0.108870	0.250770
H1141	H114	0.927100	0.106700	0.228700
C1871	C187	0.923940	0.079600	0.281200
H1151	H115	0.932300	0.056300	0.280300
C1881	C188	0.914530	0.083550	0.312730
H1161	H116	0.916000	0.062600	0.333400
C1891	C189	0.886690	0.332610	0.195850
H1171	H117	0.885300	0.354300	0.195500
C1901	C190	0.891020	0.302780	0.224520
H1181	H118	0.891600	0.304000	0.244400
C1911	C191	0.894580	0.271020	0.225500
H1191	H119	0.898000	0.250000	0.245800
C1921	C192	0.893200	0.269320	0.196700
C1931	C193	0.887540	0.300820	0.168380
H1201	H120	0.885900	0.300300	0.148700
C1941	C194	0.895210	0.235610	0.197290
C1951	C195	0.904110	0.176790	0.222630
C1961	C196	0.891200	0.206500	0.172200
C1971	C197	0.867360	0.206460	0.094520
H1211	H121	0.862700	0.205900	0.076700
C1981	C198	0.868720	0.238000	0.089800
H1221	H122	0.864600	0.258800	0.069600
C1991	C199	0.876450	0.238570	0.115470
H1231	H123	0.877600	0.260000	0.113000
C2001	C200	0.882360	0.208660	0.143720
C2011	C201	0.879120	0.177300	0.147400
H1241	H124	0.881900	0.156500	0.168100
C2021	C202	0.838760	0.078780	0.134540
H1251	H125	0.819600	0.101200	0.132000
C2031	C203	0.832710	0.047910	0.142490
H1261	H126	0.809600	0.048800	0.147000
C2041	C204	0.861450	0.016150	0.143550
H1271	H127	0.858600	0.995000	0.147800
C2051	C205	0.894240	0.015440	0.138380
C2061	C206	0.896970	0.047790	0.131650
H1281	H128	0.919600	0.047600	0.127800
C2071	C207	0.925770	0.982650	0.138730
C2081	C208	0.823730	0.169870	0.077150
N811	N81	0.891340	0.132820	0.570780
N821	N82	0.840640	0.095220	0.908200
N831	N83	0.903080	0.316400	0.664900
N841	N84	0.884150	0.167290	0.615830
N851	N85	0.888740	0.170720	0.702320
N861	N86	0.902740	0.224300	0.667320
N871	N87	0.899190	0.197090	0.728430
N881	N88	0.872210	0.122750	0.828730
N891	N89	0.870030	0.130290	0.921410
N901	N90	0.954850	0.138870	0.922950
S171	S17	0.914340	0.159980	0.496060
S181	S18	0.798580	0.052640	0.960240
C2091	C209	0.901660	0.143160	0.539220
C2101	C210	0.902180	0.285860	0.667460
H1291	H129	0.895700	0.286900	0.650100
C2111	C211	0.910100	0.253860	0.693620
C2121	C212	0.921470	0.250770	0.718890
H1301	H130	0.927100	0.228700	0.737500
C2131	C213	0.923940	0.281200	0.715260
H1311	H131	0.932300	0.280300	0.731100
C2141	C214	0.914530	0.312730	0.689190
H1321	H132	0.916000	0.333400	0.688000
C2151	C215	0.886690	0.195850	0.584850
H1331	H133	0.885300	0.195500	0.564900
C2161	C216	0.891020	0.224520	0.581680
H1341	H134	0.891600	0.244400	0.560000
C2171	C217	0.894580	0.225500	0.608900
H1351	H135	0.898000	0.245800	0.606200
C2181	C218	0.893200	0.196700	0.640780
C2191	C219	0.887540	0.168380	0.643260
H1361	H136	0.885900	0.148700	0.665100
C2201	C220	0.895210	0.197290	0.671890
C2211	C221	0.904110	0.222630	0.696470
C2221	C222	0.891200	0.172200	0.730100
C2231	C223	0.867360	0.094520	0.831660
H1371	H137	0.862700	0.076700	0.854700
C2241	C224	0.868720	0.089800	0.803480
H1381	H138	0.864600	0.069600	0.807000
C2251	C225	0.876450	0.115470	0.769510
H1391	H139	0.877600	0.113000	0.749400
C2261	C226	0.882360	0.143720	0.765260
C2271	C227	0.879120	0.147400	0.796180
H1401	H140	0.881900	0.168100	0.793500
C2281	C228	0.838760	0.134540	0.947920
H1411	H141	0.819600	0.132000	0.947200
C2291	C229	0.832710	0.142490	0.976890
H1421	H142	0.809600	0.147000	0.994600
C2301	C230	0.861450	0.143550	0.978850
H1431	H143	0.858600	0.147800	0.998600
C2311	C231	0.894240	0.138380	0.951940
C2321	C232	0.896970	0.131650	0.923590
H1441	H144	0.919600	0.127800	0.905000
C2331	C233	0.925770	0.138730	0.952850
C2341	C234	0.823730	0.077150	0.929250
N911	N91	0.570780	0.405060	0.891340
N921	N92	0.908200	0.155940	0.840640
N931	N93	0.664900	0.115620	0.903080
N941	N94	0.615830	0.332730	0.884150
N951	N95	0.702320	0.238220	0.888740
N961	N96	0.667320	0.205640	0.902740
N971	N97	0.728430	0.175290	0.899190
N981	N98	0.828730	0.176310	0.872210
N991	N99	0.921410	0.078270	0.870030
N1001	N100	0.922950	0.983330	0.954850
S191	S19	0.496060	0.429620	0.914340
S201	S20	0.960240	0.188540	0.798580
C2351	C235	0.539220	0.415960	0.901660
C2361	C236	0.667460	0.144500	0.902180
H1451	H145	0.650100	0.167300	0.895700
C2371	C237	0.693620	0.142420	0.910100
C2381	C238	0.718890	0.108870	0.921470
H1461	H146	0.737500	0.106700	0.927100
C2391	C239	0.715260	0.079600	0.923940
H1471	H147	0.731100	0.056300	0.932300
C2401	C240	0.689190	0.083550	0.914530
H1481	H148	0.688000	0.062600	0.916000
C2411	C241	0.584850	0.332610	0.886690
H1491	H149	0.564900	0.354300	0.885300
C2421	C242	0.581680	0.302780	0.891020
H1501	H150	0.560000	0.304000	0.891600
C2431	C243	0.608900	0.271020	0.894580
H1511	H151	0.606200	0.250000	0.898000
C2441	C244	0.640780	0.269320	0.893200
C2451	C245	0.643260	0.300820	0.887540
H1521	H152	0.665100	0.300300	0.885900
C2461	C246	0.671890	0.235610	0.895210
C2471	C247	0.696470	0.176790	0.904110
C2481	C248	0.730100	0.206500	0.891200
C2491	C249	0.831660	0.206460	0.867360
H1531	H153	0.854700	0.205900	0.862700
C2501	C250	0.803480	0.238000	0.868720
H1541	H154	0.807000	0.258800	0.864600
C2511	C251	0.769510	0.238570	0.876450
H1551	H155	0.749400	0.260000	0.877600
C2521	C252	0.765260	0.208660	0.882360
C2531	C253	0.796180	0.177300	0.879120
H1561	H156	0.793500	0.156500	0.881900
C2541	C254	0.947920	0.078780	0.838760
H1571	H157	0.947200	0.101200	0.819600
C2551	C255	0.976890	0.047910	0.832710
H1581	H158	0.994600	0.048800	0.809600
C2561	C256	0.978850	0.016150	0.861450
H1591	H159	0.998600	0.995000	0.858600
C2571	C257	0.951940	0.015440	0.894240
C2581	C258	0.923590	0.047790	0.896970
H1601	H160	0.905000	0.047600	0.919600
C2591	C259	0.952850	0.982650	0.925770
C2601	C260	0.929250	0.169870	0.823730
N1011	N101	0.405060	0.570780	0.132820
N1021	N102	0.155940	0.908200	0.095220
N1031	N103	0.115620	0.664900	0.316400
N1041	N104	0.332730	0.615830	0.167290
N1051	N105	0.238220	0.702320	0.170720
N1061	N106	0.205640	0.667320	0.224300
N1071	N107	0.175290	0.728430	0.197090
N1081	N108	0.176310	0.828730	0.122750
N1091	N109	0.078270	0.921410	0.130290
N1101	N110	0.983330	0.922950	0.138870
S211	S21	0.429620	0.496060	0.159980
S221	S22	0.188540	0.960240	0.052640
C2611	C261	0.415960	0.539220	0.143160
C2621	C262	0.144500	0.667460	0.285860
H1611	H161	0.167300	0.650100	0.286900
C2631	C263	0.142420	0.693620	0.253860
C2641	C264	0.108870	0.718890	0.250770
H1621	H162	0.106700	0.737500	0.228700
C2651	C265	0.079600	0.715260	0.281200
H1631	H163	0.056300	0.731100	0.280300
C2661	C266	0.083550	0.689190	0.312730
H1641	H164	0.062600	0.688000	0.333400
C2671	C267	0.332610	0.584850	0.195850
H1651	H165	0.354300	0.564900	0.195500
C2681	C268	0.302780	0.581680	0.224520
H1661	H166	0.304000	0.560000	0.244400
C2691	C269	0.271020	0.608900	0.225500
H1671	H167	0.250000	0.606200	0.245800
C2701	C270	0.269320	0.640780	0.196700
C2711	C271	0.300820	0.643260	0.168380
H1681	H168	0.300300	0.665100	0.148700
C2721	C272	0.235610	0.671890	0.197290
C2731	C273	0.176790	0.696470	0.222630
C2741	C274	0.206500	0.730100	0.172200
C2751	C275	0.206460	0.831660	0.094520
H1691	H169	0.205900	0.854700	0.076700
C2761	C276	0.238000	0.803480	0.089800
H1701	H170	0.258800	0.807000	0.069600
C2771	C277	0.238570	0.769510	0.115470
H1711	H171	0.260000	0.749400	0.113000
C2781	C278	0.208660	0.765260	0.143720
C2791	C279	0.177300	0.796180	0.147400
H1721	H172	0.156500	0.793500	0.168100
C2801	C280	0.078780	0.947920	0.134540
H1731	H173	0.101200	0.947200	0.132000
C2811	C281	0.047910	0.976890	0.142490
H1741	H174	0.048800	0.994600	0.147000
C2821	C282	0.016150	0.978850	0.143550
H1751	H175	0.995000	0.998600	0.147800
C2831	C283	0.015440	0.951940	0.138380
C2841	C284	0.047790	0.923590	0.131650
H1761	H176	0.047600	0.905000	0.127800
C2851	C285	0.982650	0.952850	0.138730
C2861	C286	0.169870	0.929250	0.077150
N1111	N111	0.132820	0.891340	0.405060
N1121	N112	0.095220	0.840640	0.155940
N1131	N113	0.316400	0.903080	0.115620
N1141	N114	0.167290	0.884150	0.332730
N1151	N115	0.170720	0.888740	0.238220
N1161	N116	0.224300	0.902740	0.205640
N1171	N117	0.197090	0.899190	0.175290
N1181	N118	0.122750	0.872210	0.176310
N1191	N119	0.130290	0.870030	0.078270
N1201	N120	0.138870	0.954850	0.983330
S231	S23	0.159980	0.914340	0.429620
S241	S24	0.052640	0.798580	0.188540
C2871	C287	0.143160	0.901660	0.415960
C2881	C288	0.285860	0.902180	0.144500
H1771	H177	0.286900	0.895700	0.167300
C2891	C289	0.253860	0.910100	0.142420
C2901	C290	0.250770	0.921470	0.108870
H1781	H178	0.228700	0.927100	0.106700
C2911	C291	0.281200	0.923940	0.079600
H1791	H179	0.280300	0.932300	0.056300
C2921	C292	0.312730	0.914530	0.083550
H1801	H180	0.333400	0.916000	0.062600
C2931	C293	0.195850	0.886690	0.332610
H1811	H181	0.195500	0.885300	0.354300
C2941	C294	0.224520	0.891020	0.302780
H1821	H182	0.244400	0.891600	0.304000
C2951	C295	0.225500	0.894580	0.271020
H1831	H183	0.245800	0.898000	0.250000
C2961	C296	0.196700	0.893200	0.269320
C2971	C297	0.168380	0.887540	0.300820
H1841	H184	0.148700	0.885900	0.300300
C2981	C298	0.197290	0.895210	0.235610
C2991	C299	0.222630	0.904110	0.176790
C3001	C300	0.172200	0.891200	0.206500
C3011	C301	0.094520	0.867360	0.206460
H1851	H185	0.076700	0.862700	0.205900
C3021	C302	0.089800	0.868720	0.238000
H1861	H186	0.069600	0.864600	0.258800
C3031	C303	0.115470	0.876450	0.238570
H1871	H187	0.113000	0.877600	0.260000
C3041	C304	0.143720	0.882360	0.208660
C3051	C305	0.147400	0.879120	0.177300
H1881	H188	0.168100	0.881900	0.156500
C3061	C306	0.134540	0.838760	0.078780
H1891	H189	0.132000	0.819600	0.101200
C3071	C307	0.142490	0.832710	0.047910
H1901	H190	0.147000	0.809600	0.048800
C3081	C308	0.143550	0.861450	0.016150
H1911	H191	0.147800	0.858600	0.995000
C3091	C309	0.138380	0.894240	0.015440
C3101	C310	0.131650	0.896970	0.047790
H1921	H192	0.127800	0.919600	0.047600
C3111	C311	0.138730	0.925770	0.982650
C3121	C312	0.077150	0.823730	0.169870
N1211	N121	0.679220	0.358660	0.844940
N1221	N122	0.341800	0.409360	0.094060
N1231	N123	0.585100	0.346920	0.134380
N1241	N124	0.634170	0.365850	0.917270
N1251	N125	0.547680	0.361260	0.011780
N1261	N126	0.582680	0.347260	0.044360
N1271	N127	0.521570	0.350810	0.074710
N1281	N128	0.421270	0.377790	0.073690
N1291	N129	0.328590	0.379970	0.171730
N1301	N130	0.327050	0.295150	0.266670
S251	S25	0.753940	0.335660	0.820380
S261	S26	0.289760	0.451420	0.061460
C3131	C313	0.710780	0.348340	0.834040
C3141	C314	0.582540	0.347820	0.105500
H1931	H193	0.599900	0.354300	0.082700
C3151	C315	0.556380	0.339900	0.107580
C3161	C316	0.531110	0.328530	0.141130
H1941	H194	0.512500	0.322900	0.143300
C3171	C317	0.534740	0.326060	0.170400
H1951	H195	0.518900	0.317700	0.193700
C3181	C318	0.560810	0.335470	0.166450
H1961	H196	0.562000	0.334000	0.187400
C3191	C319	0.665150	0.363310	0.917390
H1971	H197	0.685100	0.364700	0.895700
C3201	C320	0.668320	0.358980	0.947220
H1981	H198	0.690000	0.358400	0.946000
C3211	C321	0.641100	0.355420	0.978980
H1991	H199	0.643800	0.352000	0.000000
C3221	C322	0.609220	0.356800	0.980680
C3231	C323	0.606740	0.362460	0.949180
H2001	H200	0.584900	0.364100	0.949700
C3241	C324	0.578110	0.354790	0.014390
C3251	C325	0.553530	0.345890	0.073210
C3261	C326	0.519900	0.358800	0.043500
C3271	C327	0.418340	0.382640	0.043540
H2011	H201	0.395300	0.387300	0.044100
C3281	C328	0.446520	0.381280	0.012000
H2021	H202	0.443000	0.385400	0.991200
C3291	C329	0.480490	0.373550	0.011430
H2031	H203	0.500600	0.372400	0.990000
C3301	C330	0.484740	0.367640	0.041340
C3311	C331	0.453820	0.370880	0.072700
H2041	H204	0.456500	0.368100	0.093500
C3321	C332	0.302080	0.411240	0.171220
H2051	H205	0.302800	0.430400	0.148800
C3331	C333	0.273110	0.417290	0.202090
H2061	H206	0.255400	0.440400	0.201200
C3341	C334	0.271150	0.388550	0.233850
H2071	H207	0.251400	0.391400	0.255000
C3351	C335	0.298060	0.355760	0.234560
C3361	C336	0.326410	0.353030	0.202210
H2081	H208	0.345000	0.330400	0.202400
C3371	C337	0.297150	0.324230	0.267350
C3381	C338	0.320750	0.426270	0.080130
N1311	N131	0.358660	0.679220	0.117180
N1321	N132	0.409360	0.341800	0.154780
N1331	N133	0.346920	0.585100	0.933600
N1341	N134	0.365850	0.634170	0.082710
N1351	N135	0.361260	0.547680	0.079280
N1361	N136	0.347260	0.582680	0.025700
N1371	N137	0.350810	0.521570	0.052910
N1381	N138	0.377790	0.421270	0.127250
N1391	N139	0.379970	0.328590	0.119710
N1401	N140	0.295150	0.327050	0.111130
S271	S27	0.335660	0.753940	0.090020
S281	S28	0.451420	0.289760	0.197360
C3391	C339	0.348340	0.710780	0.106840
C3401	C340	0.347820	0.582540	0.964140
H2091	H209	0.354300	0.599900	0.963100
C3411	C341	0.339900	0.556380	0.996140
C3421	C342	0.328530	0.531110	0.999230
H2101	H210	0.322900	0.512500	0.021300
C3431	C343	0.326060	0.534740	0.968800
H2111	H211	0.317700	0.518900	0.969700
C3441	C344	0.335470	0.560810	0.937270
H2121	H212	0.334000	0.562000	0.916600
C3451	C345	0.363310	0.665150	0.054150
H2131	H213	0.364700	0.685100	0.054500
C3461	C346	0.358980	0.668320	0.025480
H2141	H214	0.358400	0.690000	0.005600
C3471	C347	0.355420	0.641100	0.024500
H2151	H215	0.352000	0.643800	0.004200
C3481	C348	0.356800	0.609220	0.053300
C3491	C349	0.362460	0.606740	0.081620
H2161	H216	0.364100	0.584900	0.101300
C3501	C350	0.354790	0.578110	0.052710
C3511	C351	0.345890	0.553530	0.027370
C3521	C352	0.358800	0.519900	0.077800
C3531	C353	0.382640	0.418340	0.155480
H2171	H217	0.387300	0.395300	0.173300
C3541	C354	0.381280	0.446520	0.160200
H2181	H218	0.385400	0.443000	0.180400
C3551	C355	0.373550	0.480490	0.134530
H2191	H219	0.372400	0.500600	0.137000
C3561	C356	0.367640	0.484740	0.106280
C3571	C357	0.370880	0.453820	0.102600
H2201	H220	0.368100	0.456500	0.081900
C3581	C358	0.411240	0.302080	0.115460
H2211	H221	0.430400	0.302800	0.118000
C3591	C359	0.417290	0.273110	0.107510
H2221	H222	0.440400	0.255400	0.103000
C3601	C360	0.388550	0.271150	0.106450
H2231	H223	0.391400	0.251400	0.102200
C3611	C361	0.355760	0.298060	0.111620
C3621	C362	0.353030	0.326410	0.118350
H2241	H224	0.330400	0.345000	0.122200
C3631	C363	0.324230	0.297150	0.111270
C3641	C364	0.426270	0.320750	0.172850
N1411	N141	0.117180	0.844940	0.358660
N1421	N142	0.154780	0.094060	0.409360
N1431	N143	0.933600	0.134380	0.346920
N1441	N144	0.082710	0.917270	0.365850
N1451	N145	0.079280	0.011780	0.361260
N1461	N146	0.025700	0.044360	0.347260
N1471	N147	0.052910	0.074710	0.350810
N1481	N148	0.127250	0.073690	0.377790
N1491	N149	0.119710	0.171730	0.379970
N1501	N150	0.111130	0.266670	0.295150
S291	S29	0.090020	0.820380	0.335660
S301	S30	0.197360	0.061460	0.451420
C3651	C365	0.106840	0.834040	0.348340
C3661	C366	0.964140	0.105500	0.347820
H2251	H225	0.963100	0.082700	0.354300
C3671	C367	0.996140	0.107580	0.339900
C3681	C368	0.999230	0.141130	0.328530
H2261	H226	0.021300	0.143300	0.322900
C3691	C369	0.968800	0.170400	0.326060
H2271	H227	0.969700	0.193700	0.317700
C3701	C370	0.937270	0.166450	0.335470
H2281	H228	0.916600	0.187400	0.334000
C3711	C371	0.054150	0.917390	0.363310
H2291	H229	0.054500	0.895700	0.364700
C3721	C372	0.025480	0.947220	0.358980
H2301	H230	0.005600	0.946000	0.358400
C3731	C373	0.024500	0.978980	0.355420
H2311	H231	0.004200	0.000000	0.352000
C3741	C374	0.053300	0.980680	0.356800
C3751	C375	0.081620	0.949180	0.362460
H2321	H232	0.101300	0.949700	0.364100
C3761	C376	0.052710	0.014390	0.354790
C3771	C377	0.027370	0.073210	0.345890
C3781	C378	0.077800	0.043500	0.358800
C3791	C379	0.155480	0.043540	0.382640
H2331	H233	0.173300	0.044100	0.387300
C3801	C380	0.160200	0.012000	0.381280
H2341	H234	0.180400	0.991200	0.385400
C3811	C381	0.134530	0.011430	0.373550
H2351	H235	0.137000	0.990000	0.372400
C3821	C382	0.106280	0.041340	0.367640
C3831	C383	0.102600	0.072700	0.370880
H2361	H236	0.081900	0.093500	0.368100
C3841	C384	0.115460	0.171220	0.411240
H2371	H237	0.118000	0.148800	0.430400
C3851	C385	0.107510	0.202090	0.417290
H2381	H238	0.103000	0.201200	0.440400
C3861	C386	0.106450	0.233850	0.388550
H2391	H239	0.102200	0.255000	0.391400
C3871	C387	0.111620	0.234560	0.355760
C3881	C388	0.118350	0.202210	0.353030
H2401	H240	0.122200	0.202400	0.330400
C3891	C389	0.111270	0.267350	0.324230
C3901	C390	0.172850	0.080130	0.426270
N1511	N151	0.844940	0.117180	0.679220
N1521	N152	0.094060	0.154780	0.341800
N1531	N153	0.134380	0.933600	0.585100
N1541	N154	0.917270	0.082710	0.634170
N1551	N155	0.011780	0.079280	0.547680
N1561	N156	0.044360	0.025700	0.582680
N1571	N157	0.074710	0.052910	0.521570
N1581	N158	0.073690	0.127250	0.421270
N1591	N159	0.171730	0.119710	0.328590
N1601	N160	0.266670	0.111130	0.327050
S311	S31	0.820380	0.090020	0.753940
S321	S32	0.061460	0.197360	0.289760
C3911	C391	0.834040	0.106840	0.710780
C3921	C392	0.105500	0.964140	0.582540
H2411	H241	0.082700	0.963100	0.599900
C3931	C393	0.107580	0.996140	0.556380
C3941	C394	0.141130	0.999230	0.531110
H2421	H242	0.143300	0.021300	0.512500
C3951	C395	0.170400	0.968800	0.534740
H2431	H243	0.193700	0.969700	0.518900
C3961	C396	0.166450	0.937270	0.560810
H2441	H244	0.187400	0.916600	0.562000
C3971	C397	0.917390	0.054150	0.665150
H2451	H245	0.895700	0.054500	0.685100
C3981	C398	0.947220	0.025480	0.668320
H2461	H246	0.946000	0.005600	0.690000
C3991	C399	0.978980	0.024500	0.641100
H2471	H247	0.000000	0.004200	0.643800
C4001	C400	0.980680	0.053300	0.609220
C4011	C401	0.949180	0.081620	0.606740
H2481	H248	0.949700	0.101300	0.584900
C4021	C402	0.014390	0.052710	0.578110
C4031	C403	0.073210	0.027370	0.553530
C4041	C404	0.043500	0.077800	0.519900
C4051	C405	0.043540	0.155480	0.418340
H2491	H249	0.044100	0.173300	0.395300
C4061	C406	0.012000	0.160200	0.446520
H2501	H250	0.991200	0.180400	0.443000
C4071	C407	0.011430	0.134530	0.480490
H2511	H251	0.990000	0.137000	0.500600
C4081	C408	0.041340	0.106280	0.484740
C4091	C409	0.072700	0.102600	0.453820
H2521	H252	0.093500	0.081900	0.456500
C4101	C410	0.171220	0.115460	0.302080
H2531	H253	0.148800	0.118000	0.302800
C4111	C411	0.202090	0.107510	0.273110
H2541	H254	0.201200	0.103000	0.255400
C4121	C412	0.233850	0.106450	0.271150
H2551	H255	0.255000	0.102200	0.251400
C4131	C413	0.234560	0.111620	0.298060
C4141	C414	0.202210	0.118350	0.326410
H2561	H256	0.202400	0.122200	0.345000
C4151	C415	0.267350	0.111270	0.297150
C4161	C416	0.080130	0.172850	0.320750
N1611	N161	0.117180	0.679220	0.844940
N1621	N162	0.154780	0.341800	0.094060
N1631	N163	0.933600	0.585100	0.134380
N1641	N164	0.082710	0.634170	0.917270
N1651	N165	0.079280	0.547680	0.011780
N1661	N166	0.025700	0.582680	0.044360
N1671	N167	0.052910	0.521570	0.074710
N1681	N168	0.127250	0.421270	0.073690
N1691	N169	0.119710	0.328590	0.171730
N1701	N170	0.111130	0.327050	0.266670
S331	S33	0.090020	0.753940	0.820380
S341	S34	0.197360	0.289760	0.061460
C4171	C417	0.106840	0.710780	0.834040
C4181	C418	0.964140	0.582540	0.105500
H2571	H257	0.963100	0.599900	0.082700
C4191	C419	0.996140	0.556380	0.107580
C4201	C420	0.999230	0.531110	0.141130
H2581	H258	0.021300	0.512500	0.143300
C4211	C421	0.968800	0.534740	0.170400
H2591	H259	0.969700	0.518900	0.193700
C4221	C422	0.937270	0.560810	0.166450
H2601	H260	0.916600	0.562000	0.187400
C4231	C423	0.054150	0.665150	0.917390
H2611	H261	0.054500	0.685100	0.895700
C4241	C424	0.025480	0.668320	0.947220
H2621	H262	0.005600	0.690000	0.946000
C4251	C425	0.024500	0.641100	0.978980
H2631	H263	0.004200	0.643800	0.000000
C4261	C426	0.053300	0.609220	0.980680
C4271	C427	0.081620	0.606740	0.949180
H2641	H264	0.101300	0.584900	0.949700
C4281	C428	0.052710	0.578110	0.014390
C4291	C429	0.027370	0.553530	0.073210
C4301	C430	0.077800	0.519900	0.043500
C4311	C431	0.155480	0.418340	0.043540
H2651	H265	0.173300	0.395300	0.044100
C4321	C432	0.160200	0.446520	0.012000
H2661	H266	0.180400	0.443000	0.991200
C4331	C433	0.134530	0.480490	0.011430
H2671	H267	0.137000	0.500600	0.990000
C4341	C434	0.106280	0.484740	0.041340
C4351	C435	0.102600	0.453820	0.072700
H2681	H268	0.081900	0.456500	0.093500
C4361	C436	0.115460	0.302080	0.171220
H2691	H269	0.118000	0.302800	0.148800
C4371	C437	0.107510	0.273110	0.202090
H2701	H270	0.103000	0.255400	0.201200
C4381	C438	0.106450	0.271150	0.233850
H2711	H271	0.102200	0.251400	0.255000
C4391	C439	0.111620	0.298060	0.234560
C4401	C440	0.118350	0.326410	0.202210
H2721	H272	0.122200	0.345000	0.202400
C4411	C441	0.111270	0.297150	0.267350
C4421	C442	0.172850	0.320750	0.080130
N1711	N171	0.844940	0.358660	0.117180
N1721	N172	0.094060	0.409360	0.154780
N1731	N173	0.134380	0.346920	0.933600
N1741	N174	0.917270	0.365850	0.082710
N1751	N175	0.011780	0.361260	0.079280
N1761	N176	0.044360	0.347260	0.025700
N1771	N177	0.074710	0.350810	0.052910
N1781	N178	0.073690	0.377790	0.127250
N1791	N179	0.171730	0.379970	0.119710
N1801	N180	0.266670	0.295150	0.111130
S351	S35	0.820380	0.335660	0.090020
S361	S36	0.061460	0.451420	0.197360
C4431	C443	0.834040	0.348340	0.106840
C4441	C444	0.105500	0.347820	0.964140
H2731	H273	0.082700	0.354300	0.963100
C4451	C445	0.107580	0.339900	0.996140
C4461	C446	0.141130	0.328530	0.999230
H2741	H274	0.143300	0.322900	0.021300
C4471	C447	0.170400	0.326060	0.968800
H2751	H275	0.193700	0.317700	0.969700
C4481	C448	0.166450	0.335470	0.937270
H2761	H276	0.187400	0.334000	0.916600
C4491	C449	0.917390	0.363310	0.054150
H2771	H277	0.895700	0.364700	0.054500
C4501	C450	0.947220	0.358980	0.025480
H2781	H278	0.946000	0.358400	0.005600
C4511	C451	0.978980	0.355420	0.024500
H2791	H279	0.000000	0.352000	0.004200
C4521	C452	0.980680	0.356800	0.053300
C4531	C453	0.949180	0.362460	0.081620
H2801	H280	0.949700	0.364100	0.101300
C4541	C454	0.014390	0.354790	0.052710
C4551	C455	0.073210	0.345890	0.027370
C4561	C456	0.043500	0.358800	0.077800
C4571	C457	0.043540	0.382640	0.155480
H2811	H281	0.044100	0.387300	0.173300
C4581	C458	0.012000	0.381280	0.160200
H2821	H282	0.991200	0.385400	0.180400
C4591	C459	0.011430	0.373550	0.134530
H2831	H283	0.990000	0.372400	0.137000
C4601	C460	0.041340	0.367640	0.106280
C4611	C461	0.072700	0.370880	0.102600
H2841	H284	0.093500	0.368100	0.081900
C4621	C462	0.171220	0.411240	0.115460
H2851	H285	0.148800	0.430400	0.118000
C4631	C463	0.202090	0.417290	0.107510
H2861	H286	0.201200	0.440400	0.103000
C4641	C464	0.233850	0.388550	0.106450
H2871	H287	0.255000	0.391400	0.102200
C4651	C465	0.234560	0.355760	0.111620
C4661	C466	0.202210	0.353030	0.118350
H2881	H288	0.202400	0.330400	0.122200
C4671	C467	0.267350	0.324230	0.111270
C4681	C468	0.080130	0.426270	0.172850
N1811	N181	0.679220	0.117180	0.358660
N1821	N182	0.341800	0.154780	0.409360
N1831	N183	0.585100	0.933600	0.346920
N1841	N184	0.634170	0.082710	0.365850
N1851	N185	0.547680	0.079280	0.361260
N1861	N186	0.582680	0.025700	0.347260
N1871	N187	0.521570	0.052910	0.350810
N1881	N188	0.421270	0.127250	0.377790
N1891	N189	0.328590	0.119710	0.379970
N1901	N190	0.327050	0.111130	0.295150
S371	S37	0.753940	0.090020	0.335660
S381	S38	0.289760	0.197360	0.451420
C4691	C469	0.710780	0.106840	0.348340
C4701	C470	0.582540	0.964140	0.347820
H2891	H289	0.599900	0.963100	0.354300
C4711	C471	0.556380	0.996140	0.339900
C4721	C472	0.531110	0.999230	0.328530
H2901	H290	0.512500	0.021300	0.322900
C4731	C473	0.534740	0.968800	0.326060
H2911	H291	0.518900	0.969700	0.317700
C4741	C474	0.560810	0.937270	0.335470
H2921	H292	0.562000	0.916600	0.334000
C4751	C475	0.665150	0.054150	0.363310
H2931	H293	0.685100	0.054500	0.364700
C4761	C476	0.668320	0.025480	0.358980
H2941	H294	0.690000	0.005600	0.358400
C4771	C477	0.641100	0.024500	0.355420
H2951	H295	0.643800	0.004200	0.352000
C4781	C478	0.609220	0.053300	0.356800
C4791	C479	0.606740	0.081620	0.362460
H2961	H296	0.584900	0.101300	0.364100
C4801	C480	0.578110	0.052710	0.354790
C4811	C481	0.553530	0.027370	0.345890
C4821	C482	0.519900	0.077800	0.358800
C4831	C483	0.418340	0.155480	0.382640
H2971	H297	0.395300	0.173300	0.387300
C4841	C484	0.446520	0.160200	0.381280
H2981	H298	0.443000	0.180400	0.385400
C4851	C485	0.480490	0.134530	0.373550
H2991	H299	0.500600	0.137000	0.372400
C4861	C486	0.484740	0.106280	0.367640
C4871	C487	0.453820	0.102600	0.370880
H3001	H300	0.456500	0.081900	0.368100
C4881	C488	0.302080	0.115460	0.411240
H3011	H301	0.302800	0.118000	0.430400
C4891	C489	0.273110	0.107510	0.417290
H3021	H302	0.255400	0.103000	0.440400
C4901	C490	0.271150	0.106450	0.388550
H3031	H303	0.251400	0.102200	0.391400
C4911	C491	0.298060	0.111620	0.355760
C4921	C492	0.326410	0.118350	0.353030
H3041	H304	0.345000	0.122200	0.330400
C4931	C493	0.297150	0.111270	0.324230
C4941	C494	0.320750	0.172850	0.426270
N1911	N191	0.358660	0.844940	0.679220
N1921	N192	0.409360	0.094060	0.341800
N1931	N193	0.346920	0.134380	0.585100
N1941	N194	0.365850	0.917270	0.634170
N1951	N195	0.361260	0.011780	0.547680
N1961	N196	0.347260	0.044360	0.582680
N1971	N197	0.350810	0.074710	0.521570
N1981	N198	0.377790	0.073690	0.421270
N1991	N199	0.379970	0.171730	0.328590
N2001	N200	0.295150	0.266670	0.327050
S391	S39	0.335660	0.820380	0.753940
S401	S40	0.451420	0.061460	0.289760
C4951	C495	0.348340	0.834040	0.710780
C4961	C496	0.347820	0.105500	0.582540
H3051	H305	0.354300	0.082700	0.599900
C4971	C497	0.339900	0.107580	0.556380
C4981	C498	0.328530	0.141130	0.531110
H3061	H306	0.322900	0.143300	0.512500
C4991	C499	0.326060	0.170400	0.534740
H3071	H307	0.317700	0.193700	0.518900
C5001	C500	0.335470	0.166450	0.560810
H3081	H308	0.334000	0.187400	0.562000
C5011	C501	0.363310	0.917390	0.665150
H3091	H309	0.364700	0.895700	0.685100
C5021	C502	0.358980	0.947220	0.668320
H3101	H310	0.358400	0.946000	0.690000
C5031	C503	0.355420	0.978980	0.641100
H3111	H311	0.352000	0.000000	0.643800
C5041	C504	0.356800	0.980680	0.609220
C5051	C505	0.362460	0.949180	0.606740
H3121	H312	0.364100	0.949700	0.584900
C5061	C506	0.354790	0.014390	0.578110
C5071	C507	0.345890	0.073210	0.553530
C5081	C508	0.358800	0.043500	0.519900
C5091	C509	0.382640	0.043540	0.418340
H3131	H313	0.387300	0.044100	0.395300
C5101	C510	0.381280	0.012000	0.446520
H3141	H314	0.385400	0.991200	0.443000
C5111	C511	0.373550	0.011430	0.480490
H3151	H315	0.372400	0.990000	0.500600
C5121	C512	0.367640	0.041340	0.484740
C5131	C513	0.370880	0.072700	0.453820
H3161	H316	0.368100	0.093500	0.456500
C5141	C514	0.411240	0.171220	0.302080
H3171	H317	0.430400	0.148800	0.302800
C5151	C515	0.417290	0.202090	0.273110
H3181	H318	0.440400	0.201200	0.255400
C5161	C516	0.388550	0.233850	0.271150
H3191	H319	0.391400	0.255000	0.251400
C5171	C517	0.355760	0.234560	0.298060
C5181	C518	0.353030	0.202210	0.326410
H3201	H320	0.330400	0.202400	0.345000
C5191	C519	0.324230	0.267350	0.297150
C5201	C520	0.426270	0.080130	0.320750
N2011	N201	0.358660	0.117180	0.844940
N2021	N202	0.409360	0.154780	0.094060
N2031	N203	0.346920	0.933600	0.134380
N2041	N204	0.365850	0.082710	0.917270
N2051	N205	0.361260	0.079280	0.011780
N2061	N206	0.347260	0.025700	0.044360
N2071	N207	0.350810	0.052910	0.074710
N2081	N208	0.377790	0.127250	0.073690
N2091	N209	0.379970	0.119710	0.171730
N2101	N210	0.295150	0.111130	0.266670
S411	S41	0.335660	0.090020	0.820380
S421	S42	0.451420	0.197360	0.061460
C5211	C521	0.348340	0.106840	0.834040
C5221	C522	0.347820	0.964140	0.105500
H3211	H321	0.354300	0.963100	0.082700
C5231	C523	0.339900	0.996140	0.107580
C5241	C524	0.328530	0.999230	0.141130
H3221	H322	0.322900	0.021300	0.143300
C5251	C525	0.326060	0.968800	0.170400
H3231	H323	0.317700	0.969700	0.193700
C5261	C526	0.335470	0.937270	0.166450
H3241	H324	0.334000	0.916600	0.187400
C5271	C527	0.363310	0.054150	0.917390
H3251	H325	0.364700	0.054500	0.895700
C5281	C528	0.358980	0.025480	0.947220
H3261	H326	0.358400	0.005600	0.946000
C5291	C529	0.355420	0.024500	0.978980
H3271	H327	0.352000	0.004200	0.000000
C5301	C530	0.356800	0.053300	0.980680
C5311	C531	0.362460	0.081620	0.949180
H3281	H328	0.364100	0.101300	0.949700
C5321	C532	0.354790	0.052710	0.014390
C5331	C533	0.345890	0.027370	0.073210
C5341	C534	0.358800	0.077800	0.043500
C5351	C535	0.382640	0.155480	0.043540
H3291	H329	0.387300	0.173300	0.044100
C5361	C536	0.381280	0.160200	0.012000
H3301	H330	0.385400	0.180400	0.991200
C5371	C537	0.373550	0.134530	0.011430
H3311	H331	0.372400	0.137000	0.990000
C5381	C538	0.367640	0.106280	0.041340
C5391	C539	0.370880	0.102600	0.072700
H3321	H332	0.368100	0.081900	0.093500
C5401	C540	0.411240	0.115460	0.171220
H3331	H333	0.430400	0.118000	0.148800
C5411	C541	0.417290	0.107510	0.202090
H3341	H334	0.440400	0.103000	0.201200
C5421	C542	0.388550	0.106450	0.233850
H3351	H335	0.391400	0.102200	0.255000
C5431	C543	0.355760	0.111620	0.234560
C5441	C544	0.353030	0.118350	0.202210
H3361	H336	0.330400	0.122200	0.202400
C5451	C545	0.324230	0.111270	0.267350
C5461	C546	0.426270	0.172850	0.080130
N2111	N211	0.679220	0.844940	0.117180
N2121	N212	0.341800	0.094060	0.154780
N2131	N213	0.585100	0.134380	0.933600
N2141	N214	0.634170	0.917270	0.082710
N2151	N215	0.547680	0.011780	0.079280
N2161	N216	0.582680	0.044360	0.025700
N2171	N217	0.521570	0.074710	0.052910
N2181	N218	0.421270	0.073690	0.127250
N2191	N219	0.328590	0.171730	0.119710
N2201	N220	0.327050	0.266670	0.111130
S431	S43	0.753940	0.820380	0.090020
S441	S44	0.289760	0.061460	0.197360
C5471	C547	0.710780	0.834040	0.106840
C5481	C548	0.582540	0.105500	0.964140
H3371	H337	0.599900	0.082700	0.963100
C5491	C549	0.556380	0.107580	0.996140
C5501	C550	0.531110	0.141130	0.999230
H3381	H338	0.512500	0.143300	0.021300
C5511	C551	0.534740	0.170400	0.968800
H3391	H339	0.518900	0.193700	0.969700
C5521	C552	0.560810	0.166450	0.937270
H3401	H340	0.562000	0.187400	0.916600
C5531	C553	0.665150	0.917390	0.054150
H3411	H341	0.685100	0.895700	0.054500
C5541	C554	0.668320	0.947220	0.025480
H3421	H342	0.690000	0.946000	0.005600
C5551	C555	0.641100	0.978980	0.024500
H3431	H343	0.643800	0.000000	0.004200
C5561	C556	0.609220	0.980680	0.053300
C5571	C557	0.606740	0.949180	0.081620
H3441	H344	0.584900	0.949700	0.101300
C5581	C558	0.578110	0.014390	0.052710
C5591	C559	0.553530	0.073210	0.027370
C5601	C560	0.519900	0.043500	0.077800
C5611	C561	0.418340	0.043540	0.155480
H3451	H345	0.395300	0.044100	0.173300
C5621	C562	0.446520	0.012000	0.160200
H3461	H346	0.443000	0.991200	0.180400
C5631	C563	0.480490	0.011430	0.134530
H3471	H347	0.500600	0.990000	0.137000
C5641	C564	0.484740	0.041340	0.106280
C5651	C565	0.453820	0.072700	0.102600
H3481	H348	0.456500	0.093500	0.081900
C5661	C566	0.302080	0.171220	0.115460
H3491	H349	0.302800	0.148800	0.118000
C5671	C567	0.273110	0.202090	0.107510
H3501	H350	0.255400	0.201200	0.103000
C5681	C568	0.271150	0.233850	0.106450
H3511	H351	0.251400	0.255000	0.102200
C5691	C569	0.298060	0.234560	0.111620
C5701	C570	0.326410	0.202210	0.118350
H3521	H352	0.345000	0.202400	0.122200
C5711	C571	0.297150	0.267350	0.111270
C5721	C572	0.320750	0.080130	0.172850
N2211	N221	0.844940	0.679220	0.358660
N2221	N222	0.094060	0.341800	0.409360
N2231	N223	0.134380	0.585100	0.346920
N2241	N224	0.917270	0.634170	0.365850
N2251	N225	0.011780	0.547680	0.361260
N2261	N226	0.044360	0.582680	0.347260
N2271	N227	0.074710	0.521570	0.350810
N2281	N228	0.073690	0.421270	0.377790
N2291	N229	0.171730	0.328590	0.379970
N2301	N230	0.266670	0.327050	0.295150
S451	S45	0.820380	0.753940	0.335660
S461	S46	0.061460	0.289760	0.451420
C5731	C573	0.834040	0.710780	0.348340
C5741	C574	0.105500	0.582540	0.347820
H3531	H353	0.082700	0.599900	0.354300
C5751	C575	0.107580	0.556380	0.339900
C5761	C576	0.141130	0.531110	0.328530
H3541	H354	0.143300	0.512500	0.322900
C5771	C577	0.170400	0.534740	0.326060
H3551	H355	0.193700	0.518900	0.317700
C5781	C578	0.166450	0.560810	0.335470
H3561	H356	0.187400	0.562000	0.334000
C5791	C579	0.917390	0.665150	0.363310
H3571	H357	0.895700	0.685100	0.364700
C5801	C580	0.947220	0.668320	0.358980
H3581	H358	0.946000	0.690000	0.358400
C5811	C581	0.978980	0.641100	0.355420
H3591	H359	0.000000	0.643800	0.352000
C5821	C582	0.980680	0.609220	0.356800
C5831	C583	0.949180	0.606740	0.362460
H3601	H360	0.949700	0.584900	0.364100
C5841	C584	0.014390	0.578110	0.354790
C5851	C585	0.073210	0.553530	0.345890
C5861	C586	0.043500	0.519900	0.358800
C5871	C587	0.043540	0.418340	0.382640
H3611	H361	0.044100	0.395300	0.387300
C5881	C588	0.012000	0.446520	0.381280
H3621	H362	0.991200	0.443000	0.385400
C5891	C589	0.011430	0.480490	0.373550
H3631	H363	0.990000	0.500600	0.372400
C5901	C590	0.041340	0.484740	0.367640
C5911	C591	0.072700	0.453820	0.370880
H3641	H364	0.093500	0.456500	0.368100
C5921	C592	0.171220	0.302080	0.411240
H3651	H365	0.148800	0.302800	0.430400
C5931	C593	0.202090	0.273110	0.417290
H3661	H366	0.201200	0.255400	0.440400
C5941	C594	0.233850	0.271150	0.388550
H3671	H367	0.255000	0.251400	0.391400
C5951	C595	0.234560	0.298060	0.355760
C5961	C596	0.202210	0.326410	0.353030
H3681	H368	0.202400	0.345000	0.330400
C5971	C597	0.267350	0.297150	0.324230
C5981	C598	0.080130	0.320750	0.426270
N2311	N231	0.117180	0.358660	0.679220
N2321	N232	0.154780	0.409360	0.341800
N2331	N233	0.933600	0.346920	0.585100
N2341	N234	0.082710	0.365850	0.634170
N2351	N235	0.079280	0.361260	0.547680
N2361	N236	0.025700	0.347260	0.582680
N2371	N237	0.052910	0.350810	0.521570
N2381	N238	0.127250	0.377790	0.421270
N2391	N239	0.119710	0.379970	0.328590
N2401	N240	0.111130	0.295150	0.327050
S471	S47	0.090020	0.335660	0.753940
S481	S48	0.197360	0.451420	0.289760
C5991	C599	0.106840	0.348340	0.710780
C6001	C600	0.964140	0.347820	0.582540
H3691	H369	0.963100	0.354300	0.599900
C6011	C601	0.996140	0.339900	0.556380
C6021	C602	0.999230	0.328530	0.531110
H3701	H370	0.021300	0.322900	0.512500
C6031	C603	0.968800	0.326060	0.534740
H3711	H371	0.969700	0.317700	0.518900
C6041	C604	0.937270	0.335470	0.560810
H3721	H372	0.916600	0.334000	0.562000
C6051	C605	0.054150	0.363310	0.665150
H3731	H373	0.054500	0.364700	0.685100
C6061	C606	0.025480	0.358980	0.668320
H3741	H374	0.005600	0.358400	0.690000
C6071	C607	0.024500	0.355420	0.641100
H3751	H375	0.004200	0.352000	0.643800
C6081	C608	0.053300	0.356800	0.609220
C6091	C609	0.081620	0.362460	0.606740
H3761	H376	0.101300	0.364100	0.584900
C6101	C610	0.052710	0.354790	0.578110
C6111	C611	0.027370	0.345890	0.553530
C6121	C612	0.077800	0.358800	0.519900
C6131	C613	0.155480	0.382640	0.418340
H3771	H377	0.173300	0.387300	0.395300
C6141	C614	0.160200	0.381280	0.446520
H3781	H378	0.180400	0.385400	0.443000
C6151	C615	0.134530	0.373550	0.480490
H3791	H379	0.137000	0.372400	0.500600
C6161	C616	0.106280	0.367640	0.484740
C6171	C617	0.102600	0.370880	0.453820
H3801	H380	0.081900	0.368100	0.456500
C6181	C618	0.115460	0.411240	0.302080
H3811	H381	0.118000	0.430400	0.302800
C6191	C619	0.107510	0.417290	0.273110
H3821	H382	0.103000	0.440400	0.255400
C6201	C620	0.106450	0.388550	0.271150
H3831	H383	0.102200	0.391400	0.251400
C6211	C621	0.111620	0.355760	0.298060
C6221	C622	0.118350	0.353030	0.326410
H3841	H384	0.122200	0.330400	0.345000
C6231	C623	0.111270	0.324230	0.297150
C6241	C624	0.172850	0.426270	0.320750
N2411	N241	0.179220	0.858660	0.617180
N2421	N242	0.841800	0.909360	0.654780
N2431	N243	0.085100	0.846920	0.433600
N2441	N244	0.134170	0.865850	0.582710
N2451	N245	0.047680	0.861260	0.579280
N2461	N246	0.082680	0.847260	0.525700
N2471	N247	0.021570	0.850810	0.552910
N2481	N248	0.921270	0.877790	0.627250
N2491	N249	0.828590	0.879970	0.619710
N2501	N250	0.827050	0.795150	0.611130
S491	S49	0.253940	0.835660	0.590020
S501	S50	0.789760	0.951420	0.697360
C6251	C625	0.210780	0.848340	0.606840
C6261	C626	0.082540	0.847820	0.464140
H3851	H385	0.099900	0.854300	0.463100
C6271	C627	0.056380	0.839900	0.496140
C6281	C628	0.031110	0.828530	0.499230
H3861	H386	0.012500	0.822900	0.521300
C6291	C629	0.034740	0.826060	0.468800
H3871	H387	0.018900	0.817700	0.469700
C6301	C630	0.060810	0.835470	0.437270
H3881	H388	0.062000	0.834000	0.416600
C6311	C631	0.165150	0.863310	0.554150
H3891	H389	0.185100	0.864700	0.554500
C6321	C632	0.168320	0.858980	0.525480
H3901	H390	0.190000	0.858400	0.505600
C6331	C633	0.141100	0.855420	0.524500
H3911	H391	0.143800	0.852000	0.504200
C6341	C634	0.109220	0.856800	0.553300
C6351	C635	0.106740	0.862460	0.581620
H3921	H392	0.084900	0.864100	0.601300
C6361	C636	0.078110	0.854790	0.552710
C6371	C637	0.053530	0.845890	0.527370
C6381	C638	0.019900	0.858800	0.577800
C6391	C639	0.918340	0.882640	0.655480
H3931	H393	0.895300	0.887300	0.673300
C6401	C640	0.946520	0.881280	0.660200
H3941	H394	0.943000	0.885400	0.680400
C6411	C641	0.980490	0.873550	0.634530
H3951	H395	0.000600	0.872400	0.637000
C6421	C642	0.984740	0.867640	0.606280
C6431	C643	0.953820	0.870880	0.602600
H3961	H396	0.956500	0.868100	0.581900
C6441	C644	0.802080	0.911240	0.615460
H3971	H397	0.802800	0.930400	0.618000
C6451	C645	0.773110	0.917290	0.607510
H3981	H398	0.755400	0.940400	0.603000
C6461	C646	0.771150	0.888550	0.606450
H3991	H399	0.751400	0.891400	0.602200
C6471	C647	0.798060	0.855760	0.611620
C6481	C648	0.826410	0.853030	0.618350
H4001	H400	0.845000	0.830400	0.622200
C6491	C649	0.797150	0.824230	0.611270
C6501	C650	0.820750	0.926270	0.672850
N2511	N251	0.858660	0.179220	0.344940
N2521	N252	0.909360	0.841800	0.594060
N2531	N253	0.846920	0.085100	0.634380
N2541	N254	0.865850	0.134170	0.417270
N2551	N255	0.861260	0.047680	0.511780
N2561	N256	0.847260	0.082680	0.544360
N2571	N257	0.850810	0.021570	0.574710
N2581	N258	0.877790	0.921270	0.573690
N2591	N259	0.879970	0.828590	0.671730
N2601	N260	0.795150	0.827050	0.766670
S511	S51	0.835660	0.253940	0.320380
S521	S52	0.951420	0.789760	0.561460
C6511	C651	0.848340	0.210780	0.334040
C6521	C652	0.847820	0.082540	0.605500
H4011	H401	0.854300	0.099900	0.582700
C6531	C653	0.839900	0.056380	0.607580
C6541	C654	0.828530	0.031110	0.641130
H4021	H402	0.822900	0.012500	0.643300
C6551	C655	0.826060	0.034740	0.670400
H4031	H403	0.817700	0.018900	0.693700
C6561	C656	0.835470	0.060810	0.666450
H4041	H404	0.834000	0.062000	0.687400
C6571	C657	0.863310	0.165150	0.417390
H4051	H405	0.864700	0.185100	0.395700
C6581	C658	0.858980	0.168320	0.447220
H4061	H406	0.858400	0.190000	0.446000
C6591	C659	0.855420	0.141100	0.478980
H4071	H407	0.852000	0.143800	0.500000
C6601	C660	0.856800	0.109220	0.480680
C6611	C661	0.862460	0.106740	0.449180
H4081	H408	0.864100	0.084900	0.449700
C6621	C662	0.854790	0.078110	0.514390
C6631	C663	0.845890	0.053530	0.573210
C6641	C664	0.858800	0.019900	0.543500
C6651	C665	0.882640	0.918340	0.543540
H4091	H409	0.887300	0.895300	0.544100
C6661	C666	0.881280	0.946520	0.512000
H4101	H410	0.885400	0.943000	0.491200
C6671	C667	0.873550	0.980490	0.511430
H4111	H411	0.872400	0.000600	0.490000
C6681	C668	0.867640	0.984740	0.541340
C6691	C669	0.870880	0.953820	0.572700
H4121	H412	0.868100	0.956500	0.593500
C6701	C670	0.911240	0.802080	0.671220
H4131	H413	0.930400	0.802800	0.648800
C6711	C671	0.917290	0.773110	0.702090
H4141	H414	0.940400	0.755400	0.701200
C6721	C672	0.888550	0.771150	0.733850
H4151	H415	0.891400	0.751400	0.755000
C6731	C673	0.855760	0.798060	0.734560
C6741	C674	0.853030	0.826410	0.702210
H4161	H416	0.830400	0.845000	0.702400
C6751	C675	0.824230	0.797150	0.767350
C6761	C676	0.926270	0.820750	0.580130
N2611	N261	0.617180	0.344940	0.179220
N2621	N262	0.654780	0.594060	0.841800
N2631	N263	0.433600	0.634380	0.085100
N2641	N264	0.582710	0.417270	0.134170
N2651	N265	0.579280	0.511780	0.047680
N2661	N266	0.525700	0.544360	0.082680
N2671	N267	0.552910	0.574710	0.021570
N2681	N268	0.627250	0.573690	0.921270
N2691	N269	0.619710	0.671730	0.828590
N2701	N270	0.611130	0.766670	0.827050
S531	S53	0.590020	0.320380	0.253940
S541	S54	0.697360	0.561460	0.789760
C6771	C677	0.606840	0.334040	0.210780
C6781	C678	0.464140	0.605500	0.082540
H4171	H417	0.463100	0.582700	0.099900
C6791	C679	0.496140	0.607580	0.056380
C6801	C680	0.499230	0.641130	0.031110
H4181	H418	0.521300	0.643300	0.012500
C6811	C681	0.468800	0.670400	0.034740
H4191	H419	0.469700	0.693700	0.018900
C6821	C682	0.437270	0.666450	0.060810
H4201	H420	0.416600	0.687400	0.062000
C6831	C683	0.554150	0.417390	0.165150
H4211	H421	0.554500	0.395700	0.185100
C6841	C684	0.525480	0.447220	0.168320
H4221	H422	0.505600	0.446000	0.190000
C6851	C685	0.524500	0.478980	0.141100
H4231	H423	0.504200	0.500000	0.143800
C6861	C686	0.553300	0.480680	0.109220
C6871	C687	0.581620	0.449180	0.106740
H4241	H424	0.601300	0.449700	0.084900
C6881	C688	0.552710	0.514390	0.078110
C6891	C689	0.527370	0.573210	0.053530
C6901	C690	0.577800	0.543500	0.019900
C6911	C691	0.655480	0.543540	0.918340
H4251	H425	0.673300	0.544100	0.895300
C6921	C692	0.660200	0.512000	0.946520
H4261	H426	0.680400	0.491200	0.943000
C6931	C693	0.634530	0.511430	0.980490
H4271	H427	0.637000	0.490000	0.000600
C6941	C694	0.606280	0.541340	0.984740
C6951	C695	0.602600	0.572700	0.953820
H4281	H428	0.581900	0.593500	0.956500
C6961	C696	0.615460	0.671220	0.802080
H4291	H429	0.618000	0.648800	0.802800
C6971	C697	0.607510	0.702090	0.773110
H4301	H430	0.603000	0.701200	0.755400
C6981	C698	0.606450	0.733850	0.771150
H4311	H431	0.602200	0.755000	0.751400
C6991	C699	0.611620	0.734560	0.798060
C7001	C700	0.618350	0.702210	0.826410
H4321	H432	0.622200	0.702400	0.845000
C7011	C701	0.611270	0.767350	0.797150
C7021	C702	0.672850	0.580130	0.820750
N2711	N271	0.344940	0.617180	0.858660
N2721	N272	0.594060	0.654780	0.909360
N2731	N273	0.634380	0.433600	0.846920
N2741	N274	0.417270	0.582710	0.865850
N2751	N275	0.511780	0.579280	0.861260
N2761	N276	0.544360	0.525700	0.847260
N2771	N277	0.574710	0.552910	0.850810
N2781	N278	0.573690	0.627250	0.877790
N2791	N279	0.671730	0.619710	0.879970
N2801	N280	0.766670	0.611130	0.795150
S551	S55	0.320380	0.590020	0.835660
S561	S56	0.561460	0.697360	0.951420
C7031	C703	0.334040	0.606840	0.848340
C7041	C704	0.605500	0.464140	0.847820
H4331	H433	0.582700	0.463100	0.854300
C7051	C705	0.607580	0.496140	0.839900
C7061	C706	0.641130	0.499230	0.828530
H4341	H434	0.643300	0.521300	0.822900
C7071	C707	0.670400	0.468800	0.826060
H4351	H435	0.693700	0.469700	0.817700
C7081	C708	0.666450	0.437270	0.835470
H4361	H436	0.687400	0.416600	0.834000
C7091	C709	0.417390	0.554150	0.863310
H4371	H437	0.395700	0.554500	0.864700
C7101	C710	0.447220	0.525480	0.858980
H4381	H438	0.446000	0.505600	0.858400
C7111	C711	0.478980	0.524500	0.855420
H4391	H439	0.500000	0.504200	0.852000
C7121	C712	0.480680	0.553300	0.856800
C7131	C713	0.449180	0.581620	0.862460
H4401	H440	0.449700	0.601300	0.864100
C7141	C714	0.514390	0.552710	0.854790
C7151	C715	0.573210	0.527370	0.845890
C7161	C716	0.543500	0.577800	0.858800
C7171	C717	0.543540	0.655480	0.882640
H4411	H441	0.544100	0.673300	0.887300
C7181	C718	0.512000	0.660200	0.881280
H4421	H442	0.491200	0.680400	0.885400
C7191	C719	0.511430	0.634530	0.873550
H4431	H443	0.490000	0.637000	0.872400
C7201	C720	0.541340	0.606280	0.867640
C7211	C721	0.572700	0.602600	0.870880
H4441	H444	0.593500	0.581900	0.868100
C7221	C722	0.671220	0.615460	0.911240
H4451	H445	0.648800	0.618000	0.930400
C7231	C723	0.702090	0.607510	0.917290
H4461	H446	0.701200	0.603000	0.940400
C7241	C724	0.733850	0.606450	0.888550
H4471	H447	0.755000	0.602200	0.891400
C7251	C725	0.734560	0.611620	0.855760
C7261	C726	0.702210	0.618350	0.853030
H4481	H448	0.702400	0.622200	0.830400
C7271	C727	0.767350	0.611270	0.824230
C7281	C728	0.580130	0.672850	0.926270
N2811	N281	0.617180	0.179220	0.858660
N2821	N282	0.654780	0.841800	0.909360
N2831	N283	0.433600	0.085100	0.846920
N2841	N284	0.582710	0.134170	0.865850
N2851	N285	0.579280	0.047680	0.861260
N2861	N286	0.525700	0.082680	0.847260
N2871	N287	0.552910	0.021570	0.850810
N2881	N288	0.627250	0.921270	0.877790
N2891	N289	0.619710	0.828590	0.879970
N2901	N290	0.611130	0.827050	0.795150
S571	S57	0.590020	0.253940	0.835660
S581	S58	0.697360	0.789760	0.951420
C7291	C729	0.606840	0.210780	0.848340
C7301	C730	0.464140	0.082540	0.847820
H4491	H449	0.463100	0.099900	0.854300
C7311	C731	0.496140	0.056380	0.839900
C7321	C732	0.499230	0.031110	0.828530
H4501	H450	0.521300	0.012500	0.822900
C7331	C733	0.468800	0.034740	0.826060
H4511	H451	0.469700	0.018900	0.817700
C7341	C734	0.437270	0.060810	0.835470
H4521	H452	0.416600	0.062000	0.834000
C7351	C735	0.554150	0.165150	0.863310
H4531	H453	0.554500	0.185100	0.864700
C7361	C736	0.525480	0.168320	0.858980
H4541	H454	0.505600	0.190000	0.858400
C7371	C737	0.524500	0.141100	0.855420
H4551	H455	0.504200	0.143800	0.852000
C7381	C738	0.553300	0.109220	0.856800
C7391	C739	0.581620	0.106740	0.862460
H4561	H456	0.601300	0.084900	0.864100
C7401	C740	0.552710	0.078110	0.854790
C7411	C741	0.527370	0.053530	0.845890
C7421	C742	0.577800	0.019900	0.858800
C7431	C743	0.655480	0.918340	0.882640
H4571	H457	0.673300	0.895300	0.887300
C7441	C744	0.660200	0.946520	0.881280
H4581	H458	0.680400	0.943000	0.885400
C7451	C745	0.634530	0.980490	0.873550
H4591	H459	0.637000	0.000600	0.872400
C7461	C746	0.606280	0.984740	0.867640
C7471	C747	0.602600	0.953820	0.870880
H4601	H460	0.581900	0.956500	0.868100
C7481	C748	0.615460	0.802080	0.911240
H4611	H461	0.618000	0.802800	0.930400
C7491	C749	0.607510	0.773110	0.917290
H4621	H462	0.603000	0.755400	0.940400
C7501	C750	0.606450	0.771150	0.888550
H4631	H463	0.602200	0.751400	0.891400
C7511	C751	0.611620	0.798060	0.855760
C7521	C752	0.618350	0.826410	0.853030
H4641	H464	0.622200	0.845000	0.830400
C7531	C753	0.611270	0.797150	0.824230
C7541	C754	0.672850	0.820750	0.926270
N2911	N291	0.344940	0.858660	0.179220
N2921	N292	0.594060	0.909360	0.841800
N2931	N293	0.634380	0.846920	0.085100
N2941	N294	0.417270	0.865850	0.134170
N2951	N295	0.511780	0.861260	0.047680
N2961	N296	0.544360	0.847260	0.082680
N2971	N297	0.574710	0.850810	0.021570
N2981	N298	0.573690	0.877790	0.921270
N2991	N299	0.671730	0.879970	0.828590
N3001	N300	0.766670	0.795150	0.827050
S591	S59	0.320380	0.835660	0.253940
S601	S60	0.561460	0.951420	0.789760
C7551	C755	0.334040	0.848340	0.210780
C7561	C756	0.605500	0.847820	0.082540
H4651	H465	0.582700	0.854300	0.099900
C7571	C757	0.607580	0.839900	0.056380
C7581	C758	0.641130	0.828530	0.031110
H4661	H466	0.643300	0.822900	0.012500
C7591	C759	0.670400	0.826060	0.034740
H4671	H467	0.693700	0.817700	0.018900
C7601	C760	0.666450	0.835470	0.060810
H4681	H468	0.687400	0.834000	0.062000
C7611	C761	0.417390	0.863310	0.165150
H4691	H469	0.395700	0.864700	0.185100
C7621	C762	0.447220	0.858980	0.168320
H4701	H470	0.446000	0.858400	0.190000
C7631	C763	0.478980	0.855420	0.141100
H4711	H471	0.500000	0.852000	0.143800
C7641	C764	0.480680	0.856800	0.109220
C7651	C765	0.449180	0.862460	0.106740
H4721	H472	0.449700	0.864100	0.084900
C7661	C766	0.514390	0.854790	0.078110
C7671	C767	0.573210	0.845890	0.053530
C7681	C768	0.543500	0.858800	0.019900
C7691	C769	0.543540	0.882640	0.918340
H4731	H473	0.544100	0.887300	0.895300
C7701	C770	0.512000	0.881280	0.946520
H4741	H474	0.491200	0.885400	0.943000
C7711	C771	0.511430	0.873550	0.980490
H4751	H475	0.490000	0.872400	0.000600
C7721	C772	0.541340	0.867640	0.984740
C7731	C773	0.572700	0.870880	0.953820
H4761	H476	0.593500	0.868100	0.956500
C7741	C774	0.671220	0.911240	0.802080
H4771	H477	0.648800	0.930400	0.802800
C7751	C775	0.702090	0.917290	0.773110
H4781	H478	0.701200	0.940400	0.755400
C7761	C776	0.733850	0.888550	0.771150
H4791	H479	0.755000	0.891400	0.751400
C7771	C777	0.734560	0.855760	0.798060
C7781	C778	0.702210	0.853030	0.826410
H4801	H480	0.702400	0.830400	0.845000
C7791	C779	0.767350	0.824230	0.797150
C7801	C780	0.580130	0.926270	0.820750
N3011	N301	0.179220	0.617180	0.344940
N3021	N302	0.841800	0.654780	0.594060
N3031	N303	0.085100	0.433600	0.634380
N3041	N304	0.134170	0.582710	0.417270
N3051	N305	0.047680	0.579280	0.511780
N3061	N306	0.082680	0.525700	0.544360
N3071	N307	0.021570	0.552910	0.574710
N3081	N308	0.921270	0.627250	0.573690
N3091	N309	0.828590	0.619710	0.671730
N3101	N310	0.827050	0.611130	0.766670
S611	S61	0.253940	0.590020	0.320380
S621	S62	0.789760	0.697360	0.561460
C7811	C781	0.210780	0.606840	0.334040
C7821	C782	0.082540	0.464140	0.605500
H4811	H481	0.099900	0.463100	0.582700
C7831	C783	0.056380	0.496140	0.607580
C7841	C784	0.031110	0.499230	0.641130
H4821	H482	0.012500	0.521300	0.643300
C7851	C785	0.034740	0.468800	0.670400
H4831	H483	0.018900	0.469700	0.693700
C7861	C786	0.060810	0.437270	0.666450
H4841	H484	0.062000	0.416600	0.687400
C7871	C787	0.165150	0.554150	0.417390
H4851	H485	0.185100	0.554500	0.395700
C7881	C788	0.168320	0.525480	0.447220
H4861	H486	0.190000	0.505600	0.446000
C7891	C789	0.141100	0.524500	0.478980
H4871	H487	0.143800	0.504200	0.500000
C7901	C790	0.109220	0.553300	0.480680
C7911	C791	0.106740	0.581620	0.449180
H4881	H488	0.084900	0.601300	0.449700
C7921	C792	0.078110	0.552710	0.514390
C7931	C793	0.053530	0.527370	0.573210
C7941	C794	0.019900	0.577800	0.543500
C7951	C795	0.918340	0.655480	0.543540
H4891	H489	0.895300	0.673300	0.544100
C7961	C796	0.946520	0.660200	0.512000
H4901	H490	0.943000	0.680400	0.491200
C7971	C797	0.980490	0.634530	0.511430
H4911	H491	0.000600	0.637000	0.490000
C7981	C798	0.984740	0.606280	0.541340
C7991	C799	0.953820	0.602600	0.572700
H4921	H492	0.956500	0.581900	0.593500
C8001	C800	0.802080	0.615460	0.671220
H4931	H493	0.802800	0.618000	0.648800
C8011	C801	0.773110	0.607510	0.702090
H4941	H494	0.755400	0.603000	0.701200
C8021	C802	0.771150	0.606450	0.733850
H4951	H495	0.751400	0.602200	0.755000
C8031	C803	0.798060	0.611620	0.734560
C8041	C804	0.826410	0.618350	0.702210
H4961	H496	0.845000	0.622200	0.702400
C8051	C805	0.797150	0.611270	0.767350
C8061	C806	0.820750	0.672850	0.580130
N3111	N311	0.858660	0.344940	0.617180
N3121	N312	0.909360	0.594060	0.654780
N3131	N313	0.846920	0.634380	0.433600
N3141	N314	0.865850	0.417270	0.582710
N3151	N315	0.861260	0.511780	0.579280
N3161	N316	0.847260	0.544360	0.525700
N3171	N317	0.850810	0.574710	0.552910
N3181	N318	0.877790	0.573690	0.627250
N3191	N319	0.879970	0.671730	0.619710
N3201	N320	0.795150	0.766670	0.611130
S631	S63	0.835660	0.320380	0.590020
S641	S64	0.951420	0.561460	0.697360
C8071	C807	0.848340	0.334040	0.606840
C8081	C808	0.847820	0.605500	0.464140
H4971	H497	0.854300	0.582700	0.463100
C8091	C809	0.839900	0.607580	0.496140
C8101	C810	0.828530	0.641130	0.499230
H4981	H498	0.822900	0.643300	0.521300
C8111	C811	0.826060	0.670400	0.468800
H4991	H499	0.817700	0.693700	0.469700
C8121	C812	0.835470	0.666450	0.437270
H5001	H500	0.834000	0.687400	0.416600
C8131	C813	0.863310	0.417390	0.554150
H5011	H501	0.864700	0.395700	0.554500
C8141	C814	0.858980	0.447220	0.525480
H5021	H502	0.858400	0.446000	0.505600
C8151	C815	0.855420	0.478980	0.524500
H5031	H503	0.852000	0.500000	0.504200
C8161	C816	0.856800	0.480680	0.553300
C8171	C817	0.862460	0.449180	0.581620
H5041	H504	0.864100	0.449700	0.601300
C8181	C818	0.854790	0.514390	0.552710
C8191	C819	0.845890	0.573210	0.527370
C8201	C820	0.858800	0.543500	0.577800
C8211	C821	0.882640	0.543540	0.655480
H5051	H505	0.887300	0.544100	0.673300
C8221	C822	0.881280	0.512000	0.660200
H5061	H506	0.885400	0.491200	0.680400
C8231	C823	0.873550	0.511430	0.634530
H5071	H507	0.872400	0.490000	0.637000
C8241	C824	0.867640	0.541340	0.606280
C8251	C825	0.870880	0.572700	0.602600
H5081	H508	0.868100	0.593500	0.581900
C8261	C826	0.911240	0.671220	0.615460
H5091	H509	0.930400	0.648800	0.618000
C8271	C827	0.917290	0.702090	0.607510
H5101	H510	0.940400	0.701200	0.603000
C8281	C828	0.888550	0.733850	0.606450
H5111	H511	0.891400	0.755000	0.602200
C8291	C829	0.855760	0.734560	0.611620
C8301	C830	0.853030	0.702210	0.618350
H5121	H512	0.830400	0.702400	0.622200
C8311	C831	0.824230	0.767350	0.611270
C8321	C832	0.926270	0.580130	0.672850
N3211	N321	0.858660	0.617180	0.179220
N3221	N322	0.909360	0.654780	0.841800
N3231	N323	0.846920	0.433600	0.085100
N3241	N324	0.865850	0.582710	0.134170
N3251	N325	0.861260	0.579280	0.047680
N3261	N326	0.847260	0.525700	0.082680
N3271	N327	0.850810	0.552910	0.021570
N3281	N328	0.877790	0.627250	0.921270
N3291	N329	0.879970	0.619710	0.828590
N3301	N330	0.795150	0.611130	0.827050
S651	S65	0.835660	0.590020	0.253940
S661	S66	0.951420	0.697360	0.789760
C8331	C833	0.848340	0.606840	0.210780
C8341	C834	0.847820	0.464140	0.082540
H5131	H513	0.854300	0.463100	0.099900
C8351	C835	0.839900	0.496140	0.056380
C8361	C836	0.828530	0.499230	0.031110
H5141	H514	0.822900	0.521300	0.012500
C8371	C837	0.826060	0.468800	0.034740
H5151	H515	0.817700	0.469700	0.018900
C8381	C838	0.835470	0.437270	0.060810
H5161	H516	0.834000	0.416600	0.062000
C8391	C839	0.863310	0.554150	0.165150
H5171	H517	0.864700	0.554500	0.185100
C8401	C840	0.858980	0.525480	0.168320
H5181	H518	0.858400	0.505600	0.190000
C8411	C841	0.855420	0.524500	0.141100
H5191	H519	0.852000	0.504200	0.143800
C8421	C842	0.856800	0.553300	0.109220
C8431	C843	0.862460	0.581620	0.106740
H5201	H520	0.864100	0.601300	0.084900
C8441	C844	0.854790	0.552710	0.078110
C8451	C845	0.845890	0.527370	0.053530
C8461	C846	0.858800	0.577800	0.019900
C8471	C847	0.882640	0.655480	0.918340
H5211	H521	0.887300	0.673300	0.895300
C8481	C848	0.881280	0.660200	0.946520
H5221	H522	0.885400	0.680400	0.943000
C8491	C849	0.873550	0.634530	0.980490
H5231	H523	0.872400	0.637000	0.000600
C8501	C850	0.867640	0.606280	0.984740
C8511	C851	0.870880	0.602600	0.953820
H5241	H524	0.868100	0.581900	0.956500
C8521	C852	0.911240	0.615460	0.802080
H5251	H525	0.930400	0.618000	0.802800
C8531	C853	0.917290	0.607510	0.773110
H5261	H526	0.940400	0.603000	0.755400
C8541	C854	0.888550	0.606450	0.771150
H5271	H527	0.891400	0.602200	0.751400
C8551	C855	0.855760	0.611620	0.798060
C8561	C856	0.853030	0.618350	0.826410
H5281	H528	0.830400	0.622200	0.845000
C8571	C857	0.824230	0.611270	0.797150
C8581	C858	0.926270	0.672850	0.820750
N3311	N331	0.179220	0.344940	0.858660
N3321	N332	0.841800	0.594060	0.909360
N3331	N333	0.085100	0.634380	0.846920
N3341	N334	0.134170	0.417270	0.865850
N3351	N335	0.047680	0.511780	0.861260
N3361	N336	0.082680	0.544360	0.847260
N3371	N337	0.021570	0.574710	0.850810
N3381	N338	0.921270	0.573690	0.877790
N3391	N339	0.828590	0.671730	0.879970
N3401	N340	0.827050	0.766670	0.795150
S671	S67	0.253940	0.320380	0.835660
S681	S68	0.789760	0.561460	0.951420
C8591	C859	0.210780	0.334040	0.848340
C8601	C860	0.082540	0.605500	0.847820
H5291	H529	0.099900	0.582700	0.854300
C8611	C861	0.056380	0.607580	0.839900
C8621	C862	0.031110	0.641130	0.828530
H5301	H530	0.012500	0.643300	0.822900
C8631	C863	0.034740	0.670400	0.826060
H5311	H531	0.018900	0.693700	0.817700
C8641	C864	0.060810	0.666450	0.835470
H5321	H532	0.062000	0.687400	0.834000
C8651	C865	0.165150	0.417390	0.863310
H5331	H533	0.185100	0.395700	0.864700
C8661	C866	0.168320	0.447220	0.858980
H5341	H534	0.190000	0.446000	0.858400
C8671	C867	0.141100	0.478980	0.855420
H5351	H535	0.143800	0.500000	0.852000
C8681	C868	0.109220	0.480680	0.856800
C8691	C869	0.106740	0.449180	0.862460
H5361	H536	0.084900	0.449700	0.864100
C8701	C870	0.078110	0.514390	0.854790
C8711	C871	0.053530	0.573210	0.845890
C8721	C872	0.019900	0.543500	0.858800
C8731	C873	0.918340	0.543540	0.882640
H5371	H537	0.895300	0.544100	0.887300
C8741	C874	0.946520	0.512000	0.881280
H5381	H538	0.943000	0.491200	0.885400
C8751	C875	0.980490	0.511430	0.873550
H5391	H539	0.000600	0.490000	0.872400
C8761	C876	0.984740	0.541340	0.867640
C8771	C877	0.953820	0.572700	0.870880
H5401	H540	0.956500	0.593500	0.868100
C8781	C878	0.802080	0.671220	0.911240
H5411	H541	0.802800	0.648800	0.930400
C8791	C879	0.773110	0.702090	0.917290
H5421	H542	0.755400	0.701200	0.940400
C8801	C880	0.771150	0.733850	0.888550
H5431	H543	0.751400	0.755000	0.891400
C8811	C881	0.798060	0.734560	0.855760
C8821	C882	0.826410	0.702210	0.853030
H5441	H544	0.845000	0.702400	0.830400
C8831	C883	0.797150	0.767350	0.824230
C8841	C884	0.820750	0.580130	0.926270
N3411	N341	0.344940	0.179220	0.617180
N3421	N342	0.594060	0.841800	0.654780
N3431	N343	0.634380	0.085100	0.433600
N3441	N344	0.417270	0.134170	0.582710
N3451	N345	0.511780	0.047680	0.579280
N3461	N346	0.544360	0.082680	0.525700
N3471	N347	0.574710	0.021570	0.552910
N3481	N348	0.573690	0.921270	0.627250
N3491	N349	0.671730	0.828590	0.619710
N3501	N350	0.766670	0.827050	0.611130
S691	S69	0.320380	0.253940	0.590020
S701	S70	0.561460	0.789760	0.697360
C8851	C885	0.334040	0.210780	0.606840
C8861	C886	0.605500	0.082540	0.464140
H5451	H545	0.582700	0.099900	0.463100
C8871	C887	0.607580	0.056380	0.496140
C8881	C888	0.641130	0.031110	0.499230
H5461	H546	0.643300	0.012500	0.521300
C8891	C889	0.670400	0.034740	0.468800
H5471	H547	0.693700	0.018900	0.469700
C8901	C890	0.666450	0.060810	0.437270
H5481	H548	0.687400	0.062000	0.416600
C8911	C891	0.417390	0.165150	0.554150
H5491	H549	0.395700	0.185100	0.554500
C8921	C892	0.447220	0.168320	0.525480
H5501	H550	0.446000	0.190000	0.505600
C8931	C893	0.478980	0.141100	0.524500
H5511	H551	0.500000	0.143800	0.504200
C8941	C894	0.480680	0.109220	0.553300
C8951	C895	0.449180	0.106740	0.581620
H5521	H552	0.449700	0.084900	0.601300
C8961	C896	0.514390	0.078110	0.552710
C8971	C897	0.573210	0.053530	0.527370
C8981	C898	0.543500	0.019900	0.577800
C8991	C899	0.543540	0.918340	0.655480
H5531	H553	0.544100	0.895300	0.673300
C9001	C900	0.512000	0.946520	0.660200
H5541	H554	0.491200	0.943000	0.680400
C9011	C901	0.511430	0.980490	0.634530
H5551	H555	0.490000	0.000600	0.637000
C9021	C902	0.541340	0.984740	0.606280
C9031	C903	0.572700	0.953820	0.602600
H5561	H556	0.593500	0.956500	0.581900
C9041	C904	0.671220	0.802080	0.615460
H5571	H557	0.648800	0.802800	0.618000
C9051	C905	0.702090	0.773110	0.607510
H5581	H558	0.701200	0.755400	0.603000
C9061	C906	0.733850	0.771150	0.606450
H5591	H559	0.755000	0.751400	0.602200
C9071	C907	0.734560	0.798060	0.611620
C9081	C908	0.702210	0.826410	0.618350
H5601	H560	0.702400	0.845000	0.622200
C9091	C909	0.767350	0.797150	0.611270
C9101	C910	0.580130	0.820750	0.672850
N3511	N351	0.617180	0.858660	0.344940
N3521	N352	0.654780	0.909360	0.594060
N3531	N353	0.433600	0.846920	0.634380
N3541	N354	0.582710	0.865850	0.417270
N3551	N355	0.579280	0.861260	0.511780
N3561	N356	0.525700	0.847260	0.544360
N3571	N357	0.552910	0.850810	0.574710
N3581	N358	0.627250	0.877790	0.573690
N3591	N359	0.619710	0.879970	0.671730
N3601	N360	0.611130	0.795150	0.766670
S711	S71	0.590020	0.835660	0.320380
S721	S72	0.697360	0.951420	0.561460
C9111	C911	0.606840	0.848340	0.334040
C9121	C912	0.464140	0.847820	0.605500
H5611	H561	0.463100	0.854300	0.582700
C9131	C913	0.496140	0.839900	0.607580
C9141	C914	0.499230	0.828530	0.641130
H5621	H562	0.521300	0.822900	0.643300
C9151	C915	0.468800	0.826060	0.670400
H5631	H563	0.469700	0.817700	0.693700
C9161	C916	0.437270	0.835470	0.666450
H5641	H564	0.416600	0.834000	0.687400
C9171	C917	0.554150	0.863310	0.417390
H5651	H565	0.554500	0.864700	0.395700
C9181	C918	0.525480	0.858980	0.447220
H5661	H566	0.505600	0.858400	0.446000
C9191	C919	0.524500	0.855420	0.478980
H5671	H567	0.504200	0.852000	0.500000
C9201	C920	0.553300	0.856800	0.480680
C9211	C921	0.581620	0.862460	0.449180
H5681	H568	0.601300	0.864100	0.449700
C9221	C922	0.552710	0.854790	0.514390
C9231	C923	0.527370	0.845890	0.573210
C9241	C924	0.577800	0.858800	0.543500
C9251	C925	0.655480	0.882640	0.543540
H5691	H569	0.673300	0.887300	0.544100
C9261	C926	0.660200	0.881280	0.512000
H5701	H570	0.680400	0.885400	0.491200
C9271	C927	0.634530	0.873550	0.511430
H5711	H571	0.637000	0.872400	0.490000
C9281	C928	0.606280	0.867640	0.541340
C9291	C929	0.602600	0.870880	0.572700
H5721	H572	0.581900	0.868100	0.593500
C9301	C930	0.615460	0.911240	0.671220
H5731	H573	0.618000	0.930400	0.648800
C9311	C931	0.607510	0.917290	0.702090
H5741	H574	0.603000	0.940400	0.701200
C9321	C932	0.606450	0.888550	0.733850
H5751	H575	0.602200	0.891400	0.755000
C9331	C933	0.611620	0.855760	0.734560
C9341	C934	0.618350	0.853030	0.702210
H5761	H576	0.622200	0.830400	0.702400
C9351	C935	0.611270	0.824230	0.767350
C9361	C936	0.672850	0.926270	0.580130
N3611	N361	0.070780	0.391340	0.905060
N3621	N362	0.408200	0.340640	0.655940
N3631	N363	0.164900	0.403080	0.615620
N3641	N364	0.115830	0.384150	0.832730
N3651	N365	0.202320	0.388740	0.738220
N3661	N366	0.167320	0.402740	0.705640
N3671	N367	0.228430	0.399190	0.675290
N3681	N368	0.328730	0.372210	0.676310
N3691	N369	0.421410	0.370030	0.578270
N3701	N370	0.422950	0.454850	0.483330
S731	S73	0.996060	0.414340	0.929620
S741	S74	0.460240	0.298580	0.688540
C9371	C937	0.039220	0.401660	0.915960
C9381	C938	0.167460	0.402180	0.644500
H5771	H577	0.150100	0.395700	0.667300
C9391	C939	0.193620	0.410100	0.642420
C9401	C940	0.218890	0.421470	0.608870
H5781	H578	0.237500	0.427100	0.606700
C9411	C941	0.215260	0.423940	0.579600
H5791	H579	0.231100	0.432300	0.556300
C9421	C942	0.189190	0.414530	0.583550
H5801	H580	0.188000	0.416000	0.562600
C9431	C943	0.084850	0.386690	0.832610
H5811	H581	0.064900	0.385300	0.854300
C9441	C944	0.081680	0.391020	0.802780
H5821	H582	0.060000	0.391600	0.804000
C9451	C945	0.108900	0.394580	0.771020
H5831	H583	0.106200	0.398000	0.750000
C9461	C946	0.140780	0.393200	0.769320
C9471	C947	0.143260	0.387540	0.800820
H5841	H584	0.165100	0.385900	0.800300
C9481	C948	0.171890	0.395210	0.735610
C9491	C949	0.196470	0.404110	0.676790
C9501	C950	0.230100	0.391200	0.706500
C9511	C951	0.331660	0.367360	0.706460
H5851	H585	0.354700	0.362700	0.705900
C9521	C952	0.303480	0.368720	0.738000
H5861	H586	0.307000	0.364600	0.758800
C9531	C953	0.269510	0.376450	0.738570
H5871	H587	0.249400	0.377600	0.760000
C9541	C954	0.265260	0.382360	0.708660
C9551	C955	0.296180	0.379120	0.677300
H5881	H588	0.293500	0.381900	0.656500
C9561	C956	0.447920	0.338760	0.578780
H5891	H589	0.447200	0.319600	0.601200
C9571	C957	0.476890	0.332710	0.547910
H5901	H590	0.494600	0.309600	0.548800
C9581	C958	0.478850	0.361450	0.516150
H5911	H591	0.498600	0.358600	0.495000
C9591	C959	0.451940	0.394240	0.515440
C9601	C960	0.423590	0.396970	0.547790
H5921	H592	0.405000	0.419600	0.547600
C9611	C961	0.452850	0.425770	0.482650
C9621	C962	0.429250	0.323730	0.669870
N3711	N371	0.391340	0.070780	0.632820
N3721	N372	0.340640	0.408200	0.595220
N3731	N373	0.403080	0.164900	0.816400
N3741	N374	0.384150	0.115830	0.667290
N3751	N375	0.388740	0.202320	0.670720
N3761	N376	0.402740	0.167320	0.724300
N3771	N377	0.399190	0.228430	0.697090
N3781	N378	0.372210	0.328730	0.622750
N3791	N379	0.370030	0.421410	0.630290
N3801	N380	0.454850	0.422950	0.638870
S751	S75	0.414340	0.996060	0.659980
S761	S76	0.298580	0.460240	0.552640
C9631	C963	0.401660	0.039220	0.643160
C9641	C964	0.402180	0.167460	0.785860
H5931	H593	0.395700	0.150100	0.786900
C9651	C965	0.410100	0.193620	0.753860
C9661	C966	0.421470	0.218890	0.750770
H5941	H594	0.427100	0.237500	0.728700
C9671	C967	0.423940	0.215260	0.781200
H5951	H595	0.432300	0.231100	0.780300
C9681	C968	0.414530	0.189190	0.812730
H5961	H596	0.416000	0.188000	0.833400
C9691	C969	0.386690	0.084850	0.695850
H5971	H597	0.385300	0.064900	0.695500
C9701	C970	0.391020	0.081680	0.724520
H5981	H598	0.391600	0.060000	0.744400
C9711	C971	0.394580	0.108900	0.725500
H5991	H599	0.398000	0.106200	0.745800
C9721	C972	0.393200	0.140780	0.696700
C9731	C973	0.387540	0.143260	0.668380
H6001	H600	0.385900	0.165100	0.648700
C9741	C974	0.395210	0.171890	0.697290
C9751	C975	0.404110	0.196470	0.722630
C9761	C976	0.391200	0.230100	0.672200
C9771	C977	0.367360	0.331660	0.594520
H6011	H601	0.362700	0.354700	0.576700
C9781	C978	0.368720	0.303480	0.589800
H6021	H602	0.364600	0.307000	0.569600
C9791	C979	0.376450	0.269510	0.615470
H6031	H603	0.377600	0.249400	0.613000
C9801	C980	0.382360	0.265260	0.643720
C9811	C981	0.379120	0.296180	0.647400
H6041	H604	0.381900	0.293500	0.668100
C9821	C982	0.338760	0.447920	0.634540
H6051	H605	0.319600	0.447200	0.632000
C9831	C983	0.332710	0.476890	0.642490
H6061	H606	0.309600	0.494600	0.647000
C9841	C984	0.361450	0.478850	0.643550
H6071	H607	0.358600	0.498600	0.647800
C9851	C985	0.394240	0.451940	0.638380
C9861	C986	0.396970	0.423590	0.631650
H6081	H608	0.419600	0.405000	0.627800
C9871	C987	0.425770	0.452850	0.638730
C9881	C988	0.323730	0.429250	0.577150
N3811	N381	0.632820	0.905060	0.391340
N3821	N382	0.595220	0.655940	0.340640
N3831	N383	0.816400	0.615620	0.403080
N3841	N384	0.667290	0.832730	0.384150
N3851	N385	0.670720	0.738220	0.388740
N3861	N386	0.724300	0.705640	0.402740
N3871	N387	0.697090	0.675290	0.399190
N3881	N388	0.622750	0.676310	0.372210
N3891	N389	0.630290	0.578270	0.370030
N3901	N390	0.638870	0.483330	0.454850
S771	S77	0.659980	0.929620	0.414340
S781	S78	0.552640	0.688540	0.298580
C9891	C989	0.643160	0.915960	0.401660
C9901	C990	0.785860	0.644500	0.402180
H6091	H609	0.786900	0.667300	0.395700
C9911	C991	0.753860	0.642420	0.410100
C9921	C992	0.750770	0.608870	0.421470
H6101	H610	0.728700	0.606700	0.427100
C9931	C993	0.781200	0.579600	0.423940
H6111	H611	0.780300	0.556300	0.432300
C9941	C994	0.812730	0.583550	0.414530
H6121	H612	0.833400	0.562600	0.416000
C9951	C995	0.695850	0.832610	0.386690
H6131	H613	0.695500	0.854300	0.385300
C9961	C996	0.724520	0.802780	0.391020
H6141	H614	0.744400	0.804000	0.391600
C9971	C997	0.725500	0.771020	0.394580
H6151	H615	0.745800	0.750000	0.398000
C9981	C998	0.696700	0.769320	0.393200
C9991	C999	0.668380	0.800820	0.387540
H6161	H616	0.648700	0.800300	0.385900
C10001	C1000	0.697290	0.735610	0.395210
C10011	C1001	0.722630	0.676790	0.404110
C10021	C1002	0.672200	0.706500	0.391200
C10031	C1003	0.594520	0.706460	0.367360
H6171	H617	0.576700	0.705900	0.362700
C10041	C1004	0.589800	0.738000	0.368720
H6181	H618	0.569600	0.758800	0.364600
C10051	C1005	0.615470	0.738570	0.376450
H6191	H619	0.613000	0.760000	0.377600
C10061	C1006	0.643720	0.708660	0.382360
C10071	C1007	0.647400	0.677300	0.379120
H6201	H620	0.668100	0.656500	0.381900
C10081	C1008	0.634540	0.578780	0.338760
H6211	H621	0.632000	0.601200	0.319600
C10091	C1009	0.642490	0.547910	0.332710
H6221	H622	0.647000	0.548800	0.309600
C10101	C1010	0.643550	0.516150	0.361450
H6231	H623	0.647800	0.495000	0.358600
C10111	C1011	0.638380	0.515440	0.394240
C10121	C1012	0.631650	0.547790	0.396970
H6241	H624	0.627800	0.547600	0.419600
C10131	C1013	0.638730	0.482650	0.425770
C10141	C1014	0.577150	0.669870	0.323730
N3911	N391	0.905060	0.632820	0.070780
N3921	N392	0.655940	0.595220	0.408200
N3931	N393	0.615620	0.816400	0.164900
N3941	N394	0.832730	0.667290	0.115830
N3951	N395	0.738220	0.670720	0.202320
N3961	N396	0.705640	0.724300	0.167320
N3971	N397	0.675290	0.697090	0.228430
N3981	N398	0.676310	0.622750	0.328730
N3991	N399	0.578270	0.630290	0.421410
N4001	N400	0.483330	0.638870	0.422950
S791	S79	0.929620	0.659980	0.996060
S801	S80	0.688540	0.552640	0.460240
C10151	C1015	0.915960	0.643160	0.039220
C10161	C1016	0.644500	0.785860	0.167460
H6251	H625	0.667300	0.786900	0.150100
C10171	C1017	0.642420	0.753860	0.193620
C10181	C1018	0.608870	0.750770	0.218890
H6261	H626	0.606700	0.728700	0.237500
C10191	C1019	0.579600	0.781200	0.215260
H6271	H627	0.556300	0.780300	0.231100
C10201	C1020	0.583550	0.812730	0.189190
H6281	H628	0.562600	0.833400	0.188000
C10211	C1021	0.832610	0.695850	0.084850
H6291	H629	0.854300	0.695500	0.064900
C10221	C1022	0.802780	0.724520	0.081680
H6301	H630	0.804000	0.744400	0.060000
C10231	C1023	0.771020	0.725500	0.108900
H6311	H631	0.750000	0.745800	0.106200
C10241	C1024	0.769320	0.696700	0.140780
C10251	C1025	0.800820	0.668380	0.143260
H6321	H632	0.800300	0.648700	0.165100
C10261	C1026	0.735610	0.697290	0.171890
C10271	C1027	0.676790	0.722630	0.196470
C10281	C1028	0.706500	0.672200	0.230100
C10291	C1029	0.706460	0.594520	0.331660
H6331	H633	0.705900	0.576700	0.354700
C10301	C1030	0.738000	0.589800	0.303480
H6341	H634	0.758800	0.569600	0.307000
C10311	C1031	0.738570	0.615470	0.269510
H6351	H635	0.760000	0.613000	0.249400
C10321	C1032	0.708660	0.643720	0.265260
C10331	C1033	0.677300	0.647400	0.296180
H6361	H636	0.656500	0.668100	0.293500
C10341	C1034	0.578780	0.634540	0.447920
H6371	H637	0.601200	0.632000	0.447200
C10351	C1035	0.547910	0.642490	0.476890
H6381	H638	0.548800	0.647000	0.494600
C10361	C1036	0.516150	0.643550	0.478850
H6391	H639	0.495000	0.647800	0.498600
C10371	C1037	0.515440	0.638380	0.451940
C10381	C1038	0.547790	0.631650	0.423590
H6401	H640	0.547600	0.627800	0.405000
C10391	C1039	0.482650	0.638730	0.452850
C10401	C1040	0.669870	0.577150	0.429250
N4011	N401	0.632820	0.070780	0.905060
N4021	N402	0.595220	0.408200	0.655940
N4031	N403	0.816400	0.164900	0.615620
N4041	N404	0.667290	0.115830	0.832730
N4051	N405	0.670720	0.202320	0.738220
N4061	N406	0.724300	0.167320	0.705640
N4071	N407	0.697090	0.228430	0.675290
N4081	N408	0.622750	0.328730	0.676310
N4091	N409	0.630290	0.421410	0.578270
N4101	N410	0.638870	0.422950	0.483330
S811	S81	0.659980	0.996060	0.929620
S821	S82	0.552640	0.460240	0.688540
C10411	C1041	0.643160	0.039220	0.915960
C10421	C1042	0.785860	0.167460	0.644500
H6411	H641	0.786900	0.150100	0.667300
C10431	C1043	0.753860	0.193620	0.642420
C10441	C1044	0.750770	0.218890	0.608870
H6421	H642	0.728700	0.237500	0.606700
C10451	C1045	0.781200	0.215260	0.579600
H6431	H643	0.780300	0.231100	0.556300
C10461	C1046	0.812730	0.189190	0.583550
H6441	H644	0.833400	0.188000	0.562600
C10471	C1047	0.695850	0.084850	0.832610
H6451	H645	0.695500	0.064900	0.854300
C10481	C1048	0.724520	0.081680	0.802780
H6461	H646	0.744400	0.060000	0.804000
C10491	C1049	0.725500	0.108900	0.771020
H6471	H647	0.745800	0.106200	0.750000
C10501	C1050	0.696700	0.140780	0.769320
C10511	C1051	0.668380	0.143260	0.800820
H6481	H648	0.648700	0.165100	0.800300
C10521	C1052	0.697290	0.171890	0.735610
C10531	C1053	0.722630	0.196470	0.676790
C10541	C1054	0.672200	0.230100	0.706500
C10551	C1055	0.594520	0.331660	0.706460
H6491	H649	0.576700	0.354700	0.705900
C10561	C1056	0.589800	0.303480	0.738000
H6501	H650	0.569600	0.307000	0.758800
C10571	C1057	0.615470	0.269510	0.738570
H6511	H651	0.613000	0.249400	0.760000
C10581	C1058	0.643720	0.265260	0.708660
C10591	C1059	0.647400	0.296180	0.677300
H6521	H652	0.668100	0.293500	0.656500
C10601	C1060	0.634540	0.447920	0.578780
H6531	H653	0.632000	0.447200	0.601200
C10611	C1061	0.642490	0.476890	0.547910
H6541	H654	0.647000	0.494600	0.548800
C10621	C1062	0.643550	0.478850	0.516150
H6551	H655	0.647800	0.498600	0.495000
C10631	C1063	0.638380	0.451940	0.515440
C10641	C1064	0.631650	0.423590	0.547790
H6561	H656	0.627800	0.405000	0.547600
C10651	C1065	0.638730	0.452850	0.482650
C10661	C1066	0.577150	0.429250	0.669870
N4111	N411	0.905060	0.391340	0.632820
N4121	N412	0.655940	0.340640	0.595220
N4131	N413	0.615620	0.403080	0.816400
N4141	N414	0.832730	0.384150	0.667290
N4151	N415	0.738220	0.388740	0.670720
N4161	N416	0.705640	0.402740	0.724300
N4171	N417	0.675290	0.399190	0.697090
N4181	N418	0.676310	0.372210	0.622750
N4191	N419	0.578270	0.370030	0.630290
N4201	N420	0.483330	0.454850	0.638870
S831	S83	0.929620	0.414340	0.659980
S841	S84	0.688540	0.298580	0.552640
C10671	C1067	0.915960	0.401660	0.643160
C10681	C1068	0.644500	0.402180	0.785860
H6571	H657	0.667300	0.395700	0.786900
C10691	C1069	0.642420	0.410100	0.753860
C10701	C1070	0.608870	0.421470	0.750770
H6581	H658	0.606700	0.427100	0.728700
C10711	C1071	0.579600	0.423940	0.781200
H6591	H659	0.556300	0.432300	0.780300
C10721	C1072	0.583550	0.414530	0.812730
H6601	H660	0.562600	0.416000	0.833400
C10731	C1073	0.832610	0.386690	0.695850
H6611	H661	0.854300	0.385300	0.695500
C10741	C1074	0.802780	0.391020	0.724520
H6621	H662	0.804000	0.391600	0.744400
C10751	C1075	0.771020	0.394580	0.725500
H6631	H663	0.750000	0.398000	0.745800
C10761	C1076	0.769320	0.393200	0.696700
C10771	C1077	0.800820	0.387540	0.668380
H6641	H664	0.800300	0.385900	0.648700
C10781	C1078	0.735610	0.395210	0.697290
C10791	C1079	0.676790	0.404110	0.722630
C10801	C1080	0.706500	0.391200	0.672200
C10811	C1081	0.706460	0.367360	0.594520
H6651	H665	0.705900	0.362700	0.576700
C10821	C1082	0.738000	0.368720	0.589800
H6661	H666	0.758800	0.364600	0.569600
C10831	C1083	0.738570	0.376450	0.615470
H6671	H667	0.760000	0.377600	0.613000
C10841	C1084	0.708660	0.382360	0.643720
C10851	C1085	0.677300	0.379120	0.647400
H6681	H668	0.656500	0.381900	0.668100
C10861	C1086	0.578780	0.338760	0.634540
H6691	H669	0.601200	0.319600	0.632000
C10871	C1087	0.547910	0.332710	0.642490
H6701	H670	0.548800	0.309600	0.647000
C10881	C1088	0.516150	0.361450	0.643550
H6711	H671	0.495000	0.358600	0.647800
C10891	C1089	0.515440	0.394240	0.638380
C10901	C1090	0.547790	0.396970	0.631650
H6721	H672	0.547600	0.419600	0.627800
C10911	C1091	0.482650	0.425770	0.638730
C10921	C1092	0.669870	0.323730	0.577150
N4211	N421	0.070780	0.632820	0.391340
N4221	N422	0.408200	0.595220	0.340640
N4231	N423	0.164900	0.816400	0.403080
N4241	N424	0.115830	0.667290	0.384150
N4251	N425	0.202320	0.670720	0.388740
N4261	N426	0.167320	0.724300	0.402740
N4271	N427	0.228430	0.697090	0.399190
N4281	N428	0.328730	0.622750	0.372210
N4291	N429	0.421410	0.630290	0.370030
N4301	N430	0.422950	0.638870	0.454850
S851	S85	0.996060	0.659980	0.414340
S861	S86	0.460240	0.552640	0.298580
C10931	C1093	0.039220	0.643160	0.401660
C10941	C1094	0.167460	0.785860	0.402180
H6731	H673	0.150100	0.786900	0.395700
C10951	C1095	0.193620	0.753860	0.410100
C10961	C1096	0.218890	0.750770	0.421470
H6741	H674	0.237500	0.728700	0.427100
C10971	C1097	0.215260	0.781200	0.423940
H6751	H675	0.231100	0.780300	0.432300
C10981	C1098	0.189190	0.812730	0.414530
H6761	H676	0.188000	0.833400	0.416000
C10991	C1099	0.084850	0.695850	0.386690
H6771	H677	0.064900	0.695500	0.385300
C11001	C1100	0.081680	0.724520	0.391020
H6781	H678	0.060000	0.744400	0.391600
C11011	C1101	0.108900	0.725500	0.394580
H6791	H679	0.106200	0.745800	0.398000
C11021	C1102	0.140780	0.696700	0.393200
C11031	C1103	0.143260	0.668380	0.387540
H6801	H680	0.165100	0.648700	0.385900
C11041	C1104	0.171890	0.697290	0.395210
C11051	C1105	0.196470	0.722630	0.404110
C11061	C1106	0.230100	0.672200	0.391200
C11071	C1107	0.331660	0.594520	0.367360
H6811	H681	0.354700	0.576700	0.362700
C11081	C1108	0.303480	0.589800	0.368720
H6821	H682	0.307000	0.569600	0.364600
C11091	C1109	0.269510	0.615470	0.376450
H6831	H683	0.249400	0.613000	0.377600
C11101	C1110	0.265260	0.643720	0.382360
C11111	C1111	0.296180	0.647400	0.379120
H6841	H684	0.293500	0.668100	0.381900
C11121	C1112	0.447920	0.634540	0.338760
H6851	H685	0.447200	0.632000	0.319600
C11131	C1113	0.476890	0.642490	0.332710
H6861	H686	0.494600	0.647000	0.309600
C11141	C1114	0.478850	0.643550	0.361450
H6871	H687	0.498600	0.647800	0.358600
C11151	C1115	0.451940	0.638380	0.394240
C11161	C1116	0.423590	0.631650	0.396970
H6881	H688	0.405000	0.627800	0.419600
C11171	C1117	0.452850	0.638730	0.425770
C11181	C1118	0.429250	0.577150	0.323730
N4311	N431	0.391340	0.905060	0.070780
N4321	N432	0.340640	0.655940	0.408200
N4331	N433	0.403080	0.615620	0.164900
N4341	N434	0.384150	0.832730	0.115830
N4351	N435	0.388740	0.738220	0.202320
N4361	N436	0.402740	0.705640	0.167320
N4371	N437	0.399190	0.675290	0.228430
N4381	N438	0.372210	0.676310	0.328730
N4391	N439	0.370030	0.578270	0.421410
N4401	N440	0.454850	0.483330	0.422950
S871	S87	0.414340	0.929620	0.996060
S881	S88	0.298580	0.688540	0.460240
C11191	C1119	0.401660	0.915960	0.039220
C11201	C1120	0.402180	0.644500	0.167460
H6891	H689	0.395700	0.667300	0.150100
C11211	C1121	0.410100	0.642420	0.193620
C11221	C1122	0.421470	0.608870	0.218890
H6901	H690	0.427100	0.606700	0.237500
C11231	C1123	0.423940	0.579600	0.215260
H6911	H691	0.432300	0.556300	0.231100
C11241	C1124	0.414530	0.583550	0.189190
H6921	H692	0.416000	0.562600	0.188000
C11251	C1125	0.386690	0.832610	0.084850
H6931	H693	0.385300	0.854300	0.064900
C11261	C1126	0.391020	0.802780	0.081680
H6941	H694	0.391600	0.804000	0.060000
C11271	C1127	0.394580	0.771020	0.108900
H6951	H695	0.398000	0.750000	0.106200
C11281	C1128	0.393200	0.769320	0.140780
C11291	C1129	0.387540	0.800820	0.143260
H6961	H696	0.385900	0.800300	0.165100
C11301	C1130	0.395210	0.735610	0.171890
C11311	C1131	0.404110	0.676790	0.196470
C11321	C1132	0.391200	0.706500	0.230100
C11331	C1133	0.367360	0.706460	0.331660
H6971	H697	0.362700	0.705900	0.354700
C11341	C1134	0.368720	0.738000	0.303480
H6981	H698	0.364600	0.758800	0.307000
C11351	C1135	0.376450	0.738570	0.269510
H6991	H699	0.377600	0.760000	0.249400
C11361	C1136	0.382360	0.708660	0.265260
C11371	C1137	0.379120	0.677300	0.296180
H7001	H700	0.381900	0.656500	0.293500
C11381	C1138	0.338760	0.578780	0.447920
H7011	H701	0.319600	0.601200	0.447200
C11391	C1139	0.332710	0.547910	0.476890
H7021	H702	0.309600	0.548800	0.494600
C11401	C1140	0.361450	0.516150	0.478850
H7031	H703	0.358600	0.495000	0.498600
C11411	C1141	0.394240	0.515440	0.451940
C11421	C1142	0.396970	0.547790	0.423590
H7041	H704	0.419600	0.547600	0.405000
C11431	C1143	0.425770	0.482650	0.452850
C11441	C1144	0.323730	0.669870	0.429250
N4411	N441	0.391340	0.632820	0.905060
N4421	N442	0.340640	0.595220	0.655940
N4431	N443	0.403080	0.816400	0.615620
N4441	N444	0.384150	0.667290	0.832730
N4451	N445	0.388740	0.670720	0.738220
N4461	N446	0.402740	0.724300	0.705640
N4471	N447	0.399190	0.697090	0.675290
N4481	N448	0.372210	0.622750	0.676310
N4491	N449	0.370030	0.630290	0.578270
N4501	N450	0.454850	0.638870	0.483330
S891	S89	0.414340	0.659980	0.929620
S901	S90	0.298580	0.552640	0.688540
C11451	C1145	0.401660	0.643160	0.915960
C11461	C1146	0.402180	0.785860	0.644500
H7051	H705	0.395700	0.786900	0.667300
C11471	C1147	0.410100	0.753860	0.642420
C11481	C1148	0.421470	0.750770	0.608870
H7061	H706	0.427100	0.728700	0.606700
C11491	C1149	0.423940	0.781200	0.579600
H7071	H707	0.432300	0.780300	0.556300
C11501	C1150	0.414530	0.812730	0.583550
H7081	H708	0.416000	0.833400	0.562600
C11511	C1151	0.386690	0.695850	0.832610
H7091	H709	0.385300	0.695500	0.854300
C11521	C1152	0.391020	0.724520	0.802780
H7101	H710	0.391600	0.744400	0.804000
C11531	C1153	0.394580	0.725500	0.771020
H7111	H711	0.398000	0.745800	0.750000
C11541	C1154	0.393200	0.696700	0.769320
C11551	C1155	0.387540	0.668380	0.800820
H7121	H712	0.385900	0.648700	0.800300
C11561	C1156	0.395210	0.697290	0.735610
C11571	C1157	0.404110	0.722630	0.676790
C11581	C1158	0.391200	0.672200	0.706500
C11591	C1159	0.367360	0.594520	0.706460
H7131	H713	0.362700	0.576700	0.705900
C11601	C1160	0.368720	0.589800	0.738000
H7141	H714	0.364600	0.569600	0.758800
C11611	C1161	0.376450	0.615470	0.738570
H7151	H715	0.377600	0.613000	0.760000
C11621	C1162	0.382360	0.643720	0.708660
C11631	C1163	0.379120	0.647400	0.677300
H7161	H716	0.381900	0.668100	0.656500
C11641	C1164	0.338760	0.634540	0.578780
H7171	H717	0.319600	0.632000	0.601200
C11651	C1165	0.332710	0.642490	0.547910
H7181	H718	0.309600	0.647000	0.548800
C11661	C1166	0.361450	0.643550	0.516150
H7191	H719	0.358600	0.647800	0.495000
C11671	C1167	0.394240	0.638380	0.515440
C11681	C1168	0.396970	0.631650	0.547790
H7201	H720	0.419600	0.627800	0.547600
C11691	C1169	0.425770	0.638730	0.482650
C11701	C1170	0.323730	0.577150	0.669870
N4511	N451	0.070780	0.905060	0.632820
N4521	N452	0.408200	0.655940	0.595220
N4531	N453	0.164900	0.615620	0.816400
N4541	N454	0.115830	0.832730	0.667290
N4551	N455	0.202320	0.738220	0.670720
N4561	N456	0.167320	0.705640	0.724300
N4571	N457	0.228430	0.675290	0.697090
N4581	N458	0.328730	0.676310	0.622750
N4591	N459	0.421410	0.578270	0.630290
N4601	N460	0.422950	0.483330	0.638870
S911	S91	0.996060	0.929620	0.659980
S921	S92	0.460240	0.688540	0.552640
C11711	C1171	0.039220	0.915960	0.643160
C11721	C1172	0.167460	0.644500	0.785860
H7211	H721	0.150100	0.667300	0.786900
C11731	C1173	0.193620	0.642420	0.753860
C11741	C1174	0.218890	0.608870	0.750770
H7221	H722	0.237500	0.606700	0.728700
C11751	C1175	0.215260	0.579600	0.781200
H7231	H723	0.231100	0.556300	0.780300
C11761	C1176	0.189190	0.583550	0.812730
H7241	H724	0.188000	0.562600	0.833400
C11771	C1177	0.084850	0.832610	0.695850
H7251	H725	0.064900	0.854300	0.695500
C11781	C1178	0.081680	0.802780	0.724520
H7261	H726	0.060000	0.804000	0.744400
C11791	C1179	0.108900	0.771020	0.725500
H7271	H727	0.106200	0.750000	0.745800
C11801	C1180	0.140780	0.769320	0.696700
C11811	C1181	0.143260	0.800820	0.668380
H7281	H728	0.165100	0.800300	0.648700
C11821	C1182	0.171890	0.735610	0.697290
C11831	C1183	0.196470	0.676790	0.722630
C11841	C1184	0.230100	0.706500	0.672200
C11851	C1185	0.331660	0.706460	0.594520
H7291	H729	0.354700	0.705900	0.576700
C11861	C1186	0.303480	0.738000	0.589800
H7301	H730	0.307000	0.758800	0.569600
C11871	C1187	0.269510	0.738570	0.615470
H7311	H731	0.249400	0.760000	0.613000
C11881	C1188	0.265260	0.708660	0.643720
C11891	C1189	0.296180	0.677300	0.647400
H7321	H732	0.293500	0.656500	0.668100
C11901	C1190	0.447920	0.578780	0.634540
H7331	H733	0.447200	0.601200	0.632000
C11911	C1191	0.476890	0.547910	0.642490
H7341	H734	0.494600	0.548800	0.647000
C11921	C1192	0.478850	0.516150	0.643550
H7351	H735	0.498600	0.495000	0.647800
C11931	C1193	0.451940	0.515440	0.638380
C11941	C1194	0.423590	0.547790	0.631650
H7361	H736	0.405000	0.547600	0.627800
C11951	C1195	0.452850	0.482650	0.638730
C11961	C1196	0.429250	0.669870	0.577150
N4611	N461	0.905060	0.070780	0.391340
N4621	N462	0.655940	0.408200	0.340640
N4631	N463	0.615620	0.164900	0.403080
N4641	N464	0.832730	0.115830	0.384150
N4651	N465	0.738220	0.202320	0.388740
N4661	N466	0.705640	0.167320	0.402740
N4671	N467	0.675290	0.228430	0.399190
N4681	N468	0.676310	0.328730	0.372210
N4691	N469	0.578270	0.421410	0.370030
N4701	N470	0.483330	0.422950	0.454850
S931	S93	0.929620	0.996060	0.414340
S941	S94	0.688540	0.460240	0.298580
C11971	C1197	0.915960	0.039220	0.401660
C11981	C1198	0.644500	0.167460	0.402180
H7371	H737	0.667300	0.150100	0.395700
C11991	C1199	0.642420	0.193620	0.410100
C12001	C1200	0.608870	0.218890	0.421470
H7381	H738	0.606700	0.237500	0.427100
C12011	C1201	0.579600	0.215260	0.423940
H7391	H739	0.556300	0.231100	0.432300
C12021	C1202	0.583550	0.189190	0.414530
H7401	H740	0.562600	0.188000	0.416000
C12031	C1203	0.832610	0.084850	0.386690
H7411	H741	0.854300	0.064900	0.385300
C12041	C1204	0.802780	0.081680	0.391020
H7421	H742	0.804000	0.060000	0.391600
C12051	C1205	0.771020	0.108900	0.394580
H7431	H743	0.750000	0.106200	0.398000
C12061	C1206	0.769320	0.140780	0.393200
C12071	C1207	0.800820	0.143260	0.387540
H7441	H744	0.800300	0.165100	0.385900
C12081	C1208	0.735610	0.171890	0.395210
C12091	C1209	0.676790	0.196470	0.404110
C12101	C1210	0.706500	0.230100	0.391200
C12111	C1211	0.706460	0.331660	0.367360
H7451	H745	0.705900	0.354700	0.362700
C12121	C1212	0.738000	0.303480	0.368720
H7461	H746	0.758800	0.307000	0.364600
C12131	C1213	0.738570	0.269510	0.376450
H7471	H747	0.760000	0.249400	0.377600
C12141	C1214	0.708660	0.265260	0.382360
C12151	C1215	0.677300	0.296180	0.379120
H7481	H748	0.656500	0.293500	0.381900
C12161	C1216	0.578780	0.447920	0.338760
H7491	H749	0.601200	0.447200	0.319600
C12171	C1217	0.547910	0.476890	0.332710
H7501	H750	0.548800	0.494600	0.309600
C12181	C1218	0.516150	0.478850	0.361450
H7511	H751	0.495000	0.498600	0.358600
C12191	C1219	0.515440	0.451940	0.394240
C12201	C1220	0.547790	0.423590	0.396970
H7521	H752	0.547600	0.405000	0.419600
C12211	C1221	0.482650	0.452850	0.425770
C12221	C1222	0.669870	0.429250	0.323730
N4711	N471	0.632820	0.391340	0.070780
N4721	N472	0.595220	0.340640	0.408200
N4731	N473	0.816400	0.403080	0.164900
N4741	N474	0.667290	0.384150	0.115830
N4751	N475	0.670720	0.388740	0.202320
N4761	N476	0.724300	0.402740	0.167320
N4771	N477	0.697090	0.399190	0.228430
N4781	N478	0.622750	0.372210	0.328730
N4791	N479	0.630290	0.370030	0.421410
N4801	N480	0.638870	0.454850	0.422950
S951	S95	0.659980	0.414340	0.996060
S961	S96	0.552640	0.298580	0.460240
C12231	C1223	0.643160	0.401660	0.039220
C12241	C1224	0.785860	0.402180	0.167460
H7531	H753	0.786900	0.395700	0.150100
C12251	C1225	0.753860	0.410100	0.193620
C12261	C1226	0.750770	0.421470	0.218890
H7541	H754	0.728700	0.427100	0.237500
C12271	C1227	0.781200	0.423940	0.215260
H7551	H755	0.780300	0.432300	0.231100
C12281	C1228	0.812730	0.414530	0.189190
H7561	H756	0.833400	0.416000	0.188000
C12291	C1229	0.695850	0.386690	0.084850
H7571	H757	0.695500	0.385300	0.064900
C12301	C1230	0.724520	0.391020	0.081680
H7581	H758	0.744400	0.391600	0.060000
C12311	C1231	0.725500	0.394580	0.108900
H7591	H759	0.745800	0.398000	0.106200
C12321	C1232	0.696700	0.393200	0.140780
C12331	C1233	0.668380	0.387540	0.143260
H7601	H760	0.648700	0.385900	0.165100
C12341	C1234	0.697290	0.395210	0.171890
C12351	C1235	0.722630	0.404110	0.196470
C12361	C1236	0.672200	0.391200	0.230100
C12371	C1237	0.594520	0.367360	0.331660
H7611	H761	0.576700	0.362700	0.354700
C12381	C1238	0.589800	0.368720	0.303480
H7621	H762	0.569600	0.364600	0.307000
C12391	C1239	0.615470	0.376450	0.269510
H7631	H763	0.613000	0.377600	0.249400
C12401	C1240	0.643720	0.382360	0.265260
C12411	C1241	0.647400	0.379120	0.296180
H7641	H764	0.668100	0.381900	0.293500
C12421	C1242	0.634540	0.338760	0.447920
H7651	H765	0.632000	0.319600	0.447200
C12431	C1243	0.642490	0.332710	0.476890
H7661	H766	0.647000	0.309600	0.494600
C12441	C1244	0.643550	0.361450	0.478850
H7671	H767	0.647800	0.358600	0.498600
C12451	C1245	0.638380	0.394240	0.451940
C12461	C1246	0.631650	0.396970	0.423590
H7681	H768	0.627800	0.419600	0.405000
C12471	C1247	0.638730	0.425770	0.452850
C12481	C1248	0.577150	0.323730	0.429250
Co11	Co1	0.625000	0.867140	0.125000
Co21	Co2	0.867140	0.625000	0.382860
Co31	Co3	0.125000	0.382860	0.625000
Co41	Co4	0.382860	0.125000	0.867140
Co51	Co5	0.125000	0.625000	0.867140
Co61	Co6	0.382860	0.867140	0.625000
Co71	Co7	0.625000	0.125000	0.382860
Co81	Co8	0.867140	0.382860	0.125000
Co91	Co9	0.867140	0.125000	0.625000
Co101	Co10	0.625000	0.382860	0.867140
Co111	Co11	0.382860	0.625000	0.125000
Co121	Co12	0.125000	0.867140	0.382860
Co131	Co13	0.125000	0.882860	0.625000
Co141	Co14	0.882860	0.125000	0.367140
Co151	Co15	0.625000	0.367140	0.125000
Co161	Co16	0.367140	0.625000	0.882860
Co171	Co17	0.625000	0.125000	0.882860
Co181	Co18	0.367140	0.882860	0.125000
Co191	Co19	0.125000	0.625000	0.367140
Co201	Co20	0.882860	0.367140	0.625000
Co211	Co21	0.882860	0.625000	0.125000
Co221	Co22	0.125000	0.367140	0.882860
Co231	Co23	0.367140	0.125000	0.625000
Co241	Co24	0.625000	0.882860	0.367140
Co251	Co25	0.873560	0.873560	0.126440
Co261	Co26	0.126440	0.126440	0.873560
Co271	Co27	0.126440	0.873560	0.873560
Co281	Co28	0.873560	0.126440	0.126440
Co291	Co29	0.873560	0.126440	0.873560
Co301	Co30	0.126440	0.873560	0.126440
Co311	Co31	0.376440	0.376440	0.123560
Co321	Co32	0.123560	0.123560	0.376440
Co331	Co33	0.123560	0.376440	0.123560
Co341	Co34	0.376440	0.123560	0.376440
Co351	Co35	0.376440	0.123560	0.123560
Co361	Co36	0.123560	0.376440	0.376440
Co371	Co37	0.876440	0.876440	0.623560
Co381	Co38	0.623560	0.623560	0.876440
Co391	Co39	0.623560	0.876440	0.876440
Co401	Co40	0.876440	0.623560	0.623560
Co411	Co41	0.876440	0.623560	0.876440
Co421	Co42	0.623560	0.876440	0.623560
Co431	Co43	0.373560	0.373560	0.626440
Co441	Co44	0.626440	0.626440	0.373560
Co451	Co45	0.626440	0.373560	0.626440
Co461	Co46	0.373560	0.626440	0.373560
Co471	Co47	0.373560	0.626440	0.626440
Co481	Co48	0.626440	0.373560	0.373560
