data_LAFROB_manual_PM
_symmetry_space_group_name_H-M	'P1'
_cell_length_a	45.394100
_cell_length_b	45.394100
_cell_length_c	45.394100
_cell_angle_alpha	60.000000
_cell_angle_beta	60.000000
_cell_angle_gamma	60.000000
_symmetry_Int_Tables_number 1

loop_
_symmetry_equiv_pos_as_xyz
'x,y,z'

loop_
_atom_site_label
_atom_site_type_symbol
_atom_site_fract_x
_atom_site_fract_y
_atom_site_fract_z
N11	N1	0.305470	0.466510	0.739450
N21	N2	0.277860	0.464620	0.536020
C11	C1	0.336450	0.460690	0.722870
C21	C2	0.294550	0.441970	0.554610
S11	S1	0.378790	0.454090	0.697910
S21	S2	0.318570	0.410450	0.580910
N31	N3	0.258470	0.467170	0.710190
C31	C3	0.228370	0.472230	0.706790
H11	H1	0.205700	0.481500	0.723100
C41	C4	0.228890	0.464430	0.680590
C51	C5	0.261610	0.450830	0.656830
H21	H2	0.262600	0.446600	0.637800
C61	C6	0.292780	0.443360	0.661120
H31	H3	0.315700	0.432500	0.646100
C71	C7	0.290200	0.451900	0.687880
H41	H4	0.311900	0.446700	0.690700
N41	N4	0.036910	0.499670	0.757690
C81	C8	0.035790	0.501610	0.786790
H51	H5	0.013500	0.504700	0.806100
C91	C9	0.065740	0.499240	0.789820
H61	H6	0.063700	0.501500	0.810500
C101	C10	0.098900	0.493580	0.762360
H71	H7	0.120000	0.491200	0.764200
C111	C11	0.100090	0.491650	0.731830
C121	C12	0.068510	0.494970	0.730870
H81	H8	0.069300	0.493900	0.710100
C131	C13	0.133390	0.488250	0.700950
N51	N5	0.164350	0.477450	0.706650
C141	C14	0.194230	0.474630	0.676590
N61	N6	0.194780	0.481500	0.644740
C151	C15	0.162390	0.492850	0.641950
N71	N7	0.130910	0.496070	0.669610
C161	C16	0.161270	0.502870	0.606270
C171	C17	0.129220	0.515880	0.600000
H91	H9	0.106600	0.519000	0.618800
C181	C18	0.131280	0.524140	0.565500
H101	H10	0.110000	0.532600	0.560400
C191	C19	0.164420	0.520160	0.538220
H111	H11	0.165300	0.525900	0.514700
N81	N8	0.195110	0.508570	0.544010
N91	N9	0.297070	0.506270	0.455790
C201	C20	0.297130	0.538370	0.429070
H121	H12	0.275000	0.558000	0.430000
C211	C21	0.327700	0.543980	0.400680
H131	H13	0.326300	0.566900	0.382300
C221	C22	0.360150	0.516490	0.398970
H141	H14	0.381400	0.520200	0.379400
C231	C23	0.193330	0.500310	0.577430
H151	H15	0.215000	0.492400	0.581600
C241	C24	0.361600	0.483040	0.426240
C251	C25	0.329010	0.479530	0.453530
H161	H16	0.329500	0.456700	0.471700
C261	C26	0.395220	0.452420	0.424980
N101	N10	0.422360	0.455000	0.394720
N111	N11	0.466510	0.305470	0.988570
N121	N12	0.464620	0.277860	0.221500
C271	C27	0.460690	0.336450	0.979990
C281	C28	0.441970	0.294550	0.208870
S31	S3	0.454090	0.378790	0.969210
S41	S4	0.410450	0.318570	0.190070
N131	N13	0.467170	0.258470	0.064170
C291	C29	0.472230	0.228370	0.092610
H171	H17	0.481500	0.205700	0.089700
C301	C30	0.464430	0.228890	0.126090
C311	C31	0.450830	0.261610	0.130730
H181	H18	0.446600	0.262600	0.153000
C321	C32	0.443360	0.292780	0.102740
H191	H19	0.432500	0.315700	0.105700
C331	C33	0.451900	0.290200	0.070020
H201	H20	0.446700	0.311900	0.050700
N141	N14	0.499670	0.036910	0.205730
C341	C34	0.501610	0.035790	0.175810
H211	H21	0.504700	0.013500	0.175700
C351	C35	0.499240	0.065740	0.145200
H221	H22	0.501500	0.063700	0.124300
C361	C36	0.493580	0.098900	0.145160
H231	H23	0.491200	0.120000	0.124600
C371	C37	0.491650	0.100090	0.176430
C381	C38	0.494970	0.068510	0.205650
H241	H24	0.493900	0.069300	0.226700
C391	C39	0.488250	0.133390	0.177410
N151	N15	0.477450	0.164350	0.151550
C401	C40	0.474630	0.194230	0.154550
N161	N16	0.481500	0.194780	0.178980
C411	C41	0.492850	0.162390	0.202810
N171	N17	0.496070	0.130910	0.203410
C421	C42	0.502870	0.161270	0.229590
C431	C43	0.515880	0.129220	0.254900
H251	H25	0.519000	0.106600	0.255600
C441	C44	0.524140	0.131280	0.279080
H261	H26	0.532600	0.110000	0.297000
C451	C45	0.520160	0.164420	0.277200
H271	H27	0.525900	0.165300	0.294100
N181	N18	0.508570	0.195110	0.252310
N191	N19	0.506270	0.297070	0.240870
C461	C46	0.538370	0.297130	0.235430
H281	H28	0.558000	0.275000	0.237000
C471	C47	0.543980	0.327700	0.227640
H291	H29	0.566900	0.326300	0.224500
C481	C48	0.516490	0.360150	0.224390
H301	H30	0.520200	0.381400	0.219000
C491	C49	0.500310	0.193330	0.228930
H311	H31	0.492400	0.215000	0.211000
C501	C50	0.483040	0.361600	0.229120
C511	C51	0.479530	0.329010	0.237930
H321	H32	0.456700	0.329500	0.242100
C521	C52	0.452420	0.395220	0.227380
N201	N20	0.455000	0.422360	0.227920
N211	N21	0.739450	0.988570	0.305470
N221	N22	0.536020	0.221500	0.277860
C531	C53	0.722870	0.979990	0.336450
C541	C54	0.554610	0.208870	0.294550
S51	S5	0.697910	0.969210	0.378790
S61	S6	0.580910	0.190070	0.318570
N231	N23	0.710190	0.064170	0.258470
C551	C55	0.706790	0.092610	0.228370
H331	H33	0.723100	0.089700	0.205700
C561	C56	0.680590	0.126090	0.228890
C571	C57	0.656830	0.130730	0.261610
H341	H34	0.637800	0.153000	0.262600
C581	C58	0.661120	0.102740	0.292780
H351	H35	0.646100	0.105700	0.315700
C591	C59	0.687880	0.070020	0.290200
H361	H36	0.690700	0.050700	0.311900
N241	N24	0.757690	0.205730	0.036910
C601	C60	0.786790	0.175810	0.035790
H371	H37	0.806100	0.175700	0.013500
C611	C61	0.789820	0.145200	0.065740
H381	H38	0.810500	0.124300	0.063700
C621	C62	0.762360	0.145160	0.098900
H391	H39	0.764200	0.124600	0.120000
C631	C63	0.731830	0.176430	0.100090
C641	C64	0.730870	0.205650	0.068510
H401	H40	0.710100	0.226700	0.069300
C651	C65	0.700950	0.177410	0.133390
N251	N25	0.706650	0.151550	0.164350
C661	C66	0.676590	0.154550	0.194230
N261	N26	0.644740	0.178980	0.194780
C671	C67	0.641950	0.202810	0.162390
N271	N27	0.669610	0.203410	0.130910
C681	C68	0.606270	0.229590	0.161270
C691	C69	0.600000	0.254900	0.129220
H411	H41	0.618800	0.255600	0.106600
C701	C70	0.565500	0.279080	0.131280
H421	H42	0.560400	0.297000	0.110000
C711	C71	0.538220	0.277200	0.164420
H431	H43	0.514700	0.294100	0.165300
N281	N28	0.544010	0.252310	0.195110
N291	N29	0.455790	0.240870	0.297070
C721	C72	0.429070	0.235430	0.297130
H441	H44	0.430000	0.237000	0.275000
C731	C73	0.400680	0.227640	0.327700
H451	H45	0.382300	0.224500	0.326300
C741	C74	0.398970	0.224390	0.360150
H461	H46	0.379400	0.219000	0.381400
C751	C75	0.577430	0.228930	0.193330
H471	H47	0.581600	0.211000	0.215000
C761	C76	0.426240	0.229120	0.361600
C771	C77	0.453530	0.237930	0.329010
H481	H48	0.471700	0.242100	0.329500
C781	C78	0.424980	0.227380	0.395220
N301	N30	0.394720	0.227920	0.422360
N311	N31	0.988570	0.739450	0.466510
N321	N32	0.221500	0.536020	0.464620
C791	C79	0.979990	0.722870	0.460690
C801	C80	0.208870	0.554610	0.441970
S71	S7	0.969210	0.697910	0.454090
S81	S8	0.190070	0.580910	0.410450
N331	N33	0.064170	0.710190	0.467170
C811	C81	0.092610	0.706790	0.472230
H491	H49	0.089700	0.723100	0.481500
C821	C82	0.126090	0.680590	0.464430
C831	C83	0.130730	0.656830	0.450830
H501	H50	0.153000	0.637800	0.446600
C841	C84	0.102740	0.661120	0.443360
H511	H51	0.105700	0.646100	0.432500
C851	C85	0.070020	0.687880	0.451900
H521	H52	0.050700	0.690700	0.446700
N341	N34	0.205730	0.757690	0.499670
C861	C86	0.175810	0.786790	0.501610
H531	H53	0.175700	0.806100	0.504700
C871	C87	0.145200	0.789820	0.499240
H541	H54	0.124300	0.810500	0.501500
C881	C88	0.145160	0.762360	0.493580
H551	H55	0.124600	0.764200	0.491200
C891	C89	0.176430	0.731830	0.491650
C901	C90	0.205650	0.730870	0.494970
H561	H56	0.226700	0.710100	0.493900
C911	C91	0.177410	0.700950	0.488250
N351	N35	0.151550	0.706650	0.477450
C921	C92	0.154550	0.676590	0.474630
N361	N36	0.178980	0.644740	0.481500
C931	C93	0.202810	0.641950	0.492850
N371	N37	0.203410	0.669610	0.496070
C941	C94	0.229590	0.606270	0.502870
C951	C95	0.254900	0.600000	0.515880
H571	H57	0.255600	0.618800	0.519000
C961	C96	0.279080	0.565500	0.524140
H581	H58	0.297000	0.560400	0.532600
C971	C97	0.277200	0.538220	0.520160
H591	H59	0.294100	0.514700	0.525900
N381	N38	0.252310	0.544010	0.508570
N391	N39	0.240870	0.455790	0.506270
C981	C98	0.235430	0.429070	0.538370
H601	H60	0.237000	0.430000	0.558000
C991	C99	0.227640	0.400680	0.543980
H611	H61	0.224500	0.382300	0.566900
C1001	C100	0.224390	0.398970	0.516490
H621	H62	0.219000	0.379400	0.520200
C1011	C101	0.228930	0.577430	0.500310
H631	H63	0.211000	0.581600	0.492400
C1021	C102	0.229120	0.426240	0.483040
C1031	C103	0.237930	0.453530	0.479530
H641	H64	0.242100	0.471700	0.456700
C1041	C104	0.227380	0.424980	0.452420
N401	N40	0.227920	0.394720	0.455000
N411	N41	0.739450	0.305470	0.466510
N421	N42	0.536020	0.277860	0.464620
C1051	C105	0.722870	0.336450	0.460690
C1061	C106	0.554610	0.294550	0.441970
S91	S9	0.697910	0.378790	0.454090
S101	S10	0.580910	0.318570	0.410450
N431	N43	0.710190	0.258470	0.467170
C1071	C107	0.706790	0.228370	0.472230
H651	H65	0.723100	0.205700	0.481500
C1081	C108	0.680590	0.228890	0.464430
C1091	C109	0.656830	0.261610	0.450830
H661	H66	0.637800	0.262600	0.446600
C1101	C110	0.661120	0.292780	0.443360
H671	H67	0.646100	0.315700	0.432500
C1111	C111	0.687880	0.290200	0.451900
H681	H68	0.690700	0.311900	0.446700
N441	N44	0.757690	0.036910	0.499670
C1121	C112	0.786790	0.035790	0.501610
H691	H69	0.806100	0.013500	0.504700
C1131	C113	0.789820	0.065740	0.499240
H701	H70	0.810500	0.063700	0.501500
C1141	C114	0.762360	0.098900	0.493580
H711	H71	0.764200	0.120000	0.491200
C1151	C115	0.731830	0.100090	0.491650
C1161	C116	0.730870	0.068510	0.494970
H721	H72	0.710100	0.069300	0.493900
C1171	C117	0.700950	0.133390	0.488250
N451	N45	0.706650	0.164350	0.477450
C1181	C118	0.676590	0.194230	0.474630
N461	N46	0.644740	0.194780	0.481500
C1191	C119	0.641950	0.162390	0.492850
N471	N47	0.669610	0.130910	0.496070
C1201	C120	0.606270	0.161270	0.502870
C1211	C121	0.600000	0.129220	0.515880
H731	H73	0.618800	0.106600	0.519000
C1221	C122	0.565500	0.131280	0.524140
H741	H74	0.560400	0.110000	0.532600
C1231	C123	0.538220	0.164420	0.520160
H751	H75	0.514700	0.165300	0.525900
N481	N48	0.544010	0.195110	0.508570
N491	N49	0.455790	0.297070	0.506270
C1241	C124	0.429070	0.297130	0.538370
H761	H76	0.430000	0.275000	0.558000
C1251	C125	0.400680	0.327700	0.543980
H771	H77	0.382300	0.326300	0.566900
C1261	C126	0.398970	0.360150	0.516490
H781	H78	0.379400	0.381400	0.520200
C1271	C127	0.577430	0.193330	0.500310
H791	H79	0.581600	0.215000	0.492400
C1281	C128	0.426240	0.361600	0.483040
C1291	C129	0.453530	0.329010	0.479530
H801	H80	0.471700	0.329500	0.456700
C1301	C130	0.424980	0.395220	0.452420
N501	N50	0.394720	0.422360	0.455000
N511	N51	0.988570	0.466510	0.305470
N521	N52	0.221500	0.464620	0.277860
C1311	C131	0.979990	0.460690	0.336450
C1321	C132	0.208870	0.441970	0.294550
S111	S11	0.969210	0.454090	0.378790
S121	S12	0.190070	0.410450	0.318570
N531	N53	0.064170	0.467170	0.258470
C1331	C133	0.092610	0.472230	0.228370
H811	H81	0.089700	0.481500	0.205700
C1341	C134	0.126090	0.464430	0.228890
C1351	C135	0.130730	0.450830	0.261610
H821	H82	0.153000	0.446600	0.262600
C1361	C136	0.102740	0.443360	0.292780
H831	H83	0.105700	0.432500	0.315700
C1371	C137	0.070020	0.451900	0.290200
H841	H84	0.050700	0.446700	0.311900
N541	N54	0.205730	0.499670	0.036910
C1381	C138	0.175810	0.501610	0.035790
H851	H85	0.175700	0.504700	0.013500
C1391	C139	0.145200	0.499240	0.065740
H861	H86	0.124300	0.501500	0.063700
C1401	C140	0.145160	0.493580	0.098900
H871	H87	0.124600	0.491200	0.120000
C1411	C141	0.176430	0.491650	0.100090
C1421	C142	0.205650	0.494970	0.068510
H881	H88	0.226700	0.493900	0.069300
C1431	C143	0.177410	0.488250	0.133390
N551	N55	0.151550	0.477450	0.164350
C1441	C144	0.154550	0.474630	0.194230
N561	N56	0.178980	0.481500	0.194780
C1451	C145	0.202810	0.492850	0.162390
N571	N57	0.203410	0.496070	0.130910
C1461	C146	0.229590	0.502870	0.161270
C1471	C147	0.254900	0.515880	0.129220
H891	H89	0.255600	0.519000	0.106600
C1481	C148	0.279080	0.524140	0.131280
H901	H90	0.297000	0.532600	0.110000
C1491	C149	0.277200	0.520160	0.164420
H911	H91	0.294100	0.525900	0.165300
N581	N58	0.252310	0.508570	0.195110
N591	N59	0.240870	0.506270	0.297070
C1501	C150	0.235430	0.538370	0.297130
H921	H92	0.237000	0.558000	0.275000
C1511	C151	0.227640	0.543980	0.327700
H931	H93	0.224500	0.566900	0.326300
C1521	C152	0.224390	0.516490	0.360150
H941	H94	0.219000	0.520200	0.381400
C1531	C153	0.228930	0.500310	0.193330
H951	H95	0.211000	0.492400	0.215000
C1541	C154	0.229120	0.483040	0.361600
C1551	C155	0.237930	0.479530	0.329010
H961	H96	0.242100	0.456700	0.329500
C1561	C156	0.227380	0.452420	0.395220
N601	N60	0.227920	0.455000	0.422360
N611	N61	0.305470	0.739450	0.988570
N621	N62	0.277860	0.536020	0.221500
C1571	C157	0.336450	0.722870	0.979990
C1581	C158	0.294550	0.554610	0.208870
S131	S13	0.378790	0.697910	0.969210
S141	S14	0.318570	0.580910	0.190070
N631	N63	0.258470	0.710190	0.064170
C1591	C159	0.228370	0.706790	0.092610
H971	H97	0.205700	0.723100	0.089700
C1601	C160	0.228890	0.680590	0.126090
C1611	C161	0.261610	0.656830	0.130730
H981	H98	0.262600	0.637800	0.153000
C1621	C162	0.292780	0.661120	0.102740
H991	H99	0.315700	0.646100	0.105700
C1631	C163	0.290200	0.687880	0.070020
H1001	H100	0.311900	0.690700	0.050700
N641	N64	0.036910	0.757690	0.205730
C1641	C164	0.035790	0.786790	0.175810
H1011	H101	0.013500	0.806100	0.175700
C1651	C165	0.065740	0.789820	0.145200
H1021	H102	0.063700	0.810500	0.124300
C1661	C166	0.098900	0.762360	0.145160
H1031	H103	0.120000	0.764200	0.124600
C1671	C167	0.100090	0.731830	0.176430
C1681	C168	0.068510	0.730870	0.205650
H1041	H104	0.069300	0.710100	0.226700
C1691	C169	0.133390	0.700950	0.177410
N651	N65	0.164350	0.706650	0.151550
C1701	C170	0.194230	0.676590	0.154550
N661	N66	0.194780	0.644740	0.178980
C1711	C171	0.162390	0.641950	0.202810
N671	N67	0.130910	0.669610	0.203410
C1721	C172	0.161270	0.606270	0.229590
C1731	C173	0.129220	0.600000	0.254900
H1051	H105	0.106600	0.618800	0.255600
C1741	C174	0.131280	0.565500	0.279080
H1061	H106	0.110000	0.560400	0.297000
C1751	C175	0.164420	0.538220	0.277200
H1071	H107	0.165300	0.514700	0.294100
N681	N68	0.195110	0.544010	0.252310
N691	N69	0.297070	0.455790	0.240870
C1761	C176	0.297130	0.429070	0.235430
H1081	H108	0.275000	0.430000	0.237000
C1771	C177	0.327700	0.400680	0.227640
H1091	H109	0.326300	0.382300	0.224500
C1781	C178	0.360150	0.398970	0.224390
H1101	H110	0.381400	0.379400	0.219000
C1791	C179	0.193330	0.577430	0.228930
H1111	H111	0.215000	0.581600	0.211000
C1801	C180	0.361600	0.426240	0.229120
C1811	C181	0.329010	0.453530	0.237930
H1121	H112	0.329500	0.471700	0.242100
C1821	C182	0.395220	0.424980	0.227380
N701	N70	0.422360	0.394720	0.227920
N711	N71	0.466510	0.988570	0.739450
N721	N72	0.464620	0.221500	0.536020
C1831	C183	0.460690	0.979990	0.722870
C1841	C184	0.441970	0.208870	0.554610
S151	S15	0.454090	0.969210	0.697910
S161	S16	0.410450	0.190070	0.580910
N731	N73	0.467170	0.064170	0.710190
C1851	C185	0.472230	0.092610	0.706790
H1131	H113	0.481500	0.089700	0.723100
C1861	C186	0.464430	0.126090	0.680590
C1871	C187	0.450830	0.130730	0.656830
H1141	H114	0.446600	0.153000	0.637800
C1881	C188	0.443360	0.102740	0.661120
H1151	H115	0.432500	0.105700	0.646100
C1891	C189	0.451900	0.070020	0.687880
H1161	H116	0.446700	0.050700	0.690700
N741	N74	0.499670	0.205730	0.757690
C1901	C190	0.501610	0.175810	0.786790
H1171	H117	0.504700	0.175700	0.806100
C1911	C191	0.499240	0.145200	0.789820
H1181	H118	0.501500	0.124300	0.810500
C1921	C192	0.493580	0.145160	0.762360
H1191	H119	0.491200	0.124600	0.764200
C1931	C193	0.491650	0.176430	0.731830
C1941	C194	0.494970	0.205650	0.730870
H1201	H120	0.493900	0.226700	0.710100
C1951	C195	0.488250	0.177410	0.700950
N751	N75	0.477450	0.151550	0.706650
C1961	C196	0.474630	0.154550	0.676590
N761	N76	0.481500	0.178980	0.644740
C1971	C197	0.492850	0.202810	0.641950
N771	N77	0.496070	0.203410	0.669610
C1981	C198	0.502870	0.229590	0.606270
C1991	C199	0.515880	0.254900	0.600000
H1211	H121	0.519000	0.255600	0.618800
C2001	C200	0.524140	0.279080	0.565500
H1221	H122	0.532600	0.297000	0.560400
C2011	C201	0.520160	0.277200	0.538220
H1231	H123	0.525900	0.294100	0.514700
N781	N78	0.508570	0.252310	0.544010
N791	N79	0.506270	0.240870	0.455790
C2021	C202	0.538370	0.235430	0.429070
H1241	H124	0.558000	0.237000	0.430000
C2031	C203	0.543980	0.227640	0.400680
H1251	H125	0.566900	0.224500	0.382300
C2041	C204	0.516490	0.224390	0.398970
H1261	H126	0.520200	0.219000	0.379400
C2051	C205	0.500310	0.228930	0.577430
H1271	H127	0.492400	0.211000	0.581600
C2061	C206	0.483040	0.229120	0.426240
C2071	C207	0.479530	0.237930	0.453530
H1281	H128	0.456700	0.242100	0.471700
C2081	C208	0.452420	0.227380	0.424980
N801	N80	0.455000	0.227920	0.394720
N811	N81	0.466510	0.739450	0.305470
N821	N82	0.464620	0.536020	0.277860
C2091	C209	0.460690	0.722870	0.336450
C2101	C210	0.441970	0.554610	0.294550
S171	S17	0.454090	0.697910	0.378790
S181	S18	0.410450	0.580910	0.318570
N831	N83	0.467170	0.710190	0.258470
C2111	C211	0.472230	0.706790	0.228370
H1291	H129	0.481500	0.723100	0.205700
C2121	C212	0.464430	0.680590	0.228890
C2131	C213	0.450830	0.656830	0.261610
H1301	H130	0.446600	0.637800	0.262600
C2141	C214	0.443360	0.661120	0.292780
H1311	H131	0.432500	0.646100	0.315700
C2151	C215	0.451900	0.687880	0.290200
H1321	H132	0.446700	0.690700	0.311900
N841	N84	0.499670	0.757690	0.036910
C2161	C216	0.501610	0.786790	0.035790
H1331	H133	0.504700	0.806100	0.013500
C2171	C217	0.499240	0.789820	0.065740
H1341	H134	0.501500	0.810500	0.063700
C2181	C218	0.493580	0.762360	0.098900
H1351	H135	0.491200	0.764200	0.120000
C2191	C219	0.491650	0.731830	0.100090
C2201	C220	0.494970	0.730870	0.068510
H1361	H136	0.493900	0.710100	0.069300
C2211	C221	0.488250	0.700950	0.133390
N851	N85	0.477450	0.706650	0.164350
C2221	C222	0.474630	0.676590	0.194230
N861	N86	0.481500	0.644740	0.194780
C2231	C223	0.492850	0.641950	0.162390
N871	N87	0.496070	0.669610	0.130910
C2241	C224	0.502870	0.606270	0.161270
C2251	C225	0.515880	0.600000	0.129220
H1371	H137	0.519000	0.618800	0.106600
C2261	C226	0.524140	0.565500	0.131280
H1381	H138	0.532600	0.560400	0.110000
C2271	C227	0.520160	0.538220	0.164420
H1391	H139	0.525900	0.514700	0.165300
N881	N88	0.508570	0.544010	0.195110
N891	N89	0.506270	0.455790	0.297070
C2281	C228	0.538370	0.429070	0.297130
H1401	H140	0.558000	0.430000	0.275000
C2291	C229	0.543980	0.400680	0.327700
H1411	H141	0.566900	0.382300	0.326300
C2301	C230	0.516490	0.398970	0.360150
H1421	H142	0.520200	0.379400	0.381400
C2311	C231	0.500310	0.577430	0.193330
H1431	H143	0.492400	0.581600	0.215000
C2321	C232	0.483040	0.426240	0.361600
C2331	C233	0.479530	0.453530	0.329010
H1441	H144	0.456700	0.471700	0.329500
C2341	C234	0.452420	0.424980	0.395220
N901	N90	0.455000	0.394720	0.422360
N911	N91	0.305470	0.988570	0.466510
N921	N92	0.277860	0.221500	0.464620
C2351	C235	0.336450	0.979990	0.460690
C2361	C236	0.294550	0.208870	0.441970
S191	S19	0.378790	0.969210	0.454090
S201	S20	0.318570	0.190070	0.410450
N931	N93	0.258470	0.064170	0.467170
C2371	C237	0.228370	0.092610	0.472230
H1451	H145	0.205700	0.089700	0.481500
C2381	C238	0.228890	0.126090	0.464430
C2391	C239	0.261610	0.130730	0.450830
H1461	H146	0.262600	0.153000	0.446600
C2401	C240	0.292780	0.102740	0.443360
H1471	H147	0.315700	0.105700	0.432500
C2411	C241	0.290200	0.070020	0.451900
H1481	H148	0.311900	0.050700	0.446700
N941	N94	0.036910	0.205730	0.499670
C2421	C242	0.035790	0.175810	0.501610
H1491	H149	0.013500	0.175700	0.504700
C2431	C243	0.065740	0.145200	0.499240
H1501	H150	0.063700	0.124300	0.501500
C2441	C244	0.098900	0.145160	0.493580
H1511	H151	0.120000	0.124600	0.491200
C2451	C245	0.100090	0.176430	0.491650
C2461	C246	0.068510	0.205650	0.494970
H1521	H152	0.069300	0.226700	0.493900
C2471	C247	0.133390	0.177410	0.488250
N951	N95	0.164350	0.151550	0.477450
C2481	C248	0.194230	0.154550	0.474630
N961	N96	0.194780	0.178980	0.481500
C2491	C249	0.162390	0.202810	0.492850
N971	N97	0.130910	0.203410	0.496070
C2501	C250	0.161270	0.229590	0.502870
C2511	C251	0.129220	0.254900	0.515880
H1531	H153	0.106600	0.255600	0.519000
C2521	C252	0.131280	0.279080	0.524140
H1541	H154	0.110000	0.297000	0.532600
C2531	C253	0.164420	0.277200	0.520160
H1551	H155	0.165300	0.294100	0.525900
N981	N98	0.195110	0.252310	0.508570
N991	N99	0.297070	0.240870	0.506270
C2541	C254	0.297130	0.235430	0.538370
H1561	H156	0.275000	0.237000	0.558000
C2551	C255	0.327700	0.227640	0.543980
H1571	H157	0.326300	0.224500	0.566900
C2561	C256	0.360150	0.224390	0.516490
H1581	H158	0.381400	0.219000	0.520200
C2571	C257	0.193330	0.228930	0.500310
H1591	H159	0.215000	0.211000	0.492400
C2581	C258	0.361600	0.229120	0.483040
C2591	C259	0.329010	0.237930	0.479530
H1601	H160	0.329500	0.242100	0.456700
C2601	C260	0.395220	0.227380	0.452420
N1001	N100	0.422360	0.227920	0.455000
N1011	N101	0.988570	0.305470	0.739450
N1021	N102	0.221500	0.277860	0.536020
C2611	C261	0.979990	0.336450	0.722870
C2621	C262	0.208870	0.294550	0.554610
S211	S21	0.969210	0.378790	0.697910
S221	S22	0.190070	0.318570	0.580910
N1031	N103	0.064170	0.258470	0.710190
C2631	C263	0.092610	0.228370	0.706790
H1611	H161	0.089700	0.205700	0.723100
C2641	C264	0.126090	0.228890	0.680590
C2651	C265	0.130730	0.261610	0.656830
H1621	H162	0.153000	0.262600	0.637800
C2661	C266	0.102740	0.292780	0.661120
H1631	H163	0.105700	0.315700	0.646100
C2671	C267	0.070020	0.290200	0.687880
H1641	H164	0.050700	0.311900	0.690700
N1041	N104	0.205730	0.036910	0.757690
C2681	C268	0.175810	0.035790	0.786790
H1651	H165	0.175700	0.013500	0.806100
C2691	C269	0.145200	0.065740	0.789820
H1661	H166	0.124300	0.063700	0.810500
C2701	C270	0.145160	0.098900	0.762360
H1671	H167	0.124600	0.120000	0.764200
C2711	C271	0.176430	0.100090	0.731830
C2721	C272	0.205650	0.068510	0.730870
H1681	H168	0.226700	0.069300	0.710100
C2731	C273	0.177410	0.133390	0.700950
N1051	N105	0.151550	0.164350	0.706650
C2741	C274	0.154550	0.194230	0.676590
N1061	N106	0.178980	0.194780	0.644740
C2751	C275	0.202810	0.162390	0.641950
N1071	N107	0.203410	0.130910	0.669610
C2761	C276	0.229590	0.161270	0.606270
C2771	C277	0.254900	0.129220	0.600000
H1691	H169	0.255600	0.106600	0.618800
C2781	C278	0.279080	0.131280	0.565500
H1701	H170	0.297000	0.110000	0.560400
C2791	C279	0.277200	0.164420	0.538220
H1711	H171	0.294100	0.165300	0.514700
N1081	N108	0.252310	0.195110	0.544010
N1091	N109	0.240870	0.297070	0.455790
C2801	C280	0.235430	0.297130	0.429070
H1721	H172	0.237000	0.275000	0.430000
C2811	C281	0.227640	0.327700	0.400680
H1731	H173	0.224500	0.326300	0.382300
C2821	C282	0.224390	0.360150	0.398970
H1741	H174	0.219000	0.381400	0.379400
C2831	C283	0.228930	0.193330	0.577430
H1751	H175	0.211000	0.215000	0.581600
C2841	C284	0.229120	0.361600	0.426240
C2851	C285	0.237930	0.329010	0.453530
H1761	H176	0.242100	0.329500	0.471700
C2861	C286	0.227380	0.395220	0.424980
N1101	N110	0.227920	0.422360	0.394720
N1111	N111	0.739450	0.466510	0.988570
N1121	N112	0.536020	0.464620	0.221500
C2871	C287	0.722870	0.460690	0.979990
C2881	C288	0.554610	0.441970	0.208870
S231	S23	0.697910	0.454090	0.969210
S241	S24	0.580910	0.410450	0.190070
N1131	N113	0.710190	0.467170	0.064170
C2891	C289	0.706790	0.472230	0.092610
H1771	H177	0.723100	0.481500	0.089700
C2901	C290	0.680590	0.464430	0.126090
C2911	C291	0.656830	0.450830	0.130730
H1781	H178	0.637800	0.446600	0.153000
C2921	C292	0.661120	0.443360	0.102740
H1791	H179	0.646100	0.432500	0.105700
C2931	C293	0.687880	0.451900	0.070020
H1801	H180	0.690700	0.446700	0.050700
N1141	N114	0.757690	0.499670	0.205730
C2941	C294	0.786790	0.501610	0.175810
H1811	H181	0.806100	0.504700	0.175700
C2951	C295	0.789820	0.499240	0.145200
H1821	H182	0.810500	0.501500	0.124300
C2961	C296	0.762360	0.493580	0.145160
H1831	H183	0.764200	0.491200	0.124600
C2971	C297	0.731830	0.491650	0.176430
C2981	C298	0.730870	0.494970	0.205650
H1841	H184	0.710100	0.493900	0.226700
C2991	C299	0.700950	0.488250	0.177410
N1151	N115	0.706650	0.477450	0.151550
C3001	C300	0.676590	0.474630	0.154550
N1161	N116	0.644740	0.481500	0.178980
C3011	C301	0.641950	0.492850	0.202810
N1171	N117	0.669610	0.496070	0.203410
C3021	C302	0.606270	0.502870	0.229590
C3031	C303	0.600000	0.515880	0.254900
H1851	H185	0.618800	0.519000	0.255600
C3041	C304	0.565500	0.524140	0.279080
H1861	H186	0.560400	0.532600	0.297000
C3051	C305	0.538220	0.520160	0.277200
H1871	H187	0.514700	0.525900	0.294100
N1181	N118	0.544010	0.508570	0.252310
N1191	N119	0.455790	0.506270	0.240870
C3061	C306	0.429070	0.538370	0.235430
H1881	H188	0.430000	0.558000	0.237000
C3071	C307	0.400680	0.543980	0.227640
H1891	H189	0.382300	0.566900	0.224500
C3081	C308	0.398970	0.516490	0.224390
H1901	H190	0.379400	0.520200	0.219000
C3091	C309	0.577430	0.500310	0.228930
H1911	H191	0.581600	0.492400	0.211000
C3101	C310	0.426240	0.483040	0.229120
C3111	C311	0.453530	0.479530	0.237930
H1921	H192	0.471700	0.456700	0.242100
C3121	C312	0.424980	0.452420	0.227380
N1201	N120	0.394720	0.455000	0.227920
N1211	N121	0.194530	0.033490	0.511430
N1221	N122	0.222140	0.035380	0.278500
C3131	C313	0.163550	0.039310	0.520010
C3141	C314	0.205450	0.058030	0.291130
S251	S25	0.121210	0.045910	0.530790
S261	S26	0.181430	0.089550	0.309930
N1231	N123	0.241530	0.032830	0.435830
C3151	C315	0.271630	0.027770	0.407390
H1931	H193	0.294300	0.018500	0.410300
C3161	C316	0.271110	0.035570	0.373910
C3171	C317	0.238390	0.049170	0.369270
H1941	H194	0.237400	0.053400	0.347000
C3181	C318	0.207220	0.056640	0.397260
H1951	H195	0.184300	0.067500	0.394300
C3191	C319	0.209800	0.048100	0.429980
H1961	H196	0.188100	0.053300	0.449300
N1241	N124	0.463090	0.000330	0.294270
C3201	C320	0.464210	0.998390	0.324190
H1971	H197	0.486500	0.995300	0.324300
C3211	C321	0.434260	0.000760	0.354800
H1981	H198	0.436300	0.998500	0.375700
C3221	C322	0.401100	0.006420	0.354840
H1991	H199	0.380000	0.008800	0.375400
C3231	C323	0.399910	0.008350	0.323570
C3241	C324	0.431490	0.005030	0.294350
H2001	H200	0.430700	0.006100	0.273300
C3251	C325	0.366610	0.011750	0.322590
N1251	N125	0.335650	0.022550	0.348450
C3261	C326	0.305770	0.025370	0.345450
N1261	N126	0.305220	0.018500	0.321020
C3271	C327	0.337610	0.007150	0.297190
N1271	N127	0.369090	0.003930	0.296590
C3281	C328	0.338730	0.997130	0.270410
C3291	C329	0.370780	0.984120	0.245100
H2011	H201	0.393400	0.981000	0.244400
C3301	C330	0.368720	0.975860	0.220920
H2021	H202	0.390000	0.967400	0.203000
C3311	C331	0.335580	0.979840	0.222800
H2031	H203	0.334700	0.974100	0.205900
N1281	N128	0.304890	0.991430	0.247690
N1291	N129	0.202930	0.993730	0.259130
C3321	C332	0.202870	0.961630	0.264570
H2041	H204	0.225000	0.942000	0.263000
C3331	C333	0.172300	0.956020	0.272360
H2051	H205	0.173700	0.933100	0.275500
C3341	C334	0.139850	0.983510	0.275610
H2061	H206	0.118600	0.979800	0.281000
C3351	C335	0.306670	0.999690	0.271070
H2071	H207	0.285000	0.007600	0.289000
C3361	C336	0.138400	0.016960	0.270880
C3371	C337	0.170990	0.020470	0.262070
H2081	H208	0.170500	0.043300	0.257900
C3381	C338	0.104780	0.047580	0.272620
N1301	N130	0.077640	0.045000	0.272080
N1311	N131	0.033490	0.194530	0.760550
N1321	N132	0.035380	0.222140	0.963980
C3391	C339	0.039310	0.163550	0.777130
C3401	C340	0.058030	0.205450	0.945390
S271	S27	0.045910	0.121210	0.802090
S281	S28	0.089550	0.181430	0.919090
N1331	N133	0.032830	0.241530	0.789810
C3411	C341	0.027770	0.271630	0.793210
H2091	H209	0.018500	0.294300	0.776900
C3421	C342	0.035570	0.271110	0.819410
C3431	C343	0.049170	0.238390	0.843170
H2101	H210	0.053400	0.237400	0.862200
C3441	C344	0.056640	0.207220	0.838880
H2111	H211	0.067500	0.184300	0.853900
C3451	C345	0.048100	0.209800	0.812120
H2121	H212	0.053300	0.188100	0.809300
N1341	N134	0.000330	0.463090	0.742310
C3461	C346	0.998390	0.464210	0.713210
H2131	H213	0.995300	0.486500	0.693900
C3471	C347	0.000760	0.434260	0.710180
H2141	H214	0.998500	0.436300	0.689500
C3481	C348	0.006420	0.401100	0.737640
H2151	H215	0.008800	0.380000	0.735800
C3491	C349	0.008350	0.399910	0.768170
C3501	C350	0.005030	0.431490	0.769130
H2161	H216	0.006100	0.430700	0.789900
C3511	C351	0.011750	0.366610	0.799050
N1351	N135	0.022550	0.335650	0.793350
C3521	C352	0.025370	0.305770	0.823410
N1361	N136	0.018500	0.305220	0.855260
C3531	C353	0.007150	0.337610	0.858050
N1371	N137	0.003930	0.369090	0.830390
C3541	C354	0.997130	0.338730	0.893730
C3551	C355	0.984120	0.370780	0.900000
H2171	H217	0.981000	0.393400	0.881200
C3561	C356	0.975860	0.368720	0.934500
H2181	H218	0.967400	0.390000	0.939600
C3571	C357	0.979840	0.335580	0.961780
H2191	H219	0.974100	0.334700	0.985300
N1381	N138	0.991430	0.304890	0.955990
N1391	N139	0.993730	0.202930	0.044210
C3581	C358	0.961630	0.202870	0.070930
H2201	H220	0.942000	0.225000	0.070000
C3591	C359	0.956020	0.172300	0.099320
H2211	H221	0.933100	0.173700	0.117700
C3601	C360	0.983510	0.139850	0.101030
H2221	H222	0.979800	0.118600	0.120600
C3611	C361	0.999690	0.306670	0.922570
H2231	H223	0.007600	0.285000	0.918400
C3621	C362	0.016960	0.138400	0.073760
C3631	C363	0.020470	0.170990	0.046470
H2241	H224	0.043300	0.170500	0.028300
C3641	C364	0.047580	0.104780	0.075020
N1401	N140	0.045000	0.077640	0.105280
N1411	N141	0.760550	0.511430	0.033490
N1421	N142	0.963980	0.278500	0.035380
C3651	C365	0.777130	0.520010	0.039310
C3661	C366	0.945390	0.291130	0.058030
S291	S29	0.802090	0.530790	0.045910
S301	S30	0.919090	0.309930	0.089550
N1431	N143	0.789810	0.435830	0.032830
C3671	C367	0.793210	0.407390	0.027770
H2251	H225	0.776900	0.410300	0.018500
C3681	C368	0.819410	0.373910	0.035570
C3691	C369	0.843170	0.369270	0.049170
H2261	H226	0.862200	0.347000	0.053400
C3701	C370	0.838880	0.397260	0.056640
H2271	H227	0.853900	0.394300	0.067500
C3711	C371	0.812120	0.429980	0.048100
H2281	H228	0.809300	0.449300	0.053300
N1441	N144	0.742310	0.294270	0.000330
C3721	C372	0.713210	0.324190	0.998390
H2291	H229	0.693900	0.324300	0.995300
C3731	C373	0.710180	0.354800	0.000760
H2301	H230	0.689500	0.375700	0.998500
C3741	C374	0.737640	0.354840	0.006420
H2311	H231	0.735800	0.375400	0.008800
C3751	C375	0.768170	0.323570	0.008350
C3761	C376	0.769130	0.294350	0.005030
H2321	H232	0.789900	0.273300	0.006100
C3771	C377	0.799050	0.322590	0.011750
N1451	N145	0.793350	0.348450	0.022550
C3781	C378	0.823410	0.345450	0.025370
N1461	N146	0.855260	0.321020	0.018500
C3791	C379	0.858050	0.297190	0.007150
N1471	N147	0.830390	0.296590	0.003930
C3801	C380	0.893730	0.270410	0.997130
C3811	C381	0.900000	0.245100	0.984120
H2331	H233	0.881200	0.244400	0.981000
C3821	C382	0.934500	0.220920	0.975860
H2341	H234	0.939600	0.203000	0.967400
C3831	C383	0.961780	0.222800	0.979840
H2351	H235	0.985300	0.205900	0.974100
N1481	N148	0.955990	0.247690	0.991430
N1491	N149	0.044210	0.259130	0.993730
C3841	C384	0.070930	0.264570	0.961630
H2361	H236	0.070000	0.263000	0.942000
C3851	C385	0.099320	0.272360	0.956020
H2371	H237	0.117700	0.275500	0.933100
C3861	C386	0.101030	0.275610	0.983510
H2381	H238	0.120600	0.281000	0.979800
C3871	C387	0.922570	0.271070	0.999690
H2391	H239	0.918400	0.289000	0.007600
C3881	C388	0.073760	0.270880	0.016960
C3891	C389	0.046470	0.262070	0.020470
H2401	H240	0.028300	0.257900	0.043300
C3901	C390	0.075020	0.272620	0.047580
N1501	N150	0.105280	0.272080	0.045000
N1511	N151	0.511430	0.760550	0.194530
N1521	N152	0.278500	0.963980	0.222140
C3911	C391	0.520010	0.777130	0.163550
C3921	C392	0.291130	0.945390	0.205450
S311	S31	0.530790	0.802090	0.121210
S321	S32	0.309930	0.919090	0.181430
N1531	N153	0.435830	0.789810	0.241530
C3931	C393	0.407390	0.793210	0.271630
H2411	H241	0.410300	0.776900	0.294300
C3941	C394	0.373910	0.819410	0.271110
C3951	C395	0.369270	0.843170	0.238390
H2421	H242	0.347000	0.862200	0.237400
C3961	C396	0.397260	0.838880	0.207220
H2431	H243	0.394300	0.853900	0.184300
C3971	C397	0.429980	0.812120	0.209800
H2441	H244	0.449300	0.809300	0.188100
N1541	N154	0.294270	0.742310	0.463090
C3981	C398	0.324190	0.713210	0.464210
H2451	H245	0.324300	0.693900	0.486500
C3991	C399	0.354800	0.710180	0.434260
H2461	H246	0.375700	0.689500	0.436300
C4001	C400	0.354840	0.737640	0.401100
H2471	H247	0.375400	0.735800	0.380000
C4011	C401	0.323570	0.768170	0.399910
C4021	C402	0.294350	0.769130	0.431490
H2481	H248	0.273300	0.789900	0.430700
C4031	C403	0.322590	0.799050	0.366610
N1551	N155	0.348450	0.793350	0.335650
C4041	C404	0.345450	0.823410	0.305770
N1561	N156	0.321020	0.855260	0.305220
C4051	C405	0.297190	0.858050	0.337610
N1571	N157	0.296590	0.830390	0.369090
C4061	C406	0.270410	0.893730	0.338730
C4071	C407	0.245100	0.900000	0.370780
H2491	H249	0.244400	0.881200	0.393400
C4081	C408	0.220920	0.934500	0.368720
H2501	H250	0.203000	0.939600	0.390000
C4091	C409	0.222800	0.961780	0.335580
H2511	H251	0.205900	0.985300	0.334700
N1581	N158	0.247690	0.955990	0.304890
N1591	N159	0.259130	0.044210	0.202930
C4101	C410	0.264570	0.070930	0.202870
H2521	H252	0.263000	0.070000	0.225000
C4111	C411	0.272360	0.099320	0.172300
H2531	H253	0.275500	0.117700	0.173700
C4121	C412	0.275610	0.101030	0.139850
H2541	H254	0.281000	0.120600	0.118600
C4131	C413	0.271070	0.922570	0.306670
H2551	H255	0.289000	0.918400	0.285000
C4141	C414	0.270880	0.073760	0.138400
C4151	C415	0.262070	0.046470	0.170990
H2561	H256	0.257900	0.028300	0.170500
C4161	C416	0.272620	0.075020	0.104780
N1601	N160	0.272080	0.105280	0.077640
N1611	N161	0.760550	0.194530	0.511430
N1621	N162	0.963980	0.222140	0.278500
C4171	C417	0.777130	0.163550	0.520010
C4181	C418	0.945390	0.205450	0.291130
S331	S33	0.802090	0.121210	0.530790
S341	S34	0.919090	0.181430	0.309930
N1631	N163	0.789810	0.241530	0.435830
C4191	C419	0.793210	0.271630	0.407390
H2571	H257	0.776900	0.294300	0.410300
C4201	C420	0.819410	0.271110	0.373910
C4211	C421	0.843170	0.238390	0.369270
H2581	H258	0.862200	0.237400	0.347000
C4221	C422	0.838880	0.207220	0.397260
H2591	H259	0.853900	0.184300	0.394300
C4231	C423	0.812120	0.209800	0.429980
H2601	H260	0.809300	0.188100	0.449300
N1641	N164	0.742310	0.463090	0.294270
C4241	C424	0.713210	0.464210	0.324190
H2611	H261	0.693900	0.486500	0.324300
C4251	C425	0.710180	0.434260	0.354800
H2621	H262	0.689500	0.436300	0.375700
C4261	C426	0.737640	0.401100	0.354840
H2631	H263	0.735800	0.380000	0.375400
C4271	C427	0.768170	0.399910	0.323570
C4281	C428	0.769130	0.431490	0.294350
H2641	H264	0.789900	0.430700	0.273300
C4291	C429	0.799050	0.366610	0.322590
N1651	N165	0.793350	0.335650	0.348450
C4301	C430	0.823410	0.305770	0.345450
N1661	N166	0.855260	0.305220	0.321020
C4311	C431	0.858050	0.337610	0.297190
N1671	N167	0.830390	0.369090	0.296590
C4321	C432	0.893730	0.338730	0.270410
C4331	C433	0.900000	0.370780	0.245100
H2651	H265	0.881200	0.393400	0.244400
C4341	C434	0.934500	0.368720	0.220920
H2661	H266	0.939600	0.390000	0.203000
C4351	C435	0.961780	0.335580	0.222800
H2671	H267	0.985300	0.334700	0.205900
N1681	N168	0.955990	0.304890	0.247690
N1691	N169	0.044210	0.202930	0.259130
C4361	C436	0.070930	0.202870	0.264570
H2681	H268	0.070000	0.225000	0.263000
C4371	C437	0.099320	0.172300	0.272360
H2691	H269	0.117700	0.173700	0.275500
C4381	C438	0.101030	0.139850	0.275610
H2701	H270	0.120600	0.118600	0.281000
C4391	C439	0.922570	0.306670	0.271070
H2711	H271	0.918400	0.285000	0.289000
C4401	C440	0.073760	0.138400	0.270880
C4411	C441	0.046470	0.170990	0.262070
H2721	H272	0.028300	0.170500	0.257900
C4421	C442	0.075020	0.104780	0.272620
N1701	N170	0.105280	0.077640	0.272080
N1711	N171	0.511430	0.033490	0.760550
N1721	N172	0.278500	0.035380	0.963980
C4431	C443	0.520010	0.039310	0.777130
C4441	C444	0.291130	0.058030	0.945390
S351	S35	0.530790	0.045910	0.802090
S361	S36	0.309930	0.089550	0.919090
N1731	N173	0.435830	0.032830	0.789810
C4451	C445	0.407390	0.027770	0.793210
H2731	H273	0.410300	0.018500	0.776900
C4461	C446	0.373910	0.035570	0.819410
C4471	C447	0.369270	0.049170	0.843170
H2741	H274	0.347000	0.053400	0.862200
C4481	C448	0.397260	0.056640	0.838880
H2751	H275	0.394300	0.067500	0.853900
C4491	C449	0.429980	0.048100	0.812120
H2761	H276	0.449300	0.053300	0.809300
N1741	N174	0.294270	0.000330	0.742310
C4501	C450	0.324190	0.998390	0.713210
H2771	H277	0.324300	0.995300	0.693900
C4511	C451	0.354800	0.000760	0.710180
H2781	H278	0.375700	0.998500	0.689500
C4521	C452	0.354840	0.006420	0.737640
H2791	H279	0.375400	0.008800	0.735800
C4531	C453	0.323570	0.008350	0.768170
C4541	C454	0.294350	0.005030	0.769130
H2801	H280	0.273300	0.006100	0.789900
C4551	C455	0.322590	0.011750	0.799050
N1751	N175	0.348450	0.022550	0.793350
C4561	C456	0.345450	0.025370	0.823410
N1761	N176	0.321020	0.018500	0.855260
C4571	C457	0.297190	0.007150	0.858050
N1771	N177	0.296590	0.003930	0.830390
C4581	C458	0.270410	0.997130	0.893730
C4591	C459	0.245100	0.984120	0.900000
H2811	H281	0.244400	0.981000	0.881200
C4601	C460	0.220920	0.975860	0.934500
H2821	H282	0.203000	0.967400	0.939600
C4611	C461	0.222800	0.979840	0.961780
H2831	H283	0.205900	0.974100	0.985300
N1781	N178	0.247690	0.991430	0.955990
N1791	N179	0.259130	0.993730	0.044210
C4621	C462	0.264570	0.961630	0.070930
H2841	H284	0.263000	0.942000	0.070000
C4631	C463	0.272360	0.956020	0.099320
H2851	H285	0.275500	0.933100	0.117700
C4641	C464	0.275610	0.983510	0.101030
H2861	H286	0.281000	0.979800	0.120600
C4651	C465	0.271070	0.999690	0.922570
H2871	H287	0.289000	0.007600	0.918400
C4661	C466	0.270880	0.016960	0.073760
C4671	C467	0.262070	0.020470	0.046470
H2881	H288	0.257900	0.043300	0.028300
C4681	C468	0.272620	0.047580	0.075020
N1801	N180	0.272080	0.045000	0.105280
N1811	N181	0.194530	0.760550	0.033490
N1821	N182	0.222140	0.963980	0.035380
C4691	C469	0.163550	0.777130	0.039310
C4701	C470	0.205450	0.945390	0.058030
S371	S37	0.121210	0.802090	0.045910
S381	S38	0.181430	0.919090	0.089550
N1831	N183	0.241530	0.789810	0.032830
C4711	C471	0.271630	0.793210	0.027770
H2891	H289	0.294300	0.776900	0.018500
C4721	C472	0.271110	0.819410	0.035570
C4731	C473	0.238390	0.843170	0.049170
H2901	H290	0.237400	0.862200	0.053400
C4741	C474	0.207220	0.838880	0.056640
H2911	H291	0.184300	0.853900	0.067500
C4751	C475	0.209800	0.812120	0.048100
H2921	H292	0.188100	0.809300	0.053300
N1841	N184	0.463090	0.742310	0.000330
C4761	C476	0.464210	0.713210	0.998390
H2931	H293	0.486500	0.693900	0.995300
C4771	C477	0.434260	0.710180	0.000760
H2941	H294	0.436300	0.689500	0.998500
C4781	C478	0.401100	0.737640	0.006420
H2951	H295	0.380000	0.735800	0.008800
C4791	C479	0.399910	0.768170	0.008350
C4801	C480	0.431490	0.769130	0.005030
H2961	H296	0.430700	0.789900	0.006100
C4811	C481	0.366610	0.799050	0.011750
N1851	N185	0.335650	0.793350	0.022550
C4821	C482	0.305770	0.823410	0.025370
N1861	N186	0.305220	0.855260	0.018500
C4831	C483	0.337610	0.858050	0.007150
N1871	N187	0.369090	0.830390	0.003930
C4841	C484	0.338730	0.893730	0.997130
C4851	C485	0.370780	0.900000	0.984120
H2971	H297	0.393400	0.881200	0.981000
C4861	C486	0.368720	0.934500	0.975860
H2981	H298	0.390000	0.939600	0.967400
C4871	C487	0.335580	0.961780	0.979840
H2991	H299	0.334700	0.985300	0.974100
N1881	N188	0.304890	0.955990	0.991430
N1891	N189	0.202930	0.044210	0.993730
C4881	C488	0.202870	0.070930	0.961630
H3001	H300	0.225000	0.070000	0.942000
C4891	C489	0.172300	0.099320	0.956020
H3011	H301	0.173700	0.117700	0.933100
C4901	C490	0.139850	0.101030	0.983510
H3021	H302	0.118600	0.120600	0.979800
C4911	C491	0.306670	0.922570	0.999690
H3031	H303	0.285000	0.918400	0.007600
C4921	C492	0.138400	0.073760	0.016960
C4931	C493	0.170990	0.046470	0.020470
H3041	H304	0.170500	0.028300	0.043300
C4941	C494	0.104780	0.075020	0.047580
N1901	N190	0.077640	0.105280	0.045000
N1911	N191	0.033490	0.511430	0.194530
N1921	N192	0.035380	0.278500	0.222140
C4951	C495	0.039310	0.520010	0.163550
C4961	C496	0.058030	0.291130	0.205450
S391	S39	0.045910	0.530790	0.121210
S401	S40	0.089550	0.309930	0.181430
N1931	N193	0.032830	0.435830	0.241530
C4971	C497	0.027770	0.407390	0.271630
H3051	H305	0.018500	0.410300	0.294300
C4981	C498	0.035570	0.373910	0.271110
C4991	C499	0.049170	0.369270	0.238390
H3061	H306	0.053400	0.347000	0.237400
C5001	C500	0.056640	0.397260	0.207220
H3071	H307	0.067500	0.394300	0.184300
C5011	C501	0.048100	0.429980	0.209800
H3081	H308	0.053300	0.449300	0.188100
N1941	N194	0.000330	0.294270	0.463090
C5021	C502	0.998390	0.324190	0.464210
H3091	H309	0.995300	0.324300	0.486500
C5031	C503	0.000760	0.354800	0.434260
H3101	H310	0.998500	0.375700	0.436300
C5041	C504	0.006420	0.354840	0.401100
H3111	H311	0.008800	0.375400	0.380000
C5051	C505	0.008350	0.323570	0.399910
C5061	C506	0.005030	0.294350	0.431490
H3121	H312	0.006100	0.273300	0.430700
C5071	C507	0.011750	0.322590	0.366610
N1951	N195	0.022550	0.348450	0.335650
C5081	C508	0.025370	0.345450	0.305770
N1961	N196	0.018500	0.321020	0.305220
C5091	C509	0.007150	0.297190	0.337610
N1971	N197	0.003930	0.296590	0.369090
C5101	C510	0.997130	0.270410	0.338730
C5111	C511	0.984120	0.245100	0.370780
H3131	H313	0.981000	0.244400	0.393400
C5121	C512	0.975860	0.220920	0.368720
H3141	H314	0.967400	0.203000	0.390000
C5131	C513	0.979840	0.222800	0.335580
H3151	H315	0.974100	0.205900	0.334700
N1981	N198	0.991430	0.247690	0.304890
N1991	N199	0.993730	0.259130	0.202930
C5141	C514	0.961630	0.264570	0.202870
H3161	H316	0.942000	0.263000	0.225000
C5151	C515	0.956020	0.272360	0.172300
H3171	H317	0.933100	0.275500	0.173700
C5161	C516	0.983510	0.275610	0.139850
H3181	H318	0.979800	0.281000	0.118600
C5171	C517	0.999690	0.271070	0.306670
H3191	H319	0.007600	0.289000	0.285000
C5181	C518	0.016960	0.270880	0.138400
C5191	C519	0.020470	0.262070	0.170990
H3201	H320	0.043300	0.257900	0.170500
C5201	C520	0.047580	0.272620	0.104780
N2001	N200	0.045000	0.272080	0.077640
N2011	N201	0.033490	0.760550	0.511430
N2021	N202	0.035380	0.963980	0.278500
C5211	C521	0.039310	0.777130	0.520010
C5221	C522	0.058030	0.945390	0.291130
S411	S41	0.045910	0.802090	0.530790
S421	S42	0.089550	0.919090	0.309930
N2031	N203	0.032830	0.789810	0.435830
C5231	C523	0.027770	0.793210	0.407390
H3211	H321	0.018500	0.776900	0.410300
C5241	C524	0.035570	0.819410	0.373910
C5251	C525	0.049170	0.843170	0.369270
H3221	H322	0.053400	0.862200	0.347000
C5261	C526	0.056640	0.838880	0.397260
H3231	H323	0.067500	0.853900	0.394300
C5271	C527	0.048100	0.812120	0.429980
H3241	H324	0.053300	0.809300	0.449300
N2041	N204	0.000330	0.742310	0.294270
C5281	C528	0.998390	0.713210	0.324190
H3251	H325	0.995300	0.693900	0.324300
C5291	C529	0.000760	0.710180	0.354800
H3261	H326	0.998500	0.689500	0.375700
C5301	C530	0.006420	0.737640	0.354840
H3271	H327	0.008800	0.735800	0.375400
C5311	C531	0.008350	0.768170	0.323570
C5321	C532	0.005030	0.769130	0.294350
H3281	H328	0.006100	0.789900	0.273300
C5331	C533	0.011750	0.799050	0.322590
N2051	N205	0.022550	0.793350	0.348450
C5341	C534	0.025370	0.823410	0.345450
N2061	N206	0.018500	0.855260	0.321020
C5351	C535	0.007150	0.858050	0.297190
N2071	N207	0.003930	0.830390	0.296590
C5361	C536	0.997130	0.893730	0.270410
C5371	C537	0.984120	0.900000	0.245100
H3291	H329	0.981000	0.881200	0.244400
C5381	C538	0.975860	0.934500	0.220920
H3301	H330	0.967400	0.939600	0.203000
C5391	C539	0.979840	0.961780	0.222800
H3311	H331	0.974100	0.985300	0.205900
N2081	N208	0.991430	0.955990	0.247690
N2091	N209	0.993730	0.044210	0.259130
C5401	C540	0.961630	0.070930	0.264570
H3321	H332	0.942000	0.070000	0.263000
C5411	C541	0.956020	0.099320	0.272360
H3331	H333	0.933100	0.117700	0.275500
C5421	C542	0.983510	0.101030	0.275610
H3341	H334	0.979800	0.120600	0.281000
C5431	C543	0.999690	0.922570	0.271070
H3351	H335	0.007600	0.918400	0.289000
C5441	C544	0.016960	0.073760	0.270880
C5451	C545	0.020470	0.046470	0.262070
H3361	H336	0.043300	0.028300	0.257900
C5461	C546	0.047580	0.075020	0.272620
N2101	N210	0.045000	0.105280	0.272080
N2111	N211	0.194530	0.511430	0.760550
N2121	N212	0.222140	0.278500	0.963980
C5471	C547	0.163550	0.520010	0.777130
C5481	C548	0.205450	0.291130	0.945390
S431	S43	0.121210	0.530790	0.802090
S441	S44	0.181430	0.309930	0.919090
N2131	N213	0.241530	0.435830	0.789810
C5491	C549	0.271630	0.407390	0.793210
H3371	H337	0.294300	0.410300	0.776900
C5501	C550	0.271110	0.373910	0.819410
C5511	C551	0.238390	0.369270	0.843170
H3381	H338	0.237400	0.347000	0.862200
C5521	C552	0.207220	0.397260	0.838880
H3391	H339	0.184300	0.394300	0.853900
C5531	C553	0.209800	0.429980	0.812120
H3401	H340	0.188100	0.449300	0.809300
N2141	N214	0.463090	0.294270	0.742310
C5541	C554	0.464210	0.324190	0.713210
H3411	H341	0.486500	0.324300	0.693900
C5551	C555	0.434260	0.354800	0.710180
H3421	H342	0.436300	0.375700	0.689500
C5561	C556	0.401100	0.354840	0.737640
H3431	H343	0.380000	0.375400	0.735800
C5571	C557	0.399910	0.323570	0.768170
C5581	C558	0.431490	0.294350	0.769130
H3441	H344	0.430700	0.273300	0.789900
C5591	C559	0.366610	0.322590	0.799050
N2151	N215	0.335650	0.348450	0.793350
C5601	C560	0.305770	0.345450	0.823410
N2161	N216	0.305220	0.321020	0.855260
C5611	C561	0.337610	0.297190	0.858050
N2171	N217	0.369090	0.296590	0.830390
C5621	C562	0.338730	0.270410	0.893730
C5631	C563	0.370780	0.245100	0.900000
H3451	H345	0.393400	0.244400	0.881200
C5641	C564	0.368720	0.220920	0.934500
H3461	H346	0.390000	0.203000	0.939600
C5651	C565	0.335580	0.222800	0.961780
H3471	H347	0.334700	0.205900	0.985300
N2181	N218	0.304890	0.247690	0.955990
N2191	N219	0.202930	0.259130	0.044210
C5661	C566	0.202870	0.264570	0.070930
H3481	H348	0.225000	0.263000	0.070000
C5671	C567	0.172300	0.272360	0.099320
H3491	H349	0.173700	0.275500	0.117700
C5681	C568	0.139850	0.275610	0.101030
H3501	H350	0.118600	0.281000	0.120600
C5691	C569	0.306670	0.271070	0.922570
H3511	H351	0.285000	0.289000	0.918400
C5701	C570	0.138400	0.270880	0.073760
C5711	C571	0.170990	0.262070	0.046470
H3521	H352	0.170500	0.257900	0.028300
C5721	C572	0.104780	0.272620	0.075020
N2201	N220	0.077640	0.272080	0.105280
N2211	N221	0.511430	0.194530	0.033490
N2221	N222	0.278500	0.222140	0.035380
C5731	C573	0.520010	0.163550	0.039310
C5741	C574	0.291130	0.205450	0.058030
S451	S45	0.530790	0.121210	0.045910
S461	S46	0.309930	0.181430	0.089550
N2231	N223	0.435830	0.241530	0.032830
C5751	C575	0.407390	0.271630	0.027770
H3531	H353	0.410300	0.294300	0.018500
C5761	C576	0.373910	0.271110	0.035570
C5771	C577	0.369270	0.238390	0.049170
H3541	H354	0.347000	0.237400	0.053400
C5781	C578	0.397260	0.207220	0.056640
H3551	H355	0.394300	0.184300	0.067500
C5791	C579	0.429980	0.209800	0.048100
H3561	H356	0.449300	0.188100	0.053300
N2241	N224	0.294270	0.463090	0.000330
C5801	C580	0.324190	0.464210	0.998390
H3571	H357	0.324300	0.486500	0.995300
C5811	C581	0.354800	0.434260	0.000760
H3581	H358	0.375700	0.436300	0.998500
C5821	C582	0.354840	0.401100	0.006420
H3591	H359	0.375400	0.380000	0.008800
C5831	C583	0.323570	0.399910	0.008350
C5841	C584	0.294350	0.431490	0.005030
H3601	H360	0.273300	0.430700	0.006100
C5851	C585	0.322590	0.366610	0.011750
N2251	N225	0.348450	0.335650	0.022550
C5861	C586	0.345450	0.305770	0.025370
N2261	N226	0.321020	0.305220	0.018500
C5871	C587	0.297190	0.337610	0.007150
N2271	N227	0.296590	0.369090	0.003930
C5881	C588	0.270410	0.338730	0.997130
C5891	C589	0.245100	0.370780	0.984120
H3611	H361	0.244400	0.393400	0.981000
C5901	C590	0.220920	0.368720	0.975860
H3621	H362	0.203000	0.390000	0.967400
C5911	C591	0.222800	0.335580	0.979840
H3631	H363	0.205900	0.334700	0.974100
N2281	N228	0.247690	0.304890	0.991430
N2291	N229	0.259130	0.202930	0.993730
C5921	C592	0.264570	0.202870	0.961630
H3641	H364	0.263000	0.225000	0.942000
C5931	C593	0.272360	0.172300	0.956020
H3651	H365	0.275500	0.173700	0.933100
C5941	C594	0.275610	0.139850	0.983510
H3661	H366	0.281000	0.118600	0.979800
C5951	C595	0.271070	0.306670	0.999690
H3671	H367	0.289000	0.285000	0.007600
C5961	C596	0.270880	0.138400	0.016960
C5971	C597	0.262070	0.170990	0.020470
H3681	H368	0.257900	0.170500	0.043300
C5981	C598	0.272620	0.104780	0.047580
N2301	N230	0.272080	0.077640	0.045000
N2311	N231	0.760550	0.033490	0.194530
N2321	N232	0.963980	0.035380	0.222140
C5991	C599	0.777130	0.039310	0.163550
C6001	C600	0.945390	0.058030	0.205450
S471	S47	0.802090	0.045910	0.121210
S481	S48	0.919090	0.089550	0.181430
N2331	N233	0.789810	0.032830	0.241530
C6011	C601	0.793210	0.027770	0.271630
H3691	H369	0.776900	0.018500	0.294300
C6021	C602	0.819410	0.035570	0.271110
C6031	C603	0.843170	0.049170	0.238390
H3701	H370	0.862200	0.053400	0.237400
C6041	C604	0.838880	0.056640	0.207220
H3711	H371	0.853900	0.067500	0.184300
C6051	C605	0.812120	0.048100	0.209800
H3721	H372	0.809300	0.053300	0.188100
N2341	N234	0.742310	0.000330	0.463090
C6061	C606	0.713210	0.998390	0.464210
H3731	H373	0.693900	0.995300	0.486500
C6071	C607	0.710180	0.000760	0.434260
H3741	H374	0.689500	0.998500	0.436300
C6081	C608	0.737640	0.006420	0.401100
H3751	H375	0.735800	0.008800	0.380000
C6091	C609	0.768170	0.008350	0.399910
C6101	C610	0.769130	0.005030	0.431490
H3761	H376	0.789900	0.006100	0.430700
C6111	C611	0.799050	0.011750	0.366610
N2351	N235	0.793350	0.022550	0.335650
C6121	C612	0.823410	0.025370	0.305770
N2361	N236	0.855260	0.018500	0.305220
C6131	C613	0.858050	0.007150	0.337610
N2371	N237	0.830390	0.003930	0.369090
C6141	C614	0.893730	0.997130	0.338730
C6151	C615	0.900000	0.984120	0.370780
H3771	H377	0.881200	0.981000	0.393400
C6161	C616	0.934500	0.975860	0.368720
H3781	H378	0.939600	0.967400	0.390000
C6171	C617	0.961780	0.979840	0.335580
H3791	H379	0.985300	0.974100	0.334700
N2381	N238	0.955990	0.991430	0.304890
N2391	N239	0.044210	0.993730	0.202930
C6181	C618	0.070930	0.961630	0.202870
H3801	H380	0.070000	0.942000	0.225000
C6191	C619	0.099320	0.956020	0.172300
H3811	H381	0.117700	0.933100	0.173700
C6201	C620	0.101030	0.983510	0.139850
H3821	H382	0.120600	0.979800	0.118600
C6211	C621	0.922570	0.999690	0.306670
H3831	H383	0.918400	0.007600	0.285000
C6221	C622	0.073760	0.016960	0.138400
C6231	C623	0.046470	0.020470	0.170990
H3841	H384	0.028300	0.043300	0.170500
C6241	C624	0.075020	0.047580	0.104780
N2401	N240	0.105280	0.045000	0.077640
N2411	N241	0.694530	0.533490	0.260550
N2421	N242	0.722140	0.535380	0.463980
C6251	C625	0.663550	0.539310	0.277130
C6261	C626	0.705450	0.558030	0.445390
S491	S49	0.621210	0.545910	0.302090
S501	S50	0.681430	0.589550	0.419090
N2431	N243	0.741530	0.532830	0.289810
C6271	C627	0.771630	0.527770	0.293210
H3851	H385	0.794300	0.518500	0.276900
C6281	C628	0.771110	0.535570	0.319410
C6291	C629	0.738390	0.549170	0.343170
H3861	H386	0.737400	0.553400	0.362200
C6301	C630	0.707220	0.556640	0.338880
H3871	H387	0.684300	0.567500	0.353900
C6311	C631	0.709800	0.548100	0.312120
H3881	H388	0.688100	0.553300	0.309300
N2441	N244	0.963090	0.500330	0.242310
C6321	C632	0.964210	0.498390	0.213210
H3891	H389	0.986500	0.495300	0.193900
C6331	C633	0.934260	0.500760	0.210180
H3901	H390	0.936300	0.498500	0.189500
C6341	C634	0.901100	0.506420	0.237640
H3911	H391	0.880000	0.508800	0.235800
C6351	C635	0.899910	0.508350	0.268170
C6361	C636	0.931490	0.505030	0.269130
H3921	H392	0.930700	0.506100	0.289900
C6371	C637	0.866610	0.511750	0.299050
N2451	N245	0.835650	0.522550	0.293350
C6381	C638	0.805770	0.525370	0.323410
N2461	N246	0.805220	0.518500	0.355260
C6391	C639	0.837610	0.507150	0.358050
N2471	N247	0.869090	0.503930	0.330390
C6401	C640	0.838730	0.497130	0.393730
C6411	C641	0.870780	0.484120	0.400000
H3931	H393	0.893400	0.481000	0.381200
C6421	C642	0.868720	0.475860	0.434500
H3941	H394	0.890000	0.467400	0.439600
C6431	C643	0.835580	0.479840	0.461780
H3951	H395	0.834700	0.474100	0.485300
N2481	N248	0.804890	0.491430	0.455990
N2491	N249	0.702930	0.493730	0.544210
C6441	C644	0.702870	0.461630	0.570930
H3961	H396	0.725000	0.442000	0.570000
C6451	C645	0.672300	0.456020	0.599320
H3971	H397	0.673700	0.433100	0.617700
C6461	C646	0.639850	0.483510	0.601030
H3981	H398	0.618600	0.479800	0.620600
C6471	C647	0.806670	0.499690	0.422570
H3991	H399	0.785000	0.507600	0.418400
C6481	C648	0.638400	0.516960	0.573760
C6491	C649	0.670990	0.520470	0.546470
H4001	H400	0.670500	0.543300	0.528300
C6501	C650	0.604780	0.547580	0.575020
N2501	N250	0.577640	0.545000	0.605280
N2511	N251	0.533490	0.694530	0.011430
N2521	N252	0.535380	0.722140	0.778500
C6511	C651	0.539310	0.663550	0.020010
C6521	C652	0.558030	0.705450	0.791130
S511	S51	0.545910	0.621210	0.030790
S521	S52	0.589550	0.681430	0.809930
N2531	N253	0.532830	0.741530	0.935830
C6531	C653	0.527770	0.771630	0.907390
H4011	H401	0.518500	0.794300	0.910300
C6541	C654	0.535570	0.771110	0.873910
C6551	C655	0.549170	0.738390	0.869270
H4021	H402	0.553400	0.737400	0.847000
C6561	C656	0.556640	0.707220	0.897260
H4031	H403	0.567500	0.684300	0.894300
C6571	C657	0.548100	0.709800	0.929980
H4041	H404	0.553300	0.688100	0.949300
N2541	N254	0.500330	0.963090	0.794270
C6581	C658	0.498390	0.964210	0.824190
H4051	H405	0.495300	0.986500	0.824300
C6591	C659	0.500760	0.934260	0.854800
H4061	H406	0.498500	0.936300	0.875700
C6601	C660	0.506420	0.901100	0.854840
H4071	H407	0.508800	0.880000	0.875400
C6611	C661	0.508350	0.899910	0.823570
C6621	C662	0.505030	0.931490	0.794350
H4081	H408	0.506100	0.930700	0.773300
C6631	C663	0.511750	0.866610	0.822590
N2551	N255	0.522550	0.835650	0.848450
C6641	C664	0.525370	0.805770	0.845450
N2561	N256	0.518500	0.805220	0.821020
C6651	C665	0.507150	0.837610	0.797190
N2571	N257	0.503930	0.869090	0.796590
C6661	C666	0.497130	0.838730	0.770410
C6671	C667	0.484120	0.870780	0.745100
H4091	H409	0.481000	0.893400	0.744400
C6681	C668	0.475860	0.868720	0.720920
H4101	H410	0.467400	0.890000	0.703000
C6691	C669	0.479840	0.835580	0.722800
H4111	H411	0.474100	0.834700	0.705900
N2581	N258	0.491430	0.804890	0.747690
N2591	N259	0.493730	0.702930	0.759130
C6701	C670	0.461630	0.702870	0.764570
H4121	H412	0.442000	0.725000	0.763000
C6711	C671	0.456020	0.672300	0.772360
H4131	H413	0.433100	0.673700	0.775500
C6721	C672	0.483510	0.639850	0.775610
H4141	H414	0.479800	0.618600	0.781000
C6731	C673	0.499690	0.806670	0.771070
H4151	H415	0.507600	0.785000	0.789000
C6741	C674	0.516960	0.638400	0.770880
C6751	C675	0.520470	0.670990	0.762070
H4161	H416	0.543300	0.670500	0.757900
C6761	C676	0.547580	0.604780	0.772620
N2601	N260	0.545000	0.577640	0.772080
N2611	N261	0.260550	0.011430	0.694530
N2621	N262	0.463980	0.778500	0.722140
C6771	C677	0.277130	0.020010	0.663550
C6781	C678	0.445390	0.791130	0.705450
S531	S53	0.302090	0.030790	0.621210
S541	S54	0.419090	0.809930	0.681430
N2631	N263	0.289810	0.935830	0.741530
C6791	C679	0.293210	0.907390	0.771630
H4171	H417	0.276900	0.910300	0.794300
C6801	C680	0.319410	0.873910	0.771110
C6811	C681	0.343170	0.869270	0.738390
H4181	H418	0.362200	0.847000	0.737400
C6821	C682	0.338880	0.897260	0.707220
H4191	H419	0.353900	0.894300	0.684300
C6831	C683	0.312120	0.929980	0.709800
H4201	H420	0.309300	0.949300	0.688100
N2641	N264	0.242310	0.794270	0.963090
C6841	C684	0.213210	0.824190	0.964210
H4211	H421	0.193900	0.824300	0.986500
C6851	C685	0.210180	0.854800	0.934260
H4221	H422	0.189500	0.875700	0.936300
C6861	C686	0.237640	0.854840	0.901100
H4231	H423	0.235800	0.875400	0.880000
C6871	C687	0.268170	0.823570	0.899910
C6881	C688	0.269130	0.794350	0.931490
H4241	H424	0.289900	0.773300	0.930700
C6891	C689	0.299050	0.822590	0.866610
N2651	N265	0.293350	0.848450	0.835650
C6901	C690	0.323410	0.845450	0.805770
N2661	N266	0.355260	0.821020	0.805220
C6911	C691	0.358050	0.797190	0.837610
N2671	N267	0.330390	0.796590	0.869090
C6921	C692	0.393730	0.770410	0.838730
C6931	C693	0.400000	0.745100	0.870780
H4251	H425	0.381200	0.744400	0.893400
C6941	C694	0.434500	0.720920	0.868720
H4261	H426	0.439600	0.703000	0.890000
C6951	C695	0.461780	0.722800	0.835580
H4271	H427	0.485300	0.705900	0.834700
N2681	N268	0.455990	0.747690	0.804890
N2691	N269	0.544210	0.759130	0.702930
C6961	C696	0.570930	0.764570	0.702870
H4281	H428	0.570000	0.763000	0.725000
C6971	C697	0.599320	0.772360	0.672300
H4291	H429	0.617700	0.775500	0.673700
C6981	C698	0.601030	0.775610	0.639850
H4301	H430	0.620600	0.781000	0.618600
C6991	C699	0.422570	0.771070	0.806670
H4311	H431	0.418400	0.789000	0.785000
C7001	C700	0.573760	0.770880	0.638400
C7011	C701	0.546470	0.762070	0.670990
H4321	H432	0.528300	0.757900	0.670500
C7021	C702	0.575020	0.772620	0.604780
N2701	N270	0.605280	0.772080	0.577640
N2711	N271	0.011430	0.260550	0.533490
N2721	N272	0.778500	0.463980	0.535380
C7031	C703	0.020010	0.277130	0.539310
C7041	C704	0.791130	0.445390	0.558030
S551	S55	0.030790	0.302090	0.545910
S561	S56	0.809930	0.419090	0.589550
N2731	N273	0.935830	0.289810	0.532830
C7051	C705	0.907390	0.293210	0.527770
H4331	H433	0.910300	0.276900	0.518500
C7061	C706	0.873910	0.319410	0.535570
C7071	C707	0.869270	0.343170	0.549170
H4341	H434	0.847000	0.362200	0.553400
C7081	C708	0.897260	0.338880	0.556640
H4351	H435	0.894300	0.353900	0.567500
C7091	C709	0.929980	0.312120	0.548100
H4361	H436	0.949300	0.309300	0.553300
N2741	N274	0.794270	0.242310	0.500330
C7101	C710	0.824190	0.213210	0.498390
H4371	H437	0.824300	0.193900	0.495300
C7111	C711	0.854800	0.210180	0.500760
H4381	H438	0.875700	0.189500	0.498500
C7121	C712	0.854840	0.237640	0.506420
H4391	H439	0.875400	0.235800	0.508800
C7131	C713	0.823570	0.268170	0.508350
C7141	C714	0.794350	0.269130	0.505030
H4401	H440	0.773300	0.289900	0.506100
C7151	C715	0.822590	0.299050	0.511750
N2751	N275	0.848450	0.293350	0.522550
C7161	C716	0.845450	0.323410	0.525370
N2761	N276	0.821020	0.355260	0.518500
C7171	C717	0.797190	0.358050	0.507150
N2771	N277	0.796590	0.330390	0.503930
C7181	C718	0.770410	0.393730	0.497130
C7191	C719	0.745100	0.400000	0.484120
H4411	H441	0.744400	0.381200	0.481000
C7201	C720	0.720920	0.434500	0.475860
H4421	H442	0.703000	0.439600	0.467400
C7211	C721	0.722800	0.461780	0.479840
H4431	H443	0.705900	0.485300	0.474100
N2781	N278	0.747690	0.455990	0.491430
N2791	N279	0.759130	0.544210	0.493730
C7221	C722	0.764570	0.570930	0.461630
H4441	H444	0.763000	0.570000	0.442000
C7231	C723	0.772360	0.599320	0.456020
H4451	H445	0.775500	0.617700	0.433100
C7241	C724	0.775610	0.601030	0.483510
H4461	H446	0.781000	0.620600	0.479800
C7251	C725	0.771070	0.422570	0.499690
H4471	H447	0.789000	0.418400	0.507600
C7261	C726	0.770880	0.573760	0.516960
C7271	C727	0.762070	0.546470	0.520470
H4481	H448	0.757900	0.528300	0.543300
C7281	C728	0.772620	0.575020	0.547580
N2801	N280	0.772080	0.605280	0.545000
N2811	N281	0.260550	0.694530	0.533490
N2821	N282	0.463980	0.722140	0.535380
C7291	C729	0.277130	0.663550	0.539310
C7301	C730	0.445390	0.705450	0.558030
S571	S57	0.302090	0.621210	0.545910
S581	S58	0.419090	0.681430	0.589550
N2831	N283	0.289810	0.741530	0.532830
C7311	C731	0.293210	0.771630	0.527770
H4491	H449	0.276900	0.794300	0.518500
C7321	C732	0.319410	0.771110	0.535570
C7331	C733	0.343170	0.738390	0.549170
H4501	H450	0.362200	0.737400	0.553400
C7341	C734	0.338880	0.707220	0.556640
H4511	H451	0.353900	0.684300	0.567500
C7351	C735	0.312120	0.709800	0.548100
H4521	H452	0.309300	0.688100	0.553300
N2841	N284	0.242310	0.963090	0.500330
C7361	C736	0.213210	0.964210	0.498390
H4531	H453	0.193900	0.986500	0.495300
C7371	C737	0.210180	0.934260	0.500760
H4541	H454	0.189500	0.936300	0.498500
C7381	C738	0.237640	0.901100	0.506420
H4551	H455	0.235800	0.880000	0.508800
C7391	C739	0.268170	0.899910	0.508350
C7401	C740	0.269130	0.931490	0.505030
H4561	H456	0.289900	0.930700	0.506100
C7411	C741	0.299050	0.866610	0.511750
N2851	N285	0.293350	0.835650	0.522550
C7421	C742	0.323410	0.805770	0.525370
N2861	N286	0.355260	0.805220	0.518500
C7431	C743	0.358050	0.837610	0.507150
N2871	N287	0.330390	0.869090	0.503930
C7441	C744	0.393730	0.838730	0.497130
C7451	C745	0.400000	0.870780	0.484120
H4571	H457	0.381200	0.893400	0.481000
C7461	C746	0.434500	0.868720	0.475860
H4581	H458	0.439600	0.890000	0.467400
C7471	C747	0.461780	0.835580	0.479840
H4591	H459	0.485300	0.834700	0.474100
N2881	N288	0.455990	0.804890	0.491430
N2891	N289	0.544210	0.702930	0.493730
C7481	C748	0.570930	0.702870	0.461630
H4601	H460	0.570000	0.725000	0.442000
C7491	C749	0.599320	0.672300	0.456020
H4611	H461	0.617700	0.673700	0.433100
C7501	C750	0.601030	0.639850	0.483510
H4621	H462	0.620600	0.618600	0.479800
C7511	C751	0.422570	0.806670	0.499690
H4631	H463	0.418400	0.785000	0.507600
C7521	C752	0.573760	0.638400	0.516960
C7531	C753	0.546470	0.670990	0.520470
H4641	H464	0.528300	0.670500	0.543300
C7541	C754	0.575020	0.604780	0.547580
N2901	N290	0.605280	0.577640	0.545000
N2911	N291	0.011430	0.533490	0.694530
N2921	N292	0.778500	0.535380	0.722140
C7551	C755	0.020010	0.539310	0.663550
C7561	C756	0.791130	0.558030	0.705450
S591	S59	0.030790	0.545910	0.621210
S601	S60	0.809930	0.589550	0.681430
N2931	N293	0.935830	0.532830	0.741530
C7571	C757	0.907390	0.527770	0.771630
H4651	H465	0.910300	0.518500	0.794300
C7581	C758	0.873910	0.535570	0.771110
C7591	C759	0.869270	0.549170	0.738390
H4661	H466	0.847000	0.553400	0.737400
C7601	C760	0.897260	0.556640	0.707220
H4671	H467	0.894300	0.567500	0.684300
C7611	C761	0.929980	0.548100	0.709800
H4681	H468	0.949300	0.553300	0.688100
N2941	N294	0.794270	0.500330	0.963090
C7621	C762	0.824190	0.498390	0.964210
H4691	H469	0.824300	0.495300	0.986500
C7631	C763	0.854800	0.500760	0.934260
H4701	H470	0.875700	0.498500	0.936300
C7641	C764	0.854840	0.506420	0.901100
H4711	H471	0.875400	0.508800	0.880000
C7651	C765	0.823570	0.508350	0.899910
C7661	C766	0.794350	0.505030	0.931490
H4721	H472	0.773300	0.506100	0.930700
C7671	C767	0.822590	0.511750	0.866610
N2951	N295	0.848450	0.522550	0.835650
C7681	C768	0.845450	0.525370	0.805770
N2961	N296	0.821020	0.518500	0.805220
C7691	C769	0.797190	0.507150	0.837610
N2971	N297	0.796590	0.503930	0.869090
C7701	C770	0.770410	0.497130	0.838730
C7711	C771	0.745100	0.484120	0.870780
H4731	H473	0.744400	0.481000	0.893400
C7721	C772	0.720920	0.475860	0.868720
H4741	H474	0.703000	0.467400	0.890000
C7731	C773	0.722800	0.479840	0.835580
H4751	H475	0.705900	0.474100	0.834700
N2981	N298	0.747690	0.491430	0.804890
N2991	N299	0.759130	0.493730	0.702930
C7741	C774	0.764570	0.461630	0.702870
H4761	H476	0.763000	0.442000	0.725000
C7751	C775	0.772360	0.456020	0.672300
H4771	H477	0.775500	0.433100	0.673700
C7761	C776	0.775610	0.483510	0.639850
H4781	H478	0.781000	0.479800	0.618600
C7771	C777	0.771070	0.499690	0.806670
H4791	H479	0.789000	0.507600	0.785000
C7781	C778	0.770880	0.516960	0.638400
C7791	C779	0.762070	0.520470	0.670990
H4801	H480	0.757900	0.543300	0.670500
C7801	C780	0.772620	0.547580	0.604780
N3001	N300	0.772080	0.545000	0.577640
N3011	N301	0.694530	0.260550	0.011430
N3021	N302	0.722140	0.463980	0.778500
C7811	C781	0.663550	0.277130	0.020010
C7821	C782	0.705450	0.445390	0.791130
S611	S61	0.621210	0.302090	0.030790
S621	S62	0.681430	0.419090	0.809930
N3031	N303	0.741530	0.289810	0.935830
C7831	C783	0.771630	0.293210	0.907390
H4811	H481	0.794300	0.276900	0.910300
C7841	C784	0.771110	0.319410	0.873910
C7851	C785	0.738390	0.343170	0.869270
H4821	H482	0.737400	0.362200	0.847000
C7861	C786	0.707220	0.338880	0.897260
H4831	H483	0.684300	0.353900	0.894300
C7871	C787	0.709800	0.312120	0.929980
H4841	H484	0.688100	0.309300	0.949300
N3041	N304	0.963090	0.242310	0.794270
C7881	C788	0.964210	0.213210	0.824190
H4851	H485	0.986500	0.193900	0.824300
C7891	C789	0.934260	0.210180	0.854800
H4861	H486	0.936300	0.189500	0.875700
C7901	C790	0.901100	0.237640	0.854840
H4871	H487	0.880000	0.235800	0.875400
C7911	C791	0.899910	0.268170	0.823570
C7921	C792	0.931490	0.269130	0.794350
H4881	H488	0.930700	0.289900	0.773300
C7931	C793	0.866610	0.299050	0.822590
N3051	N305	0.835650	0.293350	0.848450
C7941	C794	0.805770	0.323410	0.845450
N3061	N306	0.805220	0.355260	0.821020
C7951	C795	0.837610	0.358050	0.797190
N3071	N307	0.869090	0.330390	0.796590
C7961	C796	0.838730	0.393730	0.770410
C7971	C797	0.870780	0.400000	0.745100
H4891	H489	0.893400	0.381200	0.744400
C7981	C798	0.868720	0.434500	0.720920
H4901	H490	0.890000	0.439600	0.703000
C7991	C799	0.835580	0.461780	0.722800
H4911	H491	0.834700	0.485300	0.705900
N3081	N308	0.804890	0.455990	0.747690
N3091	N309	0.702930	0.544210	0.759130
C8001	C800	0.702870	0.570930	0.764570
H4921	H492	0.725000	0.570000	0.763000
C8011	C801	0.672300	0.599320	0.772360
H4931	H493	0.673700	0.617700	0.775500
C8021	C802	0.639850	0.601030	0.775610
H4941	H494	0.618600	0.620600	0.781000
C8031	C803	0.806670	0.422570	0.771070
H4951	H495	0.785000	0.418400	0.789000
C8041	C804	0.638400	0.573760	0.770880
C8051	C805	0.670990	0.546470	0.762070
H4961	H496	0.670500	0.528300	0.757900
C8061	C806	0.604780	0.575020	0.772620
N3101	N310	0.577640	0.605280	0.772080
N3111	N311	0.533490	0.011430	0.260550
N3121	N312	0.535380	0.778500	0.463980
C8071	C807	0.539310	0.020010	0.277130
C8081	C808	0.558030	0.791130	0.445390
S631	S63	0.545910	0.030790	0.302090
S641	S64	0.589550	0.809930	0.419090
N3131	N313	0.532830	0.935830	0.289810
C8091	C809	0.527770	0.907390	0.293210
H4971	H497	0.518500	0.910300	0.276900
C8101	C810	0.535570	0.873910	0.319410
C8111	C811	0.549170	0.869270	0.343170
H4981	H498	0.553400	0.847000	0.362200
C8121	C812	0.556640	0.897260	0.338880
H4991	H499	0.567500	0.894300	0.353900
C8131	C813	0.548100	0.929980	0.312120
H5001	H500	0.553300	0.949300	0.309300
N3141	N314	0.500330	0.794270	0.242310
C8141	C814	0.498390	0.824190	0.213210
H5011	H501	0.495300	0.824300	0.193900
C8151	C815	0.500760	0.854800	0.210180
H5021	H502	0.498500	0.875700	0.189500
C8161	C816	0.506420	0.854840	0.237640
H5031	H503	0.508800	0.875400	0.235800
C8171	C817	0.508350	0.823570	0.268170
C8181	C818	0.505030	0.794350	0.269130
H5041	H504	0.506100	0.773300	0.289900
C8191	C819	0.511750	0.822590	0.299050
N3151	N315	0.522550	0.848450	0.293350
C8201	C820	0.525370	0.845450	0.323410
N3161	N316	0.518500	0.821020	0.355260
C8211	C821	0.507150	0.797190	0.358050
N3171	N317	0.503930	0.796590	0.330390
C8221	C822	0.497130	0.770410	0.393730
C8231	C823	0.484120	0.745100	0.400000
H5051	H505	0.481000	0.744400	0.381200
C8241	C824	0.475860	0.720920	0.434500
H5061	H506	0.467400	0.703000	0.439600
C8251	C825	0.479840	0.722800	0.461780
H5071	H507	0.474100	0.705900	0.485300
N3181	N318	0.491430	0.747690	0.455990
N3191	N319	0.493730	0.759130	0.544210
C8261	C826	0.461630	0.764570	0.570930
H5081	H508	0.442000	0.763000	0.570000
C8271	C827	0.456020	0.772360	0.599320
H5091	H509	0.433100	0.775500	0.617700
C8281	C828	0.483510	0.775610	0.601030
H5101	H510	0.479800	0.781000	0.620600
C8291	C829	0.499690	0.771070	0.422570
H5111	H511	0.507600	0.789000	0.418400
C8301	C830	0.516960	0.770880	0.573760
C8311	C831	0.520470	0.762070	0.546470
H5121	H512	0.543300	0.757900	0.528300
C8321	C832	0.547580	0.772620	0.575020
N3201	N320	0.545000	0.772080	0.605280
N3211	N321	0.533490	0.260550	0.694530
N3221	N322	0.535380	0.463980	0.722140
C8331	C833	0.539310	0.277130	0.663550
C8341	C834	0.558030	0.445390	0.705450
S651	S65	0.545910	0.302090	0.621210
S661	S66	0.589550	0.419090	0.681430
N3231	N323	0.532830	0.289810	0.741530
C8351	C835	0.527770	0.293210	0.771630
H5131	H513	0.518500	0.276900	0.794300
C8361	C836	0.535570	0.319410	0.771110
C8371	C837	0.549170	0.343170	0.738390
H5141	H514	0.553400	0.362200	0.737400
C8381	C838	0.556640	0.338880	0.707220
H5151	H515	0.567500	0.353900	0.684300
C8391	C839	0.548100	0.312120	0.709800
H5161	H516	0.553300	0.309300	0.688100
N3241	N324	0.500330	0.242310	0.963090
C8401	C840	0.498390	0.213210	0.964210
H5171	H517	0.495300	0.193900	0.986500
C8411	C841	0.500760	0.210180	0.934260
H5181	H518	0.498500	0.189500	0.936300
C8421	C842	0.506420	0.237640	0.901100
H5191	H519	0.508800	0.235800	0.880000
C8431	C843	0.508350	0.268170	0.899910
C8441	C844	0.505030	0.269130	0.931490
H5201	H520	0.506100	0.289900	0.930700
C8451	C845	0.511750	0.299050	0.866610
N3251	N325	0.522550	0.293350	0.835650
C8461	C846	0.525370	0.323410	0.805770
N3261	N326	0.518500	0.355260	0.805220
C8471	C847	0.507150	0.358050	0.837610
N3271	N327	0.503930	0.330390	0.869090
C8481	C848	0.497130	0.393730	0.838730
C8491	C849	0.484120	0.400000	0.870780
H5211	H521	0.481000	0.381200	0.893400
C8501	C850	0.475860	0.434500	0.868720
H5221	H522	0.467400	0.439600	0.890000
C8511	C851	0.479840	0.461780	0.835580
H5231	H523	0.474100	0.485300	0.834700
N3281	N328	0.491430	0.455990	0.804890
N3291	N329	0.493730	0.544210	0.702930
C8521	C852	0.461630	0.570930	0.702870
H5241	H524	0.442000	0.570000	0.725000
C8531	C853	0.456020	0.599320	0.672300
H5251	H525	0.433100	0.617700	0.673700
C8541	C854	0.483510	0.601030	0.639850
H5261	H526	0.479800	0.620600	0.618600
C8551	C855	0.499690	0.422570	0.806670
H5271	H527	0.507600	0.418400	0.785000
C8561	C856	0.516960	0.573760	0.638400
C8571	C857	0.520470	0.546470	0.670990
H5281	H528	0.543300	0.528300	0.670500
C8581	C858	0.547580	0.575020	0.604780
N3301	N330	0.545000	0.605280	0.577640
N3311	N331	0.694530	0.011430	0.533490
N3321	N332	0.722140	0.778500	0.535380
C8591	C859	0.663550	0.020010	0.539310
C8601	C860	0.705450	0.791130	0.558030
S671	S67	0.621210	0.030790	0.545910
S681	S68	0.681430	0.809930	0.589550
N3331	N333	0.741530	0.935830	0.532830
C8611	C861	0.771630	0.907390	0.527770
H5291	H529	0.794300	0.910300	0.518500
C8621	C862	0.771110	0.873910	0.535570
C8631	C863	0.738390	0.869270	0.549170
H5301	H530	0.737400	0.847000	0.553400
C8641	C864	0.707220	0.897260	0.556640
H5311	H531	0.684300	0.894300	0.567500
C8651	C865	0.709800	0.929980	0.548100
H5321	H532	0.688100	0.949300	0.553300
N3341	N334	0.963090	0.794270	0.500330
C8661	C866	0.964210	0.824190	0.498390
H5331	H533	0.986500	0.824300	0.495300
C8671	C867	0.934260	0.854800	0.500760
H5341	H534	0.936300	0.875700	0.498500
C8681	C868	0.901100	0.854840	0.506420
H5351	H535	0.880000	0.875400	0.508800
C8691	C869	0.899910	0.823570	0.508350
C8701	C870	0.931490	0.794350	0.505030
H5361	H536	0.930700	0.773300	0.506100
C8711	C871	0.866610	0.822590	0.511750
N3351	N335	0.835650	0.848450	0.522550
C8721	C872	0.805770	0.845450	0.525370
N3361	N336	0.805220	0.821020	0.518500
C8731	C873	0.837610	0.797190	0.507150
N3371	N337	0.869090	0.796590	0.503930
C8741	C874	0.838730	0.770410	0.497130
C8751	C875	0.870780	0.745100	0.484120
H5371	H537	0.893400	0.744400	0.481000
C8761	C876	0.868720	0.720920	0.475860
H5381	H538	0.890000	0.703000	0.467400
C8771	C877	0.835580	0.722800	0.479840
H5391	H539	0.834700	0.705900	0.474100
N3381	N338	0.804890	0.747690	0.491430
N3391	N339	0.702930	0.759130	0.493730
C8781	C878	0.702870	0.764570	0.461630
H5401	H540	0.725000	0.763000	0.442000
C8791	C879	0.672300	0.772360	0.456020
H5411	H541	0.673700	0.775500	0.433100
C8801	C880	0.639850	0.775610	0.483510
H5421	H542	0.618600	0.781000	0.479800
C8811	C881	0.806670	0.771070	0.499690
H5431	H543	0.785000	0.789000	0.507600
C8821	C882	0.638400	0.770880	0.516960
C8831	C883	0.670990	0.762070	0.520470
H5441	H544	0.670500	0.757900	0.543300
C8841	C884	0.604780	0.772620	0.547580
N3401	N340	0.577640	0.772080	0.545000
N3411	N341	0.011430	0.694530	0.260550
N3421	N342	0.778500	0.722140	0.463980
C8851	C885	0.020010	0.663550	0.277130
C8861	C886	0.791130	0.705450	0.445390
S691	S69	0.030790	0.621210	0.302090
S701	S70	0.809930	0.681430	0.419090
N3431	N343	0.935830	0.741530	0.289810
C8871	C887	0.907390	0.771630	0.293210
H5451	H545	0.910300	0.794300	0.276900
C8881	C888	0.873910	0.771110	0.319410
C8891	C889	0.869270	0.738390	0.343170
H5461	H546	0.847000	0.737400	0.362200
C8901	C890	0.897260	0.707220	0.338880
H5471	H547	0.894300	0.684300	0.353900
C8911	C891	0.929980	0.709800	0.312120
H5481	H548	0.949300	0.688100	0.309300
N3441	N344	0.794270	0.963090	0.242310
C8921	C892	0.824190	0.964210	0.213210
H5491	H549	0.824300	0.986500	0.193900
C8931	C893	0.854800	0.934260	0.210180
H5501	H550	0.875700	0.936300	0.189500
C8941	C894	0.854840	0.901100	0.237640
H5511	H551	0.875400	0.880000	0.235800
C8951	C895	0.823570	0.899910	0.268170
C8961	C896	0.794350	0.931490	0.269130
H5521	H552	0.773300	0.930700	0.289900
C8971	C897	0.822590	0.866610	0.299050
N3451	N345	0.848450	0.835650	0.293350
C8981	C898	0.845450	0.805770	0.323410
N3461	N346	0.821020	0.805220	0.355260
C8991	C899	0.797190	0.837610	0.358050
N3471	N347	0.796590	0.869090	0.330390
C9001	C900	0.770410	0.838730	0.393730
C9011	C901	0.745100	0.870780	0.400000
H5531	H553	0.744400	0.893400	0.381200
C9021	C902	0.720920	0.868720	0.434500
H5541	H554	0.703000	0.890000	0.439600
C9031	C903	0.722800	0.835580	0.461780
H5551	H555	0.705900	0.834700	0.485300
N3481	N348	0.747690	0.804890	0.455990
N3491	N349	0.759130	0.702930	0.544210
C9041	C904	0.764570	0.702870	0.570930
H5561	H556	0.763000	0.725000	0.570000
C9051	C905	0.772360	0.672300	0.599320
H5571	H557	0.775500	0.673700	0.617700
C9061	C906	0.775610	0.639850	0.601030
H5581	H558	0.781000	0.618600	0.620600
C9071	C907	0.771070	0.806670	0.422570
H5591	H559	0.789000	0.785000	0.418400
C9081	C908	0.770880	0.638400	0.573760
C9091	C909	0.762070	0.670990	0.546470
H5601	H560	0.757900	0.670500	0.528300
C9101	C910	0.772620	0.604780	0.575020
N3501	N350	0.772080	0.577640	0.605280
N3511	N351	0.260550	0.533490	0.011430
N3521	N352	0.463980	0.535380	0.778500
C9111	C911	0.277130	0.539310	0.020010
C9121	C912	0.445390	0.558030	0.791130
S711	S71	0.302090	0.545910	0.030790
S721	S72	0.419090	0.589550	0.809930
N3531	N353	0.289810	0.532830	0.935830
C9131	C913	0.293210	0.527770	0.907390
H5611	H561	0.276900	0.518500	0.910300
C9141	C914	0.319410	0.535570	0.873910
C9151	C915	0.343170	0.549170	0.869270
H5621	H562	0.362200	0.553400	0.847000
C9161	C916	0.338880	0.556640	0.897260
H5631	H563	0.353900	0.567500	0.894300
C9171	C917	0.312120	0.548100	0.929980
H5641	H564	0.309300	0.553300	0.949300
N3541	N354	0.242310	0.500330	0.794270
C9181	C918	0.213210	0.498390	0.824190
H5651	H565	0.193900	0.495300	0.824300
C9191	C919	0.210180	0.500760	0.854800
H5661	H566	0.189500	0.498500	0.875700
C9201	C920	0.237640	0.506420	0.854840
H5671	H567	0.235800	0.508800	0.875400
C9211	C921	0.268170	0.508350	0.823570
C9221	C922	0.269130	0.505030	0.794350
H5681	H568	0.289900	0.506100	0.773300
C9231	C923	0.299050	0.511750	0.822590
N3551	N355	0.293350	0.522550	0.848450
C9241	C924	0.323410	0.525370	0.845450
N3561	N356	0.355260	0.518500	0.821020
C9251	C925	0.358050	0.507150	0.797190
N3571	N357	0.330390	0.503930	0.796590
C9261	C926	0.393730	0.497130	0.770410
C9271	C927	0.400000	0.484120	0.745100
H5691	H569	0.381200	0.481000	0.744400
C9281	C928	0.434500	0.475860	0.720920
H5701	H570	0.439600	0.467400	0.703000
C9291	C929	0.461780	0.479840	0.722800
H5711	H571	0.485300	0.474100	0.705900
N3581	N358	0.455990	0.491430	0.747690
N3591	N359	0.544210	0.493730	0.759130
C9301	C930	0.570930	0.461630	0.764570
H5721	H572	0.570000	0.442000	0.763000
C9311	C931	0.599320	0.456020	0.772360
H5731	H573	0.617700	0.433100	0.775500
C9321	C932	0.601030	0.483510	0.775610
H5741	H574	0.620600	0.479800	0.781000
C9331	C933	0.422570	0.499690	0.771070
H5751	H575	0.418400	0.507600	0.789000
C9341	C934	0.573760	0.516960	0.770880
C9351	C935	0.546470	0.520470	0.762070
H5761	H576	0.528300	0.543300	0.757900
C9361	C936	0.575020	0.547580	0.772620
N3601	N360	0.605280	0.545000	0.772080
N3611	N361	0.805470	0.966510	0.488570
N3621	N362	0.777860	0.964620	0.721500
C9371	C937	0.836450	0.960690	0.479990
C9381	C938	0.794550	0.941970	0.708870
S731	S73	0.878790	0.954090	0.469210
S741	S74	0.818570	0.910450	0.690070
N3631	N363	0.758470	0.967170	0.564170
C9391	C939	0.728370	0.972230	0.592610
H5771	H577	0.705700	0.981500	0.589700
C9401	C940	0.728890	0.964430	0.626090
C9411	C941	0.761610	0.950830	0.630730
H5781	H578	0.762600	0.946600	0.653000
C9421	C942	0.792780	0.943360	0.602740
H5791	H579	0.815700	0.932500	0.605700
C9431	C943	0.790200	0.951900	0.570020
H5801	H580	0.811900	0.946700	0.550700
N3641	N364	0.536910	0.999670	0.705730
C9441	C944	0.535790	0.001610	0.675810
H5811	H581	0.513500	0.004700	0.675700
C9451	C945	0.565740	0.999240	0.645200
H5821	H582	0.563700	0.001500	0.624300
C9461	C946	0.598900	0.993580	0.645160
H5831	H583	0.620000	0.991200	0.624600
C9471	C947	0.600090	0.991650	0.676430
C9481	C948	0.568510	0.994970	0.705650
H5841	H584	0.569300	0.993900	0.726700
C9491	C949	0.633390	0.988250	0.677410
N3651	N365	0.664350	0.977450	0.651550
C9501	C950	0.694230	0.974630	0.654550
N3661	N366	0.694780	0.981500	0.678980
C9511	C951	0.662390	0.992850	0.702810
N3671	N367	0.630910	0.996070	0.703410
C9521	C952	0.661270	0.002870	0.729590
C9531	C953	0.629220	0.015880	0.754900
H5851	H585	0.606600	0.019000	0.755600
C9541	C954	0.631280	0.024140	0.779080
H5861	H586	0.610000	0.032600	0.797000
C9551	C955	0.664420	0.020160	0.777200
H5871	H587	0.665300	0.025900	0.794100
N3681	N368	0.695110	0.008570	0.752310
N3691	N369	0.797070	0.006270	0.740870
C9561	C956	0.797130	0.038370	0.735430
H5881	H588	0.775000	0.058000	0.737000
C9571	C957	0.827700	0.043980	0.727640
H5891	H589	0.826300	0.066900	0.724500
C9581	C958	0.860150	0.016490	0.724390
H5901	H590	0.881400	0.020200	0.719000
C9591	C959	0.693330	0.000310	0.728930
H5911	H591	0.715000	0.992400	0.711000
C9601	C960	0.861600	0.983040	0.729120
C9611	C961	0.829010	0.979530	0.737930
H5921	H592	0.829500	0.956700	0.742100
C9621	C962	0.895220	0.952420	0.727380
N3701	N370	0.922360	0.955000	0.727920
N3711	N371	0.966510	0.805470	0.239450
N3721	N372	0.964620	0.777860	0.036020
C9631	C963	0.960690	0.836450	0.222870
C9641	C964	0.941970	0.794550	0.054610
S751	S75	0.954090	0.878790	0.197910
S761	S76	0.910450	0.818570	0.080910
N3731	N373	0.967170	0.758470	0.210190
C9651	C965	0.972230	0.728370	0.206790
H5931	H593	0.981500	0.705700	0.223100
C9661	C966	0.964430	0.728890	0.180590
C9671	C967	0.950830	0.761610	0.156830
H5941	H594	0.946600	0.762600	0.137800
C9681	C968	0.943360	0.792780	0.161120
H5951	H595	0.932500	0.815700	0.146100
C9691	C969	0.951900	0.790200	0.187880
H5961	H596	0.946700	0.811900	0.190700
N3741	N374	0.999670	0.536910	0.257690
C9701	C970	0.001610	0.535790	0.286790
H5971	H597	0.004700	0.513500	0.306100
C9711	C971	0.999240	0.565740	0.289820
H5981	H598	0.001500	0.563700	0.310500
C9721	C972	0.993580	0.598900	0.262360
H5991	H599	0.991200	0.620000	0.264200
C9731	C973	0.991650	0.600090	0.231830
C9741	C974	0.994970	0.568510	0.230870
H6001	H600	0.993900	0.569300	0.210100
C9751	C975	0.988250	0.633390	0.200950
N3751	N375	0.977450	0.664350	0.206650
C9761	C976	0.974630	0.694230	0.176590
N3761	N376	0.981500	0.694780	0.144740
C9771	C977	0.992850	0.662390	0.141950
N3771	N377	0.996070	0.630910	0.169610
C9781	C978	0.002870	0.661270	0.106270
C9791	C979	0.015880	0.629220	0.100000
H6011	H601	0.019000	0.606600	0.118800
C9801	C980	0.024140	0.631280	0.065500
H6021	H602	0.032600	0.610000	0.060400
C9811	C981	0.020160	0.664420	0.038220
H6031	H603	0.025900	0.665300	0.014700
N3781	N378	0.008570	0.695110	0.044010
N3791	N379	0.006270	0.797070	0.955790
C9821	C982	0.038370	0.797130	0.929070
H6041	H604	0.058000	0.775000	0.930000
C9831	C983	0.043980	0.827700	0.900680
H6051	H605	0.066900	0.826300	0.882300
C9841	C984	0.016490	0.860150	0.898970
H6061	H606	0.020200	0.881400	0.879400
C9851	C985	0.000310	0.693330	0.077430
H6071	H607	0.992400	0.715000	0.081600
C9861	C986	0.983040	0.861600	0.926240
C9871	C987	0.979530	0.829010	0.953530
H6081	H608	0.956700	0.829500	0.971700
C9881	C988	0.952420	0.895220	0.924980
N3801	N380	0.955000	0.922360	0.894720
N3811	N381	0.239450	0.488570	0.966510
N3821	N382	0.036020	0.721500	0.964620
C9891	C989	0.222870	0.479990	0.960690
C9901	C990	0.054610	0.708870	0.941970
S771	S77	0.197910	0.469210	0.954090
S781	S78	0.080910	0.690070	0.910450
N3831	N383	0.210190	0.564170	0.967170
C9911	C991	0.206790	0.592610	0.972230
H6091	H609	0.223100	0.589700	0.981500
C9921	C992	0.180590	0.626090	0.964430
C9931	C993	0.156830	0.630730	0.950830
H6101	H610	0.137800	0.653000	0.946600
C9941	C994	0.161120	0.602740	0.943360
H6111	H611	0.146100	0.605700	0.932500
C9951	C995	0.187880	0.570020	0.951900
H6121	H612	0.190700	0.550700	0.946700
N3841	N384	0.257690	0.705730	0.999670
C9961	C996	0.286790	0.675810	0.001610
H6131	H613	0.306100	0.675700	0.004700
C9971	C997	0.289820	0.645200	0.999240
H6141	H614	0.310500	0.624300	0.001500
C9981	C998	0.262360	0.645160	0.993580
H6151	H615	0.264200	0.624600	0.991200
C9991	C999	0.231830	0.676430	0.991650
C10001	C1000	0.230870	0.705650	0.994970
H6161	H616	0.210100	0.726700	0.993900
C10011	C1001	0.200950	0.677410	0.988250
N3851	N385	0.206650	0.651550	0.977450
C10021	C1002	0.176590	0.654550	0.974630
N3861	N386	0.144740	0.678980	0.981500
C10031	C1003	0.141950	0.702810	0.992850
N3871	N387	0.169610	0.703410	0.996070
C10041	C1004	0.106270	0.729590	0.002870
C10051	C1005	0.100000	0.754900	0.015880
H6171	H617	0.118800	0.755600	0.019000
C10061	C1006	0.065500	0.779080	0.024140
H6181	H618	0.060400	0.797000	0.032600
C10071	C1007	0.038220	0.777200	0.020160
H6191	H619	0.014700	0.794100	0.025900
N3881	N388	0.044010	0.752310	0.008570
N3891	N389	0.955790	0.740870	0.006270
C10081	C1008	0.929070	0.735430	0.038370
H6201	H620	0.930000	0.737000	0.058000
C10091	C1009	0.900680	0.727640	0.043980
H6211	H621	0.882300	0.724500	0.066900
C10101	C1010	0.898970	0.724390	0.016490
H6221	H622	0.879400	0.719000	0.020200
C10111	C1011	0.077430	0.728930	0.000310
H6231	H623	0.081600	0.711000	0.992400
C10121	C1012	0.926240	0.729120	0.983040
C10131	C1013	0.953530	0.737930	0.979530
H6241	H624	0.971700	0.742100	0.956700
C10141	C1014	0.924980	0.727380	0.952420
N3901	N390	0.894720	0.727920	0.955000
N3911	N391	0.488570	0.239450	0.805470
N3921	N392	0.721500	0.036020	0.777860
C10151	C1015	0.479990	0.222870	0.836450
C10161	C1016	0.708870	0.054610	0.794550
S791	S79	0.469210	0.197910	0.878790
S801	S80	0.690070	0.080910	0.818570
N3931	N393	0.564170	0.210190	0.758470
C10171	C1017	0.592610	0.206790	0.728370
H6251	H625	0.589700	0.223100	0.705700
C10181	C1018	0.626090	0.180590	0.728890
C10191	C1019	0.630730	0.156830	0.761610
H6261	H626	0.653000	0.137800	0.762600
C10201	C1020	0.602740	0.161120	0.792780
H6271	H627	0.605700	0.146100	0.815700
C10211	C1021	0.570020	0.187880	0.790200
H6281	H628	0.550700	0.190700	0.811900
N3941	N394	0.705730	0.257690	0.536910
C10221	C1022	0.675810	0.286790	0.535790
H6291	H629	0.675700	0.306100	0.513500
C10231	C1023	0.645200	0.289820	0.565740
H6301	H630	0.624300	0.310500	0.563700
C10241	C1024	0.645160	0.262360	0.598900
H6311	H631	0.624600	0.264200	0.620000
C10251	C1025	0.676430	0.231830	0.600090
C10261	C1026	0.705650	0.230870	0.568510
H6321	H632	0.726700	0.210100	0.569300
C10271	C1027	0.677410	0.200950	0.633390
N3951	N395	0.651550	0.206650	0.664350
C10281	C1028	0.654550	0.176590	0.694230
N3961	N396	0.678980	0.144740	0.694780
C10291	C1029	0.702810	0.141950	0.662390
N3971	N397	0.703410	0.169610	0.630910
C10301	C1030	0.729590	0.106270	0.661270
C10311	C1031	0.754900	0.100000	0.629220
H6331	H633	0.755600	0.118800	0.606600
C10321	C1032	0.779080	0.065500	0.631280
H6341	H634	0.797000	0.060400	0.610000
C10331	C1033	0.777200	0.038220	0.664420
H6351	H635	0.794100	0.014700	0.665300
N3981	N398	0.752310	0.044010	0.695110
N3991	N399	0.740870	0.955790	0.797070
C10341	C1034	0.735430	0.929070	0.797130
H6361	H636	0.737000	0.930000	0.775000
C10351	C1035	0.727640	0.900680	0.827700
H6371	H637	0.724500	0.882300	0.826300
C10361	C1036	0.724390	0.898970	0.860150
H6381	H638	0.719000	0.879400	0.881400
C10371	C1037	0.728930	0.077430	0.693330
H6391	H639	0.711000	0.081600	0.715000
C10381	C1038	0.729120	0.926240	0.861600
C10391	C1039	0.737930	0.953530	0.829010
H6401	H640	0.742100	0.971700	0.829500
C10401	C1040	0.727380	0.924980	0.895220
N4001	N400	0.727920	0.894720	0.922360
N4011	N401	0.239450	0.805470	0.488570
N4021	N402	0.036020	0.777860	0.721500
C10411	C1041	0.222870	0.836450	0.479990
C10421	C1042	0.054610	0.794550	0.708870
S811	S81	0.197910	0.878790	0.469210
S821	S82	0.080910	0.818570	0.690070
N4031	N403	0.210190	0.758470	0.564170
C10431	C1043	0.206790	0.728370	0.592610
H6411	H641	0.223100	0.705700	0.589700
C10441	C1044	0.180590	0.728890	0.626090
C10451	C1045	0.156830	0.761610	0.630730
H6421	H642	0.137800	0.762600	0.653000
C10461	C1046	0.161120	0.792780	0.602740
H6431	H643	0.146100	0.815700	0.605700
C10471	C1047	0.187880	0.790200	0.570020
H6441	H644	0.190700	0.811900	0.550700
N4041	N404	0.257690	0.536910	0.705730
C10481	C1048	0.286790	0.535790	0.675810
H6451	H645	0.306100	0.513500	0.675700
C10491	C1049	0.289820	0.565740	0.645200
H6461	H646	0.310500	0.563700	0.624300
C10501	C1050	0.262360	0.598900	0.645160
H6471	H647	0.264200	0.620000	0.624600
C10511	C1051	0.231830	0.600090	0.676430
C10521	C1052	0.230870	0.568510	0.705650
H6481	H648	0.210100	0.569300	0.726700
C10531	C1053	0.200950	0.633390	0.677410
N4051	N405	0.206650	0.664350	0.651550
C10541	C1054	0.176590	0.694230	0.654550
N4061	N406	0.144740	0.694780	0.678980
C10551	C1055	0.141950	0.662390	0.702810
N4071	N407	0.169610	0.630910	0.703410
C10561	C1056	0.106270	0.661270	0.729590
C10571	C1057	0.100000	0.629220	0.754900
H6491	H649	0.118800	0.606600	0.755600
C10581	C1058	0.065500	0.631280	0.779080
H6501	H650	0.060400	0.610000	0.797000
C10591	C1059	0.038220	0.664420	0.777200
H6511	H651	0.014700	0.665300	0.794100
N4081	N408	0.044010	0.695110	0.752310
N4091	N409	0.955790	0.797070	0.740870
C10601	C1060	0.929070	0.797130	0.735430
H6521	H652	0.930000	0.775000	0.737000
C10611	C1061	0.900680	0.827700	0.727640
H6531	H653	0.882300	0.826300	0.724500
C10621	C1062	0.898970	0.860150	0.724390
H6541	H654	0.879400	0.881400	0.719000
C10631	C1063	0.077430	0.693330	0.728930
H6551	H655	0.081600	0.715000	0.711000
C10641	C1064	0.926240	0.861600	0.729120
C10651	C1065	0.953530	0.829010	0.737930
H6561	H656	0.971700	0.829500	0.742100
C10661	C1066	0.924980	0.895220	0.727380
N4101	N410	0.894720	0.922360	0.727920
N4111	N411	0.488570	0.966510	0.239450
N4121	N412	0.721500	0.964620	0.036020
C10671	C1067	0.479990	0.960690	0.222870
C10681	C1068	0.708870	0.941970	0.054610
S831	S83	0.469210	0.954090	0.197910
S841	S84	0.690070	0.910450	0.080910
N4131	N413	0.564170	0.967170	0.210190
C10691	C1069	0.592610	0.972230	0.206790
H6571	H657	0.589700	0.981500	0.223100
C10701	C1070	0.626090	0.964430	0.180590
C10711	C1071	0.630730	0.950830	0.156830
H6581	H658	0.653000	0.946600	0.137800
C10721	C1072	0.602740	0.943360	0.161120
H6591	H659	0.605700	0.932500	0.146100
C10731	C1073	0.570020	0.951900	0.187880
H6601	H660	0.550700	0.946700	0.190700
N4141	N414	0.705730	0.999670	0.257690
C10741	C1074	0.675810	0.001610	0.286790
H6611	H661	0.675700	0.004700	0.306100
C10751	C1075	0.645200	0.999240	0.289820
H6621	H662	0.624300	0.001500	0.310500
C10761	C1076	0.645160	0.993580	0.262360
H6631	H663	0.624600	0.991200	0.264200
C10771	C1077	0.676430	0.991650	0.231830
C10781	C1078	0.705650	0.994970	0.230870
H6641	H664	0.726700	0.993900	0.210100
C10791	C1079	0.677410	0.988250	0.200950
N4151	N415	0.651550	0.977450	0.206650
C10801	C1080	0.654550	0.974630	0.176590
N4161	N416	0.678980	0.981500	0.144740
C10811	C1081	0.702810	0.992850	0.141950
N4171	N417	0.703410	0.996070	0.169610
C10821	C1082	0.729590	0.002870	0.106270
C10831	C1083	0.754900	0.015880	0.100000
H6651	H665	0.755600	0.019000	0.118800
C10841	C1084	0.779080	0.024140	0.065500
H6661	H666	0.797000	0.032600	0.060400
C10851	C1085	0.777200	0.020160	0.038220
H6671	H667	0.794100	0.025900	0.014700
N4181	N418	0.752310	0.008570	0.044010
N4191	N419	0.740870	0.006270	0.955790
C10861	C1086	0.735430	0.038370	0.929070
H6681	H668	0.737000	0.058000	0.930000
C10871	C1087	0.727640	0.043980	0.900680
H6691	H669	0.724500	0.066900	0.882300
C10881	C1088	0.724390	0.016490	0.898970
H6701	H670	0.719000	0.020200	0.879400
C10891	C1089	0.728930	0.000310	0.077430
H6711	H671	0.711000	0.992400	0.081600
C10901	C1090	0.729120	0.983040	0.926240
C10911	C1091	0.737930	0.979530	0.953530
H6721	H672	0.742100	0.956700	0.971700
C10921	C1092	0.727380	0.952420	0.924980
N4201	N420	0.727920	0.955000	0.894720
N4211	N421	0.805470	0.239450	0.966510
N4221	N422	0.777860	0.036020	0.964620
C10931	C1093	0.836450	0.222870	0.960690
C10941	C1094	0.794550	0.054610	0.941970
S851	S85	0.878790	0.197910	0.954090
S861	S86	0.818570	0.080910	0.910450
N4231	N423	0.758470	0.210190	0.967170
C10951	C1095	0.728370	0.206790	0.972230
H6731	H673	0.705700	0.223100	0.981500
C10961	C1096	0.728890	0.180590	0.964430
C10971	C1097	0.761610	0.156830	0.950830
H6741	H674	0.762600	0.137800	0.946600
C10981	C1098	0.792780	0.161120	0.943360
H6751	H675	0.815700	0.146100	0.932500
C10991	C1099	0.790200	0.187880	0.951900
H6761	H676	0.811900	0.190700	0.946700
N4241	N424	0.536910	0.257690	0.999670
C11001	C1100	0.535790	0.286790	0.001610
H6771	H677	0.513500	0.306100	0.004700
C11011	C1101	0.565740	0.289820	0.999240
H6781	H678	0.563700	0.310500	0.001500
C11021	C1102	0.598900	0.262360	0.993580
H6791	H679	0.620000	0.264200	0.991200
C11031	C1103	0.600090	0.231830	0.991650
C11041	C1104	0.568510	0.230870	0.994970
H6801	H680	0.569300	0.210100	0.993900
C11051	C1105	0.633390	0.200950	0.988250
N4251	N425	0.664350	0.206650	0.977450
C11061	C1106	0.694230	0.176590	0.974630
N4261	N426	0.694780	0.144740	0.981500
C11071	C1107	0.662390	0.141950	0.992850
N4271	N427	0.630910	0.169610	0.996070
C11081	C1108	0.661270	0.106270	0.002870
C11091	C1109	0.629220	0.100000	0.015880
H6811	H681	0.606600	0.118800	0.019000
C11101	C1110	0.631280	0.065500	0.024140
H6821	H682	0.610000	0.060400	0.032600
C11111	C1111	0.664420	0.038220	0.020160
H6831	H683	0.665300	0.014700	0.025900
N4281	N428	0.695110	0.044010	0.008570
N4291	N429	0.797070	0.955790	0.006270
C11121	C1112	0.797130	0.929070	0.038370
H6841	H684	0.775000	0.930000	0.058000
C11131	C1113	0.827700	0.900680	0.043980
H6851	H685	0.826300	0.882300	0.066900
C11141	C1114	0.860150	0.898970	0.016490
H6861	H686	0.881400	0.879400	0.020200
C11151	C1115	0.693330	0.077430	0.000310
H6871	H687	0.715000	0.081600	0.992400
C11161	C1116	0.861600	0.926240	0.983040
C11171	C1117	0.829010	0.953530	0.979530
H6881	H688	0.829500	0.971700	0.956700
C11181	C1118	0.895220	0.924980	0.952420
N4301	N430	0.922360	0.894720	0.955000
N4311	N431	0.966510	0.488570	0.805470
N4321	N432	0.964620	0.721500	0.777860
C11191	C1119	0.960690	0.479990	0.836450
C11201	C1120	0.941970	0.708870	0.794550
S871	S87	0.954090	0.469210	0.878790
S881	S88	0.910450	0.690070	0.818570
N4331	N433	0.967170	0.564170	0.758470
C11211	C1121	0.972230	0.592610	0.728370
H6891	H689	0.981500	0.589700	0.705700
C11221	C1122	0.964430	0.626090	0.728890
C11231	C1123	0.950830	0.630730	0.761610
H6901	H690	0.946600	0.653000	0.762600
C11241	C1124	0.943360	0.602740	0.792780
H6911	H691	0.932500	0.605700	0.815700
C11251	C1125	0.951900	0.570020	0.790200
H6921	H692	0.946700	0.550700	0.811900
N4341	N434	0.999670	0.705730	0.536910
C11261	C1126	0.001610	0.675810	0.535790
H6931	H693	0.004700	0.675700	0.513500
C11271	C1127	0.999240	0.645200	0.565740
H6941	H694	0.001500	0.624300	0.563700
C11281	C1128	0.993580	0.645160	0.598900
H6951	H695	0.991200	0.624600	0.620000
C11291	C1129	0.991650	0.676430	0.600090
C11301	C1130	0.994970	0.705650	0.568510
H6961	H696	0.993900	0.726700	0.569300
C11311	C1131	0.988250	0.677410	0.633390
N4351	N435	0.977450	0.651550	0.664350
C11321	C1132	0.974630	0.654550	0.694230
N4361	N436	0.981500	0.678980	0.694780
C11331	C1133	0.992850	0.702810	0.662390
N4371	N437	0.996070	0.703410	0.630910
C11341	C1134	0.002870	0.729590	0.661270
C11351	C1135	0.015880	0.754900	0.629220
H6971	H697	0.019000	0.755600	0.606600
C11361	C1136	0.024140	0.779080	0.631280
H6981	H698	0.032600	0.797000	0.610000
C11371	C1137	0.020160	0.777200	0.664420
H6991	H699	0.025900	0.794100	0.665300
N4381	N438	0.008570	0.752310	0.695110
N4391	N439	0.006270	0.740870	0.797070
C11381	C1138	0.038370	0.735430	0.797130
H7001	H700	0.058000	0.737000	0.775000
C11391	C1139	0.043980	0.727640	0.827700
H7011	H701	0.066900	0.724500	0.826300
C11401	C1140	0.016490	0.724390	0.860150
H7021	H702	0.020200	0.719000	0.881400
C11411	C1141	0.000310	0.728930	0.693330
H7031	H703	0.992400	0.711000	0.715000
C11421	C1142	0.983040	0.729120	0.861600
C11431	C1143	0.979530	0.737930	0.829010
H7041	H704	0.956700	0.742100	0.829500
C11441	C1144	0.952420	0.727380	0.895220
N4401	N440	0.955000	0.727920	0.922360
N4411	N441	0.966510	0.239450	0.488570
N4421	N442	0.964620	0.036020	0.721500
C11451	C1145	0.960690	0.222870	0.479990
C11461	C1146	0.941970	0.054610	0.708870
S891	S89	0.954090	0.197910	0.469210
S901	S90	0.910450	0.080910	0.690070
N4431	N443	0.967170	0.210190	0.564170
C11471	C1147	0.972230	0.206790	0.592610
H7051	H705	0.981500	0.223100	0.589700
C11481	C1148	0.964430	0.180590	0.626090
C11491	C1149	0.950830	0.156830	0.630730
H7061	H706	0.946600	0.137800	0.653000
C11501	C1150	0.943360	0.161120	0.602740
H7071	H707	0.932500	0.146100	0.605700
C11511	C1151	0.951900	0.187880	0.570020
H7081	H708	0.946700	0.190700	0.550700
N4441	N444	0.999670	0.257690	0.705730
C11521	C1152	0.001610	0.286790	0.675810
H7091	H709	0.004700	0.306100	0.675700
C11531	C1153	0.999240	0.289820	0.645200
H7101	H710	0.001500	0.310500	0.624300
C11541	C1154	0.993580	0.262360	0.645160
H7111	H711	0.991200	0.264200	0.624600
C11551	C1155	0.991650	0.231830	0.676430
C11561	C1156	0.994970	0.230870	0.705650
H7121	H712	0.993900	0.210100	0.726700
C11571	C1157	0.988250	0.200950	0.677410
N4451	N445	0.977450	0.206650	0.651550
C11581	C1158	0.974630	0.176590	0.654550
N4461	N446	0.981500	0.144740	0.678980
C11591	C1159	0.992850	0.141950	0.702810
N4471	N447	0.996070	0.169610	0.703410
C11601	C1160	0.002870	0.106270	0.729590
C11611	C1161	0.015880	0.100000	0.754900
H7131	H713	0.019000	0.118800	0.755600
C11621	C1162	0.024140	0.065500	0.779080
H7141	H714	0.032600	0.060400	0.797000
C11631	C1163	0.020160	0.038220	0.777200
H7151	H715	0.025900	0.014700	0.794100
N4481	N448	0.008570	0.044010	0.752310
N4491	N449	0.006270	0.955790	0.740870
C11641	C1164	0.038370	0.929070	0.735430
H7161	H716	0.058000	0.930000	0.737000
C11651	C1165	0.043980	0.900680	0.727640
H7171	H717	0.066900	0.882300	0.724500
C11661	C1166	0.016490	0.898970	0.724390
H7181	H718	0.020200	0.879400	0.719000
C11671	C1167	0.000310	0.077430	0.728930
H7191	H719	0.992400	0.081600	0.711000
C11681	C1168	0.983040	0.926240	0.729120
C11691	C1169	0.979530	0.953530	0.737930
H7201	H720	0.956700	0.971700	0.742100
C11701	C1170	0.952420	0.924980	0.727380
N4501	N450	0.955000	0.894720	0.727920
N4511	N451	0.805470	0.488570	0.239450
N4521	N452	0.777860	0.721500	0.036020
C11711	C1171	0.836450	0.479990	0.222870
C11721	C1172	0.794550	0.708870	0.054610
S911	S91	0.878790	0.469210	0.197910
S921	S92	0.818570	0.690070	0.080910
N4531	N453	0.758470	0.564170	0.210190
C11731	C1173	0.728370	0.592610	0.206790
H7211	H721	0.705700	0.589700	0.223100
C11741	C1174	0.728890	0.626090	0.180590
C11751	C1175	0.761610	0.630730	0.156830
H7221	H722	0.762600	0.653000	0.137800
C11761	C1176	0.792780	0.602740	0.161120
H7231	H723	0.815700	0.605700	0.146100
C11771	C1177	0.790200	0.570020	0.187880
H7241	H724	0.811900	0.550700	0.190700
N4541	N454	0.536910	0.705730	0.257690
C11781	C1178	0.535790	0.675810	0.286790
H7251	H725	0.513500	0.675700	0.306100
C11791	C1179	0.565740	0.645200	0.289820
H7261	H726	0.563700	0.624300	0.310500
C11801	C1180	0.598900	0.645160	0.262360
H7271	H727	0.620000	0.624600	0.264200
C11811	C1181	0.600090	0.676430	0.231830
C11821	C1182	0.568510	0.705650	0.230870
H7281	H728	0.569300	0.726700	0.210100
C11831	C1183	0.633390	0.677410	0.200950
N4551	N455	0.664350	0.651550	0.206650
C11841	C1184	0.694230	0.654550	0.176590
N4561	N456	0.694780	0.678980	0.144740
C11851	C1185	0.662390	0.702810	0.141950
N4571	N457	0.630910	0.703410	0.169610
C11861	C1186	0.661270	0.729590	0.106270
C11871	C1187	0.629220	0.754900	0.100000
H7291	H729	0.606600	0.755600	0.118800
C11881	C1188	0.631280	0.779080	0.065500
H7301	H730	0.610000	0.797000	0.060400
C11891	C1189	0.664420	0.777200	0.038220
H7311	H731	0.665300	0.794100	0.014700
N4581	N458	0.695110	0.752310	0.044010
N4591	N459	0.797070	0.740870	0.955790
C11901	C1190	0.797130	0.735430	0.929070
H7321	H732	0.775000	0.737000	0.930000
C11911	C1191	0.827700	0.727640	0.900680
H7331	H733	0.826300	0.724500	0.882300
C11921	C1192	0.860150	0.724390	0.898970
H7341	H734	0.881400	0.719000	0.879400
C11931	C1193	0.693330	0.728930	0.077430
H7351	H735	0.715000	0.711000	0.081600
C11941	C1194	0.861600	0.729120	0.926240
C11951	C1195	0.829010	0.737930	0.953530
H7361	H736	0.829500	0.742100	0.971700
C11961	C1196	0.895220	0.727380	0.924980
N4601	N460	0.922360	0.727920	0.894720
N4611	N461	0.488570	0.805470	0.966510
N4621	N462	0.721500	0.777860	0.964620
C11971	C1197	0.479990	0.836450	0.960690
C11981	C1198	0.708870	0.794550	0.941970
S931	S93	0.469210	0.878790	0.954090
S941	S94	0.690070	0.818570	0.910450
N4631	N463	0.564170	0.758470	0.967170
C11991	C1199	0.592610	0.728370	0.972230
H7371	H737	0.589700	0.705700	0.981500
C12001	C1200	0.626090	0.728890	0.964430
C12011	C1201	0.630730	0.761610	0.950830
H7381	H738	0.653000	0.762600	0.946600
C12021	C1202	0.602740	0.792780	0.943360
H7391	H739	0.605700	0.815700	0.932500
C12031	C1203	0.570020	0.790200	0.951900
H7401	H740	0.550700	0.811900	0.946700
N4641	N464	0.705730	0.536910	0.999670
C12041	C1204	0.675810	0.535790	0.001610
H7411	H741	0.675700	0.513500	0.004700
C12051	C1205	0.645200	0.565740	0.999240
H7421	H742	0.624300	0.563700	0.001500
C12061	C1206	0.645160	0.598900	0.993580
H7431	H743	0.624600	0.620000	0.991200
C12071	C1207	0.676430	0.600090	0.991650
C12081	C1208	0.705650	0.568510	0.994970
H7441	H744	0.726700	0.569300	0.993900
C12091	C1209	0.677410	0.633390	0.988250
N4651	N465	0.651550	0.664350	0.977450
C12101	C1210	0.654550	0.694230	0.974630
N4661	N466	0.678980	0.694780	0.981500
C12111	C1211	0.702810	0.662390	0.992850
N4671	N467	0.703410	0.630910	0.996070
C12121	C1212	0.729590	0.661270	0.002870
C12131	C1213	0.754900	0.629220	0.015880
H7451	H745	0.755600	0.606600	0.019000
C12141	C1214	0.779080	0.631280	0.024140
H7461	H746	0.797000	0.610000	0.032600
C12151	C1215	0.777200	0.664420	0.020160
H7471	H747	0.794100	0.665300	0.025900
N4681	N468	0.752310	0.695110	0.008570
N4691	N469	0.740870	0.797070	0.006270
C12161	C1216	0.735430	0.797130	0.038370
H7481	H748	0.737000	0.775000	0.058000
C12171	C1217	0.727640	0.827700	0.043980
H7491	H749	0.724500	0.826300	0.066900
C12181	C1218	0.724390	0.860150	0.016490
H7501	H750	0.719000	0.881400	0.020200
C12191	C1219	0.728930	0.693330	0.000310
H7511	H751	0.711000	0.715000	0.992400
C12201	C1220	0.729120	0.861600	0.983040
C12211	C1221	0.737930	0.829010	0.979530
H7521	H752	0.742100	0.829500	0.956700
C12221	C1222	0.727380	0.895220	0.952420
N4701	N470	0.727920	0.922360	0.955000
N4711	N471	0.239450	0.966510	0.805470
N4721	N472	0.036020	0.964620	0.777860
C12231	C1223	0.222870	0.960690	0.836450
C12241	C1224	0.054610	0.941970	0.794550
S951	S95	0.197910	0.954090	0.878790
S961	S96	0.080910	0.910450	0.818570
N4731	N473	0.210190	0.967170	0.758470
C12251	C1225	0.206790	0.972230	0.728370
H7531	H753	0.223100	0.981500	0.705700
C12261	C1226	0.180590	0.964430	0.728890
C12271	C1227	0.156830	0.950830	0.761610
H7541	H754	0.137800	0.946600	0.762600
C12281	C1228	0.161120	0.943360	0.792780
H7551	H755	0.146100	0.932500	0.815700
C12291	C1229	0.187880	0.951900	0.790200
H7561	H756	0.190700	0.946700	0.811900
N4741	N474	0.257690	0.999670	0.536910
C12301	C1230	0.286790	0.001610	0.535790
H7571	H757	0.306100	0.004700	0.513500
C12311	C1231	0.289820	0.999240	0.565740
H7581	H758	0.310500	0.001500	0.563700
C12321	C1232	0.262360	0.993580	0.598900
H7591	H759	0.264200	0.991200	0.620000
C12331	C1233	0.231830	0.991650	0.600090
C12341	C1234	0.230870	0.994970	0.568510
H7601	H760	0.210100	0.993900	0.569300
C12351	C1235	0.200950	0.988250	0.633390
N4751	N475	0.206650	0.977450	0.664350
C12361	C1236	0.176590	0.974630	0.694230
N4761	N476	0.144740	0.981500	0.694780
C12371	C1237	0.141950	0.992850	0.662390
N4771	N477	0.169610	0.996070	0.630910
C12381	C1238	0.106270	0.002870	0.661270
C12391	C1239	0.100000	0.015880	0.629220
H7611	H761	0.118800	0.019000	0.606600
C12401	C1240	0.065500	0.024140	0.631280
H7621	H762	0.060400	0.032600	0.610000
C12411	C1241	0.038220	0.020160	0.664420
H7631	H763	0.014700	0.025900	0.665300
N4781	N478	0.044010	0.008570	0.695110
N4791	N479	0.955790	0.006270	0.797070
C12421	C1242	0.929070	0.038370	0.797130
H7641	H764	0.930000	0.058000	0.775000
C12431	C1243	0.900680	0.043980	0.827700
H7651	H765	0.882300	0.066900	0.826300
C12441	C1244	0.898970	0.016490	0.860150
H7661	H766	0.879400	0.020200	0.881400
C12451	C1245	0.077430	0.000310	0.693330
H7671	H767	0.081600	0.992400	0.715000
C12461	C1246	0.926240	0.983040	0.861600
C12471	C1247	0.953530	0.979530	0.829010
H7681	H768	0.971700	0.956700	0.829500
C12481	C1248	0.924980	0.952420	0.895220
N4801	N480	0.894720	0.955000	0.922360
Co11	Co1	0.250000	0.487020	0.750000
Co21	Co2	0.487020	0.250000	0.012980
Co31	Co3	0.750000	0.012980	0.250000
Co41	Co4	0.012980	0.750000	0.487020
Co51	Co5	0.750000	0.250000	0.487020
Co61	Co6	0.012980	0.487020	0.250000
Co71	Co7	0.250000	0.750000	0.012980
Co81	Co8	0.487020	0.012980	0.750000
Co91	Co9	0.487020	0.750000	0.250000
Co101	Co10	0.250000	0.012980	0.487020
Co111	Co11	0.012980	0.250000	0.750000
Co121	Co12	0.750000	0.487020	0.012980
Co131	Co13	0.750000	0.512980	0.250000
Co141	Co14	0.512980	0.750000	0.987020
Co151	Co15	0.250000	0.987020	0.750000
Co161	Co16	0.987020	0.250000	0.512980
Co171	Co17	0.250000	0.750000	0.512980
Co181	Co18	0.987020	0.512980	0.750000
Co191	Co19	0.750000	0.250000	0.987020
Co201	Co20	0.512980	0.987020	0.250000
Co211	Co21	0.512980	0.250000	0.750000
Co221	Co22	0.750000	0.987020	0.512980
Co231	Co23	0.987020	0.750000	0.250000
Co241	Co24	0.250000	0.512980	0.987020
Co251	Co25	0.248120	0.501880	0.501880
Co261	Co26	0.501880	0.248120	0.248120
Co271	Co27	0.501880	0.248120	0.501880
Co281	Co28	0.248120	0.501880	0.248120
Co291	Co29	0.501880	0.501880	0.248120
Co301	Co30	0.248120	0.248120	0.501880
Co311	Co31	0.251880	0.998120	0.251880
Co321	Co32	0.998120	0.251880	0.998120
Co331	Co33	0.998120	0.251880	0.251880
Co341	Co34	0.251880	0.998120	0.998120
Co351	Co35	0.998120	0.998120	0.251880
Co361	Co36	0.251880	0.251880	0.998120
Co371	Co37	0.751880	0.498120	0.498120
Co381	Co38	0.498120	0.751880	0.751880
Co391	Co39	0.498120	0.751880	0.498120
Co401	Co40	0.751880	0.498120	0.751880
Co411	Co41	0.498120	0.498120	0.751880
Co421	Co42	0.751880	0.751880	0.498120
Co431	Co43	0.748120	0.001880	0.748120
Co441	Co44	0.001880	0.748120	0.001880
Co451	Co45	0.001880	0.748120	0.748120
Co461	Co46	0.748120	0.001880	0.001880
Co471	Co47	0.001880	0.001880	0.748120
Co481	Co48	0.748120	0.748120	0.001880
