data_LAFRAN01_freeONLY_PM
_symmetry_space_group_name_H-M	'P1'
_cell_length_a	63.895300
_cell_length_b	63.895300
_cell_length_c	63.895300
_cell_angle_alpha	90.000000
_cell_angle_beta	90.000000
_cell_angle_gamma	90.000000
_symmetry_Int_Tables_number 1

loop_
_symmetry_equiv_pos_as_xyz
'x,y,z'

loop_
_atom_site_label
_atom_site_type_symbol
_atom_site_fract_x
_atom_site_fract_y
_atom_site_fract_z
C11	C1	0.409720	0.602580	0.219890
H11	H1	0.397600	0.594400	0.217300
C21	C2	0.427420	0.599140	0.207500
C31	C3	0.445230	0.610720	0.211380
H21	H2	0.457400	0.609200	0.203000
C41	C4	0.444860	0.624820	0.228100
H31	H3	0.457100	0.632400	0.231800
C51	C5	0.426860	0.627580	0.239070
H41	H4	0.426800	0.637600	0.250100
C61	C6	0.397740	0.533380	0.095330
C71	C7	0.361480	0.513210	0.168430
H51	H5	0.350600	0.503200	0.167100
C81	C8	0.362600	0.524620	0.186660
H61	H6	0.353100	0.522000	0.197800
C91	C9	0.377790	0.540070	0.188580
H71	H7	0.378400	0.548700	0.200700
C101	C10	0.392100	0.542490	0.172260
C111	C11	0.390260	0.530010	0.154720
H81	H8	0.400200	0.531700	0.143800
C121	C12	0.408680	0.558770	0.172820
C131	C13	0.425670	0.584610	0.189700
C141	C14	0.435110	0.575890	0.156840
C151	C15	0.462320	0.596010	0.138220
H91	H9	0.463700	0.604200	0.150600
C161	C16	0.447790	0.579520	0.138150
C171	C17	0.445890	0.567350	0.120400
H101	H10	0.436000	0.556200	0.119700
C181	C18	0.458910	0.571920	0.103580
H111	H11	0.458400	0.563600	0.091300
C191	C19	0.472540	0.588600	0.104890
H121	H12	0.481100	0.591600	0.093100
C201	C20	0.517630	0.583010	0.138620
H131	H13	0.507000	0.584100	0.148900
C211	C21	0.529400	0.565400	0.138340
H141	H14	0.526900	0.554500	0.148100
C221	C22	0.545300	0.563600	0.123330
H151	H15	0.554100	0.551600	0.122900
C231	C23	0.547830	0.579840	0.109240
C241	C24	0.535020	0.597310	0.110850
H161	H16	0.537000	0.608500	0.101300
C251	C25	0.564410	0.579080	0.093020
C261	C26	0.500590	0.626110	0.074780
N11	N1	0.409040	0.616920	0.235250
N21	N2	0.387150	0.524460	0.106990
N31	N3	0.374970	0.515510	0.152420
N41	N4	0.420400	0.560910	0.155820
N51	N5	0.410340	0.570250	0.190290
N61	N6	0.438870	0.587630	0.173870
N71	N7	0.474320	0.600750	0.121850
N81	N8	0.498810	0.626760	0.092380
N91	N9	0.520090	0.598970	0.125240
N101	N10	0.578310	0.563970	0.094280
S11	S1	0.413040	0.544630	0.078120
S21	S2	0.502160	0.623460	0.049280
C271	C27	0.409720	0.102580	0.719890
H171	H17	0.397600	0.094400	0.717300
C281	C28	0.427420	0.099140	0.707500
C291	C29	0.445230	0.110720	0.711380
H181	H18	0.457400	0.109200	0.703000
C301	C30	0.444860	0.124820	0.728100
H191	H19	0.457100	0.132400	0.731800
C311	C31	0.426860	0.127580	0.739070
H201	H20	0.426800	0.137600	0.750100
C321	C32	0.397740	0.033380	0.595330
C331	C33	0.361480	0.013210	0.668430
H211	H21	0.350600	0.003200	0.667100
C341	C34	0.362600	0.024620	0.686660
H221	H22	0.353100	0.022000	0.697800
C351	C35	0.377790	0.040070	0.688580
H231	H23	0.378400	0.048700	0.700700
C361	C36	0.392100	0.042490	0.672260
C371	C37	0.390260	0.030010	0.654720
H241	H24	0.400200	0.031700	0.643800
C381	C38	0.408680	0.058770	0.672820
C391	C39	0.425670	0.084610	0.689700
C401	C40	0.435110	0.075890	0.656840
C411	C41	0.462320	0.096010	0.638220
H251	H25	0.463700	0.104200	0.650600
C421	C42	0.447790	0.079520	0.638150
C431	C43	0.445890	0.067350	0.620400
H261	H26	0.436000	0.056200	0.619700
C441	C44	0.458910	0.071920	0.603580
H271	H27	0.458400	0.063600	0.591300
C451	C45	0.472540	0.088600	0.604890
H281	H28	0.481100	0.091600	0.593100
C461	C46	0.517630	0.083010	0.638620
H291	H29	0.507000	0.084100	0.648900
C471	C47	0.529400	0.065400	0.638340
H301	H30	0.526900	0.054500	0.648100
C481	C48	0.545300	0.063600	0.623330
H311	H31	0.554100	0.051600	0.622900
C491	C49	0.547830	0.079840	0.609240
C501	C50	0.535020	0.097310	0.610850
H321	H32	0.537000	0.108500	0.601300
C511	C51	0.564410	0.079080	0.593020
C521	C52	0.500590	0.126110	0.574780
N111	N11	0.409040	0.116920	0.735250
N121	N12	0.387150	0.024460	0.606990
N131	N13	0.374970	0.015510	0.652420
N141	N14	0.420400	0.060910	0.655820
N151	N15	0.410340	0.070250	0.690290
N161	N16	0.438870	0.087630	0.673870
N171	N17	0.474320	0.100750	0.621850
N181	N18	0.498810	0.126760	0.592380
N191	N19	0.520090	0.098970	0.625240
N201	N20	0.578310	0.063970	0.594280
S31	S3	0.413040	0.044630	0.578120
S41	S4	0.502160	0.123460	0.549280
C531	C53	0.909720	0.602580	0.719890
H331	H33	0.897600	0.594400	0.717300
C541	C54	0.927420	0.599140	0.707500
C551	C55	0.945230	0.610720	0.711380
H341	H34	0.957400	0.609200	0.703000
C561	C56	0.944860	0.624820	0.728100
H351	H35	0.957100	0.632400	0.731800
C571	C57	0.926860	0.627580	0.739070
H361	H36	0.926800	0.637600	0.750100
C581	C58	0.897740	0.533380	0.595330
C591	C59	0.861480	0.513210	0.668430
H371	H37	0.850600	0.503200	0.667100
C601	C60	0.862600	0.524620	0.686660
H381	H38	0.853100	0.522000	0.697800
C611	C61	0.877790	0.540070	0.688580
H391	H39	0.878400	0.548700	0.700700
C621	C62	0.892100	0.542490	0.672260
C631	C63	0.890260	0.530010	0.654720
H401	H40	0.900200	0.531700	0.643800
C641	C64	0.908680	0.558770	0.672820
C651	C65	0.925670	0.584610	0.689700
C661	C66	0.935110	0.575890	0.656840
C671	C67	0.962320	0.596010	0.638220
H411	H41	0.963700	0.604200	0.650600
C681	C68	0.947790	0.579520	0.638150
C691	C69	0.945890	0.567350	0.620400
H421	H42	0.936000	0.556200	0.619700
C701	C70	0.958910	0.571920	0.603580
H431	H43	0.958400	0.563600	0.591300
C711	C71	0.972540	0.588600	0.604890
H441	H44	0.981100	0.591600	0.593100
C721	C72	0.017630	0.583010	0.638620
H451	H45	0.007000	0.584100	0.648900
C731	C73	0.029400	0.565400	0.638340
H461	H46	0.026900	0.554500	0.648100
C741	C74	0.045300	0.563600	0.623330
H471	H47	0.054100	0.551600	0.622900
C751	C75	0.047830	0.579840	0.609240
C761	C76	0.035020	0.597310	0.610850
H481	H48	0.037000	0.608500	0.601300
C771	C77	0.064410	0.579080	0.593020
C781	C78	0.000590	0.626110	0.574780
N211	N21	0.909040	0.616920	0.735250
N221	N22	0.887150	0.524460	0.606990
N231	N23	0.874970	0.515510	0.652420
N241	N24	0.920400	0.560910	0.655820
N251	N25	0.910340	0.570250	0.690290
N261	N26	0.938870	0.587630	0.673870
N271	N27	0.974320	0.600750	0.621850
N281	N28	0.998810	0.626760	0.592380
N291	N29	0.020090	0.598970	0.625240
N301	N30	0.078310	0.563970	0.594280
S51	S5	0.913040	0.544630	0.578120
S61	S6	0.002160	0.623460	0.549280
C791	C79	0.909720	0.102580	0.219890
H491	H49	0.897600	0.094400	0.217300
C801	C80	0.927420	0.099140	0.207500
C811	C81	0.945230	0.110720	0.211380
H501	H50	0.957400	0.109200	0.203000
C821	C82	0.944860	0.124820	0.228100
H511	H51	0.957100	0.132400	0.231800
C831	C83	0.926860	0.127580	0.239070
H521	H52	0.926800	0.137600	0.250100
C841	C84	0.897740	0.033380	0.095330
C851	C85	0.861480	0.013210	0.168430
H531	H53	0.850600	0.003200	0.167100
C861	C86	0.862600	0.024620	0.186660
H541	H54	0.853100	0.022000	0.197800
C871	C87	0.877790	0.040070	0.188580
H551	H55	0.878400	0.048700	0.200700
C881	C88	0.892100	0.042490	0.172260
C891	C89	0.890260	0.030010	0.154720
H561	H56	0.900200	0.031700	0.143800
C901	C90	0.908680	0.058770	0.172820
C911	C91	0.925670	0.084610	0.189700
C921	C92	0.935110	0.075890	0.156840
C931	C93	0.962320	0.096010	0.138220
H571	H57	0.963700	0.104200	0.150600
C941	C94	0.947790	0.079520	0.138150
C951	C95	0.945890	0.067350	0.120400
H581	H58	0.936000	0.056200	0.119700
C961	C96	0.958910	0.071920	0.103580
H591	H59	0.958400	0.063600	0.091300
C971	C97	0.972540	0.088600	0.104890
H601	H60	0.981100	0.091600	0.093100
C981	C98	0.017630	0.083010	0.138620
H611	H61	0.007000	0.084100	0.148900
C991	C99	0.029400	0.065400	0.138340
H621	H62	0.026900	0.054500	0.148100
C1001	C100	0.045300	0.063600	0.123330
H631	H63	0.054100	0.051600	0.122900
C1011	C101	0.047830	0.079840	0.109240
C1021	C102	0.035020	0.097310	0.110850
H641	H64	0.037000	0.108500	0.101300
C1031	C103	0.064410	0.079080	0.093020
C1041	C104	0.000590	0.126110	0.074780
N311	N31	0.909040	0.116920	0.235250
N321	N32	0.887150	0.024460	0.106990
N331	N33	0.874970	0.015510	0.152420
N341	N34	0.920400	0.060910	0.155820
N351	N35	0.910340	0.070250	0.190290
N361	N36	0.938870	0.087630	0.173870
N371	N37	0.974320	0.100750	0.121850
N381	N38	0.998810	0.126760	0.092380
N391	N39	0.020090	0.098970	0.125240
N401	N40	0.078310	0.063970	0.094280
S71	S7	0.913040	0.044630	0.078120
S81	S8	0.002160	0.123460	0.049280
C1051	C105	0.840280	0.147420	0.719890
H651	H65	0.852400	0.155600	0.717300
C1061	C106	0.822580	0.150860	0.707500
C1071	C107	0.804770	0.139280	0.711380
H661	H66	0.792600	0.140800	0.703000
C1081	C108	0.805140	0.125180	0.728100
H671	H67	0.792900	0.117600	0.731800
C1091	C109	0.823140	0.122420	0.739070
H681	H68	0.823200	0.112400	0.750100
C1101	C110	0.852260	0.216620	0.595330
C1111	C111	0.888520	0.236790	0.668430
H691	H69	0.899400	0.246800	0.667100
C1121	C112	0.887400	0.225380	0.686660
H701	H70	0.896900	0.228000	0.697800
C1131	C113	0.872210	0.209930	0.688580
H711	H71	0.871600	0.201300	0.700700
C1141	C114	0.857900	0.207510	0.672260
C1151	C115	0.859740	0.219990	0.654720
H721	H72	0.849800	0.218300	0.643800
C1161	C116	0.841320	0.191230	0.672820
C1171	C117	0.824330	0.165390	0.689700
C1181	C118	0.814890	0.174110	0.656840
C1191	C119	0.787680	0.153990	0.638220
H731	H73	0.786300	0.145800	0.650600
C1201	C120	0.802210	0.170480	0.638150
C1211	C121	0.804110	0.182650	0.620400
H741	H74	0.814000	0.193800	0.619700
C1221	C122	0.791090	0.178080	0.603580
H751	H75	0.791600	0.186400	0.591300
C1231	C123	0.777460	0.161400	0.604890
H761	H76	0.768900	0.158400	0.593100
C1241	C124	0.732370	0.166990	0.638620
H771	H77	0.743000	0.165900	0.648900
C1251	C125	0.720600	0.184600	0.638340
H781	H78	0.723100	0.195500	0.648100
C1261	C126	0.704700	0.186400	0.623330
H791	H79	0.695900	0.198400	0.622900
C1271	C127	0.702170	0.170160	0.609240
C1281	C128	0.714980	0.152690	0.610850
H801	H80	0.713000	0.141500	0.601300
C1291	C129	0.685590	0.170920	0.593020
C1301	C130	0.749410	0.123890	0.574780
N411	N41	0.840960	0.133080	0.735250
N421	N42	0.862850	0.225540	0.606990
N431	N43	0.875030	0.234490	0.652420
N441	N44	0.829600	0.189090	0.655820
N451	N45	0.839660	0.179750	0.690290
N461	N46	0.811130	0.162370	0.673870
N471	N47	0.775680	0.149250	0.621850
N481	N48	0.751190	0.123240	0.592380
N491	N49	0.729910	0.151030	0.625240
N501	N50	0.671690	0.186030	0.594280
S91	S9	0.836960	0.205370	0.578120
S101	S10	0.747840	0.126540	0.549280
C1311	C131	0.840280	0.647420	0.219890
H811	H81	0.852400	0.655600	0.217300
C1321	C132	0.822580	0.650860	0.207500
C1331	C133	0.804770	0.639280	0.211380
H821	H82	0.792600	0.640800	0.203000
C1341	C134	0.805140	0.625180	0.228100
H831	H83	0.792900	0.617600	0.231800
C1351	C135	0.823140	0.622420	0.239070
H841	H84	0.823200	0.612400	0.250100
C1361	C136	0.852260	0.716620	0.095330
C1371	C137	0.888520	0.736790	0.168430
H851	H85	0.899400	0.746800	0.167100
C1381	C138	0.887400	0.725380	0.186660
H861	H86	0.896900	0.728000	0.197800
C1391	C139	0.872210	0.709930	0.188580
H871	H87	0.871600	0.701300	0.200700
C1401	C140	0.857900	0.707510	0.172260
C1411	C141	0.859740	0.719990	0.154720
H881	H88	0.849800	0.718300	0.143800
C1421	C142	0.841320	0.691230	0.172820
C1431	C143	0.824330	0.665390	0.189700
C1441	C144	0.814890	0.674110	0.156840
C1451	C145	0.787680	0.653990	0.138220
H891	H89	0.786300	0.645800	0.150600
C1461	C146	0.802210	0.670480	0.138150
C1471	C147	0.804110	0.682650	0.120400
H901	H90	0.814000	0.693800	0.119700
C1481	C148	0.791090	0.678080	0.103580
H911	H91	0.791600	0.686400	0.091300
C1491	C149	0.777460	0.661400	0.104890
H921	H92	0.768900	0.658400	0.093100
C1501	C150	0.732370	0.666990	0.138620
H931	H93	0.743000	0.665900	0.148900
C1511	C151	0.720600	0.684600	0.138340
H941	H94	0.723100	0.695500	0.148100
C1521	C152	0.704700	0.686400	0.123330
H951	H95	0.695900	0.698400	0.122900
C1531	C153	0.702170	0.670160	0.109240
C1541	C154	0.714980	0.652690	0.110850
H961	H96	0.713000	0.641500	0.101300
C1551	C155	0.685590	0.670920	0.093020
C1561	C156	0.749410	0.623890	0.074780
N511	N51	0.840960	0.633080	0.235250
N521	N52	0.862850	0.725540	0.106990
N531	N53	0.875030	0.734490	0.152420
N541	N54	0.829600	0.689090	0.155820
N551	N55	0.839660	0.679750	0.190290
N561	N56	0.811130	0.662370	0.173870
N571	N57	0.775680	0.649250	0.121850
N581	N58	0.751190	0.623240	0.092380
N591	N59	0.729910	0.651030	0.125240
N601	N60	0.671690	0.686030	0.094280
S111	S11	0.836960	0.705370	0.078120
S121	S12	0.747840	0.626540	0.049280
C1571	C157	0.340280	0.147420	0.219890
H971	H97	0.352400	0.155600	0.217300
C1581	C158	0.322580	0.150860	0.207500
C1591	C159	0.304770	0.139280	0.211380
H981	H98	0.292600	0.140800	0.203000
C1601	C160	0.305140	0.125180	0.228100
H991	H99	0.292900	0.117600	0.231800
C1611	C161	0.323140	0.122420	0.239070
H1001	H100	0.323200	0.112400	0.250100
C1621	C162	0.352260	0.216620	0.095330
C1631	C163	0.388520	0.236790	0.168430
H1011	H101	0.399400	0.246800	0.167100
C1641	C164	0.387400	0.225380	0.186660
H1021	H102	0.396900	0.228000	0.197800
C1651	C165	0.372210	0.209930	0.188580
H1031	H103	0.371600	0.201300	0.200700
C1661	C166	0.357900	0.207510	0.172260
C1671	C167	0.359740	0.219990	0.154720
H1041	H104	0.349800	0.218300	0.143800
C1681	C168	0.341320	0.191230	0.172820
C1691	C169	0.324330	0.165390	0.189700
C1701	C170	0.314890	0.174110	0.156840
C1711	C171	0.287680	0.153990	0.138220
H1051	H105	0.286300	0.145800	0.150600
C1721	C172	0.302210	0.170480	0.138150
C1731	C173	0.304110	0.182650	0.120400
H1061	H106	0.314000	0.193800	0.119700
C1741	C174	0.291090	0.178080	0.103580
H1071	H107	0.291600	0.186400	0.091300
C1751	C175	0.277460	0.161400	0.104890
H1081	H108	0.268900	0.158400	0.093100
C1761	C176	0.232370	0.166990	0.138620
H1091	H109	0.243000	0.165900	0.148900
C1771	C177	0.220600	0.184600	0.138340
H1101	H110	0.223100	0.195500	0.148100
C1781	C178	0.204700	0.186400	0.123330
H1111	H111	0.195900	0.198400	0.122900
C1791	C179	0.202170	0.170160	0.109240
C1801	C180	0.214980	0.152690	0.110850
H1121	H112	0.213000	0.141500	0.101300
C1811	C181	0.185590	0.170920	0.093020
C1821	C182	0.249410	0.123890	0.074780
N611	N61	0.340960	0.133080	0.235250
N621	N62	0.362850	0.225540	0.106990
N631	N63	0.375030	0.234490	0.152420
N641	N64	0.329600	0.189090	0.155820
N651	N65	0.339660	0.179750	0.190290
N661	N66	0.311130	0.162370	0.173870
N671	N67	0.275680	0.149250	0.121850
N681	N68	0.251190	0.123240	0.092380
N691	N69	0.229910	0.151030	0.125240
N701	N70	0.171690	0.186030	0.094280
S131	S13	0.336960	0.205370	0.078120
S141	S14	0.247840	0.126540	0.049280
C1831	C183	0.340280	0.647420	0.719890
H1131	H113	0.352400	0.655600	0.717300
C1841	C184	0.322580	0.650860	0.707500
C1851	C185	0.304770	0.639280	0.711380
H1141	H114	0.292600	0.640800	0.703000
C1861	C186	0.305140	0.625180	0.728100
H1151	H115	0.292900	0.617600	0.731800
C1871	C187	0.323140	0.622420	0.739070
H1161	H116	0.323200	0.612400	0.750100
C1881	C188	0.352260	0.716620	0.595330
C1891	C189	0.388520	0.736790	0.668430
H1171	H117	0.399400	0.746800	0.667100
C1901	C190	0.387400	0.725380	0.686660
H1181	H118	0.396900	0.728000	0.697800
C1911	C191	0.372210	0.709930	0.688580
H1191	H119	0.371600	0.701300	0.700700
C1921	C192	0.357900	0.707510	0.672260
C1931	C193	0.359740	0.719990	0.654720
H1201	H120	0.349800	0.718300	0.643800
C1941	C194	0.341320	0.691230	0.672820
C1951	C195	0.324330	0.665390	0.689700
C1961	C196	0.314890	0.674110	0.656840
C1971	C197	0.287680	0.653990	0.638220
H1211	H121	0.286300	0.645800	0.650600
C1981	C198	0.302210	0.670480	0.638150
C1991	C199	0.304110	0.682650	0.620400
H1221	H122	0.314000	0.693800	0.619700
C2001	C200	0.291090	0.678080	0.603580
H1231	H123	0.291600	0.686400	0.591300
C2011	C201	0.277460	0.661400	0.604890
H1241	H124	0.268900	0.658400	0.593100
C2021	C202	0.232370	0.666990	0.638620
H1251	H125	0.243000	0.665900	0.648900
C2031	C203	0.220600	0.684600	0.638340
H1261	H126	0.223100	0.695500	0.648100
C2041	C204	0.204700	0.686400	0.623330
H1271	H127	0.195900	0.698400	0.622900
C2051	C205	0.202170	0.670160	0.609240
C2061	C206	0.214980	0.652690	0.610850
H1281	H128	0.213000	0.641500	0.601300
C2071	C207	0.185590	0.670920	0.593020
C2081	C208	0.249410	0.623890	0.574780
N711	N71	0.340960	0.633080	0.735250
N721	N72	0.362850	0.725540	0.606990
N731	N73	0.375030	0.734490	0.652420
N741	N74	0.329600	0.689090	0.655820
N751	N75	0.339660	0.679750	0.690290
N761	N76	0.311130	0.662370	0.673870
N771	N77	0.275680	0.649250	0.621850
N781	N78	0.251190	0.623240	0.592380
N791	N79	0.229910	0.651030	0.625240
N801	N80	0.171690	0.686030	0.594280
S151	S15	0.336960	0.705370	0.578120
S161	S16	0.247840	0.626540	0.549280
C2091	C209	0.340280	0.102580	0.030110
H1291	H129	0.352400	0.094400	0.032700
C2101	C210	0.322580	0.099140	0.042500
C2111	C211	0.304770	0.110720	0.038620
H1301	H130	0.292600	0.109200	0.047000
C2121	C212	0.305140	0.124820	0.021900
H1311	H131	0.292900	0.132400	0.018200
C2131	C213	0.323140	0.127580	0.010930
H1321	H132	0.323200	0.137600	0.999900
C2141	C214	0.352260	0.033380	0.154670
C2151	C215	0.388520	0.013210	0.081570
H1331	H133	0.399400	0.003200	0.082900
C2161	C216	0.387400	0.024620	0.063340
H1341	H134	0.396900	0.022000	0.052200
C2171	C217	0.372210	0.040070	0.061420
H1351	H135	0.371600	0.048700	0.049300
C2181	C218	0.357900	0.042490	0.077740
C2191	C219	0.359740	0.030010	0.095280
H1361	H136	0.349800	0.031700	0.106200
C2201	C220	0.341320	0.058770	0.077180
C2211	C221	0.324330	0.084610	0.060300
C2221	C222	0.314890	0.075890	0.093160
C2231	C223	0.287680	0.096010	0.111780
H1371	H137	0.286300	0.104200	0.099400
C2241	C224	0.302210	0.079520	0.111850
C2251	C225	0.304110	0.067350	0.129600
H1381	H138	0.314000	0.056200	0.130300
C2261	C226	0.291090	0.071920	0.146420
H1391	H139	0.291600	0.063600	0.158700
C2271	C227	0.277460	0.088600	0.145110
H1401	H140	0.268900	0.091600	0.156900
C2281	C228	0.232370	0.083010	0.111380
H1411	H141	0.243000	0.084100	0.101100
C2291	C229	0.220600	0.065400	0.111660
H1421	H142	0.223100	0.054500	0.101900
C2301	C230	0.204700	0.063600	0.126670
H1431	H143	0.195900	0.051600	0.127100
C2311	C231	0.202170	0.079840	0.140760
C2321	C232	0.214980	0.097310	0.139150
H1441	H144	0.213000	0.108500	0.148700
C2331	C233	0.185590	0.079080	0.156980
C2341	C234	0.249410	0.126110	0.175220
N811	N81	0.340960	0.116920	0.014750
N821	N82	0.362850	0.024460	0.143010
N831	N83	0.375030	0.015510	0.097580
N841	N84	0.329600	0.060910	0.094180
N851	N85	0.339660	0.070250	0.059710
N861	N86	0.311130	0.087630	0.076130
N871	N87	0.275680	0.100750	0.128150
N881	N88	0.251190	0.126760	0.157620
N891	N89	0.229910	0.098970	0.124760
N901	N90	0.171690	0.063970	0.155720
S171	S17	0.336960	0.044630	0.171880
S181	S18	0.247840	0.123460	0.200720
C2351	C235	0.340280	0.602580	0.530110
H1451	H145	0.352400	0.594400	0.532700
C2361	C236	0.322580	0.599140	0.542500
C2371	C237	0.304770	0.610720	0.538620
H1461	H146	0.292600	0.609200	0.547000
C2381	C238	0.305140	0.624820	0.521900
H1471	H147	0.292900	0.632400	0.518200
C2391	C239	0.323140	0.627580	0.510930
H1481	H148	0.323200	0.637600	0.499900
C2401	C240	0.352260	0.533380	0.654670
C2411	C241	0.388520	0.513210	0.581570
H1491	H149	0.399400	0.503200	0.582900
C2421	C242	0.387400	0.524620	0.563340
H1501	H150	0.396900	0.522000	0.552200
C2431	C243	0.372210	0.540070	0.561420
H1511	H151	0.371600	0.548700	0.549300
C2441	C244	0.357900	0.542490	0.577740
C2451	C245	0.359740	0.530010	0.595280
H1521	H152	0.349800	0.531700	0.606200
C2461	C246	0.341320	0.558770	0.577180
C2471	C247	0.324330	0.584610	0.560300
C2481	C248	0.314890	0.575890	0.593160
C2491	C249	0.287680	0.596010	0.611780
H1531	H153	0.286300	0.604200	0.599400
C2501	C250	0.302210	0.579520	0.611850
C2511	C251	0.304110	0.567350	0.629600
H1541	H154	0.314000	0.556200	0.630300
C2521	C252	0.291090	0.571920	0.646420
H1551	H155	0.291600	0.563600	0.658700
C2531	C253	0.277460	0.588600	0.645110
H1561	H156	0.268900	0.591600	0.656900
C2541	C254	0.232370	0.583010	0.611380
H1571	H157	0.243000	0.584100	0.601100
C2551	C255	0.220600	0.565400	0.611660
H1581	H158	0.223100	0.554500	0.601900
C2561	C256	0.204700	0.563600	0.626670
H1591	H159	0.195900	0.551600	0.627100
C2571	C257	0.202170	0.579840	0.640760
C2581	C258	0.214980	0.597310	0.639150
H1601	H160	0.213000	0.608500	0.648700
C2591	C259	0.185590	0.579080	0.656980
C2601	C260	0.249410	0.626110	0.675220
N911	N91	0.340960	0.616920	0.514750
N921	N92	0.362850	0.524460	0.643010
N931	N93	0.375030	0.515510	0.597580
N941	N94	0.329600	0.560910	0.594180
N951	N95	0.339660	0.570250	0.559710
N961	N96	0.311130	0.587630	0.576130
N971	N97	0.275680	0.600750	0.628150
N981	N98	0.251190	0.626760	0.657620
N991	N99	0.229910	0.598970	0.624760
N1001	N100	0.171690	0.563970	0.655720
S191	S19	0.336960	0.544630	0.671880
S201	S20	0.247840	0.623460	0.700720
C2611	C261	0.840280	0.102580	0.530110
H1611	H161	0.852400	0.094400	0.532700
C2621	C262	0.822580	0.099140	0.542500
C2631	C263	0.804770	0.110720	0.538620
H1621	H162	0.792600	0.109200	0.547000
C2641	C264	0.805140	0.124820	0.521900
H1631	H163	0.792900	0.132400	0.518200
C2651	C265	0.823140	0.127580	0.510930
H1641	H164	0.823200	0.137600	0.499900
C2661	C266	0.852260	0.033380	0.654670
C2671	C267	0.888520	0.013210	0.581570
H1651	H165	0.899400	0.003200	0.582900
C2681	C268	0.887400	0.024620	0.563340
H1661	H166	0.896900	0.022000	0.552200
C2691	C269	0.872210	0.040070	0.561420
H1671	H167	0.871600	0.048700	0.549300
C2701	C270	0.857900	0.042490	0.577740
C2711	C271	0.859740	0.030010	0.595280
H1681	H168	0.849800	0.031700	0.606200
C2721	C272	0.841320	0.058770	0.577180
C2731	C273	0.824330	0.084610	0.560300
C2741	C274	0.814890	0.075890	0.593160
C2751	C275	0.787680	0.096010	0.611780
H1691	H169	0.786300	0.104200	0.599400
C2761	C276	0.802210	0.079520	0.611850
C2771	C277	0.804110	0.067350	0.629600
H1701	H170	0.814000	0.056200	0.630300
C2781	C278	0.791090	0.071920	0.646420
H1711	H171	0.791600	0.063600	0.658700
C2791	C279	0.777460	0.088600	0.645110
H1721	H172	0.768900	0.091600	0.656900
C2801	C280	0.732370	0.083010	0.611380
H1731	H173	0.743000	0.084100	0.601100
C2811	C281	0.720600	0.065400	0.611660
H1741	H174	0.723100	0.054500	0.601900
C2821	C282	0.704700	0.063600	0.626670
H1751	H175	0.695900	0.051600	0.627100
C2831	C283	0.702170	0.079840	0.640760
C2841	C284	0.714980	0.097310	0.639150
H1761	H176	0.713000	0.108500	0.648700
C2851	C285	0.685590	0.079080	0.656980
C2861	C286	0.749410	0.126110	0.675220
N1011	N101	0.840960	0.116920	0.514750
N1021	N102	0.862850	0.024460	0.643010
N1031	N103	0.875030	0.015510	0.597580
N1041	N104	0.829600	0.060910	0.594180
N1051	N105	0.839660	0.070250	0.559710
N1061	N106	0.811130	0.087630	0.576130
N1071	N107	0.775680	0.100750	0.628150
N1081	N108	0.751190	0.126760	0.657620
N1091	N109	0.729910	0.098970	0.624760
N1101	N110	0.671690	0.063970	0.655720
S211	S21	0.836960	0.044630	0.671880
S221	S22	0.747840	0.123460	0.700720
C2871	C287	0.840280	0.602580	0.030110
H1771	H177	0.852400	0.594400	0.032700
C2881	C288	0.822580	0.599140	0.042500
C2891	C289	0.804770	0.610720	0.038620
H1781	H178	0.792600	0.609200	0.047000
C2901	C290	0.805140	0.624820	0.021900
H1791	H179	0.792900	0.632400	0.018200
C2911	C291	0.823140	0.627580	0.010930
H1801	H180	0.823200	0.637600	0.999900
C2921	C292	0.852260	0.533380	0.154670
C2931	C293	0.888520	0.513210	0.081570
H1811	H181	0.899400	0.503200	0.082900
C2941	C294	0.887400	0.524620	0.063340
H1821	H182	0.896900	0.522000	0.052200
C2951	C295	0.872210	0.540070	0.061420
H1831	H183	0.871600	0.548700	0.049300
C2961	C296	0.857900	0.542490	0.077740
C2971	C297	0.859740	0.530010	0.095280
H1841	H184	0.849800	0.531700	0.106200
C2981	C298	0.841320	0.558770	0.077180
C2991	C299	0.824330	0.584610	0.060300
C3001	C300	0.814890	0.575890	0.093160
C3011	C301	0.787680	0.596010	0.111780
H1851	H185	0.786300	0.604200	0.099400
C3021	C302	0.802210	0.579520	0.111850
C3031	C303	0.804110	0.567350	0.129600
H1861	H186	0.814000	0.556200	0.130300
C3041	C304	0.791090	0.571920	0.146420
H1871	H187	0.791600	0.563600	0.158700
C3051	C305	0.777460	0.588600	0.145110
H1881	H188	0.768900	0.591600	0.156900
C3061	C306	0.732370	0.583010	0.111380
H1891	H189	0.743000	0.584100	0.101100
C3071	C307	0.720600	0.565400	0.111660
H1901	H190	0.723100	0.554500	0.101900
C3081	C308	0.704700	0.563600	0.126670
H1911	H191	0.695900	0.551600	0.127100
C3091	C309	0.702170	0.579840	0.140760
C3101	C310	0.714980	0.597310	0.139150
H1921	H192	0.713000	0.608500	0.148700
C3111	C311	0.685590	0.579080	0.156980
C3121	C312	0.749410	0.626110	0.175220
N1111	N111	0.840960	0.616920	0.014750
N1121	N112	0.862850	0.524460	0.143010
N1131	N113	0.875030	0.515510	0.097580
N1141	N114	0.829600	0.560910	0.094180
N1151	N115	0.839660	0.570250	0.059710
N1161	N116	0.811130	0.587630	0.076130
N1171	N117	0.775680	0.600750	0.128150
N1181	N118	0.751190	0.626760	0.157620
N1191	N119	0.729910	0.598970	0.124760
N1201	N120	0.671690	0.563970	0.155720
S231	S23	0.836960	0.544630	0.171880
S241	S24	0.747840	0.623460	0.200720
C3131	C313	0.909720	0.647420	0.530110
H1931	H193	0.897600	0.655600	0.532700
C3141	C314	0.927420	0.650860	0.542500
C3151	C315	0.945230	0.639280	0.538620
H1941	H194	0.957400	0.640800	0.547000
C3161	C316	0.944860	0.625180	0.521900
H1951	H195	0.957100	0.617600	0.518200
C3171	C317	0.926860	0.622420	0.510930
H1961	H196	0.926800	0.612400	0.499900
C3181	C318	0.897740	0.716620	0.654670
C3191	C319	0.861480	0.736790	0.581570
H1971	H197	0.850600	0.746800	0.582900
C3201	C320	0.862600	0.725380	0.563340
H1981	H198	0.853100	0.728000	0.552200
C3211	C321	0.877790	0.709930	0.561420
H1991	H199	0.878400	0.701300	0.549300
C3221	C322	0.892100	0.707510	0.577740
C3231	C323	0.890260	0.719990	0.595280
H2001	H200	0.900200	0.718300	0.606200
C3241	C324	0.908680	0.691230	0.577180
C3251	C325	0.925670	0.665390	0.560300
C3261	C326	0.935110	0.674110	0.593160
C3271	C327	0.962320	0.653990	0.611780
H2011	H201	0.963700	0.645800	0.599400
C3281	C328	0.947790	0.670480	0.611850
C3291	C329	0.945890	0.682650	0.629600
H2021	H202	0.936000	0.693800	0.630300
C3301	C330	0.958910	0.678080	0.646420
H2031	H203	0.958400	0.686400	0.658700
C3311	C331	0.972540	0.661400	0.645110
H2041	H204	0.981100	0.658400	0.656900
C3321	C332	0.017630	0.666990	0.611380
H2051	H205	0.007000	0.665900	0.601100
C3331	C333	0.029400	0.684600	0.611660
H2061	H206	0.026900	0.695500	0.601900
C3341	C334	0.045300	0.686400	0.626670
H2071	H207	0.054100	0.698400	0.627100
C3351	C335	0.047830	0.670160	0.640760
C3361	C336	0.035020	0.652690	0.639150
H2081	H208	0.037000	0.641500	0.648700
C3371	C337	0.064410	0.670920	0.656980
C3381	C338	0.000590	0.623890	0.675220
N1211	N121	0.909040	0.633080	0.514750
N1221	N122	0.887150	0.725540	0.643010
N1231	N123	0.874970	0.734490	0.597580
N1241	N124	0.920400	0.689090	0.594180
N1251	N125	0.910340	0.679750	0.559710
N1261	N126	0.938870	0.662370	0.576130
N1271	N127	0.974320	0.649250	0.628150
N1281	N128	0.998810	0.623240	0.657620
N1291	N129	0.020090	0.651030	0.624760
N1301	N130	0.078310	0.686030	0.655720
S251	S25	0.913040	0.705370	0.671880
S261	S26	0.002160	0.626540	0.700720
C3391	C339	0.909720	0.147420	0.030110
H2091	H209	0.897600	0.155600	0.032700
C3401	C340	0.927420	0.150860	0.042500
C3411	C341	0.945230	0.139280	0.038620
H2101	H210	0.957400	0.140800	0.047000
C3421	C342	0.944860	0.125180	0.021900
H2111	H211	0.957100	0.117600	0.018200
C3431	C343	0.926860	0.122420	0.010930
H2121	H212	0.926800	0.112400	0.999900
C3441	C344	0.897740	0.216620	0.154670
C3451	C345	0.861480	0.236790	0.081570
H2131	H213	0.850600	0.246800	0.082900
C3461	C346	0.862600	0.225380	0.063340
H2141	H214	0.853100	0.228000	0.052200
C3471	C347	0.877790	0.209930	0.061420
H2151	H215	0.878400	0.201300	0.049300
C3481	C348	0.892100	0.207510	0.077740
C3491	C349	0.890260	0.219990	0.095280
H2161	H216	0.900200	0.218300	0.106200
C3501	C350	0.908680	0.191230	0.077180
C3511	C351	0.925670	0.165390	0.060300
C3521	C352	0.935110	0.174110	0.093160
C3531	C353	0.962320	0.153990	0.111780
H2171	H217	0.963700	0.145800	0.099400
C3541	C354	0.947790	0.170480	0.111850
C3551	C355	0.945890	0.182650	0.129600
H2181	H218	0.936000	0.193800	0.130300
C3561	C356	0.958910	0.178080	0.146420
H2191	H219	0.958400	0.186400	0.158700
C3571	C357	0.972540	0.161400	0.145110
H2201	H220	0.981100	0.158400	0.156900
C3581	C358	0.017630	0.166990	0.111380
H2211	H221	0.007000	0.165900	0.101100
C3591	C359	0.029400	0.184600	0.111660
H2221	H222	0.026900	0.195500	0.101900
C3601	C360	0.045300	0.186400	0.126670
H2231	H223	0.054100	0.198400	0.127100
C3611	C361	0.047830	0.170160	0.140760
C3621	C362	0.035020	0.152690	0.139150
H2241	H224	0.037000	0.141500	0.148700
C3631	C363	0.064410	0.170920	0.156980
C3641	C364	0.000590	0.123890	0.175220
N1311	N131	0.909040	0.133080	0.014750
N1321	N132	0.887150	0.225540	0.143010
N1331	N133	0.874970	0.234490	0.097580
N1341	N134	0.920400	0.189090	0.094180
N1351	N135	0.910340	0.179750	0.059710
N1361	N136	0.938870	0.162370	0.076130
N1371	N137	0.974320	0.149250	0.128150
N1381	N138	0.998810	0.123240	0.157620
N1391	N139	0.020090	0.151030	0.124760
N1401	N140	0.078310	0.186030	0.155720
S271	S27	0.913040	0.205370	0.171880
S281	S28	0.002160	0.126540	0.200720
C3651	C365	0.409720	0.647420	0.030110
H2251	H225	0.397600	0.655600	0.032700
C3661	C366	0.427420	0.650860	0.042500
C3671	C367	0.445230	0.639280	0.038620
H2261	H226	0.457400	0.640800	0.047000
C3681	C368	0.444860	0.625180	0.021900
H2271	H227	0.457100	0.617600	0.018200
C3691	C369	0.426860	0.622420	0.010930
H2281	H228	0.426800	0.612400	0.999900
C3701	C370	0.397740	0.716620	0.154670
C3711	C371	0.361480	0.736790	0.081570
H2291	H229	0.350600	0.746800	0.082900
C3721	C372	0.362600	0.725380	0.063340
H2301	H230	0.353100	0.728000	0.052200
C3731	C373	0.377790	0.709930	0.061420
H2311	H231	0.378400	0.701300	0.049300
C3741	C374	0.392100	0.707510	0.077740
C3751	C375	0.390260	0.719990	0.095280
H2321	H232	0.400200	0.718300	0.106200
C3761	C376	0.408680	0.691230	0.077180
C3771	C377	0.425670	0.665390	0.060300
C3781	C378	0.435110	0.674110	0.093160
C3791	C379	0.462320	0.653990	0.111780
H2331	H233	0.463700	0.645800	0.099400
C3801	C380	0.447790	0.670480	0.111850
C3811	C381	0.445890	0.682650	0.129600
H2341	H234	0.436000	0.693800	0.130300
C3821	C382	0.458910	0.678080	0.146420
H2351	H235	0.458400	0.686400	0.158700
C3831	C383	0.472540	0.661400	0.145110
H2361	H236	0.481100	0.658400	0.156900
C3841	C384	0.517630	0.666990	0.111380
H2371	H237	0.507000	0.665900	0.101100
C3851	C385	0.529400	0.684600	0.111660
H2381	H238	0.526900	0.695500	0.101900
C3861	C386	0.545300	0.686400	0.126670
H2391	H239	0.554100	0.698400	0.127100
C3871	C387	0.547830	0.670160	0.140760
C3881	C388	0.535020	0.652690	0.139150
H2401	H240	0.537000	0.641500	0.148700
C3891	C389	0.564410	0.670920	0.156980
C3901	C390	0.500590	0.623890	0.175220
N1411	N141	0.409040	0.633080	0.014750
N1421	N142	0.387150	0.725540	0.143010
N1431	N143	0.374970	0.734490	0.097580
N1441	N144	0.420400	0.689090	0.094180
N1451	N145	0.410340	0.679750	0.059710
N1461	N146	0.438870	0.662370	0.076130
N1471	N147	0.474320	0.649250	0.128150
N1481	N148	0.498810	0.623240	0.157620
N1491	N149	0.520090	0.651030	0.124760
N1501	N150	0.578310	0.686030	0.155720
S291	S29	0.413040	0.705370	0.171880
S301	S30	0.502160	0.626540	0.200720
C3911	C391	0.409720	0.147420	0.530110
H2411	H241	0.397600	0.155600	0.532700
C3921	C392	0.427420	0.150860	0.542500
C3931	C393	0.445230	0.139280	0.538620
H2421	H242	0.457400	0.140800	0.547000
C3941	C394	0.444860	0.125180	0.521900
H2431	H243	0.457100	0.117600	0.518200
C3951	C395	0.426860	0.122420	0.510930
H2441	H244	0.426800	0.112400	0.499900
C3961	C396	0.397740	0.216620	0.654670
C3971	C397	0.361480	0.236790	0.581570
H2451	H245	0.350600	0.246800	0.582900
C3981	C398	0.362600	0.225380	0.563340
H2461	H246	0.353100	0.228000	0.552200
C3991	C399	0.377790	0.209930	0.561420
H2471	H247	0.378400	0.201300	0.549300
C4001	C400	0.392100	0.207510	0.577740
C4011	C401	0.390260	0.219990	0.595280
H2481	H248	0.400200	0.218300	0.606200
C4021	C402	0.408680	0.191230	0.577180
C4031	C403	0.425670	0.165390	0.560300
C4041	C404	0.435110	0.174110	0.593160
C4051	C405	0.462320	0.153990	0.611780
H2491	H249	0.463700	0.145800	0.599400
C4061	C406	0.447790	0.170480	0.611850
C4071	C407	0.445890	0.182650	0.629600
H2501	H250	0.436000	0.193800	0.630300
C4081	C408	0.458910	0.178080	0.646420
H2511	H251	0.458400	0.186400	0.658700
C4091	C409	0.472540	0.161400	0.645110
H2521	H252	0.481100	0.158400	0.656900
C4101	C410	0.517630	0.166990	0.611380
H2531	H253	0.507000	0.165900	0.601100
C4111	C411	0.529400	0.184600	0.611660
H2541	H254	0.526900	0.195500	0.601900
C4121	C412	0.545300	0.186400	0.626670
H2551	H255	0.554100	0.198400	0.627100
C4131	C413	0.547830	0.170160	0.640760
C4141	C414	0.535020	0.152690	0.639150
H2561	H256	0.537000	0.141500	0.648700
C4151	C415	0.564410	0.170920	0.656980
C4161	C416	0.500590	0.123890	0.675220
N1511	N151	0.409040	0.133080	0.514750
N1521	N152	0.387150	0.225540	0.643010
N1531	N153	0.374970	0.234490	0.597580
N1541	N154	0.420400	0.189090	0.594180
N1551	N155	0.410340	0.179750	0.559710
N1561	N156	0.438870	0.162370	0.576130
N1571	N157	0.474320	0.149250	0.628150
N1581	N158	0.498810	0.123240	0.657620
N1591	N159	0.520090	0.151030	0.624760
N1601	N160	0.578310	0.186030	0.655720
S311	S31	0.413040	0.205370	0.671880
S321	S32	0.502160	0.126540	0.700720
C4171	C417	0.219890	0.409720	0.602580
H2571	H257	0.217300	0.397600	0.594400
C4181	C418	0.207500	0.427420	0.599140
C4191	C419	0.211380	0.445230	0.610720
H2581	H258	0.203000	0.457400	0.609200
C4201	C420	0.228100	0.444860	0.624820
H2591	H259	0.231800	0.457100	0.632400
C4211	C421	0.239070	0.426860	0.627580
H2601	H260	0.250100	0.426800	0.637600
C4221	C422	0.095330	0.397740	0.533380
C4231	C423	0.168430	0.361480	0.513210
H2611	H261	0.167100	0.350600	0.503200
C4241	C424	0.186660	0.362600	0.524620
H2621	H262	0.197800	0.353100	0.522000
C4251	C425	0.188580	0.377790	0.540070
H2631	H263	0.200700	0.378400	0.548700
C4261	C426	0.172260	0.392100	0.542490
C4271	C427	0.154720	0.390260	0.530010
H2641	H264	0.143800	0.400200	0.531700
C4281	C428	0.172820	0.408680	0.558770
C4291	C429	0.189700	0.425670	0.584610
C4301	C430	0.156840	0.435110	0.575890
C4311	C431	0.138220	0.462320	0.596010
H2651	H265	0.150600	0.463700	0.604200
C4321	C432	0.138150	0.447790	0.579520
C4331	C433	0.120400	0.445890	0.567350
H2661	H266	0.119700	0.436000	0.556200
C4341	C434	0.103580	0.458910	0.571920
H2671	H267	0.091300	0.458400	0.563600
C4351	C435	0.104890	0.472540	0.588600
H2681	H268	0.093100	0.481100	0.591600
C4361	C436	0.138620	0.517630	0.583010
H2691	H269	0.148900	0.507000	0.584100
C4371	C437	0.138340	0.529400	0.565400
H2701	H270	0.148100	0.526900	0.554500
C4381	C438	0.123330	0.545300	0.563600
H2711	H271	0.122900	0.554100	0.551600
C4391	C439	0.109240	0.547830	0.579840
C4401	C440	0.110850	0.535020	0.597310
H2721	H272	0.101300	0.537000	0.608500
C4411	C441	0.093020	0.564410	0.579080
C4421	C442	0.074780	0.500590	0.626110
N1611	N161	0.235250	0.409040	0.616920
N1621	N162	0.106990	0.387150	0.524460
N1631	N163	0.152420	0.374970	0.515510
N1641	N164	0.155820	0.420400	0.560910
N1651	N165	0.190290	0.410340	0.570250
N1661	N166	0.173870	0.438870	0.587630
N1671	N167	0.121850	0.474320	0.600750
N1681	N168	0.092380	0.498810	0.626760
N1691	N169	0.125240	0.520090	0.598970
N1701	N170	0.094280	0.578310	0.563970
S331	S33	0.078120	0.413040	0.544630
S341	S34	0.049280	0.502160	0.623460
C4431	C443	0.219890	0.909720	0.102580
H2731	H273	0.217300	0.897600	0.094400
C4441	C444	0.207500	0.927420	0.099140
C4451	C445	0.211380	0.945230	0.110720
H2741	H274	0.203000	0.957400	0.109200
C4461	C446	0.228100	0.944860	0.124820
H2751	H275	0.231800	0.957100	0.132400
C4471	C447	0.239070	0.926860	0.127580
H2761	H276	0.250100	0.926800	0.137600
C4481	C448	0.095330	0.897740	0.033380
C4491	C449	0.168430	0.861480	0.013210
H2771	H277	0.167100	0.850600	0.003200
C4501	C450	0.186660	0.862600	0.024620
H2781	H278	0.197800	0.853100	0.022000
C4511	C451	0.188580	0.877790	0.040070
H2791	H279	0.200700	0.878400	0.048700
C4521	C452	0.172260	0.892100	0.042490
C4531	C453	0.154720	0.890260	0.030010
H2801	H280	0.143800	0.900200	0.031700
C4541	C454	0.172820	0.908680	0.058770
C4551	C455	0.189700	0.925670	0.084610
C4561	C456	0.156840	0.935110	0.075890
C4571	C457	0.138220	0.962320	0.096010
H2811	H281	0.150600	0.963700	0.104200
C4581	C458	0.138150	0.947790	0.079520
C4591	C459	0.120400	0.945890	0.067350
H2821	H282	0.119700	0.936000	0.056200
C4601	C460	0.103580	0.958910	0.071920
H2831	H283	0.091300	0.958400	0.063600
C4611	C461	0.104890	0.972540	0.088600
H2841	H284	0.093100	0.981100	0.091600
C4621	C462	0.138620	0.017630	0.083010
H2851	H285	0.148900	0.007000	0.084100
C4631	C463	0.138340	0.029400	0.065400
H2861	H286	0.148100	0.026900	0.054500
C4641	C464	0.123330	0.045300	0.063600
H2871	H287	0.122900	0.054100	0.051600
C4651	C465	0.109240	0.047830	0.079840
C4661	C466	0.110850	0.035020	0.097310
H2881	H288	0.101300	0.037000	0.108500
C4671	C467	0.093020	0.064410	0.079080
C4681	C468	0.074780	0.000590	0.126110
N1711	N171	0.235250	0.909040	0.116920
N1721	N172	0.106990	0.887150	0.024460
N1731	N173	0.152420	0.874970	0.015510
N1741	N174	0.155820	0.920400	0.060910
N1751	N175	0.190290	0.910340	0.070250
N1761	N176	0.173870	0.938870	0.087630
N1771	N177	0.121850	0.974320	0.100750
N1781	N178	0.092380	0.998810	0.126760
N1791	N179	0.125240	0.020090	0.098970
N1801	N180	0.094280	0.078310	0.063970
S351	S35	0.078120	0.913040	0.044630
S361	S36	0.049280	0.002160	0.123460
C4691	C469	0.719890	0.409720	0.102580
H2891	H289	0.717300	0.397600	0.094400
C4701	C470	0.707500	0.427420	0.099140
C4711	C471	0.711380	0.445230	0.110720
H2901	H290	0.703000	0.457400	0.109200
C4721	C472	0.728100	0.444860	0.124820
H2911	H291	0.731800	0.457100	0.132400
C4731	C473	0.739070	0.426860	0.127580
H2921	H292	0.750100	0.426800	0.137600
C4741	C474	0.595330	0.397740	0.033380
C4751	C475	0.668430	0.361480	0.013210
H2931	H293	0.667100	0.350600	0.003200
C4761	C476	0.686660	0.362600	0.024620
H2941	H294	0.697800	0.353100	0.022000
C4771	C477	0.688580	0.377790	0.040070
H2951	H295	0.700700	0.378400	0.048700
C4781	C478	0.672260	0.392100	0.042490
C4791	C479	0.654720	0.390260	0.030010
H2961	H296	0.643800	0.400200	0.031700
C4801	C480	0.672820	0.408680	0.058770
C4811	C481	0.689700	0.425670	0.084610
C4821	C482	0.656840	0.435110	0.075890
C4831	C483	0.638220	0.462320	0.096010
H2971	H297	0.650600	0.463700	0.104200
C4841	C484	0.638150	0.447790	0.079520
C4851	C485	0.620400	0.445890	0.067350
H2981	H298	0.619700	0.436000	0.056200
C4861	C486	0.603580	0.458910	0.071920
H2991	H299	0.591300	0.458400	0.063600
C4871	C487	0.604890	0.472540	0.088600
H3001	H300	0.593100	0.481100	0.091600
C4881	C488	0.638620	0.517630	0.083010
H3011	H301	0.648900	0.507000	0.084100
C4891	C489	0.638340	0.529400	0.065400
H3021	H302	0.648100	0.526900	0.054500
C4901	C490	0.623330	0.545300	0.063600
H3031	H303	0.622900	0.554100	0.051600
C4911	C491	0.609240	0.547830	0.079840
C4921	C492	0.610850	0.535020	0.097310
H3041	H304	0.601300	0.537000	0.108500
C4931	C493	0.593020	0.564410	0.079080
C4941	C494	0.574780	0.500590	0.126110
N1811	N181	0.735250	0.409040	0.116920
N1821	N182	0.606990	0.387150	0.024460
N1831	N183	0.652420	0.374970	0.015510
N1841	N184	0.655820	0.420400	0.060910
N1851	N185	0.690290	0.410340	0.070250
N1861	N186	0.673870	0.438870	0.087630
N1871	N187	0.621850	0.474320	0.100750
N1881	N188	0.592380	0.498810	0.126760
N1891	N189	0.625240	0.520090	0.098970
N1901	N190	0.594280	0.578310	0.063970
S371	S37	0.578120	0.413040	0.044630
S381	S38	0.549280	0.502160	0.123460
C4951	C495	0.719890	0.909720	0.602580
H3051	H305	0.717300	0.897600	0.594400
C4961	C496	0.707500	0.927420	0.599140
C4971	C497	0.711380	0.945230	0.610720
H3061	H306	0.703000	0.957400	0.609200
C4981	C498	0.728100	0.944860	0.624820
H3071	H307	0.731800	0.957100	0.632400
C4991	C499	0.739070	0.926860	0.627580
H3081	H308	0.750100	0.926800	0.637600
C5001	C500	0.595330	0.897740	0.533380
C5011	C501	0.668430	0.861480	0.513210
H3091	H309	0.667100	0.850600	0.503200
C5021	C502	0.686660	0.862600	0.524620
H3101	H310	0.697800	0.853100	0.522000
C5031	C503	0.688580	0.877790	0.540070
H3111	H311	0.700700	0.878400	0.548700
C5041	C504	0.672260	0.892100	0.542490
C5051	C505	0.654720	0.890260	0.530010
H3121	H312	0.643800	0.900200	0.531700
C5061	C506	0.672820	0.908680	0.558770
C5071	C507	0.689700	0.925670	0.584610
C5081	C508	0.656840	0.935110	0.575890
C5091	C509	0.638220	0.962320	0.596010
H3131	H313	0.650600	0.963700	0.604200
C5101	C510	0.638150	0.947790	0.579520
C5111	C511	0.620400	0.945890	0.567350
H3141	H314	0.619700	0.936000	0.556200
C5121	C512	0.603580	0.958910	0.571920
H3151	H315	0.591300	0.958400	0.563600
C5131	C513	0.604890	0.972540	0.588600
H3161	H316	0.593100	0.981100	0.591600
C5141	C514	0.638620	0.017630	0.583010
H3171	H317	0.648900	0.007000	0.584100
C5151	C515	0.638340	0.029400	0.565400
H3181	H318	0.648100	0.026900	0.554500
C5161	C516	0.623330	0.045300	0.563600
H3191	H319	0.622900	0.054100	0.551600
C5171	C517	0.609240	0.047830	0.579840
C5181	C518	0.610850	0.035020	0.597310
H3201	H320	0.601300	0.037000	0.608500
C5191	C519	0.593020	0.064410	0.579080
C5201	C520	0.574780	0.000590	0.626110
N1911	N191	0.735250	0.909040	0.616920
N1921	N192	0.606990	0.887150	0.524460
N1931	N193	0.652420	0.874970	0.515510
N1941	N194	0.655820	0.920400	0.560910
N1951	N195	0.690290	0.910340	0.570250
N1961	N196	0.673870	0.938870	0.587630
N1971	N197	0.621850	0.974320	0.600750
N1981	N198	0.592380	0.998810	0.626760
N1991	N199	0.625240	0.020090	0.598970
N2001	N200	0.594280	0.078310	0.563970
S391	S39	0.578120	0.913040	0.544630
S401	S40	0.549280	0.002160	0.623460
C5211	C521	0.719890	0.840280	0.147420
H3211	H321	0.717300	0.852400	0.155600
C5221	C522	0.707500	0.822580	0.150860
C5231	C523	0.711380	0.804770	0.139280
H3221	H322	0.703000	0.792600	0.140800
C5241	C524	0.728100	0.805140	0.125180
H3231	H323	0.731800	0.792900	0.117600
C5251	C525	0.739070	0.823140	0.122420
H3241	H324	0.750100	0.823200	0.112400
C5261	C526	0.595330	0.852260	0.216620
C5271	C527	0.668430	0.888520	0.236790
H3251	H325	0.667100	0.899400	0.246800
C5281	C528	0.686660	0.887400	0.225380
H3261	H326	0.697800	0.896900	0.228000
C5291	C529	0.688580	0.872210	0.209930
H3271	H327	0.700700	0.871600	0.201300
C5301	C530	0.672260	0.857900	0.207510
C5311	C531	0.654720	0.859740	0.219990
H3281	H328	0.643800	0.849800	0.218300
C5321	C532	0.672820	0.841320	0.191230
C5331	C533	0.689700	0.824330	0.165390
C5341	C534	0.656840	0.814890	0.174110
C5351	C535	0.638220	0.787680	0.153990
H3291	H329	0.650600	0.786300	0.145800
C5361	C536	0.638150	0.802210	0.170480
C5371	C537	0.620400	0.804110	0.182650
H3301	H330	0.619700	0.814000	0.193800
C5381	C538	0.603580	0.791090	0.178080
H3311	H331	0.591300	0.791600	0.186400
C5391	C539	0.604890	0.777460	0.161400
H3321	H332	0.593100	0.768900	0.158400
C5401	C540	0.638620	0.732370	0.166990
H3331	H333	0.648900	0.743000	0.165900
C5411	C541	0.638340	0.720600	0.184600
H3341	H334	0.648100	0.723100	0.195500
C5421	C542	0.623330	0.704700	0.186400
H3351	H335	0.622900	0.695900	0.198400
C5431	C543	0.609240	0.702170	0.170160
C5441	C544	0.610850	0.714980	0.152690
H3361	H336	0.601300	0.713000	0.141500
C5451	C545	0.593020	0.685590	0.170920
C5461	C546	0.574780	0.749410	0.123890
N2011	N201	0.735250	0.840960	0.133080
N2021	N202	0.606990	0.862850	0.225540
N2031	N203	0.652420	0.875030	0.234490
N2041	N204	0.655820	0.829600	0.189090
N2051	N205	0.690290	0.839660	0.179750
N2061	N206	0.673870	0.811130	0.162370
N2071	N207	0.621850	0.775680	0.149250
N2081	N208	0.592380	0.751190	0.123240
N2091	N209	0.625240	0.729910	0.151030
N2101	N210	0.594280	0.671690	0.186030
S411	S41	0.578120	0.836960	0.205370
S421	S42	0.549280	0.747840	0.126540
C5471	C547	0.719890	0.340280	0.647420
H3371	H337	0.717300	0.352400	0.655600
C5481	C548	0.707500	0.322580	0.650860
C5491	C549	0.711380	0.304770	0.639280
H3381	H338	0.703000	0.292600	0.640800
C5501	C550	0.728100	0.305140	0.625180
H3391	H339	0.731800	0.292900	0.617600
C5511	C551	0.739070	0.323140	0.622420
H3401	H340	0.750100	0.323200	0.612400
C5521	C552	0.595330	0.352260	0.716620
C5531	C553	0.668430	0.388520	0.736790
H3411	H341	0.667100	0.399400	0.746800
C5541	C554	0.686660	0.387400	0.725380
H3421	H342	0.697800	0.396900	0.728000
C5551	C555	0.688580	0.372210	0.709930
H3431	H343	0.700700	0.371600	0.701300
C5561	C556	0.672260	0.357900	0.707510
C5571	C557	0.654720	0.359740	0.719990
H3441	H344	0.643800	0.349800	0.718300
C5581	C558	0.672820	0.341320	0.691230
C5591	C559	0.689700	0.324330	0.665390
C5601	C560	0.656840	0.314890	0.674110
C5611	C561	0.638220	0.287680	0.653990
H3451	H345	0.650600	0.286300	0.645800
C5621	C562	0.638150	0.302210	0.670480
C5631	C563	0.620400	0.304110	0.682650
H3461	H346	0.619700	0.314000	0.693800
C5641	C564	0.603580	0.291090	0.678080
H3471	H347	0.591300	0.291600	0.686400
C5651	C565	0.604890	0.277460	0.661400
H3481	H348	0.593100	0.268900	0.658400
C5661	C566	0.638620	0.232370	0.666990
H3491	H349	0.648900	0.243000	0.665900
C5671	C567	0.638340	0.220600	0.684600
H3501	H350	0.648100	0.223100	0.695500
C5681	C568	0.623330	0.204700	0.686400
H3511	H351	0.622900	0.195900	0.698400
C5691	C569	0.609240	0.202170	0.670160
C5701	C570	0.610850	0.214980	0.652690
H3521	H352	0.601300	0.213000	0.641500
C5711	C571	0.593020	0.185590	0.670920
C5721	C572	0.574780	0.249410	0.623890
N2111	N211	0.735250	0.340960	0.633080
N2121	N212	0.606990	0.362850	0.725540
N2131	N213	0.652420	0.375030	0.734490
N2141	N214	0.655820	0.329600	0.689090
N2151	N215	0.690290	0.339660	0.679750
N2161	N216	0.673870	0.311130	0.662370
N2171	N217	0.621850	0.275680	0.649250
N2181	N218	0.592380	0.251190	0.623240
N2191	N219	0.625240	0.229910	0.651030
N2201	N220	0.594280	0.171690	0.686030
S431	S43	0.578120	0.336960	0.705370
S441	S44	0.549280	0.247840	0.626540
C5731	C573	0.219890	0.840280	0.647420
H3531	H353	0.217300	0.852400	0.655600
C5741	C574	0.207500	0.822580	0.650860
C5751	C575	0.211380	0.804770	0.639280
H3541	H354	0.203000	0.792600	0.640800
C5761	C576	0.228100	0.805140	0.625180
H3551	H355	0.231800	0.792900	0.617600
C5771	C577	0.239070	0.823140	0.622420
H3561	H356	0.250100	0.823200	0.612400
C5781	C578	0.095330	0.852260	0.716620
C5791	C579	0.168430	0.888520	0.736790
H3571	H357	0.167100	0.899400	0.746800
C5801	C580	0.186660	0.887400	0.725380
H3581	H358	0.197800	0.896900	0.728000
C5811	C581	0.188580	0.872210	0.709930
H3591	H359	0.200700	0.871600	0.701300
C5821	C582	0.172260	0.857900	0.707510
C5831	C583	0.154720	0.859740	0.719990
H3601	H360	0.143800	0.849800	0.718300
C5841	C584	0.172820	0.841320	0.691230
C5851	C585	0.189700	0.824330	0.665390
C5861	C586	0.156840	0.814890	0.674110
C5871	C587	0.138220	0.787680	0.653990
H3611	H361	0.150600	0.786300	0.645800
C5881	C588	0.138150	0.802210	0.670480
C5891	C589	0.120400	0.804110	0.682650
H3621	H362	0.119700	0.814000	0.693800
C5901	C590	0.103580	0.791090	0.678080
H3631	H363	0.091300	0.791600	0.686400
C5911	C591	0.104890	0.777460	0.661400
H3641	H364	0.093100	0.768900	0.658400
C5921	C592	0.138620	0.732370	0.666990
H3651	H365	0.148900	0.743000	0.665900
C5931	C593	0.138340	0.720600	0.684600
H3661	H366	0.148100	0.723100	0.695500
C5941	C594	0.123330	0.704700	0.686400
H3671	H367	0.122900	0.695900	0.698400
C5951	C595	0.109240	0.702170	0.670160
C5961	C596	0.110850	0.714980	0.652690
H3681	H368	0.101300	0.713000	0.641500
C5971	C597	0.093020	0.685590	0.670920
C5981	C598	0.074780	0.749410	0.623890
N2211	N221	0.235250	0.840960	0.633080
N2221	N222	0.106990	0.862850	0.725540
N2231	N223	0.152420	0.875030	0.734490
N2241	N224	0.155820	0.829600	0.689090
N2251	N225	0.190290	0.839660	0.679750
N2261	N226	0.173870	0.811130	0.662370
N2271	N227	0.121850	0.775680	0.649250
N2281	N228	0.092380	0.751190	0.623240
N2291	N229	0.125240	0.729910	0.651030
N2301	N230	0.094280	0.671690	0.686030
S451	S45	0.078120	0.836960	0.705370
S461	S46	0.049280	0.747840	0.626540
C5991	C599	0.219890	0.340280	0.147420
H3691	H369	0.217300	0.352400	0.155600
C6001	C600	0.207500	0.322580	0.150860
C6011	C601	0.211380	0.304770	0.139280
H3701	H370	0.203000	0.292600	0.140800
C6021	C602	0.228100	0.305140	0.125180
H3711	H371	0.231800	0.292900	0.117600
C6031	C603	0.239070	0.323140	0.122420
H3721	H372	0.250100	0.323200	0.112400
C6041	C604	0.095330	0.352260	0.216620
C6051	C605	0.168430	0.388520	0.236790
H3731	H373	0.167100	0.399400	0.246800
C6061	C606	0.186660	0.387400	0.225380
H3741	H374	0.197800	0.396900	0.228000
C6071	C607	0.188580	0.372210	0.209930
H3751	H375	0.200700	0.371600	0.201300
C6081	C608	0.172260	0.357900	0.207510
C6091	C609	0.154720	0.359740	0.219990
H3761	H376	0.143800	0.349800	0.218300
C6101	C610	0.172820	0.341320	0.191230
C6111	C611	0.189700	0.324330	0.165390
C6121	C612	0.156840	0.314890	0.174110
C6131	C613	0.138220	0.287680	0.153990
H3771	H377	0.150600	0.286300	0.145800
C6141	C614	0.138150	0.302210	0.170480
C6151	C615	0.120400	0.304110	0.182650
H3781	H378	0.119700	0.314000	0.193800
C6161	C616	0.103580	0.291090	0.178080
H3791	H379	0.091300	0.291600	0.186400
C6171	C617	0.104890	0.277460	0.161400
H3801	H380	0.093100	0.268900	0.158400
C6181	C618	0.138620	0.232370	0.166990
H3811	H381	0.148900	0.243000	0.165900
C6191	C619	0.138340	0.220600	0.184600
H3821	H382	0.148100	0.223100	0.195500
C6201	C620	0.123330	0.204700	0.186400
H3831	H383	0.122900	0.195900	0.198400
C6211	C621	0.109240	0.202170	0.170160
C6221	C622	0.110850	0.214980	0.152690
H3841	H384	0.101300	0.213000	0.141500
C6231	C623	0.093020	0.185590	0.170920
C6241	C624	0.074780	0.249410	0.123890
N2311	N231	0.235250	0.340960	0.133080
N2321	N232	0.106990	0.362850	0.225540
N2331	N233	0.152420	0.375030	0.234490
N2341	N234	0.155820	0.329600	0.189090
N2351	N235	0.190290	0.339660	0.179750
N2361	N236	0.173870	0.311130	0.162370
N2371	N237	0.121850	0.275680	0.149250
N2381	N238	0.092380	0.251190	0.123240
N2391	N239	0.125240	0.229910	0.151030
N2401	N240	0.094280	0.171690	0.186030
S471	S47	0.078120	0.336960	0.205370
S481	S48	0.049280	0.247840	0.126540
C6251	C625	0.030110	0.340280	0.102580
H3851	H385	0.032700	0.352400	0.094400
C6261	C626	0.042500	0.322580	0.099140
C6271	C627	0.038620	0.304770	0.110720
H3861	H386	0.047000	0.292600	0.109200
C6281	C628	0.021900	0.305140	0.124820
H3871	H387	0.018200	0.292900	0.132400
C6291	C629	0.010930	0.323140	0.127580
H3881	H388	0.999900	0.323200	0.137600
C6301	C630	0.154670	0.352260	0.033380
C6311	C631	0.081570	0.388520	0.013210
H3891	H389	0.082900	0.399400	0.003200
C6321	C632	0.063340	0.387400	0.024620
H3901	H390	0.052200	0.396900	0.022000
C6331	C633	0.061420	0.372210	0.040070
H3911	H391	0.049300	0.371600	0.048700
C6341	C634	0.077740	0.357900	0.042490
C6351	C635	0.095280	0.359740	0.030010
H3921	H392	0.106200	0.349800	0.031700
C6361	C636	0.077180	0.341320	0.058770
C6371	C637	0.060300	0.324330	0.084610
C6381	C638	0.093160	0.314890	0.075890
C6391	C639	0.111780	0.287680	0.096010
H3931	H393	0.099400	0.286300	0.104200
C6401	C640	0.111850	0.302210	0.079520
C6411	C641	0.129600	0.304110	0.067350
H3941	H394	0.130300	0.314000	0.056200
C6421	C642	0.146420	0.291090	0.071920
H3951	H395	0.158700	0.291600	0.063600
C6431	C643	0.145110	0.277460	0.088600
H3961	H396	0.156900	0.268900	0.091600
C6441	C644	0.111380	0.232370	0.083010
H3971	H397	0.101100	0.243000	0.084100
C6451	C645	0.111660	0.220600	0.065400
H3981	H398	0.101900	0.223100	0.054500
C6461	C646	0.126670	0.204700	0.063600
H3991	H399	0.127100	0.195900	0.051600
C6471	C647	0.140760	0.202170	0.079840
C6481	C648	0.139150	0.214980	0.097310
H4001	H400	0.148700	0.213000	0.108500
C6491	C649	0.156980	0.185590	0.079080
C6501	C650	0.175220	0.249410	0.126110
N2411	N241	0.014750	0.340960	0.116920
N2421	N242	0.143010	0.362850	0.024460
N2431	N243	0.097580	0.375030	0.015510
N2441	N244	0.094180	0.329600	0.060910
N2451	N245	0.059710	0.339660	0.070250
N2461	N246	0.076130	0.311130	0.087630
N2471	N247	0.128150	0.275680	0.100750
N2481	N248	0.157620	0.251190	0.126760
N2491	N249	0.124760	0.229910	0.098970
N2501	N250	0.155720	0.171690	0.063970
S491	S49	0.171880	0.336960	0.044630
S501	S50	0.200720	0.247840	0.123460
C6511	C651	0.030110	0.840280	0.602580
H4011	H401	0.032700	0.852400	0.594400
C6521	C652	0.042500	0.822580	0.599140
C6531	C653	0.038620	0.804770	0.610720
H4021	H402	0.047000	0.792600	0.609200
C6541	C654	0.021900	0.805140	0.624820
H4031	H403	0.018200	0.792900	0.632400
C6551	C655	0.010930	0.823140	0.627580
H4041	H404	0.999900	0.823200	0.637600
C6561	C656	0.154670	0.852260	0.533380
C6571	C657	0.081570	0.888520	0.513210
H4051	H405	0.082900	0.899400	0.503200
C6581	C658	0.063340	0.887400	0.524620
H4061	H406	0.052200	0.896900	0.522000
C6591	C659	0.061420	0.872210	0.540070
H4071	H407	0.049300	0.871600	0.548700
C6601	C660	0.077740	0.857900	0.542490
C6611	C661	0.095280	0.859740	0.530010
H4081	H408	0.106200	0.849800	0.531700
C6621	C662	0.077180	0.841320	0.558770
C6631	C663	0.060300	0.824330	0.584610
C6641	C664	0.093160	0.814890	0.575890
C6651	C665	0.111780	0.787680	0.596010
H4091	H409	0.099400	0.786300	0.604200
C6661	C666	0.111850	0.802210	0.579520
C6671	C667	0.129600	0.804110	0.567350
H4101	H410	0.130300	0.814000	0.556200
C6681	C668	0.146420	0.791090	0.571920
H4111	H411	0.158700	0.791600	0.563600
C6691	C669	0.145110	0.777460	0.588600
H4121	H412	0.156900	0.768900	0.591600
C6701	C670	0.111380	0.732370	0.583010
H4131	H413	0.101100	0.743000	0.584100
C6711	C671	0.111660	0.720600	0.565400
H4141	H414	0.101900	0.723100	0.554500
C6721	C672	0.126670	0.704700	0.563600
H4151	H415	0.127100	0.695900	0.551600
C6731	C673	0.140760	0.702170	0.579840
C6741	C674	0.139150	0.714980	0.597310
H4161	H416	0.148700	0.713000	0.608500
C6751	C675	0.156980	0.685590	0.579080
C6761	C676	0.175220	0.749410	0.626110
N2511	N251	0.014750	0.840960	0.616920
N2521	N252	0.143010	0.862850	0.524460
N2531	N253	0.097580	0.875030	0.515510
N2541	N254	0.094180	0.829600	0.560910
N2551	N255	0.059710	0.839660	0.570250
N2561	N256	0.076130	0.811130	0.587630
N2571	N257	0.128150	0.775680	0.600750
N2581	N258	0.157620	0.751190	0.626760
N2591	N259	0.124760	0.729910	0.598970
N2601	N260	0.155720	0.671690	0.563970
S511	S51	0.171880	0.836960	0.544630
S521	S52	0.200720	0.747840	0.623460
C6771	C677	0.530110	0.340280	0.602580
H4171	H417	0.532700	0.352400	0.594400
C6781	C678	0.542500	0.322580	0.599140
C6791	C679	0.538620	0.304770	0.610720
H4181	H418	0.547000	0.292600	0.609200
C6801	C680	0.521900	0.305140	0.624820
H4191	H419	0.518200	0.292900	0.632400
C6811	C681	0.510930	0.323140	0.627580
H4201	H420	0.499900	0.323200	0.637600
C6821	C682	0.654670	0.352260	0.533380
C6831	C683	0.581570	0.388520	0.513210
H4211	H421	0.582900	0.399400	0.503200
C6841	C684	0.563340	0.387400	0.524620
H4221	H422	0.552200	0.396900	0.522000
C6851	C685	0.561420	0.372210	0.540070
H4231	H423	0.549300	0.371600	0.548700
C6861	C686	0.577740	0.357900	0.542490
C6871	C687	0.595280	0.359740	0.530010
H4241	H424	0.606200	0.349800	0.531700
C6881	C688	0.577180	0.341320	0.558770
C6891	C689	0.560300	0.324330	0.584610
C6901	C690	0.593160	0.314890	0.575890
C6911	C691	0.611780	0.287680	0.596010
H4251	H425	0.599400	0.286300	0.604200
C6921	C692	0.611850	0.302210	0.579520
C6931	C693	0.629600	0.304110	0.567350
H4261	H426	0.630300	0.314000	0.556200
C6941	C694	0.646420	0.291090	0.571920
H4271	H427	0.658700	0.291600	0.563600
C6951	C695	0.645110	0.277460	0.588600
H4281	H428	0.656900	0.268900	0.591600
C6961	C696	0.611380	0.232370	0.583010
H4291	H429	0.601100	0.243000	0.584100
C6971	C697	0.611660	0.220600	0.565400
H4301	H430	0.601900	0.223100	0.554500
C6981	C698	0.626670	0.204700	0.563600
H4311	H431	0.627100	0.195900	0.551600
C6991	C699	0.640760	0.202170	0.579840
C7001	C700	0.639150	0.214980	0.597310
H4321	H432	0.648700	0.213000	0.608500
C7011	C701	0.656980	0.185590	0.579080
C7021	C702	0.675220	0.249410	0.626110
N2611	N261	0.514750	0.340960	0.616920
N2621	N262	0.643010	0.362850	0.524460
N2631	N263	0.597580	0.375030	0.515510
N2641	N264	0.594180	0.329600	0.560910
N2651	N265	0.559710	0.339660	0.570250
N2661	N266	0.576130	0.311130	0.587630
N2671	N267	0.628150	0.275680	0.600750
N2681	N268	0.657620	0.251190	0.626760
N2691	N269	0.624760	0.229910	0.598970
N2701	N270	0.655720	0.171690	0.563970
S531	S53	0.671880	0.336960	0.544630
S541	S54	0.700720	0.247840	0.623460
C7031	C703	0.530110	0.840280	0.102580
H4331	H433	0.532700	0.852400	0.094400
C7041	C704	0.542500	0.822580	0.099140
C7051	C705	0.538620	0.804770	0.110720
H4341	H434	0.547000	0.792600	0.109200
C7061	C706	0.521900	0.805140	0.124820
H4351	H435	0.518200	0.792900	0.132400
C7071	C707	0.510930	0.823140	0.127580
H4361	H436	0.499900	0.823200	0.137600
C7081	C708	0.654670	0.852260	0.033380
C7091	C709	0.581570	0.888520	0.013210
H4371	H437	0.582900	0.899400	0.003200
C7101	C710	0.563340	0.887400	0.024620
H4381	H438	0.552200	0.896900	0.022000
C7111	C711	0.561420	0.872210	0.040070
H4391	H439	0.549300	0.871600	0.048700
C7121	C712	0.577740	0.857900	0.042490
C7131	C713	0.595280	0.859740	0.030010
H4401	H440	0.606200	0.849800	0.031700
C7141	C714	0.577180	0.841320	0.058770
C7151	C715	0.560300	0.824330	0.084610
C7161	C716	0.593160	0.814890	0.075890
C7171	C717	0.611780	0.787680	0.096010
H4411	H441	0.599400	0.786300	0.104200
C7181	C718	0.611850	0.802210	0.079520
C7191	C719	0.629600	0.804110	0.067350
H4421	H442	0.630300	0.814000	0.056200
C7201	C720	0.646420	0.791090	0.071920
H4431	H443	0.658700	0.791600	0.063600
C7211	C721	0.645110	0.777460	0.088600
H4441	H444	0.656900	0.768900	0.091600
C7221	C722	0.611380	0.732370	0.083010
H4451	H445	0.601100	0.743000	0.084100
C7231	C723	0.611660	0.720600	0.065400
H4461	H446	0.601900	0.723100	0.054500
C7241	C724	0.626670	0.704700	0.063600
H4471	H447	0.627100	0.695900	0.051600
C7251	C725	0.640760	0.702170	0.079840
C7261	C726	0.639150	0.714980	0.097310
H4481	H448	0.648700	0.713000	0.108500
C7271	C727	0.656980	0.685590	0.079080
C7281	C728	0.675220	0.749410	0.126110
N2711	N271	0.514750	0.840960	0.116920
N2721	N272	0.643010	0.862850	0.024460
N2731	N273	0.597580	0.875030	0.015510
N2741	N274	0.594180	0.829600	0.060910
N2751	N275	0.559710	0.839660	0.070250
N2761	N276	0.576130	0.811130	0.087630
N2771	N277	0.628150	0.775680	0.100750
N2781	N278	0.657620	0.751190	0.126760
N2791	N279	0.624760	0.729910	0.098970
N2801	N280	0.655720	0.671690	0.063970
S551	S55	0.671880	0.836960	0.044630
S561	S56	0.700720	0.747840	0.123460
C7291	C729	0.530110	0.909720	0.647420
H4491	H449	0.532700	0.897600	0.655600
C7301	C730	0.542500	0.927420	0.650860
C7311	C731	0.538620	0.945230	0.639280
H4501	H450	0.547000	0.957400	0.640800
C7321	C732	0.521900	0.944860	0.625180
H4511	H451	0.518200	0.957100	0.617600
C7331	C733	0.510930	0.926860	0.622420
H4521	H452	0.499900	0.926800	0.612400
C7341	C734	0.654670	0.897740	0.716620
C7351	C735	0.581570	0.861480	0.736790
H4531	H453	0.582900	0.850600	0.746800
C7361	C736	0.563340	0.862600	0.725380
H4541	H454	0.552200	0.853100	0.728000
C7371	C737	0.561420	0.877790	0.709930
H4551	H455	0.549300	0.878400	0.701300
C7381	C738	0.577740	0.892100	0.707510
C7391	C739	0.595280	0.890260	0.719990
H4561	H456	0.606200	0.900200	0.718300
C7401	C740	0.577180	0.908680	0.691230
C7411	C741	0.560300	0.925670	0.665390
C7421	C742	0.593160	0.935110	0.674110
C7431	C743	0.611780	0.962320	0.653990
H4571	H457	0.599400	0.963700	0.645800
C7441	C744	0.611850	0.947790	0.670480
C7451	C745	0.629600	0.945890	0.682650
H4581	H458	0.630300	0.936000	0.693800
C7461	C746	0.646420	0.958910	0.678080
H4591	H459	0.658700	0.958400	0.686400
C7471	C747	0.645110	0.972540	0.661400
H4601	H460	0.656900	0.981100	0.658400
C7481	C748	0.611380	0.017630	0.666990
H4611	H461	0.601100	0.007000	0.665900
C7491	C749	0.611660	0.029400	0.684600
H4621	H462	0.601900	0.026900	0.695500
C7501	C750	0.626670	0.045300	0.686400
H4631	H463	0.627100	0.054100	0.698400
C7511	C751	0.640760	0.047830	0.670160
C7521	C752	0.639150	0.035020	0.652690
H4641	H464	0.648700	0.037000	0.641500
C7531	C753	0.656980	0.064410	0.670920
C7541	C754	0.675220	0.000590	0.623890
N2811	N281	0.514750	0.909040	0.633080
N2821	N282	0.643010	0.887150	0.725540
N2831	N283	0.597580	0.874970	0.734490
N2841	N284	0.594180	0.920400	0.689090
N2851	N285	0.559710	0.910340	0.679750
N2861	N286	0.576130	0.938870	0.662370
N2871	N287	0.628150	0.974320	0.649250
N2881	N288	0.657620	0.998810	0.623240
N2891	N289	0.624760	0.020090	0.651030
N2901	N290	0.655720	0.078310	0.686030
S571	S57	0.671880	0.913040	0.705370
S581	S58	0.700720	0.002160	0.626540
C7551	C755	0.530110	0.409720	0.147420
H4651	H465	0.532700	0.397600	0.155600
C7561	C756	0.542500	0.427420	0.150860
C7571	C757	0.538620	0.445230	0.139280
H4661	H466	0.547000	0.457400	0.140800
C7581	C758	0.521900	0.444860	0.125180
H4671	H467	0.518200	0.457100	0.117600
C7591	C759	0.510930	0.426860	0.122420
H4681	H468	0.499900	0.426800	0.112400
C7601	C760	0.654670	0.397740	0.216620
C7611	C761	0.581570	0.361480	0.236790
H4691	H469	0.582900	0.350600	0.246800
C7621	C762	0.563340	0.362600	0.225380
H4701	H470	0.552200	0.353100	0.228000
C7631	C763	0.561420	0.377790	0.209930
H4711	H471	0.549300	0.378400	0.201300
C7641	C764	0.577740	0.392100	0.207510
C7651	C765	0.595280	0.390260	0.219990
H4721	H472	0.606200	0.400200	0.218300
C7661	C766	0.577180	0.408680	0.191230
C7671	C767	0.560300	0.425670	0.165390
C7681	C768	0.593160	0.435110	0.174110
C7691	C769	0.611780	0.462320	0.153990
H4731	H473	0.599400	0.463700	0.145800
C7701	C770	0.611850	0.447790	0.170480
C7711	C771	0.629600	0.445890	0.182650
H4741	H474	0.630300	0.436000	0.193800
C7721	C772	0.646420	0.458910	0.178080
H4751	H475	0.658700	0.458400	0.186400
C7731	C773	0.645110	0.472540	0.161400
H4761	H476	0.656900	0.481100	0.158400
C7741	C774	0.611380	0.517630	0.166990
H4771	H477	0.601100	0.507000	0.165900
C7751	C775	0.611660	0.529400	0.184600
H4781	H478	0.601900	0.526900	0.195500
C7761	C776	0.626670	0.545300	0.186400
H4791	H479	0.627100	0.554100	0.198400
C7771	C777	0.640760	0.547830	0.170160
C7781	C778	0.639150	0.535020	0.152690
H4801	H480	0.648700	0.537000	0.141500
C7791	C779	0.656980	0.564410	0.170920
C7801	C780	0.675220	0.500590	0.123890
N2911	N291	0.514750	0.409040	0.133080
N2921	N292	0.643010	0.387150	0.225540
N2931	N293	0.597580	0.374970	0.234490
N2941	N294	0.594180	0.420400	0.189090
N2951	N295	0.559710	0.410340	0.179750
N2961	N296	0.576130	0.438870	0.162370
N2971	N297	0.628150	0.474320	0.149250
N2981	N298	0.657620	0.498810	0.123240
N2991	N299	0.624760	0.520090	0.151030
N3001	N300	0.655720	0.578310	0.186030
S591	S59	0.671880	0.413040	0.205370
S601	S60	0.700720	0.502160	0.126540
C7811	C781	0.030110	0.909720	0.147420
H4811	H481	0.032700	0.897600	0.155600
C7821	C782	0.042500	0.927420	0.150860
C7831	C783	0.038620	0.945230	0.139280
H4821	H482	0.047000	0.957400	0.140800
C7841	C784	0.021900	0.944860	0.125180
H4831	H483	0.018200	0.957100	0.117600
C7851	C785	0.010930	0.926860	0.122420
H4841	H484	0.999900	0.926800	0.112400
C7861	C786	0.154670	0.897740	0.216620
C7871	C787	0.081570	0.861480	0.236790
H4851	H485	0.082900	0.850600	0.246800
C7881	C788	0.063340	0.862600	0.225380
H4861	H486	0.052200	0.853100	0.228000
C7891	C789	0.061420	0.877790	0.209930
H4871	H487	0.049300	0.878400	0.201300
C7901	C790	0.077740	0.892100	0.207510
C7911	C791	0.095280	0.890260	0.219990
H4881	H488	0.106200	0.900200	0.218300
C7921	C792	0.077180	0.908680	0.191230
C7931	C793	0.060300	0.925670	0.165390
C7941	C794	0.093160	0.935110	0.174110
C7951	C795	0.111780	0.962320	0.153990
H4891	H489	0.099400	0.963700	0.145800
C7961	C796	0.111850	0.947790	0.170480
C7971	C797	0.129600	0.945890	0.182650
H4901	H490	0.130300	0.936000	0.193800
C7981	C798	0.146420	0.958910	0.178080
H4911	H491	0.158700	0.958400	0.186400
C7991	C799	0.145110	0.972540	0.161400
H4921	H492	0.156900	0.981100	0.158400
C8001	C800	0.111380	0.017630	0.166990
H4931	H493	0.101100	0.007000	0.165900
C8011	C801	0.111660	0.029400	0.184600
H4941	H494	0.101900	0.026900	0.195500
C8021	C802	0.126670	0.045300	0.186400
H4951	H495	0.127100	0.054100	0.198400
C8031	C803	0.140760	0.047830	0.170160
C8041	C804	0.139150	0.035020	0.152690
H4961	H496	0.148700	0.037000	0.141500
C8051	C805	0.156980	0.064410	0.170920
C8061	C806	0.175220	0.000590	0.123890
N3011	N301	0.014750	0.909040	0.133080
N3021	N302	0.143010	0.887150	0.225540
N3031	N303	0.097580	0.874970	0.234490
N3041	N304	0.094180	0.920400	0.189090
N3051	N305	0.059710	0.910340	0.179750
N3061	N306	0.076130	0.938870	0.162370
N3071	N307	0.128150	0.974320	0.149250
N3081	N308	0.157620	0.998810	0.123240
N3091	N309	0.124760	0.020090	0.151030
N3101	N310	0.155720	0.078310	0.186030
S611	S61	0.171880	0.913040	0.205370
S621	S62	0.200720	0.002160	0.126540
C8071	C807	0.030110	0.409720	0.647420
H4971	H497	0.032700	0.397600	0.655600
C8081	C808	0.042500	0.427420	0.650860
C8091	C809	0.038620	0.445230	0.639280
H4981	H498	0.047000	0.457400	0.640800
C8101	C810	0.021900	0.444860	0.625180
H4991	H499	0.018200	0.457100	0.617600
C8111	C811	0.010930	0.426860	0.622420
H5001	H500	0.999900	0.426800	0.612400
C8121	C812	0.154670	0.397740	0.716620
C8131	C813	0.081570	0.361480	0.736790
H5011	H501	0.082900	0.350600	0.746800
C8141	C814	0.063340	0.362600	0.725380
H5021	H502	0.052200	0.353100	0.728000
C8151	C815	0.061420	0.377790	0.709930
H5031	H503	0.049300	0.378400	0.701300
C8161	C816	0.077740	0.392100	0.707510
C8171	C817	0.095280	0.390260	0.719990
H5041	H504	0.106200	0.400200	0.718300
C8181	C818	0.077180	0.408680	0.691230
C8191	C819	0.060300	0.425670	0.665390
C8201	C820	0.093160	0.435110	0.674110
C8211	C821	0.111780	0.462320	0.653990
H5051	H505	0.099400	0.463700	0.645800
C8221	C822	0.111850	0.447790	0.670480
C8231	C823	0.129600	0.445890	0.682650
H5061	H506	0.130300	0.436000	0.693800
C8241	C824	0.146420	0.458910	0.678080
H5071	H507	0.158700	0.458400	0.686400
C8251	C825	0.145110	0.472540	0.661400
H5081	H508	0.156900	0.481100	0.658400
C8261	C826	0.111380	0.517630	0.666990
H5091	H509	0.101100	0.507000	0.665900
C8271	C827	0.111660	0.529400	0.684600
H5101	H510	0.101900	0.526900	0.695500
C8281	C828	0.126670	0.545300	0.686400
H5111	H511	0.127100	0.554100	0.698400
C8291	C829	0.140760	0.547830	0.670160
C8301	C830	0.139150	0.535020	0.652690
H5121	H512	0.148700	0.537000	0.641500
C8311	C831	0.156980	0.564410	0.670920
C8321	C832	0.175220	0.500590	0.623890
N3111	N311	0.014750	0.409040	0.633080
N3121	N312	0.143010	0.387150	0.725540
N3131	N313	0.097580	0.374970	0.734490
N3141	N314	0.094180	0.420400	0.689090
N3151	N315	0.059710	0.410340	0.679750
N3161	N316	0.076130	0.438870	0.662370
N3171	N317	0.128150	0.474320	0.649250
N3181	N318	0.157620	0.498810	0.623240
N3191	N319	0.124760	0.520090	0.651030
N3201	N320	0.155720	0.578310	0.686030
S631	S63	0.171880	0.413040	0.705370
S641	S64	0.200720	0.502160	0.626540
C8331	C833	0.602580	0.219890	0.409720
H5131	H513	0.594400	0.217300	0.397600
C8341	C834	0.599140	0.207500	0.427420
C8351	C835	0.610720	0.211380	0.445230
H5141	H514	0.609200	0.203000	0.457400
C8361	C836	0.624820	0.228100	0.444860
H5151	H515	0.632400	0.231800	0.457100
C8371	C837	0.627580	0.239070	0.426860
H5161	H516	0.637600	0.250100	0.426800
C8381	C838	0.533380	0.095330	0.397740
C8391	C839	0.513210	0.168430	0.361480
H5171	H517	0.503200	0.167100	0.350600
C8401	C840	0.524620	0.186660	0.362600
H5181	H518	0.522000	0.197800	0.353100
C8411	C841	0.540070	0.188580	0.377790
H5191	H519	0.548700	0.200700	0.378400
C8421	C842	0.542490	0.172260	0.392100
C8431	C843	0.530010	0.154720	0.390260
H5201	H520	0.531700	0.143800	0.400200
C8441	C844	0.558770	0.172820	0.408680
C8451	C845	0.584610	0.189700	0.425670
C8461	C846	0.575890	0.156840	0.435110
C8471	C847	0.596010	0.138220	0.462320
H5211	H521	0.604200	0.150600	0.463700
C8481	C848	0.579520	0.138150	0.447790
C8491	C849	0.567350	0.120400	0.445890
H5221	H522	0.556200	0.119700	0.436000
C8501	C850	0.571920	0.103580	0.458910
H5231	H523	0.563600	0.091300	0.458400
C8511	C851	0.588600	0.104890	0.472540
H5241	H524	0.591600	0.093100	0.481100
C8521	C852	0.583010	0.138620	0.517630
H5251	H525	0.584100	0.148900	0.507000
C8531	C853	0.565400	0.138340	0.529400
H5261	H526	0.554500	0.148100	0.526900
C8541	C854	0.563600	0.123330	0.545300
H5271	H527	0.551600	0.122900	0.554100
C8551	C855	0.579840	0.109240	0.547830
C8561	C856	0.597310	0.110850	0.535020
H5281	H528	0.608500	0.101300	0.537000
C8571	C857	0.579080	0.093020	0.564410
C8581	C858	0.626110	0.074780	0.500590
N3211	N321	0.616920	0.235250	0.409040
N3221	N322	0.524460	0.106990	0.387150
N3231	N323	0.515510	0.152420	0.374970
N3241	N324	0.560910	0.155820	0.420400
N3251	N325	0.570250	0.190290	0.410340
N3261	N326	0.587630	0.173870	0.438870
N3271	N327	0.600750	0.121850	0.474320
N3281	N328	0.626760	0.092380	0.498810
N3291	N329	0.598970	0.125240	0.520090
N3301	N330	0.563970	0.094280	0.578310
S651	S65	0.544630	0.078120	0.413040
S661	S66	0.623460	0.049280	0.502160
C8591	C859	0.602580	0.719890	0.909720
H5291	H529	0.594400	0.717300	0.897600
C8601	C860	0.599140	0.707500	0.927420
C8611	C861	0.610720	0.711380	0.945230
H5301	H530	0.609200	0.703000	0.957400
C8621	C862	0.624820	0.728100	0.944860
H5311	H531	0.632400	0.731800	0.957100
C8631	C863	0.627580	0.739070	0.926860
H5321	H532	0.637600	0.750100	0.926800
C8641	C864	0.533380	0.595330	0.897740
C8651	C865	0.513210	0.668430	0.861480
H5331	H533	0.503200	0.667100	0.850600
C8661	C866	0.524620	0.686660	0.862600
H5341	H534	0.522000	0.697800	0.853100
C8671	C867	0.540070	0.688580	0.877790
H5351	H535	0.548700	0.700700	0.878400
C8681	C868	0.542490	0.672260	0.892100
C8691	C869	0.530010	0.654720	0.890260
H5361	H536	0.531700	0.643800	0.900200
C8701	C870	0.558770	0.672820	0.908680
C8711	C871	0.584610	0.689700	0.925670
C8721	C872	0.575890	0.656840	0.935110
C8731	C873	0.596010	0.638220	0.962320
H5371	H537	0.604200	0.650600	0.963700
C8741	C874	0.579520	0.638150	0.947790
C8751	C875	0.567350	0.620400	0.945890
H5381	H538	0.556200	0.619700	0.936000
C8761	C876	0.571920	0.603580	0.958910
H5391	H539	0.563600	0.591300	0.958400
C8771	C877	0.588600	0.604890	0.972540
H5401	H540	0.591600	0.593100	0.981100
C8781	C878	0.583010	0.638620	0.017630
H5411	H541	0.584100	0.648900	0.007000
C8791	C879	0.565400	0.638340	0.029400
H5421	H542	0.554500	0.648100	0.026900
C8801	C880	0.563600	0.623330	0.045300
H5431	H543	0.551600	0.622900	0.054100
C8811	C881	0.579840	0.609240	0.047830
C8821	C882	0.597310	0.610850	0.035020
H5441	H544	0.608500	0.601300	0.037000
C8831	C883	0.579080	0.593020	0.064410
C8841	C884	0.626110	0.574780	0.000590
N3311	N331	0.616920	0.735250	0.909040
N3321	N332	0.524460	0.606990	0.887150
N3331	N333	0.515510	0.652420	0.874970
N3341	N334	0.560910	0.655820	0.920400
N3351	N335	0.570250	0.690290	0.910340
N3361	N336	0.587630	0.673870	0.938870
N3371	N337	0.600750	0.621850	0.974320
N3381	N338	0.626760	0.592380	0.998810
N3391	N339	0.598970	0.625240	0.020090
N3401	N340	0.563970	0.594280	0.078310
S671	S67	0.544630	0.578120	0.913040
S681	S68	0.623460	0.549280	0.002160
C8851	C885	0.102580	0.219890	0.909720
H5451	H545	0.094400	0.217300	0.897600
C8861	C886	0.099140	0.207500	0.927420
C8871	C887	0.110720	0.211380	0.945230
H5461	H546	0.109200	0.203000	0.957400
C8881	C888	0.124820	0.228100	0.944860
H5471	H547	0.132400	0.231800	0.957100
C8891	C889	0.127580	0.239070	0.926860
H5481	H548	0.137600	0.250100	0.926800
C8901	C890	0.033380	0.095330	0.897740
C8911	C891	0.013210	0.168430	0.861480
H5491	H549	0.003200	0.167100	0.850600
C8921	C892	0.024620	0.186660	0.862600
H5501	H550	0.022000	0.197800	0.853100
C8931	C893	0.040070	0.188580	0.877790
H5511	H551	0.048700	0.200700	0.878400
C8941	C894	0.042490	0.172260	0.892100
C8951	C895	0.030010	0.154720	0.890260
H5521	H552	0.031700	0.143800	0.900200
C8961	C896	0.058770	0.172820	0.908680
C8971	C897	0.084610	0.189700	0.925670
C8981	C898	0.075890	0.156840	0.935110
C8991	C899	0.096010	0.138220	0.962320
H5531	H553	0.104200	0.150600	0.963700
C9001	C900	0.079520	0.138150	0.947790
C9011	C901	0.067350	0.120400	0.945890
H5541	H554	0.056200	0.119700	0.936000
C9021	C902	0.071920	0.103580	0.958910
H5551	H555	0.063600	0.091300	0.958400
C9031	C903	0.088600	0.104890	0.972540
H5561	H556	0.091600	0.093100	0.981100
C9041	C904	0.083010	0.138620	0.017630
H5571	H557	0.084100	0.148900	0.007000
C9051	C905	0.065400	0.138340	0.029400
H5581	H558	0.054500	0.148100	0.026900
C9061	C906	0.063600	0.123330	0.045300
H5591	H559	0.051600	0.122900	0.054100
C9071	C907	0.079840	0.109240	0.047830
C9081	C908	0.097310	0.110850	0.035020
H5601	H560	0.108500	0.101300	0.037000
C9091	C909	0.079080	0.093020	0.064410
C9101	C910	0.126110	0.074780	0.000590
N3411	N341	0.116920	0.235250	0.909040
N3421	N342	0.024460	0.106990	0.887150
N3431	N343	0.015510	0.152420	0.874970
N3441	N344	0.060910	0.155820	0.920400
N3451	N345	0.070250	0.190290	0.910340
N3461	N346	0.087630	0.173870	0.938870
N3471	N347	0.100750	0.121850	0.974320
N3481	N348	0.126760	0.092380	0.998810
N3491	N349	0.098970	0.125240	0.020090
N3501	N350	0.063970	0.094280	0.078310
S691	S69	0.044630	0.078120	0.913040
S701	S70	0.123460	0.049280	0.002160
C9111	C911	0.102580	0.719890	0.409720
H5611	H561	0.094400	0.717300	0.397600
C9121	C912	0.099140	0.707500	0.427420
C9131	C913	0.110720	0.711380	0.445230
H5621	H562	0.109200	0.703000	0.457400
C9141	C914	0.124820	0.728100	0.444860
H5631	H563	0.132400	0.731800	0.457100
C9151	C915	0.127580	0.739070	0.426860
H5641	H564	0.137600	0.750100	0.426800
C9161	C916	0.033380	0.595330	0.397740
C9171	C917	0.013210	0.668430	0.361480
H5651	H565	0.003200	0.667100	0.350600
C9181	C918	0.024620	0.686660	0.362600
H5661	H566	0.022000	0.697800	0.353100
C9191	C919	0.040070	0.688580	0.377790
H5671	H567	0.048700	0.700700	0.378400
C9201	C920	0.042490	0.672260	0.392100
C9211	C921	0.030010	0.654720	0.390260
H5681	H568	0.031700	0.643800	0.400200
C9221	C922	0.058770	0.672820	0.408680
C9231	C923	0.084610	0.689700	0.425670
C9241	C924	0.075890	0.656840	0.435110
C9251	C925	0.096010	0.638220	0.462320
H5691	H569	0.104200	0.650600	0.463700
C9261	C926	0.079520	0.638150	0.447790
C9271	C927	0.067350	0.620400	0.445890
H5701	H570	0.056200	0.619700	0.436000
C9281	C928	0.071920	0.603580	0.458910
H5711	H571	0.063600	0.591300	0.458400
C9291	C929	0.088600	0.604890	0.472540
H5721	H572	0.091600	0.593100	0.481100
C9301	C930	0.083010	0.638620	0.517630
H5731	H573	0.084100	0.648900	0.507000
C9311	C931	0.065400	0.638340	0.529400
H5741	H574	0.054500	0.648100	0.526900
C9321	C932	0.063600	0.623330	0.545300
H5751	H575	0.051600	0.622900	0.554100
C9331	C933	0.079840	0.609240	0.547830
C9341	C934	0.097310	0.610850	0.535020
H5761	H576	0.108500	0.601300	0.537000
C9351	C935	0.079080	0.593020	0.564410
C9361	C936	0.126110	0.574780	0.500590
N3511	N351	0.116920	0.735250	0.409040
N3521	N352	0.024460	0.606990	0.387150
N3531	N353	0.015510	0.652420	0.374970
N3541	N354	0.060910	0.655820	0.420400
N3551	N355	0.070250	0.690290	0.410340
N3561	N356	0.087630	0.673870	0.438870
N3571	N357	0.100750	0.621850	0.474320
N3581	N358	0.126760	0.592380	0.498810
N3591	N359	0.098970	0.625240	0.520090
N3601	N360	0.063970	0.594280	0.578310
S711	S71	0.044630	0.578120	0.413040
S721	S72	0.123460	0.549280	0.502160
C9371	C937	0.147420	0.719890	0.840280
H5771	H577	0.155600	0.717300	0.852400
C9381	C938	0.150860	0.707500	0.822580
C9391	C939	0.139280	0.711380	0.804770
H5781	H578	0.140800	0.703000	0.792600
C9401	C940	0.125180	0.728100	0.805140
H5791	H579	0.117600	0.731800	0.792900
C9411	C941	0.122420	0.739070	0.823140
H5801	H580	0.112400	0.750100	0.823200
C9421	C942	0.216620	0.595330	0.852260
C9431	C943	0.236790	0.668430	0.888520
H5811	H581	0.246800	0.667100	0.899400
C9441	C944	0.225380	0.686660	0.887400
H5821	H582	0.228000	0.697800	0.896900
C9451	C945	0.209930	0.688580	0.872210
H5831	H583	0.201300	0.700700	0.871600
C9461	C946	0.207510	0.672260	0.857900
C9471	C947	0.219990	0.654720	0.859740
H5841	H584	0.218300	0.643800	0.849800
C9481	C948	0.191230	0.672820	0.841320
C9491	C949	0.165390	0.689700	0.824330
C9501	C950	0.174110	0.656840	0.814890
C9511	C951	0.153990	0.638220	0.787680
H5851	H585	0.145800	0.650600	0.786300
C9521	C952	0.170480	0.638150	0.802210
C9531	C953	0.182650	0.620400	0.804110
H5861	H586	0.193800	0.619700	0.814000
C9541	C954	0.178080	0.603580	0.791090
H5871	H587	0.186400	0.591300	0.791600
C9551	C955	0.161400	0.604890	0.777460
H5881	H588	0.158400	0.593100	0.768900
C9561	C956	0.166990	0.638620	0.732370
H5891	H589	0.165900	0.648900	0.743000
C9571	C957	0.184600	0.638340	0.720600
H5901	H590	0.195500	0.648100	0.723100
C9581	C958	0.186400	0.623330	0.704700
H5911	H591	0.198400	0.622900	0.695900
C9591	C959	0.170160	0.609240	0.702170
C9601	C960	0.152690	0.610850	0.714980
H5921	H592	0.141500	0.601300	0.713000
C9611	C961	0.170920	0.593020	0.685590
C9621	C962	0.123890	0.574780	0.749410
N3611	N361	0.133080	0.735250	0.840960
N3621	N362	0.225540	0.606990	0.862850
N3631	N363	0.234490	0.652420	0.875030
N3641	N364	0.189090	0.655820	0.829600
N3651	N365	0.179750	0.690290	0.839660
N3661	N366	0.162370	0.673870	0.811130
N3671	N367	0.149250	0.621850	0.775680
N3681	N368	0.123240	0.592380	0.751190
N3691	N369	0.151030	0.625240	0.729910
N3701	N370	0.186030	0.594280	0.671690
S731	S73	0.205370	0.578120	0.836960
S741	S74	0.126540	0.549280	0.747840
C9631	C963	0.147420	0.219890	0.340280
H5931	H593	0.155600	0.217300	0.352400
C9641	C964	0.150860	0.207500	0.322580
C9651	C965	0.139280	0.211380	0.304770
H5941	H594	0.140800	0.203000	0.292600
C9661	C966	0.125180	0.228100	0.305140
H5951	H595	0.117600	0.231800	0.292900
C9671	C967	0.122420	0.239070	0.323140
H5961	H596	0.112400	0.250100	0.323200
C9681	C968	0.216620	0.095330	0.352260
C9691	C969	0.236790	0.168430	0.388520
H5971	H597	0.246800	0.167100	0.399400
C9701	C970	0.225380	0.186660	0.387400
H5981	H598	0.228000	0.197800	0.396900
C9711	C971	0.209930	0.188580	0.372210
H5991	H599	0.201300	0.200700	0.371600
C9721	C972	0.207510	0.172260	0.357900
C9731	C973	0.219990	0.154720	0.359740
H6001	H600	0.218300	0.143800	0.349800
C9741	C974	0.191230	0.172820	0.341320
C9751	C975	0.165390	0.189700	0.324330
C9761	C976	0.174110	0.156840	0.314890
C9771	C977	0.153990	0.138220	0.287680
H6011	H601	0.145800	0.150600	0.286300
C9781	C978	0.170480	0.138150	0.302210
C9791	C979	0.182650	0.120400	0.304110
H6021	H602	0.193800	0.119700	0.314000
C9801	C980	0.178080	0.103580	0.291090
H6031	H603	0.186400	0.091300	0.291600
C9811	C981	0.161400	0.104890	0.277460
H6041	H604	0.158400	0.093100	0.268900
C9821	C982	0.166990	0.138620	0.232370
H6051	H605	0.165900	0.148900	0.243000
C9831	C983	0.184600	0.138340	0.220600
H6061	H606	0.195500	0.148100	0.223100
C9841	C984	0.186400	0.123330	0.204700
H6071	H607	0.198400	0.122900	0.195900
C9851	C985	0.170160	0.109240	0.202170
C9861	C986	0.152690	0.110850	0.214980
H6081	H608	0.141500	0.101300	0.213000
C9871	C987	0.170920	0.093020	0.185590
C9881	C988	0.123890	0.074780	0.249410
N3711	N371	0.133080	0.235250	0.340960
N3721	N372	0.225540	0.106990	0.362850
N3731	N373	0.234490	0.152420	0.375030
N3741	N374	0.189090	0.155820	0.329600
N3751	N375	0.179750	0.190290	0.339660
N3761	N376	0.162370	0.173870	0.311130
N3771	N377	0.149250	0.121850	0.275680
N3781	N378	0.123240	0.092380	0.251190
N3791	N379	0.151030	0.125240	0.229910
N3801	N380	0.186030	0.094280	0.171690
S751	S75	0.205370	0.078120	0.336960
S761	S76	0.126540	0.049280	0.247840
C9891	C989	0.647420	0.719890	0.340280
H6091	H609	0.655600	0.717300	0.352400
C9901	C990	0.650860	0.707500	0.322580
C9911	C991	0.639280	0.711380	0.304770
H6101	H610	0.640800	0.703000	0.292600
C9921	C992	0.625180	0.728100	0.305140
H6111	H611	0.617600	0.731800	0.292900
C9931	C993	0.622420	0.739070	0.323140
H6121	H612	0.612400	0.750100	0.323200
C9941	C994	0.716620	0.595330	0.352260
C9951	C995	0.736790	0.668430	0.388520
H6131	H613	0.746800	0.667100	0.399400
C9961	C996	0.725380	0.686660	0.387400
H6141	H614	0.728000	0.697800	0.396900
C9971	C997	0.709930	0.688580	0.372210
H6151	H615	0.701300	0.700700	0.371600
C9981	C998	0.707510	0.672260	0.357900
C9991	C999	0.719990	0.654720	0.359740
H6161	H616	0.718300	0.643800	0.349800
C10001	C1000	0.691230	0.672820	0.341320
C10011	C1001	0.665390	0.689700	0.324330
C10021	C1002	0.674110	0.656840	0.314890
C10031	C1003	0.653990	0.638220	0.287680
H6171	H617	0.645800	0.650600	0.286300
C10041	C1004	0.670480	0.638150	0.302210
C10051	C1005	0.682650	0.620400	0.304110
H6181	H618	0.693800	0.619700	0.314000
C10061	C1006	0.678080	0.603580	0.291090
H6191	H619	0.686400	0.591300	0.291600
C10071	C1007	0.661400	0.604890	0.277460
H6201	H620	0.658400	0.593100	0.268900
C10081	C1008	0.666990	0.638620	0.232370
H6211	H621	0.665900	0.648900	0.243000
C10091	C1009	0.684600	0.638340	0.220600
H6221	H622	0.695500	0.648100	0.223100
C10101	C1010	0.686400	0.623330	0.204700
H6231	H623	0.698400	0.622900	0.195900
C10111	C1011	0.670160	0.609240	0.202170
C10121	C1012	0.652690	0.610850	0.214980
H6241	H624	0.641500	0.601300	0.213000
C10131	C1013	0.670920	0.593020	0.185590
C10141	C1014	0.623890	0.574780	0.249410
N3811	N381	0.633080	0.735250	0.340960
N3821	N382	0.725540	0.606990	0.362850
N3831	N383	0.734490	0.652420	0.375030
N3841	N384	0.689090	0.655820	0.329600
N3851	N385	0.679750	0.690290	0.339660
N3861	N386	0.662370	0.673870	0.311130
N3871	N387	0.649250	0.621850	0.275680
N3881	N388	0.623240	0.592380	0.251190
N3891	N389	0.651030	0.625240	0.229910
N3901	N390	0.686030	0.594280	0.171690
S771	S77	0.705370	0.578120	0.336960
S781	S78	0.626540	0.549280	0.247840
C10151	C1015	0.647420	0.219890	0.840280
H6251	H625	0.655600	0.217300	0.852400
C10161	C1016	0.650860	0.207500	0.822580
C10171	C1017	0.639280	0.211380	0.804770
H6261	H626	0.640800	0.203000	0.792600
C10181	C1018	0.625180	0.228100	0.805140
H6271	H627	0.617600	0.231800	0.792900
C10191	C1019	0.622420	0.239070	0.823140
H6281	H628	0.612400	0.250100	0.823200
C10201	C1020	0.716620	0.095330	0.852260
C10211	C1021	0.736790	0.168430	0.888520
H6291	H629	0.746800	0.167100	0.899400
C10221	C1022	0.725380	0.186660	0.887400
H6301	H630	0.728000	0.197800	0.896900
C10231	C1023	0.709930	0.188580	0.872210
H6311	H631	0.701300	0.200700	0.871600
C10241	C1024	0.707510	0.172260	0.857900
C10251	C1025	0.719990	0.154720	0.859740
H6321	H632	0.718300	0.143800	0.849800
C10261	C1026	0.691230	0.172820	0.841320
C10271	C1027	0.665390	0.189700	0.824330
C10281	C1028	0.674110	0.156840	0.814890
C10291	C1029	0.653990	0.138220	0.787680
H6331	H633	0.645800	0.150600	0.786300
C10301	C1030	0.670480	0.138150	0.802210
C10311	C1031	0.682650	0.120400	0.804110
H6341	H634	0.693800	0.119700	0.814000
C10321	C1032	0.678080	0.103580	0.791090
H6351	H635	0.686400	0.091300	0.791600
C10331	C1033	0.661400	0.104890	0.777460
H6361	H636	0.658400	0.093100	0.768900
C10341	C1034	0.666990	0.138620	0.732370
H6371	H637	0.665900	0.148900	0.743000
C10351	C1035	0.684600	0.138340	0.720600
H6381	H638	0.695500	0.148100	0.723100
C10361	C1036	0.686400	0.123330	0.704700
H6391	H639	0.698400	0.122900	0.695900
C10371	C1037	0.670160	0.109240	0.702170
C10381	C1038	0.652690	0.110850	0.714980
H6401	H640	0.641500	0.101300	0.713000
C10391	C1039	0.670920	0.093020	0.685590
C10401	C1040	0.623890	0.074780	0.749410
N3911	N391	0.633080	0.235250	0.840960
N3921	N392	0.725540	0.106990	0.862850
N3931	N393	0.734490	0.152420	0.875030
N3941	N394	0.689090	0.155820	0.829600
N3951	N395	0.679750	0.190290	0.839660
N3961	N396	0.662370	0.173870	0.811130
N3971	N397	0.649250	0.121850	0.775680
N3981	N398	0.623240	0.092380	0.751190
N3991	N399	0.651030	0.125240	0.729910
N4001	N400	0.686030	0.094280	0.671690
S791	S79	0.705370	0.078120	0.836960
S801	S80	0.626540	0.049280	0.747840
C10411	C1041	0.102580	0.030110	0.340280
H6411	H641	0.094400	0.032700	0.352400
C10421	C1042	0.099140	0.042500	0.322580
C10431	C1043	0.110720	0.038620	0.304770
H6421	H642	0.109200	0.047000	0.292600
C10441	C1044	0.124820	0.021900	0.305140
H6431	H643	0.132400	0.018200	0.292900
C10451	C1045	0.127580	0.010930	0.323140
H6441	H644	0.137600	0.999900	0.323200
C10461	C1046	0.033380	0.154670	0.352260
C10471	C1047	0.013210	0.081570	0.388520
H6451	H645	0.003200	0.082900	0.399400
C10481	C1048	0.024620	0.063340	0.387400
H6461	H646	0.022000	0.052200	0.396900
C10491	C1049	0.040070	0.061420	0.372210
H6471	H647	0.048700	0.049300	0.371600
C10501	C1050	0.042490	0.077740	0.357900
C10511	C1051	0.030010	0.095280	0.359740
H6481	H648	0.031700	0.106200	0.349800
C10521	C1052	0.058770	0.077180	0.341320
C10531	C1053	0.084610	0.060300	0.324330
C10541	C1054	0.075890	0.093160	0.314890
C10551	C1055	0.096010	0.111780	0.287680
H6491	H649	0.104200	0.099400	0.286300
C10561	C1056	0.079520	0.111850	0.302210
C10571	C1057	0.067350	0.129600	0.304110
H6501	H650	0.056200	0.130300	0.314000
C10581	C1058	0.071920	0.146420	0.291090
H6511	H651	0.063600	0.158700	0.291600
C10591	C1059	0.088600	0.145110	0.277460
H6521	H652	0.091600	0.156900	0.268900
C10601	C1060	0.083010	0.111380	0.232370
H6531	H653	0.084100	0.101100	0.243000
C10611	C1061	0.065400	0.111660	0.220600
H6541	H654	0.054500	0.101900	0.223100
C10621	C1062	0.063600	0.126670	0.204700
H6551	H655	0.051600	0.127100	0.195900
C10631	C1063	0.079840	0.140760	0.202170
C10641	C1064	0.097310	0.139150	0.214980
H6561	H656	0.108500	0.148700	0.213000
C10651	C1065	0.079080	0.156980	0.185590
C10661	C1066	0.126110	0.175220	0.249410
N4011	N401	0.116920	0.014750	0.340960
N4021	N402	0.024460	0.143010	0.362850
N4031	N403	0.015510	0.097580	0.375030
N4041	N404	0.060910	0.094180	0.329600
N4051	N405	0.070250	0.059710	0.339660
N4061	N406	0.087630	0.076130	0.311130
N4071	N407	0.100750	0.128150	0.275680
N4081	N408	0.126760	0.157620	0.251190
N4091	N409	0.098970	0.124760	0.229910
N4101	N410	0.063970	0.155720	0.171690
S811	S81	0.044630	0.171880	0.336960
S821	S82	0.123460	0.200720	0.247840
C10671	C1067	0.102580	0.530110	0.840280
H6571	H657	0.094400	0.532700	0.852400
C10681	C1068	0.099140	0.542500	0.822580
C10691	C1069	0.110720	0.538620	0.804770
H6581	H658	0.109200	0.547000	0.792600
C10701	C1070	0.124820	0.521900	0.805140
H6591	H659	0.132400	0.518200	0.792900
C10711	C1071	0.127580	0.510930	0.823140
H6601	H660	0.137600	0.499900	0.823200
C10721	C1072	0.033380	0.654670	0.852260
C10731	C1073	0.013210	0.581570	0.888520
H6611	H661	0.003200	0.582900	0.899400
C10741	C1074	0.024620	0.563340	0.887400
H6621	H662	0.022000	0.552200	0.896900
C10751	C1075	0.040070	0.561420	0.872210
H6631	H663	0.048700	0.549300	0.871600
C10761	C1076	0.042490	0.577740	0.857900
C10771	C1077	0.030010	0.595280	0.859740
H6641	H664	0.031700	0.606200	0.849800
C10781	C1078	0.058770	0.577180	0.841320
C10791	C1079	0.084610	0.560300	0.824330
C10801	C1080	0.075890	0.593160	0.814890
C10811	C1081	0.096010	0.611780	0.787680
H6651	H665	0.104200	0.599400	0.786300
C10821	C1082	0.079520	0.611850	0.802210
C10831	C1083	0.067350	0.629600	0.804110
H6661	H666	0.056200	0.630300	0.814000
C10841	C1084	0.071920	0.646420	0.791090
H6671	H667	0.063600	0.658700	0.791600
C10851	C1085	0.088600	0.645110	0.777460
H6681	H668	0.091600	0.656900	0.768900
C10861	C1086	0.083010	0.611380	0.732370
H6691	H669	0.084100	0.601100	0.743000
C10871	C1087	0.065400	0.611660	0.720600
H6701	H670	0.054500	0.601900	0.723100
C10881	C1088	0.063600	0.626670	0.704700
H6711	H671	0.051600	0.627100	0.695900
C10891	C1089	0.079840	0.640760	0.702170
C10901	C1090	0.097310	0.639150	0.714980
H6721	H672	0.108500	0.648700	0.713000
C10911	C1091	0.079080	0.656980	0.685590
C10921	C1092	0.126110	0.675220	0.749410
N4111	N411	0.116920	0.514750	0.840960
N4121	N412	0.024460	0.643010	0.862850
N4131	N413	0.015510	0.597580	0.875030
N4141	N414	0.060910	0.594180	0.829600
N4151	N415	0.070250	0.559710	0.839660
N4161	N416	0.087630	0.576130	0.811130
N4171	N417	0.100750	0.628150	0.775680
N4181	N418	0.126760	0.657620	0.751190
N4191	N419	0.098970	0.624760	0.729910
N4201	N420	0.063970	0.655720	0.671690
S831	S83	0.044630	0.671880	0.836960
S841	S84	0.123460	0.700720	0.747840
C10931	C1093	0.602580	0.030110	0.840280
H6731	H673	0.594400	0.032700	0.852400
C10941	C1094	0.599140	0.042500	0.822580
C10951	C1095	0.610720	0.038620	0.804770
H6741	H674	0.609200	0.047000	0.792600
C10961	C1096	0.624820	0.021900	0.805140
H6751	H675	0.632400	0.018200	0.792900
C10971	C1097	0.627580	0.010930	0.823140
H6761	H676	0.637600	0.999900	0.823200
C10981	C1098	0.533380	0.154670	0.852260
C10991	C1099	0.513210	0.081570	0.888520
H6771	H677	0.503200	0.082900	0.899400
C11001	C1100	0.524620	0.063340	0.887400
H6781	H678	0.522000	0.052200	0.896900
C11011	C1101	0.540070	0.061420	0.872210
H6791	H679	0.548700	0.049300	0.871600
C11021	C1102	0.542490	0.077740	0.857900
C11031	C1103	0.530010	0.095280	0.859740
H6801	H680	0.531700	0.106200	0.849800
C11041	C1104	0.558770	0.077180	0.841320
C11051	C1105	0.584610	0.060300	0.824330
C11061	C1106	0.575890	0.093160	0.814890
C11071	C1107	0.596010	0.111780	0.787680
H6811	H681	0.604200	0.099400	0.786300
C11081	C1108	0.579520	0.111850	0.802210
C11091	C1109	0.567350	0.129600	0.804110
H6821	H682	0.556200	0.130300	0.814000
C11101	C1110	0.571920	0.146420	0.791090
H6831	H683	0.563600	0.158700	0.791600
C11111	C1111	0.588600	0.145110	0.777460
H6841	H684	0.591600	0.156900	0.768900
C11121	C1112	0.583010	0.111380	0.732370
H6851	H685	0.584100	0.101100	0.743000
C11131	C1113	0.565400	0.111660	0.720600
H6861	H686	0.554500	0.101900	0.723100
C11141	C1114	0.563600	0.126670	0.704700
H6871	H687	0.551600	0.127100	0.695900
C11151	C1115	0.579840	0.140760	0.702170
C11161	C1116	0.597310	0.139150	0.714980
H6881	H688	0.608500	0.148700	0.713000
C11171	C1117	0.579080	0.156980	0.685590
C11181	C1118	0.626110	0.175220	0.749410
N4211	N421	0.616920	0.014750	0.840960
N4221	N422	0.524460	0.143010	0.862850
N4231	N423	0.515510	0.097580	0.875030
N4241	N424	0.560910	0.094180	0.829600
N4251	N425	0.570250	0.059710	0.839660
N4261	N426	0.587630	0.076130	0.811130
N4271	N427	0.600750	0.128150	0.775680
N4281	N428	0.626760	0.157620	0.751190
N4291	N429	0.598970	0.124760	0.729910
N4301	N430	0.563970	0.155720	0.671690
S851	S85	0.544630	0.171880	0.836960
S861	S86	0.623460	0.200720	0.747840
C11191	C1119	0.602580	0.530110	0.340280
H6891	H689	0.594400	0.532700	0.352400
C11201	C1120	0.599140	0.542500	0.322580
C11211	C1121	0.610720	0.538620	0.304770
H6901	H690	0.609200	0.547000	0.292600
C11221	C1122	0.624820	0.521900	0.305140
H6911	H691	0.632400	0.518200	0.292900
C11231	C1123	0.627580	0.510930	0.323140
H6921	H692	0.637600	0.499900	0.323200
C11241	C1124	0.533380	0.654670	0.352260
C11251	C1125	0.513210	0.581570	0.388520
H6931	H693	0.503200	0.582900	0.399400
C11261	C1126	0.524620	0.563340	0.387400
H6941	H694	0.522000	0.552200	0.396900
C11271	C1127	0.540070	0.561420	0.372210
H6951	H695	0.548700	0.549300	0.371600
C11281	C1128	0.542490	0.577740	0.357900
C11291	C1129	0.530010	0.595280	0.359740
H6961	H696	0.531700	0.606200	0.349800
C11301	C1130	0.558770	0.577180	0.341320
C11311	C1131	0.584610	0.560300	0.324330
C11321	C1132	0.575890	0.593160	0.314890
C11331	C1133	0.596010	0.611780	0.287680
H6971	H697	0.604200	0.599400	0.286300
C11341	C1134	0.579520	0.611850	0.302210
C11351	C1135	0.567350	0.629600	0.304110
H6981	H698	0.556200	0.630300	0.314000
C11361	C1136	0.571920	0.646420	0.291090
H6991	H699	0.563600	0.658700	0.291600
C11371	C1137	0.588600	0.645110	0.277460
H7001	H700	0.591600	0.656900	0.268900
C11381	C1138	0.583010	0.611380	0.232370
H7011	H701	0.584100	0.601100	0.243000
C11391	C1139	0.565400	0.611660	0.220600
H7021	H702	0.554500	0.601900	0.223100
C11401	C1140	0.563600	0.626670	0.204700
H7031	H703	0.551600	0.627100	0.195900
C11411	C1141	0.579840	0.640760	0.202170
C11421	C1142	0.597310	0.639150	0.214980
H7041	H704	0.608500	0.648700	0.213000
C11431	C1143	0.579080	0.656980	0.185590
C11441	C1144	0.626110	0.675220	0.249410
N4311	N431	0.616920	0.514750	0.340960
N4321	N432	0.524460	0.643010	0.362850
N4331	N433	0.515510	0.597580	0.375030
N4341	N434	0.560910	0.594180	0.329600
N4351	N435	0.570250	0.559710	0.339660
N4361	N436	0.587630	0.576130	0.311130
N4371	N437	0.600750	0.628150	0.275680
N4381	N438	0.626760	0.657620	0.251190
N4391	N439	0.598970	0.624760	0.229910
N4401	N440	0.563970	0.655720	0.171690
S871	S87	0.544630	0.671880	0.336960
S881	S88	0.623460	0.700720	0.247840
C11451	C1145	0.647420	0.530110	0.909720
H7051	H705	0.655600	0.532700	0.897600
C11461	C1146	0.650860	0.542500	0.927420
C11471	C1147	0.639280	0.538620	0.945230
H7061	H706	0.640800	0.547000	0.957400
C11481	C1148	0.625180	0.521900	0.944860
H7071	H707	0.617600	0.518200	0.957100
C11491	C1149	0.622420	0.510930	0.926860
H7081	H708	0.612400	0.499900	0.926800
C11501	C1150	0.716620	0.654670	0.897740
C11511	C1151	0.736790	0.581570	0.861480
H7091	H709	0.746800	0.582900	0.850600
C11521	C1152	0.725380	0.563340	0.862600
H7101	H710	0.728000	0.552200	0.853100
C11531	C1153	0.709930	0.561420	0.877790
H7111	H711	0.701300	0.549300	0.878400
C11541	C1154	0.707510	0.577740	0.892100
C11551	C1155	0.719990	0.595280	0.890260
H7121	H712	0.718300	0.606200	0.900200
C11561	C1156	0.691230	0.577180	0.908680
C11571	C1157	0.665390	0.560300	0.925670
C11581	C1158	0.674110	0.593160	0.935110
C11591	C1159	0.653990	0.611780	0.962320
H7131	H713	0.645800	0.599400	0.963700
C11601	C1160	0.670480	0.611850	0.947790
C11611	C1161	0.682650	0.629600	0.945890
H7141	H714	0.693800	0.630300	0.936000
C11621	C1162	0.678080	0.646420	0.958910
H7151	H715	0.686400	0.658700	0.958400
C11631	C1163	0.661400	0.645110	0.972540
H7161	H716	0.658400	0.656900	0.981100
C11641	C1164	0.666990	0.611380	0.017630
H7171	H717	0.665900	0.601100	0.007000
C11651	C1165	0.684600	0.611660	0.029400
H7181	H718	0.695500	0.601900	0.026900
C11661	C1166	0.686400	0.626670	0.045300
H7191	H719	0.698400	0.627100	0.054100
C11671	C1167	0.670160	0.640760	0.047830
C11681	C1168	0.652690	0.639150	0.035020
H7201	H720	0.641500	0.648700	0.037000
C11691	C1169	0.670920	0.656980	0.064410
C11701	C1170	0.623890	0.675220	0.000590
N4411	N441	0.633080	0.514750	0.909040
N4421	N442	0.725540	0.643010	0.887150
N4431	N443	0.734490	0.597580	0.874970
N4441	N444	0.689090	0.594180	0.920400
N4451	N445	0.679750	0.559710	0.910340
N4461	N446	0.662370	0.576130	0.938870
N4471	N447	0.649250	0.628150	0.974320
N4481	N448	0.623240	0.657620	0.998810
N4491	N449	0.651030	0.624760	0.020090
N4501	N450	0.686030	0.655720	0.078310
S891	S89	0.705370	0.671880	0.913040
S901	S90	0.626540	0.700720	0.002160
C11711	C1171	0.647420	0.030110	0.409720
H7211	H721	0.655600	0.032700	0.397600
C11721	C1172	0.650860	0.042500	0.427420
C11731	C1173	0.639280	0.038620	0.445230
H7221	H722	0.640800	0.047000	0.457400
C11741	C1174	0.625180	0.021900	0.444860
H7231	H723	0.617600	0.018200	0.457100
C11751	C1175	0.622420	0.010930	0.426860
H7241	H724	0.612400	0.999900	0.426800
C11761	C1176	0.716620	0.154670	0.397740
C11771	C1177	0.736790	0.081570	0.361480
H7251	H725	0.746800	0.082900	0.350600
C11781	C1178	0.725380	0.063340	0.362600
H7261	H726	0.728000	0.052200	0.353100
C11791	C1179	0.709930	0.061420	0.377790
H7271	H727	0.701300	0.049300	0.378400
C11801	C1180	0.707510	0.077740	0.392100
C11811	C1181	0.719990	0.095280	0.390260
H7281	H728	0.718300	0.106200	0.400200
C11821	C1182	0.691230	0.077180	0.408680
C11831	C1183	0.665390	0.060300	0.425670
C11841	C1184	0.674110	0.093160	0.435110
C11851	C1185	0.653990	0.111780	0.462320
H7291	H729	0.645800	0.099400	0.463700
C11861	C1186	0.670480	0.111850	0.447790
C11871	C1187	0.682650	0.129600	0.445890
H7301	H730	0.693800	0.130300	0.436000
C11881	C1188	0.678080	0.146420	0.458910
H7311	H731	0.686400	0.158700	0.458400
C11891	C1189	0.661400	0.145110	0.472540
H7321	H732	0.658400	0.156900	0.481100
C11901	C1190	0.666990	0.111380	0.517630
H7331	H733	0.665900	0.101100	0.507000
C11911	C1191	0.684600	0.111660	0.529400
H7341	H734	0.695500	0.101900	0.526900
C11921	C1192	0.686400	0.126670	0.545300
H7351	H735	0.698400	0.127100	0.554100
C11931	C1193	0.670160	0.140760	0.547830
C11941	C1194	0.652690	0.139150	0.535020
H7361	H736	0.641500	0.148700	0.537000
C11951	C1195	0.670920	0.156980	0.564410
C11961	C1196	0.623890	0.175220	0.500590
N4511	N451	0.633080	0.014750	0.409040
N4521	N452	0.725540	0.143010	0.387150
N4531	N453	0.734490	0.097580	0.374970
N4541	N454	0.689090	0.094180	0.420400
N4551	N455	0.679750	0.059710	0.410340
N4561	N456	0.662370	0.076130	0.438870
N4571	N457	0.649250	0.128150	0.474320
N4581	N458	0.623240	0.157620	0.498810
N4591	N459	0.651030	0.124760	0.520090
N4601	N460	0.686030	0.155720	0.578310
S911	S91	0.705370	0.171880	0.413040
S921	S92	0.626540	0.200720	0.502160
C11971	C1197	0.147420	0.530110	0.409720
H7371	H737	0.155600	0.532700	0.397600
C11981	C1198	0.150860	0.542500	0.427420
C11991	C1199	0.139280	0.538620	0.445230
H7381	H738	0.140800	0.547000	0.457400
C12001	C1200	0.125180	0.521900	0.444860
H7391	H739	0.117600	0.518200	0.457100
C12011	C1201	0.122420	0.510930	0.426860
H7401	H740	0.112400	0.499900	0.426800
C12021	C1202	0.216620	0.654670	0.397740
C12031	C1203	0.236790	0.581570	0.361480
H7411	H741	0.246800	0.582900	0.350600
C12041	C1204	0.225380	0.563340	0.362600
H7421	H742	0.228000	0.552200	0.353100
C12051	C1205	0.209930	0.561420	0.377790
H7431	H743	0.201300	0.549300	0.378400
C12061	C1206	0.207510	0.577740	0.392100
C12071	C1207	0.219990	0.595280	0.390260
H7441	H744	0.218300	0.606200	0.400200
C12081	C1208	0.191230	0.577180	0.408680
C12091	C1209	0.165390	0.560300	0.425670
C12101	C1210	0.174110	0.593160	0.435110
C12111	C1211	0.153990	0.611780	0.462320
H7451	H745	0.145800	0.599400	0.463700
C12121	C1212	0.170480	0.611850	0.447790
C12131	C1213	0.182650	0.629600	0.445890
H7461	H746	0.193800	0.630300	0.436000
C12141	C1214	0.178080	0.646420	0.458910
H7471	H747	0.186400	0.658700	0.458400
C12151	C1215	0.161400	0.645110	0.472540
H7481	H748	0.158400	0.656900	0.481100
C12161	C1216	0.166990	0.611380	0.517630
H7491	H749	0.165900	0.601100	0.507000
C12171	C1217	0.184600	0.611660	0.529400
H7501	H750	0.195500	0.601900	0.526900
C12181	C1218	0.186400	0.626670	0.545300
H7511	H751	0.198400	0.627100	0.554100
C12191	C1219	0.170160	0.640760	0.547830
C12201	C1220	0.152690	0.639150	0.535020
H7521	H752	0.141500	0.648700	0.537000
C12211	C1221	0.170920	0.656980	0.564410
C12221	C1222	0.123890	0.675220	0.500590
N4611	N461	0.133080	0.514750	0.409040
N4621	N462	0.225540	0.643010	0.387150
N4631	N463	0.234490	0.597580	0.374970
N4641	N464	0.189090	0.594180	0.420400
N4651	N465	0.179750	0.559710	0.410340
N4661	N466	0.162370	0.576130	0.438870
N4671	N467	0.149250	0.628150	0.474320
N4681	N468	0.123240	0.657620	0.498810
N4691	N469	0.151030	0.624760	0.520090
N4701	N470	0.186030	0.655720	0.578310
S931	S93	0.205370	0.671880	0.413040
S941	S94	0.126540	0.700720	0.502160
C12231	C1223	0.147420	0.030110	0.909720
H7531	H753	0.155600	0.032700	0.897600
C12241	C1224	0.150860	0.042500	0.927420
C12251	C1225	0.139280	0.038620	0.945230
H7541	H754	0.140800	0.047000	0.957400
C12261	C1226	0.125180	0.021900	0.944860
H7551	H755	0.117600	0.018200	0.957100
C12271	C1227	0.122420	0.010930	0.926860
H7561	H756	0.112400	0.999900	0.926800
C12281	C1228	0.216620	0.154670	0.897740
C12291	C1229	0.236790	0.081570	0.861480
H7571	H757	0.246800	0.082900	0.850600
C12301	C1230	0.225380	0.063340	0.862600
H7581	H758	0.228000	0.052200	0.853100
C12311	C1231	0.209930	0.061420	0.877790
H7591	H759	0.201300	0.049300	0.878400
C12321	C1232	0.207510	0.077740	0.892100
C12331	C1233	0.219990	0.095280	0.890260
H7601	H760	0.218300	0.106200	0.900200
C12341	C1234	0.191230	0.077180	0.908680
C12351	C1235	0.165390	0.060300	0.925670
C12361	C1236	0.174110	0.093160	0.935110
C12371	C1237	0.153990	0.111780	0.962320
H7611	H761	0.145800	0.099400	0.963700
C12381	C1238	0.170480	0.111850	0.947790
C12391	C1239	0.182650	0.129600	0.945890
H7621	H762	0.193800	0.130300	0.936000
C12401	C1240	0.178080	0.146420	0.958910
H7631	H763	0.186400	0.158700	0.958400
C12411	C1241	0.161400	0.145110	0.972540
H7641	H764	0.158400	0.156900	0.981100
C12421	C1242	0.166990	0.111380	0.017630
H7651	H765	0.165900	0.101100	0.007000
C12431	C1243	0.184600	0.111660	0.029400
H7661	H766	0.195500	0.101900	0.026900
C12441	C1244	0.186400	0.126670	0.045300
H7671	H767	0.198400	0.127100	0.054100
C12451	C1245	0.170160	0.140760	0.047830
C12461	C1246	0.152690	0.139150	0.035020
H7681	H768	0.141500	0.148700	0.037000
C12471	C1247	0.170920	0.156980	0.064410
C12481	C1248	0.123890	0.175220	0.000590
N4711	N471	0.133080	0.014750	0.909040
N4721	N472	0.225540	0.143010	0.887150
N4731	N473	0.234490	0.097580	0.874970
N4741	N474	0.189090	0.094180	0.920400
N4751	N475	0.179750	0.059710	0.910340
N4761	N476	0.162370	0.076130	0.938870
N4771	N477	0.149250	0.128150	0.974320
N4781	N478	0.123240	0.157620	0.998810
N4791	N479	0.151030	0.124760	0.020090
N4801	N480	0.186030	0.155720	0.078310
S951	S95	0.205370	0.171880	0.913040
S961	S96	0.126540	0.200720	0.002160
C12491	C1249	0.352580	0.659720	0.780110
H7691	H769	0.344400	0.647600	0.782700
C12501	C1250	0.349140	0.677420	0.792500
C12511	C1251	0.360720	0.695230	0.788620
H7701	H770	0.359200	0.707400	0.797000
C12521	C1252	0.374820	0.694860	0.771900
H7711	H771	0.382400	0.707100	0.768200
C12531	C1253	0.377580	0.676860	0.760930
H7721	H772	0.387600	0.676800	0.749900
C12541	C1254	0.283380	0.647740	0.904670
C12551	C1255	0.263210	0.611480	0.831570
H7731	H773	0.253200	0.600600	0.832900
C12561	C1256	0.274620	0.612600	0.813340
H7741	H774	0.272000	0.603100	0.802200
C12571	C1257	0.290070	0.627790	0.811420
H7751	H775	0.298700	0.628400	0.799300
C12581	C1258	0.292490	0.642100	0.827740
C12591	C1259	0.280010	0.640260	0.845280
H7761	H776	0.281700	0.650200	0.856200
C12601	C1260	0.308770	0.658680	0.827180
C12611	C1261	0.334610	0.675670	0.810300
C12621	C1262	0.325890	0.685110	0.843160
C12631	C1263	0.346010	0.712320	0.861780
H7771	H777	0.354200	0.713700	0.849400
C12641	C1264	0.329520	0.697790	0.861850
C12651	C1265	0.317350	0.695890	0.879600
H7781	H778	0.306200	0.686000	0.880300
C12661	C1266	0.321920	0.708910	0.896420
H7791	H779	0.313600	0.708400	0.908700
C12671	C1267	0.338600	0.722540	0.895110
H7801	H780	0.341600	0.731100	0.906900
C12681	C1268	0.333010	0.767630	0.861380
H7811	H781	0.334100	0.757000	0.851100
C12691	C1269	0.315400	0.779400	0.861660
H7821	H782	0.304500	0.776900	0.851900
C12701	C1270	0.313600	0.795300	0.876670
H7831	H783	0.301600	0.804100	0.877100
C12711	C1271	0.329840	0.797830	0.890760
C12721	C1272	0.347310	0.785020	0.889150
H7841	H784	0.358500	0.787000	0.898700
C12731	C1273	0.329080	0.814410	0.906980
C12741	C1274	0.376110	0.750590	0.925220
N4811	N481	0.366920	0.659040	0.764750
N4821	N482	0.274460	0.637150	0.893010
N4831	N483	0.265510	0.624970	0.847580
N4841	N484	0.310910	0.670400	0.844180
N4851	N485	0.320250	0.660340	0.809710
N4861	N486	0.337630	0.688870	0.826130
N4871	N487	0.350750	0.724320	0.878150
N4881	N488	0.376760	0.748810	0.907620
N4891	N489	0.348970	0.770090	0.874760
N4901	N490	0.313970	0.828310	0.905720
S971	S97	0.294630	0.663040	0.921880
S981	S98	0.373460	0.752160	0.950720
C12751	C1275	0.352580	0.159720	0.280110
H7851	H785	0.344400	0.147600	0.282700
C12761	C1276	0.349140	0.177420	0.292500
C12771	C1277	0.360720	0.195230	0.288620
H7861	H786	0.359200	0.207400	0.297000
C12781	C1278	0.374820	0.194860	0.271900
H7871	H787	0.382400	0.207100	0.268200
C12791	C1279	0.377580	0.176860	0.260930
H7881	H788	0.387600	0.176800	0.249900
C12801	C1280	0.283380	0.147740	0.404670
C12811	C1281	0.263210	0.111480	0.331570
H7891	H789	0.253200	0.100600	0.332900
C12821	C1282	0.274620	0.112600	0.313340
H7901	H790	0.272000	0.103100	0.302200
C12831	C1283	0.290070	0.127790	0.311420
H7911	H791	0.298700	0.128400	0.299300
C12841	C1284	0.292490	0.142100	0.327740
C12851	C1285	0.280010	0.140260	0.345280
H7921	H792	0.281700	0.150200	0.356200
C12861	C1286	0.308770	0.158680	0.327180
C12871	C1287	0.334610	0.175670	0.310300
C12881	C1288	0.325890	0.185110	0.343160
C12891	C1289	0.346010	0.212320	0.361780
H7931	H793	0.354200	0.213700	0.349400
C12901	C1290	0.329520	0.197790	0.361850
C12911	C1291	0.317350	0.195890	0.379600
H7941	H794	0.306200	0.186000	0.380300
C12921	C1292	0.321920	0.208910	0.396420
H7951	H795	0.313600	0.208400	0.408700
C12931	C1293	0.338600	0.222540	0.395110
H7961	H796	0.341600	0.231100	0.406900
C12941	C1294	0.333010	0.267630	0.361380
H7971	H797	0.334100	0.257000	0.351100
C12951	C1295	0.315400	0.279400	0.361660
H7981	H798	0.304500	0.276900	0.351900
C12961	C1296	0.313600	0.295300	0.376670
H7991	H799	0.301600	0.304100	0.377100
C12971	C1297	0.329840	0.297830	0.390760
C12981	C1298	0.347310	0.285020	0.389150
H8001	H800	0.358500	0.287000	0.398700
C12991	C1299	0.329080	0.314410	0.406980
C13001	C1300	0.376110	0.250590	0.425220
N4911	N491	0.366920	0.159040	0.264750
N4921	N492	0.274460	0.137150	0.393010
N4931	N493	0.265510	0.124970	0.347580
N4941	N494	0.310910	0.170400	0.344180
N4951	N495	0.320250	0.160340	0.309710
N4961	N496	0.337630	0.188870	0.326130
N4971	N497	0.350750	0.224320	0.378150
N4981	N498	0.376760	0.248810	0.407620
N4991	N499	0.348970	0.270090	0.374760
N5001	N500	0.313970	0.328310	0.405720
S991	S99	0.294630	0.163040	0.421880
S1001	S100	0.373460	0.252160	0.450720
C13011	C1301	0.852580	0.659720	0.280110
H8011	H801	0.844400	0.647600	0.282700
C13021	C1302	0.849140	0.677420	0.292500
C13031	C1303	0.860720	0.695230	0.288620
H8021	H802	0.859200	0.707400	0.297000
C13041	C1304	0.874820	0.694860	0.271900
H8031	H803	0.882400	0.707100	0.268200
C13051	C1305	0.877580	0.676860	0.260930
H8041	H804	0.887600	0.676800	0.249900
C13061	C1306	0.783380	0.647740	0.404670
C13071	C1307	0.763210	0.611480	0.331570
H8051	H805	0.753200	0.600600	0.332900
C13081	C1308	0.774620	0.612600	0.313340
H8061	H806	0.772000	0.603100	0.302200
C13091	C1309	0.790070	0.627790	0.311420
H8071	H807	0.798700	0.628400	0.299300
C13101	C1310	0.792490	0.642100	0.327740
C13111	C1311	0.780010	0.640260	0.345280
H8081	H808	0.781700	0.650200	0.356200
C13121	C1312	0.808770	0.658680	0.327180
C13131	C1313	0.834610	0.675670	0.310300
C13141	C1314	0.825890	0.685110	0.343160
C13151	C1315	0.846010	0.712320	0.361780
H8091	H809	0.854200	0.713700	0.349400
C13161	C1316	0.829520	0.697790	0.361850
C13171	C1317	0.817350	0.695890	0.379600
H8101	H810	0.806200	0.686000	0.380300
C13181	C1318	0.821920	0.708910	0.396420
H8111	H811	0.813600	0.708400	0.408700
C13191	C1319	0.838600	0.722540	0.395110
H8121	H812	0.841600	0.731100	0.406900
C13201	C1320	0.833010	0.767630	0.361380
H8131	H813	0.834100	0.757000	0.351100
C13211	C1321	0.815400	0.779400	0.361660
H8141	H814	0.804500	0.776900	0.351900
C13221	C1322	0.813600	0.795300	0.376670
H8151	H815	0.801600	0.804100	0.377100
C13231	C1323	0.829840	0.797830	0.390760
C13241	C1324	0.847310	0.785020	0.389150
H8161	H816	0.858500	0.787000	0.398700
C13251	C1325	0.829080	0.814410	0.406980
C13261	C1326	0.876110	0.750590	0.425220
N5011	N501	0.866920	0.659040	0.264750
N5021	N502	0.774460	0.637150	0.393010
N5031	N503	0.765510	0.624970	0.347580
N5041	N504	0.810910	0.670400	0.344180
N5051	N505	0.820250	0.660340	0.309710
N5061	N506	0.837630	0.688870	0.326130
N5071	N507	0.850750	0.724320	0.378150
N5081	N508	0.876760	0.748810	0.407620
N5091	N509	0.848970	0.770090	0.374760
N5101	N510	0.813970	0.828310	0.405720
S1011	S101	0.794630	0.663040	0.421880
S1021	S102	0.873460	0.752160	0.450720
C13271	C1327	0.852580	0.159720	0.780110
H8171	H817	0.844400	0.147600	0.782700
C13281	C1328	0.849140	0.177420	0.792500
C13291	C1329	0.860720	0.195230	0.788620
H8181	H818	0.859200	0.207400	0.797000
C13301	C1330	0.874820	0.194860	0.771900
H8191	H819	0.882400	0.207100	0.768200
C13311	C1331	0.877580	0.176860	0.760930
H8201	H820	0.887600	0.176800	0.749900
C13321	C1332	0.783380	0.147740	0.904670
C13331	C1333	0.763210	0.111480	0.831570
H8211	H821	0.753200	0.100600	0.832900
C13341	C1334	0.774620	0.112600	0.813340
H8221	H822	0.772000	0.103100	0.802200
C13351	C1335	0.790070	0.127790	0.811420
H8231	H823	0.798700	0.128400	0.799300
C13361	C1336	0.792490	0.142100	0.827740
C13371	C1337	0.780010	0.140260	0.845280
H8241	H824	0.781700	0.150200	0.856200
C13381	C1338	0.808770	0.158680	0.827180
C13391	C1339	0.834610	0.175670	0.810300
C13401	C1340	0.825890	0.185110	0.843160
C13411	C1341	0.846010	0.212320	0.861780
H8251	H825	0.854200	0.213700	0.849400
C13421	C1342	0.829520	0.197790	0.861850
C13431	C1343	0.817350	0.195890	0.879600
H8261	H826	0.806200	0.186000	0.880300
C13441	C1344	0.821920	0.208910	0.896420
H8271	H827	0.813600	0.208400	0.908700
C13451	C1345	0.838600	0.222540	0.895110
H8281	H828	0.841600	0.231100	0.906900
C13461	C1346	0.833010	0.267630	0.861380
H8291	H829	0.834100	0.257000	0.851100
C13471	C1347	0.815400	0.279400	0.861660
H8301	H830	0.804500	0.276900	0.851900
C13481	C1348	0.813600	0.295300	0.876670
H8311	H831	0.801600	0.304100	0.877100
C13491	C1349	0.829840	0.297830	0.890760
C13501	C1350	0.847310	0.285020	0.889150
H8321	H832	0.858500	0.287000	0.898700
C13511	C1351	0.829080	0.314410	0.906980
C13521	C1352	0.876110	0.250590	0.925220
N5111	N511	0.866920	0.159040	0.764750
N5121	N512	0.774460	0.137150	0.893010
N5131	N513	0.765510	0.124970	0.847580
N5141	N514	0.810910	0.170400	0.844180
N5151	N515	0.820250	0.160340	0.809710
N5161	N516	0.837630	0.188870	0.826130
N5171	N517	0.850750	0.224320	0.878150
N5181	N518	0.876760	0.248810	0.907620
N5191	N519	0.848970	0.270090	0.874760
N5201	N520	0.813970	0.328310	0.905720
S1031	S103	0.794630	0.163040	0.921880
S1041	S104	0.873460	0.252160	0.950720
C13531	C1353	0.897420	0.090280	0.280110
H8331	H833	0.905600	0.102400	0.282700
C13541	C1354	0.900860	0.072580	0.292500
C13551	C1355	0.889280	0.054770	0.288620
H8341	H834	0.890800	0.042600	0.297000
C13561	C1356	0.875180	0.055140	0.271900
H8351	H835	0.867600	0.042900	0.268200
C13571	C1357	0.872420	0.073140	0.260930
H8361	H836	0.862400	0.073200	0.249900
C13581	C1358	0.966620	0.102260	0.404670
C13591	C1359	0.986790	0.138520	0.331570
H8371	H837	0.996800	0.149400	0.332900
C13601	C1360	0.975380	0.137400	0.313340
H8381	H838	0.978000	0.146900	0.302200
C13611	C1361	0.959930	0.122210	0.311420
H8391	H839	0.951300	0.121600	0.299300
C13621	C1362	0.957510	0.107900	0.327740
C13631	C1363	0.969990	0.109740	0.345280
H8401	H840	0.968300	0.099800	0.356200
C13641	C1364	0.941230	0.091320	0.327180
C13651	C1365	0.915390	0.074330	0.310300
C13661	C1366	0.924110	0.064890	0.343160
C13671	C1367	0.903990	0.037680	0.361780
H8411	H841	0.895800	0.036300	0.349400
C13681	C1368	0.920480	0.052210	0.361850
C13691	C1369	0.932650	0.054110	0.379600
H8421	H842	0.943800	0.064000	0.380300
C13701	C1370	0.928080	0.041090	0.396420
H8431	H843	0.936400	0.041600	0.408700
C13711	C1371	0.911400	0.027460	0.395110
H8441	H844	0.908400	0.018900	0.406900
C13721	C1372	0.916990	0.982370	0.361380
H8451	H845	0.915900	0.993000	0.351100
C13731	C1373	0.934600	0.970600	0.361660
H8461	H846	0.945500	0.973100	0.351900
C13741	C1374	0.936400	0.954700	0.376670
H8471	H847	0.948400	0.945900	0.377100
C13751	C1375	0.920160	0.952170	0.390760
C13761	C1376	0.902690	0.964980	0.389150
H8481	H848	0.891500	0.963000	0.398700
C13771	C1377	0.920920	0.935590	0.406980
C13781	C1378	0.873890	0.999410	0.425220
N5211	N521	0.883080	0.090960	0.264750
N5221	N522	0.975540	0.112850	0.393010
N5231	N523	0.984490	0.125030	0.347580
N5241	N524	0.939090	0.079600	0.344180
N5251	N525	0.929750	0.089660	0.309710
N5261	N526	0.912370	0.061130	0.326130
N5271	N527	0.899250	0.025680	0.378150
N5281	N528	0.873240	0.001190	0.407620
N5291	N529	0.901030	0.979910	0.374760
N5301	N530	0.936030	0.921690	0.405720
S1051	S105	0.955370	0.086960	0.421880
S1061	S106	0.876540	0.997840	0.450720
C13791	C1379	0.897420	0.590280	0.780110
H8491	H849	0.905600	0.602400	0.782700
C13801	C1380	0.900860	0.572580	0.792500
C13811	C1381	0.889280	0.554770	0.788620
H8501	H850	0.890800	0.542600	0.797000
C13821	C1382	0.875180	0.555140	0.771900
H8511	H851	0.867600	0.542900	0.768200
C13831	C1383	0.872420	0.573140	0.760930
H8521	H852	0.862400	0.573200	0.749900
C13841	C1384	0.966620	0.602260	0.904670
C13851	C1385	0.986790	0.638520	0.831570
H8531	H853	0.996800	0.649400	0.832900
C13861	C1386	0.975380	0.637400	0.813340
H8541	H854	0.978000	0.646900	0.802200
C13871	C1387	0.959930	0.622210	0.811420
H8551	H855	0.951300	0.621600	0.799300
C13881	C1388	0.957510	0.607900	0.827740
C13891	C1389	0.969990	0.609740	0.845280
H8561	H856	0.968300	0.599800	0.856200
C13901	C1390	0.941230	0.591320	0.827180
C13911	C1391	0.915390	0.574330	0.810300
C13921	C1392	0.924110	0.564890	0.843160
C13931	C1393	0.903990	0.537680	0.861780
H8571	H857	0.895800	0.536300	0.849400
C13941	C1394	0.920480	0.552210	0.861850
C13951	C1395	0.932650	0.554110	0.879600
H8581	H858	0.943800	0.564000	0.880300
C13961	C1396	0.928080	0.541090	0.896420
H8591	H859	0.936400	0.541600	0.908700
C13971	C1397	0.911400	0.527460	0.895110
H8601	H860	0.908400	0.518900	0.906900
C13981	C1398	0.916990	0.482370	0.861380
H8611	H861	0.915900	0.493000	0.851100
C13991	C1399	0.934600	0.470600	0.861660
H8621	H862	0.945500	0.473100	0.851900
C14001	C1400	0.936400	0.454700	0.876670
H8631	H863	0.948400	0.445900	0.877100
C14011	C1401	0.920160	0.452170	0.890760
C14021	C1402	0.902690	0.464980	0.889150
H8641	H864	0.891500	0.463000	0.898700
C14031	C1403	0.920920	0.435590	0.906980
C14041	C1404	0.873890	0.499410	0.925220
N5311	N531	0.883080	0.590960	0.764750
N5321	N532	0.975540	0.612850	0.893010
N5331	N533	0.984490	0.625030	0.847580
N5341	N534	0.939090	0.579600	0.844180
N5351	N535	0.929750	0.589660	0.809710
N5361	N536	0.912370	0.561130	0.826130
N5371	N537	0.899250	0.525680	0.878150
N5381	N538	0.873240	0.501190	0.907620
N5391	N539	0.901030	0.479910	0.874760
N5401	N540	0.936030	0.421690	0.905720
S1071	S107	0.955370	0.586960	0.921880
S1081	S108	0.876540	0.497840	0.950720
C14051	C1405	0.397420	0.090280	0.780110
H8651	H865	0.405600	0.102400	0.782700
C14061	C1406	0.400860	0.072580	0.792500
C14071	C1407	0.389280	0.054770	0.788620
H8661	H866	0.390800	0.042600	0.797000
C14081	C1408	0.375180	0.055140	0.771900
H8671	H867	0.367600	0.042900	0.768200
C14091	C1409	0.372420	0.073140	0.760930
H8681	H868	0.362400	0.073200	0.749900
C14101	C1410	0.466620	0.102260	0.904670
C14111	C1411	0.486790	0.138520	0.831570
H8691	H869	0.496800	0.149400	0.832900
C14121	C1412	0.475380	0.137400	0.813340
H8701	H870	0.478000	0.146900	0.802200
C14131	C1413	0.459930	0.122210	0.811420
H8711	H871	0.451300	0.121600	0.799300
C14141	C1414	0.457510	0.107900	0.827740
C14151	C1415	0.469990	0.109740	0.845280
H8721	H872	0.468300	0.099800	0.856200
C14161	C1416	0.441230	0.091320	0.827180
C14171	C1417	0.415390	0.074330	0.810300
C14181	C1418	0.424110	0.064890	0.843160
C14191	C1419	0.403990	0.037680	0.861780
H8731	H873	0.395800	0.036300	0.849400
C14201	C1420	0.420480	0.052210	0.861850
C14211	C1421	0.432650	0.054110	0.879600
H8741	H874	0.443800	0.064000	0.880300
C14221	C1422	0.428080	0.041090	0.896420
H8751	H875	0.436400	0.041600	0.908700
C14231	C1423	0.411400	0.027460	0.895110
H8761	H876	0.408400	0.018900	0.906900
C14241	C1424	0.416990	0.982370	0.861380
H8771	H877	0.415900	0.993000	0.851100
C14251	C1425	0.434600	0.970600	0.861660
H8781	H878	0.445500	0.973100	0.851900
C14261	C1426	0.436400	0.954700	0.876670
H8791	H879	0.448400	0.945900	0.877100
C14271	C1427	0.420160	0.952170	0.890760
C14281	C1428	0.402690	0.964980	0.889150
H8801	H880	0.391500	0.963000	0.898700
C14291	C1429	0.420920	0.935590	0.906980
C14301	C1430	0.373890	0.999410	0.925220
N5411	N541	0.383080	0.090960	0.764750
N5421	N542	0.475540	0.112850	0.893010
N5431	N543	0.484490	0.125030	0.847580
N5441	N544	0.439090	0.079600	0.844180
N5451	N545	0.429750	0.089660	0.809710
N5461	N546	0.412370	0.061130	0.826130
N5471	N547	0.399250	0.025680	0.878150
N5481	N548	0.373240	0.001190	0.907620
N5491	N549	0.401030	0.979910	0.874760
N5501	N550	0.436030	0.921690	0.905720
S1091	S109	0.455370	0.086960	0.921880
S1101	S110	0.376540	0.997840	0.950720
C14311	C1431	0.397420	0.590280	0.280110
H8811	H881	0.405600	0.602400	0.282700
C14321	C1432	0.400860	0.572580	0.292500
C14331	C1433	0.389280	0.554770	0.288620
H8821	H882	0.390800	0.542600	0.297000
C14341	C1434	0.375180	0.555140	0.271900
H8831	H883	0.367600	0.542900	0.268200
C14351	C1435	0.372420	0.573140	0.260930
H8841	H884	0.362400	0.573200	0.249900
C14361	C1436	0.466620	0.602260	0.404670
C14371	C1437	0.486790	0.638520	0.331570
H8851	H885	0.496800	0.649400	0.332900
C14381	C1438	0.475380	0.637400	0.313340
H8861	H886	0.478000	0.646900	0.302200
C14391	C1439	0.459930	0.622210	0.311420
H8871	H887	0.451300	0.621600	0.299300
C14401	C1440	0.457510	0.607900	0.327740
C14411	C1441	0.469990	0.609740	0.345280
H8881	H888	0.468300	0.599800	0.356200
C14421	C1442	0.441230	0.591320	0.327180
C14431	C1443	0.415390	0.574330	0.310300
C14441	C1444	0.424110	0.564890	0.343160
C14451	C1445	0.403990	0.537680	0.361780
H8891	H889	0.395800	0.536300	0.349400
C14461	C1446	0.420480	0.552210	0.361850
C14471	C1447	0.432650	0.554110	0.379600
H8901	H890	0.443800	0.564000	0.380300
C14481	C1448	0.428080	0.541090	0.396420
H8911	H891	0.436400	0.541600	0.408700
C14491	C1449	0.411400	0.527460	0.395110
H8921	H892	0.408400	0.518900	0.406900
C14501	C1450	0.416990	0.482370	0.361380
H8931	H893	0.415900	0.493000	0.351100
C14511	C1451	0.434600	0.470600	0.361660
H8941	H894	0.445500	0.473100	0.351900
C14521	C1452	0.436400	0.454700	0.376670
H8951	H895	0.448400	0.445900	0.377100
C14531	C1453	0.420160	0.452170	0.390760
C14541	C1454	0.402690	0.464980	0.389150
H8961	H896	0.391500	0.463000	0.398700
C14551	C1455	0.420920	0.435590	0.406980
C14561	C1456	0.373890	0.499410	0.425220
N5511	N551	0.383080	0.590960	0.264750
N5521	N552	0.475540	0.612850	0.393010
N5531	N553	0.484490	0.625030	0.347580
N5541	N554	0.439090	0.579600	0.344180
N5551	N555	0.429750	0.589660	0.309710
N5561	N556	0.412370	0.561130	0.326130
N5571	N557	0.399250	0.525680	0.378150
N5581	N558	0.373240	0.501190	0.407620
N5591	N559	0.401030	0.479910	0.374760
N5601	N560	0.436030	0.421690	0.405720
S1111	S111	0.455370	0.586960	0.421880
S1121	S112	0.376540	0.497840	0.450720
C14571	C1457	0.852580	0.590280	0.969890
H8971	H897	0.844400	0.602400	0.967300
C14581	C1458	0.849140	0.572580	0.957500
C14591	C1459	0.860720	0.554770	0.961380
H8981	H898	0.859200	0.542600	0.953000
C14601	C1460	0.874820	0.555140	0.978100
H8991	H899	0.882400	0.542900	0.981800
C14611	C1461	0.877580	0.573140	0.989070
H9001	H900	0.887600	0.573200	0.000100
C14621	C1462	0.783380	0.602260	0.845330
C14631	C1463	0.763210	0.638520	0.918430
H9011	H901	0.753200	0.649400	0.917100
C14641	C1464	0.774620	0.637400	0.936660
H9021	H902	0.772000	0.646900	0.947800
C14651	C1465	0.790070	0.622210	0.938580
H9031	H903	0.798700	0.621600	0.950700
C14661	C1466	0.792490	0.607900	0.922260
C14671	C1467	0.780010	0.609740	0.904720
H9041	H904	0.781700	0.599800	0.893800
C14681	C1468	0.808770	0.591320	0.922820
C14691	C1469	0.834610	0.574330	0.939700
C14701	C1470	0.825890	0.564890	0.906840
C14711	C1471	0.846010	0.537680	0.888220
H9051	H905	0.854200	0.536300	0.900600
C14721	C1472	0.829520	0.552210	0.888150
C14731	C1473	0.817350	0.554110	0.870400
H9061	H906	0.806200	0.564000	0.869700
C14741	C1474	0.821920	0.541090	0.853580
H9071	H907	0.813600	0.541600	0.841300
C14751	C1475	0.838600	0.527460	0.854890
H9081	H908	0.841600	0.518900	0.843100
C14761	C1476	0.833010	0.482370	0.888620
H9091	H909	0.834100	0.493000	0.898900
C14771	C1477	0.815400	0.470600	0.888340
H9101	H910	0.804500	0.473100	0.898100
C14781	C1478	0.813600	0.454700	0.873330
H9111	H911	0.801600	0.445900	0.872900
C14791	C1479	0.829840	0.452170	0.859240
C14801	C1480	0.847310	0.464980	0.860850
H9121	H912	0.858500	0.463000	0.851300
C14811	C1481	0.829080	0.435590	0.843020
C14821	C1482	0.876110	0.499410	0.824780
N5611	N561	0.866920	0.590960	0.985250
N5621	N562	0.774460	0.612850	0.856990
N5631	N563	0.765510	0.625030	0.902420
N5641	N564	0.810910	0.579600	0.905820
N5651	N565	0.820250	0.589660	0.940290
N5661	N566	0.837630	0.561130	0.923870
N5671	N567	0.850750	0.525680	0.871850
N5681	N568	0.876760	0.501190	0.842380
N5691	N569	0.848970	0.479910	0.875240
N5701	N570	0.813970	0.421690	0.844280
S1131	S113	0.794630	0.586960	0.828120
S1141	S114	0.873460	0.497840	0.799280
C14831	C1483	0.852580	0.090280	0.469890
H9131	H913	0.844400	0.102400	0.467300
C14841	C1484	0.849140	0.072580	0.457500
C14851	C1485	0.860720	0.054770	0.461380
H9141	H914	0.859200	0.042600	0.453000
C14861	C1486	0.874820	0.055140	0.478100
H9151	H915	0.882400	0.042900	0.481800
C14871	C1487	0.877580	0.073140	0.489070
H9161	H916	0.887600	0.073200	0.500100
C14881	C1488	0.783380	0.102260	0.345330
C14891	C1489	0.763210	0.138520	0.418430
H9171	H917	0.753200	0.149400	0.417100
C14901	C1490	0.774620	0.137400	0.436660
H9181	H918	0.772000	0.146900	0.447800
C14911	C1491	0.790070	0.122210	0.438580
H9191	H919	0.798700	0.121600	0.450700
C14921	C1492	0.792490	0.107900	0.422260
C14931	C1493	0.780010	0.109740	0.404720
H9201	H920	0.781700	0.099800	0.393800
C14941	C1494	0.808770	0.091320	0.422820
C14951	C1495	0.834610	0.074330	0.439700
C14961	C1496	0.825890	0.064890	0.406840
C14971	C1497	0.846010	0.037680	0.388220
H9211	H921	0.854200	0.036300	0.400600
C14981	C1498	0.829520	0.052210	0.388150
C14991	C1499	0.817350	0.054110	0.370400
H9221	H922	0.806200	0.064000	0.369700
C15001	C1500	0.821920	0.041090	0.353580
H9231	H923	0.813600	0.041600	0.341300
C15011	C1501	0.838600	0.027460	0.354890
H9241	H924	0.841600	0.018900	0.343100
C15021	C1502	0.833010	0.982370	0.388620
H9251	H925	0.834100	0.993000	0.398900
C15031	C1503	0.815400	0.970600	0.388340
H9261	H926	0.804500	0.973100	0.398100
C15041	C1504	0.813600	0.954700	0.373330
H9271	H927	0.801600	0.945900	0.372900
C15051	C1505	0.829840	0.952170	0.359240
C15061	C1506	0.847310	0.964980	0.360850
H9281	H928	0.858500	0.963000	0.351300
C15071	C1507	0.829080	0.935590	0.343020
C15081	C1508	0.876110	0.999410	0.324780
N5711	N571	0.866920	0.090960	0.485250
N5721	N572	0.774460	0.112850	0.356990
N5731	N573	0.765510	0.125030	0.402420
N5741	N574	0.810910	0.079600	0.405820
N5751	N575	0.820250	0.089660	0.440290
N5761	N576	0.837630	0.061130	0.423870
N5771	N577	0.850750	0.025680	0.371850
N5781	N578	0.876760	0.001190	0.342380
N5791	N579	0.848970	0.979910	0.375240
N5801	N580	0.813970	0.921690	0.344280
S1151	S115	0.794630	0.086960	0.328120
S1161	S116	0.873460	0.997840	0.299280
C15091	C1509	0.352580	0.590280	0.469890
H9291	H929	0.344400	0.602400	0.467300
C15101	C1510	0.349140	0.572580	0.457500
C15111	C1511	0.360720	0.554770	0.461380
H9301	H930	0.359200	0.542600	0.453000
C15121	C1512	0.374820	0.555140	0.478100
H9311	H931	0.382400	0.542900	0.481800
C15131	C1513	0.377580	0.573140	0.489070
H9321	H932	0.387600	0.573200	0.500100
C15141	C1514	0.283380	0.602260	0.345330
C15151	C1515	0.263210	0.638520	0.418430
H9331	H933	0.253200	0.649400	0.417100
C15161	C1516	0.274620	0.637400	0.436660
H9341	H934	0.272000	0.646900	0.447800
C15171	C1517	0.290070	0.622210	0.438580
H9351	H935	0.298700	0.621600	0.450700
C15181	C1518	0.292490	0.607900	0.422260
C15191	C1519	0.280010	0.609740	0.404720
H9361	H936	0.281700	0.599800	0.393800
C15201	C1520	0.308770	0.591320	0.422820
C15211	C1521	0.334610	0.574330	0.439700
C15221	C1522	0.325890	0.564890	0.406840
C15231	C1523	0.346010	0.537680	0.388220
H9371	H937	0.354200	0.536300	0.400600
C15241	C1524	0.329520	0.552210	0.388150
C15251	C1525	0.317350	0.554110	0.370400
H9381	H938	0.306200	0.564000	0.369700
C15261	C1526	0.321920	0.541090	0.353580
H9391	H939	0.313600	0.541600	0.341300
C15271	C1527	0.338600	0.527460	0.354890
H9401	H940	0.341600	0.518900	0.343100
C15281	C1528	0.333010	0.482370	0.388620
H9411	H941	0.334100	0.493000	0.398900
C15291	C1529	0.315400	0.470600	0.388340
H9421	H942	0.304500	0.473100	0.398100
C15301	C1530	0.313600	0.454700	0.373330
H9431	H943	0.301600	0.445900	0.372900
C15311	C1531	0.329840	0.452170	0.359240
C15321	C1532	0.347310	0.464980	0.360850
H9441	H944	0.358500	0.463000	0.351300
C15331	C1533	0.329080	0.435590	0.343020
C15341	C1534	0.376110	0.499410	0.324780
N5811	N581	0.366920	0.590960	0.485250
N5821	N582	0.274460	0.612850	0.356990
N5831	N583	0.265510	0.625030	0.402420
N5841	N584	0.310910	0.579600	0.405820
N5851	N585	0.320250	0.589660	0.440290
N5861	N586	0.337630	0.561130	0.423870
N5871	N587	0.350750	0.525680	0.371850
N5881	N588	0.376760	0.501190	0.342380
N5891	N589	0.348970	0.479910	0.375240
N5901	N590	0.313970	0.421690	0.344280
S1171	S117	0.294630	0.586960	0.328120
S1181	S118	0.373460	0.497840	0.299280
C15351	C1535	0.352580	0.090280	0.969890
H9451	H945	0.344400	0.102400	0.967300
C15361	C1536	0.349140	0.072580	0.957500
C15371	C1537	0.360720	0.054770	0.961380
H9461	H946	0.359200	0.042600	0.953000
C15381	C1538	0.374820	0.055140	0.978100
H9471	H947	0.382400	0.042900	0.981800
C15391	C1539	0.377580	0.073140	0.989070
H9481	H948	0.387600	0.073200	0.000100
C15401	C1540	0.283380	0.102260	0.845330
C15411	C1541	0.263210	0.138520	0.918430
H9491	H949	0.253200	0.149400	0.917100
C15421	C1542	0.274620	0.137400	0.936660
H9501	H950	0.272000	0.146900	0.947800
C15431	C1543	0.290070	0.122210	0.938580
H9511	H951	0.298700	0.121600	0.950700
C15441	C1544	0.292490	0.107900	0.922260
C15451	C1545	0.280010	0.109740	0.904720
H9521	H952	0.281700	0.099800	0.893800
C15461	C1546	0.308770	0.091320	0.922820
C15471	C1547	0.334610	0.074330	0.939700
C15481	C1548	0.325890	0.064890	0.906840
C15491	C1549	0.346010	0.037680	0.888220
H9531	H953	0.354200	0.036300	0.900600
C15501	C1550	0.329520	0.052210	0.888150
C15511	C1551	0.317350	0.054110	0.870400
H9541	H954	0.306200	0.064000	0.869700
C15521	C1552	0.321920	0.041090	0.853580
H9551	H955	0.313600	0.041600	0.841300
C15531	C1553	0.338600	0.027460	0.854890
H9561	H956	0.341600	0.018900	0.843100
C15541	C1554	0.333010	0.982370	0.888620
H9571	H957	0.334100	0.993000	0.898900
C15551	C1555	0.315400	0.970600	0.888340
H9581	H958	0.304500	0.973100	0.898100
C15561	C1556	0.313600	0.954700	0.873330
H9591	H959	0.301600	0.945900	0.872900
C15571	C1557	0.329840	0.952170	0.859240
C15581	C1558	0.347310	0.964980	0.860850
H9601	H960	0.358500	0.963000	0.851300
C15591	C1559	0.329080	0.935590	0.843020
C15601	C1560	0.376110	0.999410	0.824780
N5911	N591	0.366920	0.090960	0.985250
N5921	N592	0.274460	0.112850	0.856990
N5931	N593	0.265510	0.125030	0.902420
N5941	N594	0.310910	0.079600	0.905820
N5951	N595	0.320250	0.089660	0.940290
N5961	N596	0.337630	0.061130	0.923870
N5971	N597	0.350750	0.025680	0.871850
N5981	N598	0.376760	0.001190	0.842380
N5991	N599	0.348970	0.979910	0.875240
N6001	N600	0.313970	0.921690	0.844280
S1191	S119	0.294630	0.086960	0.828120
S1201	S120	0.373460	0.997840	0.799280
C15611	C1561	0.397420	0.159720	0.469890
H9611	H961	0.405600	0.147600	0.467300
C15621	C1562	0.400860	0.177420	0.457500
C15631	C1563	0.389280	0.195230	0.461380
H9621	H962	0.390800	0.207400	0.453000
C15641	C1564	0.375180	0.194860	0.478100
H9631	H963	0.367600	0.207100	0.481800
C15651	C1565	0.372420	0.176860	0.489070
H9641	H964	0.362400	0.176800	0.500100
C15661	C1566	0.466620	0.147740	0.345330
C15671	C1567	0.486790	0.111480	0.418430
H9651	H965	0.496800	0.100600	0.417100
C15681	C1568	0.475380	0.112600	0.436660
H9661	H966	0.478000	0.103100	0.447800
C15691	C1569	0.459930	0.127790	0.438580
H9671	H967	0.451300	0.128400	0.450700
C15701	C1570	0.457510	0.142100	0.422260
C15711	C1571	0.469990	0.140260	0.404720
H9681	H968	0.468300	0.150200	0.393800
C15721	C1572	0.441230	0.158680	0.422820
C15731	C1573	0.415390	0.175670	0.439700
C15741	C1574	0.424110	0.185110	0.406840
C15751	C1575	0.403990	0.212320	0.388220
H9691	H969	0.395800	0.213700	0.400600
C15761	C1576	0.420480	0.197790	0.388150
C15771	C1577	0.432650	0.195890	0.370400
H9701	H970	0.443800	0.186000	0.369700
C15781	C1578	0.428080	0.208910	0.353580
H9711	H971	0.436400	0.208400	0.341300
C15791	C1579	0.411400	0.222540	0.354890
H9721	H972	0.408400	0.231100	0.343100
C15801	C1580	0.416990	0.267630	0.388620
H9731	H973	0.415900	0.257000	0.398900
C15811	C1581	0.434600	0.279400	0.388340
H9741	H974	0.445500	0.276900	0.398100
C15821	C1582	0.436400	0.295300	0.373330
H9751	H975	0.448400	0.304100	0.372900
C15831	C1583	0.420160	0.297830	0.359240
C15841	C1584	0.402690	0.285020	0.360850
H9761	H976	0.391500	0.287000	0.351300
C15851	C1585	0.420920	0.314410	0.343020
C15861	C1586	0.373890	0.250590	0.324780
N6011	N601	0.383080	0.159040	0.485250
N6021	N602	0.475540	0.137150	0.356990
N6031	N603	0.484490	0.124970	0.402420
N6041	N604	0.439090	0.170400	0.405820
N6051	N605	0.429750	0.160340	0.440290
N6061	N606	0.412370	0.188870	0.423870
N6071	N607	0.399250	0.224320	0.371850
N6081	N608	0.373240	0.248810	0.342380
N6091	N609	0.401030	0.270090	0.375240
N6101	N610	0.436030	0.328310	0.344280
S1211	S121	0.455370	0.163040	0.328120
S1221	S122	0.376540	0.252160	0.299280
C15871	C1587	0.397420	0.659720	0.969890
H9771	H977	0.405600	0.647600	0.967300
C15881	C1588	0.400860	0.677420	0.957500
C15891	C1589	0.389280	0.695230	0.961380
H9781	H978	0.390800	0.707400	0.953000
C15901	C1590	0.375180	0.694860	0.978100
H9791	H979	0.367600	0.707100	0.981800
C15911	C1591	0.372420	0.676860	0.989070
H9801	H980	0.362400	0.676800	0.000100
C15921	C1592	0.466620	0.647740	0.845330
C15931	C1593	0.486790	0.611480	0.918430
H9811	H981	0.496800	0.600600	0.917100
C15941	C1594	0.475380	0.612600	0.936660
H9821	H982	0.478000	0.603100	0.947800
C15951	C1595	0.459930	0.627790	0.938580
H9831	H983	0.451300	0.628400	0.950700
C15961	C1596	0.457510	0.642100	0.922260
C15971	C1597	0.469990	0.640260	0.904720
H9841	H984	0.468300	0.650200	0.893800
C15981	C1598	0.441230	0.658680	0.922820
C15991	C1599	0.415390	0.675670	0.939700
C16001	C1600	0.424110	0.685110	0.906840
C16011	C1601	0.403990	0.712320	0.888220
H9851	H985	0.395800	0.713700	0.900600
C16021	C1602	0.420480	0.697790	0.888150
C16031	C1603	0.432650	0.695890	0.870400
H9861	H986	0.443800	0.686000	0.869700
C16041	C1604	0.428080	0.708910	0.853580
H9871	H987	0.436400	0.708400	0.841300
C16051	C1605	0.411400	0.722540	0.854890
H9881	H988	0.408400	0.731100	0.843100
C16061	C1606	0.416990	0.767630	0.888620
H9891	H989	0.415900	0.757000	0.898900
C16071	C1607	0.434600	0.779400	0.888340
H9901	H990	0.445500	0.776900	0.898100
C16081	C1608	0.436400	0.795300	0.873330
H9911	H991	0.448400	0.804100	0.872900
C16091	C1609	0.420160	0.797830	0.859240
C16101	C1610	0.402690	0.785020	0.860850
H9921	H992	0.391500	0.787000	0.851300
C16111	C1611	0.420920	0.814410	0.843020
C16121	C1612	0.373890	0.750590	0.824780
N6111	N611	0.383080	0.659040	0.985250
N6121	N612	0.475540	0.637150	0.856990
N6131	N613	0.484490	0.624970	0.902420
N6141	N614	0.439090	0.670400	0.905820
N6151	N615	0.429750	0.660340	0.940290
N6161	N616	0.412370	0.688870	0.923870
N6171	N617	0.399250	0.724320	0.871850
N6181	N618	0.373240	0.748810	0.842380
N6191	N619	0.401030	0.770090	0.875240
N6201	N620	0.436030	0.828310	0.844280
S1231	S123	0.455370	0.663040	0.828120
S1241	S124	0.376540	0.752160	0.799280
C16131	C1613	0.897420	0.159720	0.969890
H9931	H993	0.905600	0.147600	0.967300
C16141	C1614	0.900860	0.177420	0.957500
C16151	C1615	0.889280	0.195230	0.961380
H9941	H994	0.890800	0.207400	0.953000
C16161	C1616	0.875180	0.194860	0.978100
H9951	H995	0.867600	0.207100	0.981800
C16171	C1617	0.872420	0.176860	0.989070
H9961	H996	0.862400	0.176800	0.000100
C16181	C1618	0.966620	0.147740	0.845330
C16191	C1619	0.986790	0.111480	0.918430
H9971	H997	0.996800	0.100600	0.917100
C16201	C1620	0.975380	0.112600	0.936660
H9981	H998	0.978000	0.103100	0.947800
C16211	C1621	0.959930	0.127790	0.938580
H9991	H999	0.951300	0.128400	0.950700
C16221	C1622	0.957510	0.142100	0.922260
C16231	C1623	0.969990	0.140260	0.904720
H10001	H1000	0.968300	0.150200	0.893800
C16241	C1624	0.941230	0.158680	0.922820
C16251	C1625	0.915390	0.175670	0.939700
C16261	C1626	0.924110	0.185110	0.906840
C16271	C1627	0.903990	0.212320	0.888220
H10011	H1001	0.895800	0.213700	0.900600
C16281	C1628	0.920480	0.197790	0.888150
C16291	C1629	0.932650	0.195890	0.870400
H10021	H1002	0.943800	0.186000	0.869700
C16301	C1630	0.928080	0.208910	0.853580
H10031	H1003	0.936400	0.208400	0.841300
C16311	C1631	0.911400	0.222540	0.854890
H10041	H1004	0.908400	0.231100	0.843100
C16321	C1632	0.916990	0.267630	0.888620
H10051	H1005	0.915900	0.257000	0.898900
C16331	C1633	0.934600	0.279400	0.888340
H10061	H1006	0.945500	0.276900	0.898100
C16341	C1634	0.936400	0.295300	0.873330
H10071	H1007	0.948400	0.304100	0.872900
C16351	C1635	0.920160	0.297830	0.859240
C16361	C1636	0.902690	0.285020	0.860850
H10081	H1008	0.891500	0.287000	0.851300
C16371	C1637	0.920920	0.314410	0.843020
C16381	C1638	0.873890	0.250590	0.824780
N6211	N621	0.883080	0.159040	0.985250
N6221	N622	0.975540	0.137150	0.856990
N6231	N623	0.984490	0.124970	0.902420
N6241	N624	0.939090	0.170400	0.905820
N6251	N625	0.929750	0.160340	0.940290
N6261	N626	0.912370	0.188870	0.923870
N6271	N627	0.899250	0.224320	0.871850
N6281	N628	0.873240	0.248810	0.842380
N6291	N629	0.901030	0.270090	0.875240
N6301	N630	0.936030	0.328310	0.844280
S1251	S125	0.955370	0.163040	0.828120
S1261	S126	0.876540	0.252160	0.799280
C16391	C1639	0.897420	0.659720	0.469890
H10091	H1009	0.905600	0.647600	0.467300
C16401	C1640	0.900860	0.677420	0.457500
C16411	C1641	0.889280	0.695230	0.461380
H10101	H1010	0.890800	0.707400	0.453000
C16421	C1642	0.875180	0.694860	0.478100
H10111	H1011	0.867600	0.707100	0.481800
C16431	C1643	0.872420	0.676860	0.489070
H10121	H1012	0.862400	0.676800	0.500100
C16441	C1644	0.966620	0.647740	0.345330
C16451	C1645	0.986790	0.611480	0.418430
H10131	H1013	0.996800	0.600600	0.417100
C16461	C1646	0.975380	0.612600	0.436660
H10141	H1014	0.978000	0.603100	0.447800
C16471	C1647	0.959930	0.627790	0.438580
H10151	H1015	0.951300	0.628400	0.450700
C16481	C1648	0.957510	0.642100	0.422260
C16491	C1649	0.969990	0.640260	0.404720
H10161	H1016	0.968300	0.650200	0.393800
C16501	C1650	0.941230	0.658680	0.422820
C16511	C1651	0.915390	0.675670	0.439700
C16521	C1652	0.924110	0.685110	0.406840
C16531	C1653	0.903990	0.712320	0.388220
H10171	H1017	0.895800	0.713700	0.400600
C16541	C1654	0.920480	0.697790	0.388150
C16551	C1655	0.932650	0.695890	0.370400
H10181	H1018	0.943800	0.686000	0.369700
C16561	C1656	0.928080	0.708910	0.353580
H10191	H1019	0.936400	0.708400	0.341300
C16571	C1657	0.911400	0.722540	0.354890
H10201	H1020	0.908400	0.731100	0.343100
C16581	C1658	0.916990	0.767630	0.388620
H10211	H1021	0.915900	0.757000	0.398900
C16591	C1659	0.934600	0.779400	0.388340
H10221	H1022	0.945500	0.776900	0.398100
C16601	C1660	0.936400	0.795300	0.373330
H10231	H1023	0.948400	0.804100	0.372900
C16611	C1661	0.920160	0.797830	0.359240
C16621	C1662	0.902690	0.785020	0.360850
H10241	H1024	0.891500	0.787000	0.351300
C16631	C1663	0.920920	0.814410	0.343020
C16641	C1664	0.873890	0.750590	0.324780
N6311	N631	0.883080	0.659040	0.485250
N6321	N632	0.975540	0.637150	0.356990
N6331	N633	0.984490	0.624970	0.402420
N6341	N634	0.939090	0.670400	0.405820
N6351	N635	0.929750	0.660340	0.440290
N6361	N636	0.912370	0.688870	0.423870
N6371	N637	0.899250	0.724320	0.371850
N6381	N638	0.873240	0.748810	0.342380
N6391	N639	0.901030	0.770090	0.375240
N6401	N640	0.936030	0.828310	0.344280
S1271	S127	0.955370	0.663040	0.328120
S1281	S128	0.876540	0.752160	0.299280
C16651	C1665	0.159720	0.469890	0.397420
H10251	H1025	0.147600	0.467300	0.405600
C16661	C1666	0.177420	0.457500	0.400860
C16671	C1667	0.195230	0.461380	0.389280
H10261	H1026	0.207400	0.453000	0.390800
C16681	C1668	0.194860	0.478100	0.375180
H10271	H1027	0.207100	0.481800	0.367600
C16691	C1669	0.176860	0.489070	0.372420
H10281	H1028	0.176800	0.500100	0.362400
C16701	C1670	0.147740	0.345330	0.466620
C16711	C1671	0.111480	0.418430	0.486790
H10291	H1029	0.100600	0.417100	0.496800
C16721	C1672	0.112600	0.436660	0.475380
H10301	H1030	0.103100	0.447800	0.478000
C16731	C1673	0.127790	0.438580	0.459930
H10311	H1031	0.128400	0.450700	0.451300
C16741	C1674	0.142100	0.422260	0.457510
C16751	C1675	0.140260	0.404720	0.469990
H10321	H1032	0.150200	0.393800	0.468300
C16761	C1676	0.158680	0.422820	0.441230
C16771	C1677	0.175670	0.439700	0.415390
C16781	C1678	0.185110	0.406840	0.424110
C16791	C1679	0.212320	0.388220	0.403990
H10331	H1033	0.213700	0.400600	0.395800
C16801	C1680	0.197790	0.388150	0.420480
C16811	C1681	0.195890	0.370400	0.432650
H10341	H1034	0.186000	0.369700	0.443800
C16821	C1682	0.208910	0.353580	0.428080
H10351	H1035	0.208400	0.341300	0.436400
C16831	C1683	0.222540	0.354890	0.411400
H10361	H1036	0.231100	0.343100	0.408400
C16841	C1684	0.267630	0.388620	0.416990
H10371	H1037	0.257000	0.398900	0.415900
C16851	C1685	0.279400	0.388340	0.434600
H10381	H1038	0.276900	0.398100	0.445500
C16861	C1686	0.295300	0.373330	0.436400
H10391	H1039	0.304100	0.372900	0.448400
C16871	C1687	0.297830	0.359240	0.420160
C16881	C1688	0.285020	0.360850	0.402690
H10401	H1040	0.287000	0.351300	0.391500
C16891	C1689	0.314410	0.343020	0.420920
C16901	C1690	0.250590	0.324780	0.373890
N6411	N641	0.159040	0.485250	0.383080
N6421	N642	0.137150	0.356990	0.475540
N6431	N643	0.124970	0.402420	0.484490
N6441	N644	0.170400	0.405820	0.439090
N6451	N645	0.160340	0.440290	0.429750
N6461	N646	0.188870	0.423870	0.412370
N6471	N647	0.224320	0.371850	0.399250
N6481	N648	0.248810	0.342380	0.373240
N6491	N649	0.270090	0.375240	0.401030
N6501	N650	0.328310	0.344280	0.436030
S1291	S129	0.163040	0.328120	0.455370
S1301	S130	0.252160	0.299280	0.376540
C16911	C1691	0.159720	0.969890	0.897420
H10411	H1041	0.147600	0.967300	0.905600
C16921	C1692	0.177420	0.957500	0.900860
C16931	C1693	0.195230	0.961380	0.889280
H10421	H1042	0.207400	0.953000	0.890800
C16941	C1694	0.194860	0.978100	0.875180
H10431	H1043	0.207100	0.981800	0.867600
C16951	C1695	0.176860	0.989070	0.872420
H10441	H1044	0.176800	0.000100	0.862400
C16961	C1696	0.147740	0.845330	0.966620
C16971	C1697	0.111480	0.918430	0.986790
H10451	H1045	0.100600	0.917100	0.996800
C16981	C1698	0.112600	0.936660	0.975380
H10461	H1046	0.103100	0.947800	0.978000
C16991	C1699	0.127790	0.938580	0.959930
H10471	H1047	0.128400	0.950700	0.951300
C17001	C1700	0.142100	0.922260	0.957510
C17011	C1701	0.140260	0.904720	0.969990
H10481	H1048	0.150200	0.893800	0.968300
C17021	C1702	0.158680	0.922820	0.941230
C17031	C1703	0.175670	0.939700	0.915390
C17041	C1704	0.185110	0.906840	0.924110
C17051	C1705	0.212320	0.888220	0.903990
H10491	H1049	0.213700	0.900600	0.895800
C17061	C1706	0.197790	0.888150	0.920480
C17071	C1707	0.195890	0.870400	0.932650
H10501	H1050	0.186000	0.869700	0.943800
C17081	C1708	0.208910	0.853580	0.928080
H10511	H1051	0.208400	0.841300	0.936400
C17091	C1709	0.222540	0.854890	0.911400
H10521	H1052	0.231100	0.843100	0.908400
C17101	C1710	0.267630	0.888620	0.916990
H10531	H1053	0.257000	0.898900	0.915900
C17111	C1711	0.279400	0.888340	0.934600
H10541	H1054	0.276900	0.898100	0.945500
C17121	C1712	0.295300	0.873330	0.936400
H10551	H1055	0.304100	0.872900	0.948400
C17131	C1713	0.297830	0.859240	0.920160
C17141	C1714	0.285020	0.860850	0.902690
H10561	H1056	0.287000	0.851300	0.891500
C17151	C1715	0.314410	0.843020	0.920920
C17161	C1716	0.250590	0.824780	0.873890
N6511	N651	0.159040	0.985250	0.883080
N6521	N652	0.137150	0.856990	0.975540
N6531	N653	0.124970	0.902420	0.984490
N6541	N654	0.170400	0.905820	0.939090
N6551	N655	0.160340	0.940290	0.929750
N6561	N656	0.188870	0.923870	0.912370
N6571	N657	0.224320	0.871850	0.899250
N6581	N658	0.248810	0.842380	0.873240
N6591	N659	0.270090	0.875240	0.901030
N6601	N660	0.328310	0.844280	0.936030
S1311	S131	0.163040	0.828120	0.955370
S1321	S132	0.252160	0.799280	0.876540
C17171	C1717	0.659720	0.469890	0.897420
H10571	H1057	0.647600	0.467300	0.905600
C17181	C1718	0.677420	0.457500	0.900860
C17191	C1719	0.695230	0.461380	0.889280
H10581	H1058	0.707400	0.453000	0.890800
C17201	C1720	0.694860	0.478100	0.875180
H10591	H1059	0.707100	0.481800	0.867600
C17211	C1721	0.676860	0.489070	0.872420
H10601	H1060	0.676800	0.500100	0.862400
C17221	C1722	0.647740	0.345330	0.966620
C17231	C1723	0.611480	0.418430	0.986790
H10611	H1061	0.600600	0.417100	0.996800
C17241	C1724	0.612600	0.436660	0.975380
H10621	H1062	0.603100	0.447800	0.978000
C17251	C1725	0.627790	0.438580	0.959930
H10631	H1063	0.628400	0.450700	0.951300
C17261	C1726	0.642100	0.422260	0.957510
C17271	C1727	0.640260	0.404720	0.969990
H10641	H1064	0.650200	0.393800	0.968300
C17281	C1728	0.658680	0.422820	0.941230
C17291	C1729	0.675670	0.439700	0.915390
C17301	C1730	0.685110	0.406840	0.924110
C17311	C1731	0.712320	0.388220	0.903990
H10651	H1065	0.713700	0.400600	0.895800
C17321	C1732	0.697790	0.388150	0.920480
C17331	C1733	0.695890	0.370400	0.932650
H10661	H1066	0.686000	0.369700	0.943800
C17341	C1734	0.708910	0.353580	0.928080
H10671	H1067	0.708400	0.341300	0.936400
C17351	C1735	0.722540	0.354890	0.911400
H10681	H1068	0.731100	0.343100	0.908400
C17361	C1736	0.767630	0.388620	0.916990
H10691	H1069	0.757000	0.398900	0.915900
C17371	C1737	0.779400	0.388340	0.934600
H10701	H1070	0.776900	0.398100	0.945500
C17381	C1738	0.795300	0.373330	0.936400
H10711	H1071	0.804100	0.372900	0.948400
C17391	C1739	0.797830	0.359240	0.920160
C17401	C1740	0.785020	0.360850	0.902690
H10721	H1072	0.787000	0.351300	0.891500
C17411	C1741	0.814410	0.343020	0.920920
C17421	C1742	0.750590	0.324780	0.873890
N6611	N661	0.659040	0.485250	0.883080
N6621	N662	0.637150	0.356990	0.975540
N6631	N663	0.624970	0.402420	0.984490
N6641	N664	0.670400	0.405820	0.939090
N6651	N665	0.660340	0.440290	0.929750
N6661	N666	0.688870	0.423870	0.912370
N6671	N667	0.724320	0.371850	0.899250
N6681	N668	0.748810	0.342380	0.873240
N6691	N669	0.770090	0.375240	0.901030
N6701	N670	0.828310	0.344280	0.936030
S1331	S133	0.663040	0.328120	0.955370
S1341	S134	0.752160	0.299280	0.876540
C17431	C1743	0.659720	0.969890	0.397420
H10731	H1073	0.647600	0.967300	0.405600
C17441	C1744	0.677420	0.957500	0.400860
C17451	C1745	0.695230	0.961380	0.389280
H10741	H1074	0.707400	0.953000	0.390800
C17461	C1746	0.694860	0.978100	0.375180
H10751	H1075	0.707100	0.981800	0.367600
C17471	C1747	0.676860	0.989070	0.372420
H10761	H1076	0.676800	0.000100	0.362400
C17481	C1748	0.647740	0.845330	0.466620
C17491	C1749	0.611480	0.918430	0.486790
H10771	H1077	0.600600	0.917100	0.496800
C17501	C1750	0.612600	0.936660	0.475380
H10781	H1078	0.603100	0.947800	0.478000
C17511	C1751	0.627790	0.938580	0.459930
H10791	H1079	0.628400	0.950700	0.451300
C17521	C1752	0.642100	0.922260	0.457510
C17531	C1753	0.640260	0.904720	0.469990
H10801	H1080	0.650200	0.893800	0.468300
C17541	C1754	0.658680	0.922820	0.441230
C17551	C1755	0.675670	0.939700	0.415390
C17561	C1756	0.685110	0.906840	0.424110
C17571	C1757	0.712320	0.888220	0.403990
H10811	H1081	0.713700	0.900600	0.395800
C17581	C1758	0.697790	0.888150	0.420480
C17591	C1759	0.695890	0.870400	0.432650
H10821	H1082	0.686000	0.869700	0.443800
C17601	C1760	0.708910	0.853580	0.428080
H10831	H1083	0.708400	0.841300	0.436400
C17611	C1761	0.722540	0.854890	0.411400
H10841	H1084	0.731100	0.843100	0.408400
C17621	C1762	0.767630	0.888620	0.416990
H10851	H1085	0.757000	0.898900	0.415900
C17631	C1763	0.779400	0.888340	0.434600
H10861	H1086	0.776900	0.898100	0.445500
C17641	C1764	0.795300	0.873330	0.436400
H10871	H1087	0.804100	0.872900	0.448400
C17651	C1765	0.797830	0.859240	0.420160
C17661	C1766	0.785020	0.860850	0.402690
H10881	H1088	0.787000	0.851300	0.391500
C17671	C1767	0.814410	0.843020	0.420920
C17681	C1768	0.750590	0.824780	0.373890
N6711	N671	0.659040	0.985250	0.383080
N6721	N672	0.637150	0.856990	0.475540
N6731	N673	0.624970	0.902420	0.484490
N6741	N674	0.670400	0.905820	0.439090
N6751	N675	0.660340	0.940290	0.429750
N6761	N676	0.688870	0.923870	0.412370
N6771	N677	0.724320	0.871850	0.399250
N6781	N678	0.748810	0.842380	0.373240
N6791	N679	0.770090	0.875240	0.401030
N6801	N680	0.828310	0.844280	0.436030
S1351	S135	0.663040	0.828120	0.455370
S1361	S136	0.752160	0.799280	0.376540
C17691	C1769	0.590280	0.969890	0.852580
H10891	H1089	0.602400	0.967300	0.844400
C17701	C1770	0.572580	0.957500	0.849140
C17711	C1771	0.554770	0.961380	0.860720
H10901	H1090	0.542600	0.953000	0.859200
C17721	C1772	0.555140	0.978100	0.874820
H10911	H1091	0.542900	0.981800	0.882400
C17731	C1773	0.573140	0.989070	0.877580
H10921	H1092	0.573200	0.000100	0.887600
C17741	C1774	0.602260	0.845330	0.783380
C17751	C1775	0.638520	0.918430	0.763210
H10931	H1093	0.649400	0.917100	0.753200
C17761	C1776	0.637400	0.936660	0.774620
H10941	H1094	0.646900	0.947800	0.772000
C17771	C1777	0.622210	0.938580	0.790070
H10951	H1095	0.621600	0.950700	0.798700
C17781	C1778	0.607900	0.922260	0.792490
C17791	C1779	0.609740	0.904720	0.780010
H10961	H1096	0.599800	0.893800	0.781700
C17801	C1780	0.591320	0.922820	0.808770
C17811	C1781	0.574330	0.939700	0.834610
C17821	C1782	0.564890	0.906840	0.825890
C17831	C1783	0.537680	0.888220	0.846010
H10971	H1097	0.536300	0.900600	0.854200
C17841	C1784	0.552210	0.888150	0.829520
C17851	C1785	0.554110	0.870400	0.817350
H10981	H1098	0.564000	0.869700	0.806200
C17861	C1786	0.541090	0.853580	0.821920
H10991	H1099	0.541600	0.841300	0.813600
C17871	C1787	0.527460	0.854890	0.838600
H11001	H1100	0.518900	0.843100	0.841600
C17881	C1788	0.482370	0.888620	0.833010
H11011	H1101	0.493000	0.898900	0.834100
C17891	C1789	0.470600	0.888340	0.815400
H11021	H1102	0.473100	0.898100	0.804500
C17901	C1790	0.454700	0.873330	0.813600
H11031	H1103	0.445900	0.872900	0.801600
C17911	C1791	0.452170	0.859240	0.829840
C17921	C1792	0.464980	0.860850	0.847310
H11041	H1104	0.463000	0.851300	0.858500
C17931	C1793	0.435590	0.843020	0.829080
C17941	C1794	0.499410	0.824780	0.876110
N6811	N681	0.590960	0.985250	0.866920
N6821	N682	0.612850	0.856990	0.774460
N6831	N683	0.625030	0.902420	0.765510
N6841	N684	0.579600	0.905820	0.810910
N6851	N685	0.589660	0.940290	0.820250
N6861	N686	0.561130	0.923870	0.837630
N6871	N687	0.525680	0.871850	0.850750
N6881	N688	0.501190	0.842380	0.876760
N6891	N689	0.479910	0.875240	0.848970
N6901	N690	0.421690	0.844280	0.813970
S1371	S137	0.586960	0.828120	0.794630
S1381	S138	0.497840	0.799280	0.873460
C17951	C1795	0.590280	0.469890	0.352580
H11051	H1105	0.602400	0.467300	0.344400
C17961	C1796	0.572580	0.457500	0.349140
C17971	C1797	0.554770	0.461380	0.360720
H11061	H1106	0.542600	0.453000	0.359200
C17981	C1798	0.555140	0.478100	0.374820
H11071	H1107	0.542900	0.481800	0.382400
C17991	C1799	0.573140	0.489070	0.377580
H11081	H1108	0.573200	0.500100	0.387600
C18001	C1800	0.602260	0.345330	0.283380
C18011	C1801	0.638520	0.418430	0.263210
H11091	H1109	0.649400	0.417100	0.253200
C18021	C1802	0.637400	0.436660	0.274620
H11101	H1110	0.646900	0.447800	0.272000
C18031	C1803	0.622210	0.438580	0.290070
H11111	H1111	0.621600	0.450700	0.298700
C18041	C1804	0.607900	0.422260	0.292490
C18051	C1805	0.609740	0.404720	0.280010
H11121	H1112	0.599800	0.393800	0.281700
C18061	C1806	0.591320	0.422820	0.308770
C18071	C1807	0.574330	0.439700	0.334610
C18081	C1808	0.564890	0.406840	0.325890
C18091	C1809	0.537680	0.388220	0.346010
H11131	H1113	0.536300	0.400600	0.354200
C18101	C1810	0.552210	0.388150	0.329520
C18111	C1811	0.554110	0.370400	0.317350
H11141	H1114	0.564000	0.369700	0.306200
C18121	C1812	0.541090	0.353580	0.321920
H11151	H1115	0.541600	0.341300	0.313600
C18131	C1813	0.527460	0.354890	0.338600
H11161	H1116	0.518900	0.343100	0.341600
C18141	C1814	0.482370	0.388620	0.333010
H11171	H1117	0.493000	0.398900	0.334100
C18151	C1815	0.470600	0.388340	0.315400
H11181	H1118	0.473100	0.398100	0.304500
C18161	C1816	0.454700	0.373330	0.313600
H11191	H1119	0.445900	0.372900	0.301600
C18171	C1817	0.452170	0.359240	0.329840
C18181	C1818	0.464980	0.360850	0.347310
H11201	H1120	0.463000	0.351300	0.358500
C18191	C1819	0.435590	0.343020	0.329080
C18201	C1820	0.499410	0.324780	0.376110
N6911	N691	0.590960	0.485250	0.366920
N6921	N692	0.612850	0.356990	0.274460
N6931	N693	0.625030	0.402420	0.265510
N6941	N694	0.579600	0.405820	0.310910
N6951	N695	0.589660	0.440290	0.320250
N6961	N696	0.561130	0.423870	0.337630
N6971	N697	0.525680	0.371850	0.350750
N6981	N698	0.501190	0.342380	0.376760
N6991	N699	0.479910	0.375240	0.348970
N7001	N700	0.421690	0.344280	0.313970
S1391	S139	0.586960	0.328120	0.294630
S1401	S140	0.497840	0.299280	0.373460
C18211	C1821	0.090280	0.969890	0.352580
H11211	H1121	0.102400	0.967300	0.344400
C18221	C1822	0.072580	0.957500	0.349140
C18231	C1823	0.054770	0.961380	0.360720
H11221	H1122	0.042600	0.953000	0.359200
C18241	C1824	0.055140	0.978100	0.374820
H11231	H1123	0.042900	0.981800	0.382400
C18251	C1825	0.073140	0.989070	0.377580
H11241	H1124	0.073200	0.000100	0.387600
C18261	C1826	0.102260	0.845330	0.283380
C18271	C1827	0.138520	0.918430	0.263210
H11251	H1125	0.149400	0.917100	0.253200
C18281	C1828	0.137400	0.936660	0.274620
H11261	H1126	0.146900	0.947800	0.272000
C18291	C1829	0.122210	0.938580	0.290070
H11271	H1127	0.121600	0.950700	0.298700
C18301	C1830	0.107900	0.922260	0.292490
C18311	C1831	0.109740	0.904720	0.280010
H11281	H1128	0.099800	0.893800	0.281700
C18321	C1832	0.091320	0.922820	0.308770
C18331	C1833	0.074330	0.939700	0.334610
C18341	C1834	0.064890	0.906840	0.325890
C18351	C1835	0.037680	0.888220	0.346010
H11291	H1129	0.036300	0.900600	0.354200
C18361	C1836	0.052210	0.888150	0.329520
C18371	C1837	0.054110	0.870400	0.317350
H11301	H1130	0.064000	0.869700	0.306200
C18381	C1838	0.041090	0.853580	0.321920
H11311	H1131	0.041600	0.841300	0.313600
C18391	C1839	0.027460	0.854890	0.338600
H11321	H1132	0.018900	0.843100	0.341600
C18401	C1840	0.982370	0.888620	0.333010
H11331	H1133	0.993000	0.898900	0.334100
C18411	C1841	0.970600	0.888340	0.315400
H11341	H1134	0.973100	0.898100	0.304500
C18421	C1842	0.954700	0.873330	0.313600
H11351	H1135	0.945900	0.872900	0.301600
C18431	C1843	0.952170	0.859240	0.329840
C18441	C1844	0.964980	0.860850	0.347310
H11361	H1136	0.963000	0.851300	0.358500
C18451	C1845	0.935590	0.843020	0.329080
C18461	C1846	0.999410	0.824780	0.376110
N7011	N701	0.090960	0.985250	0.366920
N7021	N702	0.112850	0.856990	0.274460
N7031	N703	0.125030	0.902420	0.265510
N7041	N704	0.079600	0.905820	0.310910
N7051	N705	0.089660	0.940290	0.320250
N7061	N706	0.061130	0.923870	0.337630
N7071	N707	0.025680	0.871850	0.350750
N7081	N708	0.001190	0.842380	0.376760
N7091	N709	0.979910	0.875240	0.348970
N7101	N710	0.921690	0.844280	0.313970
S1411	S141	0.086960	0.828120	0.294630
S1421	S142	0.997840	0.799280	0.373460
C18471	C1847	0.090280	0.469890	0.852580
H11371	H1137	0.102400	0.467300	0.844400
C18481	C1848	0.072580	0.457500	0.849140
C18491	C1849	0.054770	0.461380	0.860720
H11381	H1138	0.042600	0.453000	0.859200
C18501	C1850	0.055140	0.478100	0.874820
H11391	H1139	0.042900	0.481800	0.882400
C18511	C1851	0.073140	0.489070	0.877580
H11401	H1140	0.073200	0.500100	0.887600
C18521	C1852	0.102260	0.345330	0.783380
C18531	C1853	0.138520	0.418430	0.763210
H11411	H1141	0.149400	0.417100	0.753200
C18541	C1854	0.137400	0.436660	0.774620
H11421	H1142	0.146900	0.447800	0.772000
C18551	C1855	0.122210	0.438580	0.790070
H11431	H1143	0.121600	0.450700	0.798700
C18561	C1856	0.107900	0.422260	0.792490
C18571	C1857	0.109740	0.404720	0.780010
H11441	H1144	0.099800	0.393800	0.781700
C18581	C1858	0.091320	0.422820	0.808770
C18591	C1859	0.074330	0.439700	0.834610
C18601	C1860	0.064890	0.406840	0.825890
C18611	C1861	0.037680	0.388220	0.846010
H11451	H1145	0.036300	0.400600	0.854200
C18621	C1862	0.052210	0.388150	0.829520
C18631	C1863	0.054110	0.370400	0.817350
H11461	H1146	0.064000	0.369700	0.806200
C18641	C1864	0.041090	0.353580	0.821920
H11471	H1147	0.041600	0.341300	0.813600
C18651	C1865	0.027460	0.354890	0.838600
H11481	H1148	0.018900	0.343100	0.841600
C18661	C1866	0.982370	0.388620	0.833010
H11491	H1149	0.993000	0.398900	0.834100
C18671	C1867	0.970600	0.388340	0.815400
H11501	H1150	0.973100	0.398100	0.804500
C18681	C1868	0.954700	0.373330	0.813600
H11511	H1151	0.945900	0.372900	0.801600
C18691	C1869	0.952170	0.359240	0.829840
C18701	C1870	0.964980	0.360850	0.847310
H11521	H1152	0.963000	0.351300	0.858500
C18711	C1871	0.935590	0.343020	0.829080
C18721	C1872	0.999410	0.324780	0.876110
N7111	N711	0.090960	0.485250	0.866920
N7121	N712	0.112850	0.356990	0.774460
N7131	N713	0.125030	0.402420	0.765510
N7141	N714	0.079600	0.405820	0.810910
N7151	N715	0.089660	0.440290	0.820250
N7161	N716	0.061130	0.423870	0.837630
N7171	N717	0.025680	0.371850	0.850750
N7181	N718	0.001190	0.342380	0.876760
N7191	N719	0.979910	0.375240	0.848970
N7201	N720	0.921690	0.344280	0.813970
S1431	S143	0.086960	0.328120	0.794630
S1441	S144	0.997840	0.299280	0.873460
C18731	C1873	0.090280	0.280110	0.897420
H11531	H1153	0.102400	0.282700	0.905600
C18741	C1874	0.072580	0.292500	0.900860
C18751	C1875	0.054770	0.288620	0.889280
H11541	H1154	0.042600	0.297000	0.890800
C18761	C1876	0.055140	0.271900	0.875180
H11551	H1155	0.042900	0.268200	0.867600
C18771	C1877	0.073140	0.260930	0.872420
H11561	H1156	0.073200	0.249900	0.862400
C18781	C1878	0.102260	0.404670	0.966620
C18791	C1879	0.138520	0.331570	0.986790
H11571	H1157	0.149400	0.332900	0.996800
C18801	C1880	0.137400	0.313340	0.975380
H11581	H1158	0.146900	0.302200	0.978000
C18811	C1881	0.122210	0.311420	0.959930
H11591	H1159	0.121600	0.299300	0.951300
C18821	C1882	0.107900	0.327740	0.957510
C18831	C1883	0.109740	0.345280	0.969990
H11601	H1160	0.099800	0.356200	0.968300
C18841	C1884	0.091320	0.327180	0.941230
C18851	C1885	0.074330	0.310300	0.915390
C18861	C1886	0.064890	0.343160	0.924110
C18871	C1887	0.037680	0.361780	0.903990
H11611	H1161	0.036300	0.349400	0.895800
C18881	C1888	0.052210	0.361850	0.920480
C18891	C1889	0.054110	0.379600	0.932650
H11621	H1162	0.064000	0.380300	0.943800
C18901	C1890	0.041090	0.396420	0.928080
H11631	H1163	0.041600	0.408700	0.936400
C18911	C1891	0.027460	0.395110	0.911400
H11641	H1164	0.018900	0.406900	0.908400
C18921	C1892	0.982370	0.361380	0.916990
H11651	H1165	0.993000	0.351100	0.915900
C18931	C1893	0.970600	0.361660	0.934600
H11661	H1166	0.973100	0.351900	0.945500
C18941	C1894	0.954700	0.376670	0.936400
H11671	H1167	0.945900	0.377100	0.948400
C18951	C1895	0.952170	0.390760	0.920160
C18961	C1896	0.964980	0.389150	0.902690
H11681	H1168	0.963000	0.398700	0.891500
C18971	C1897	0.935590	0.406980	0.920920
C18981	C1898	0.999410	0.425220	0.873890
N7211	N721	0.090960	0.264750	0.883080
N7221	N722	0.112850	0.393010	0.975540
N7231	N723	0.125030	0.347580	0.984490
N7241	N724	0.079600	0.344180	0.939090
N7251	N725	0.089660	0.309710	0.929750
N7261	N726	0.061130	0.326130	0.912370
N7271	N727	0.025680	0.378150	0.899250
N7281	N728	0.001190	0.407620	0.873240
N7291	N729	0.979910	0.374760	0.901030
N7301	N730	0.921690	0.405720	0.936030
S1451	S145	0.086960	0.421880	0.955370
S1461	S146	0.997840	0.450720	0.876540
C18991	C1899	0.090280	0.780110	0.397420
H11691	H1169	0.102400	0.782700	0.405600
C19001	C1900	0.072580	0.792500	0.400860
C19011	C1901	0.054770	0.788620	0.389280
H11701	H1170	0.042600	0.797000	0.390800
C19021	C1902	0.055140	0.771900	0.375180
H11711	H1171	0.042900	0.768200	0.367600
C19031	C1903	0.073140	0.760930	0.372420
H11721	H1172	0.073200	0.749900	0.362400
C19041	C1904	0.102260	0.904670	0.466620
C19051	C1905	0.138520	0.831570	0.486790
H11731	H1173	0.149400	0.832900	0.496800
C19061	C1906	0.137400	0.813340	0.475380
H11741	H1174	0.146900	0.802200	0.478000
C19071	C1907	0.122210	0.811420	0.459930
H11751	H1175	0.121600	0.799300	0.451300
C19081	C1908	0.107900	0.827740	0.457510
C19091	C1909	0.109740	0.845280	0.469990
H11761	H1176	0.099800	0.856200	0.468300
C19101	C1910	0.091320	0.827180	0.441230
C19111	C1911	0.074330	0.810300	0.415390
C19121	C1912	0.064890	0.843160	0.424110
C19131	C1913	0.037680	0.861780	0.403990
H11771	H1177	0.036300	0.849400	0.395800
C19141	C1914	0.052210	0.861850	0.420480
C19151	C1915	0.054110	0.879600	0.432650
H11781	H1178	0.064000	0.880300	0.443800
C19161	C1916	0.041090	0.896420	0.428080
H11791	H1179	0.041600	0.908700	0.436400
C19171	C1917	0.027460	0.895110	0.411400
H11801	H1180	0.018900	0.906900	0.408400
C19181	C1918	0.982370	0.861380	0.416990
H11811	H1181	0.993000	0.851100	0.415900
C19191	C1919	0.970600	0.861660	0.434600
H11821	H1182	0.973100	0.851900	0.445500
C19201	C1920	0.954700	0.876670	0.436400
H11831	H1183	0.945900	0.877100	0.448400
C19211	C1921	0.952170	0.890760	0.420160
C19221	C1922	0.964980	0.889150	0.402690
H11841	H1184	0.963000	0.898700	0.391500
C19231	C1923	0.935590	0.906980	0.420920
C19241	C1924	0.999410	0.925220	0.373890
N7311	N731	0.090960	0.764750	0.383080
N7321	N732	0.112850	0.893010	0.475540
N7331	N733	0.125030	0.847580	0.484490
N7341	N734	0.079600	0.844180	0.439090
N7351	N735	0.089660	0.809710	0.429750
N7361	N736	0.061130	0.826130	0.412370
N7371	N737	0.025680	0.878150	0.399250
N7381	N738	0.001190	0.907620	0.373240
N7391	N739	0.979910	0.874760	0.401030
N7401	N740	0.921690	0.905720	0.436030
S1471	S147	0.086960	0.921880	0.455370
S1481	S148	0.997840	0.950720	0.376540
C19251	C1925	0.590280	0.280110	0.397420
H11851	H1185	0.602400	0.282700	0.405600
C19261	C1926	0.572580	0.292500	0.400860
C19271	C1927	0.554770	0.288620	0.389280
H11861	H1186	0.542600	0.297000	0.390800
C19281	C1928	0.555140	0.271900	0.375180
H11871	H1187	0.542900	0.268200	0.367600
C19291	C1929	0.573140	0.260930	0.372420
H11881	H1188	0.573200	0.249900	0.362400
C19301	C1930	0.602260	0.404670	0.466620
C19311	C1931	0.638520	0.331570	0.486790
H11891	H1189	0.649400	0.332900	0.496800
C19321	C1932	0.637400	0.313340	0.475380
H11901	H1190	0.646900	0.302200	0.478000
C19331	C1933	0.622210	0.311420	0.459930
H11911	H1191	0.621600	0.299300	0.451300
C19341	C1934	0.607900	0.327740	0.457510
C19351	C1935	0.609740	0.345280	0.469990
H11921	H1192	0.599800	0.356200	0.468300
C19361	C1936	0.591320	0.327180	0.441230
C19371	C1937	0.574330	0.310300	0.415390
C19381	C1938	0.564890	0.343160	0.424110
C19391	C1939	0.537680	0.361780	0.403990
H11931	H1193	0.536300	0.349400	0.395800
C19401	C1940	0.552210	0.361850	0.420480
C19411	C1941	0.554110	0.379600	0.432650
H11941	H1194	0.564000	0.380300	0.443800
C19421	C1942	0.541090	0.396420	0.428080
H11951	H1195	0.541600	0.408700	0.436400
C19431	C1943	0.527460	0.395110	0.411400
H11961	H1196	0.518900	0.406900	0.408400
C19441	C1944	0.482370	0.361380	0.416990
H11971	H1197	0.493000	0.351100	0.415900
C19451	C1945	0.470600	0.361660	0.434600
H11981	H1198	0.473100	0.351900	0.445500
C19461	C1946	0.454700	0.376670	0.436400
H11991	H1199	0.445900	0.377100	0.448400
C19471	C1947	0.452170	0.390760	0.420160
C19481	C1948	0.464980	0.389150	0.402690
H12001	H1200	0.463000	0.398700	0.391500
C19491	C1949	0.435590	0.406980	0.420920
C19501	C1950	0.499410	0.425220	0.373890
N7411	N741	0.590960	0.264750	0.383080
N7421	N742	0.612850	0.393010	0.475540
N7431	N743	0.625030	0.347580	0.484490
N7441	N744	0.579600	0.344180	0.439090
N7451	N745	0.589660	0.309710	0.429750
N7461	N746	0.561130	0.326130	0.412370
N7471	N747	0.525680	0.378150	0.399250
N7481	N748	0.501190	0.407620	0.373240
N7491	N749	0.479910	0.374760	0.401030
N7501	N750	0.421690	0.405720	0.436030
S1491	S149	0.586960	0.421880	0.455370
S1501	S150	0.497840	0.450720	0.376540
C19511	C1951	0.590280	0.780110	0.897420
H12011	H1201	0.602400	0.782700	0.905600
C19521	C1952	0.572580	0.792500	0.900860
C19531	C1953	0.554770	0.788620	0.889280
H12021	H1202	0.542600	0.797000	0.890800
C19541	C1954	0.555140	0.771900	0.875180
H12031	H1203	0.542900	0.768200	0.867600
C19551	C1955	0.573140	0.760930	0.872420
H12041	H1204	0.573200	0.749900	0.862400
C19561	C1956	0.602260	0.904670	0.966620
C19571	C1957	0.638520	0.831570	0.986790
H12051	H1205	0.649400	0.832900	0.996800
C19581	C1958	0.637400	0.813340	0.975380
H12061	H1206	0.646900	0.802200	0.978000
C19591	C1959	0.622210	0.811420	0.959930
H12071	H1207	0.621600	0.799300	0.951300
C19601	C1960	0.607900	0.827740	0.957510
C19611	C1961	0.609740	0.845280	0.969990
H12081	H1208	0.599800	0.856200	0.968300
C19621	C1962	0.591320	0.827180	0.941230
C19631	C1963	0.574330	0.810300	0.915390
C19641	C1964	0.564890	0.843160	0.924110
C19651	C1965	0.537680	0.861780	0.903990
H12091	H1209	0.536300	0.849400	0.895800
C19661	C1966	0.552210	0.861850	0.920480
C19671	C1967	0.554110	0.879600	0.932650
H12101	H1210	0.564000	0.880300	0.943800
C19681	C1968	0.541090	0.896420	0.928080
H12111	H1211	0.541600	0.908700	0.936400
C19691	C1969	0.527460	0.895110	0.911400
H12121	H1212	0.518900	0.906900	0.908400
C19701	C1970	0.482370	0.861380	0.916990
H12131	H1213	0.493000	0.851100	0.915900
C19711	C1971	0.470600	0.861660	0.934600
H12141	H1214	0.473100	0.851900	0.945500
C19721	C1972	0.454700	0.876670	0.936400
H12151	H1215	0.445900	0.877100	0.948400
C19731	C1973	0.452170	0.890760	0.920160
C19741	C1974	0.464980	0.889150	0.902690
H12161	H1216	0.463000	0.898700	0.891500
C19751	C1975	0.435590	0.906980	0.920920
C19761	C1976	0.499410	0.925220	0.873890
N7511	N751	0.590960	0.764750	0.883080
N7521	N752	0.612850	0.893010	0.975540
N7531	N753	0.625030	0.847580	0.984490
N7541	N754	0.579600	0.844180	0.939090
N7551	N755	0.589660	0.809710	0.929750
N7561	N756	0.561130	0.826130	0.912370
N7571	N757	0.525680	0.878150	0.899250
N7581	N758	0.501190	0.907620	0.873240
N7591	N759	0.479910	0.874760	0.901030
N7601	N760	0.421690	0.905720	0.936030
S1511	S151	0.586960	0.921880	0.955370
S1521	S152	0.497840	0.950720	0.876540
C19771	C1977	0.659720	0.780110	0.352580
H12171	H1217	0.647600	0.782700	0.344400
C19781	C1978	0.677420	0.792500	0.349140
C19791	C1979	0.695230	0.788620	0.360720
H12181	H1218	0.707400	0.797000	0.359200
C19801	C1980	0.694860	0.771900	0.374820
H12191	H1219	0.707100	0.768200	0.382400
C19811	C1981	0.676860	0.760930	0.377580
H12201	H1220	0.676800	0.749900	0.387600
C19821	C1982	0.647740	0.904670	0.283380
C19831	C1983	0.611480	0.831570	0.263210
H12211	H1221	0.600600	0.832900	0.253200
C19841	C1984	0.612600	0.813340	0.274620
H12221	H1222	0.603100	0.802200	0.272000
C19851	C1985	0.627790	0.811420	0.290070
H12231	H1223	0.628400	0.799300	0.298700
C19861	C1986	0.642100	0.827740	0.292490
C19871	C1987	0.640260	0.845280	0.280010
H12241	H1224	0.650200	0.856200	0.281700
C19881	C1988	0.658680	0.827180	0.308770
C19891	C1989	0.675670	0.810300	0.334610
C19901	C1990	0.685110	0.843160	0.325890
C19911	C1991	0.712320	0.861780	0.346010
H12251	H1225	0.713700	0.849400	0.354200
C19921	C1992	0.697790	0.861850	0.329520
C19931	C1993	0.695890	0.879600	0.317350
H12261	H1226	0.686000	0.880300	0.306200
C19941	C1994	0.708910	0.896420	0.321920
H12271	H1227	0.708400	0.908700	0.313600
C19951	C1995	0.722540	0.895110	0.338600
H12281	H1228	0.731100	0.906900	0.341600
C19961	C1996	0.767630	0.861380	0.333010
H12291	H1229	0.757000	0.851100	0.334100
C19971	C1997	0.779400	0.861660	0.315400
H12301	H1230	0.776900	0.851900	0.304500
C19981	C1998	0.795300	0.876670	0.313600
H12311	H1231	0.804100	0.877100	0.301600
C19991	C1999	0.797830	0.890760	0.329840
C20001	C2000	0.785020	0.889150	0.347310
H12321	H1232	0.787000	0.898700	0.358500
C20011	C2001	0.814410	0.906980	0.329080
C20021	C2002	0.750590	0.925220	0.376110
N7611	N761	0.659040	0.764750	0.366920
N7621	N762	0.637150	0.893010	0.274460
N7631	N763	0.624970	0.847580	0.265510
N7641	N764	0.670400	0.844180	0.310910
N7651	N765	0.660340	0.809710	0.320250
N7661	N766	0.688870	0.826130	0.337630
N7671	N767	0.724320	0.878150	0.350750
N7681	N768	0.748810	0.907620	0.376760
N7691	N769	0.770090	0.874760	0.348970
N7701	N770	0.828310	0.905720	0.313970
S1531	S153	0.663040	0.921880	0.294630
S1541	S154	0.752160	0.950720	0.373460
C20031	C2003	0.659720	0.280110	0.852580
H12331	H1233	0.647600	0.282700	0.844400
C20041	C2004	0.677420	0.292500	0.849140
C20051	C2005	0.695230	0.288620	0.860720
H12341	H1234	0.707400	0.297000	0.859200
C20061	C2006	0.694860	0.271900	0.874820
H12351	H1235	0.707100	0.268200	0.882400
C20071	C2007	0.676860	0.260930	0.877580
H12361	H1236	0.676800	0.249900	0.887600
C20081	C2008	0.647740	0.404670	0.783380
C20091	C2009	0.611480	0.331570	0.763210
H12371	H1237	0.600600	0.332900	0.753200
C20101	C2010	0.612600	0.313340	0.774620
H12381	H1238	0.603100	0.302200	0.772000
C20111	C2011	0.627790	0.311420	0.790070
H12391	H1239	0.628400	0.299300	0.798700
C20121	C2012	0.642100	0.327740	0.792490
C20131	C2013	0.640260	0.345280	0.780010
H12401	H1240	0.650200	0.356200	0.781700
C20141	C2014	0.658680	0.327180	0.808770
C20151	C2015	0.675670	0.310300	0.834610
C20161	C2016	0.685110	0.343160	0.825890
C20171	C2017	0.712320	0.361780	0.846010
H12411	H1241	0.713700	0.349400	0.854200
C20181	C2018	0.697790	0.361850	0.829520
C20191	C2019	0.695890	0.379600	0.817350
H12421	H1242	0.686000	0.380300	0.806200
C20201	C2020	0.708910	0.396420	0.821920
H12431	H1243	0.708400	0.408700	0.813600
C20211	C2021	0.722540	0.395110	0.838600
H12441	H1244	0.731100	0.406900	0.841600
C20221	C2022	0.767630	0.361380	0.833010
H12451	H1245	0.757000	0.351100	0.834100
C20231	C2023	0.779400	0.361660	0.815400
H12461	H1246	0.776900	0.351900	0.804500
C20241	C2024	0.795300	0.376670	0.813600
H12471	H1247	0.804100	0.377100	0.801600
C20251	C2025	0.797830	0.390760	0.829840
C20261	C2026	0.785020	0.389150	0.847310
H12481	H1248	0.787000	0.398700	0.858500
C20271	C2027	0.814410	0.406980	0.829080
C20281	C2028	0.750590	0.425220	0.876110
N7711	N771	0.659040	0.264750	0.866920
N7721	N772	0.637150	0.393010	0.774460
N7731	N773	0.624970	0.347580	0.765510
N7741	N774	0.670400	0.344180	0.810910
N7751	N775	0.660340	0.309710	0.820250
N7761	N776	0.688870	0.326130	0.837630
N7771	N777	0.724320	0.378150	0.850750
N7781	N778	0.748810	0.407620	0.876760
N7791	N779	0.770090	0.374760	0.848970
N7801	N780	0.828310	0.405720	0.813970
S1551	S155	0.663040	0.421880	0.794630
S1561	S156	0.752160	0.450720	0.873460
C20291	C2029	0.159720	0.780110	0.852580
H12491	H1249	0.147600	0.782700	0.844400
C20301	C2030	0.177420	0.792500	0.849140
C20311	C2031	0.195230	0.788620	0.860720
H12501	H1250	0.207400	0.797000	0.859200
C20321	C2032	0.194860	0.771900	0.874820
H12511	H1251	0.207100	0.768200	0.882400
C20331	C2033	0.176860	0.760930	0.877580
H12521	H1252	0.176800	0.749900	0.887600
C20341	C2034	0.147740	0.904670	0.783380
C20351	C2035	0.111480	0.831570	0.763210
H12531	H1253	0.100600	0.832900	0.753200
C20361	C2036	0.112600	0.813340	0.774620
H12541	H1254	0.103100	0.802200	0.772000
C20371	C2037	0.127790	0.811420	0.790070
H12551	H1255	0.128400	0.799300	0.798700
C20381	C2038	0.142100	0.827740	0.792490
C20391	C2039	0.140260	0.845280	0.780010
H12561	H1256	0.150200	0.856200	0.781700
C20401	C2040	0.158680	0.827180	0.808770
C20411	C2041	0.175670	0.810300	0.834610
C20421	C2042	0.185110	0.843160	0.825890
C20431	C2043	0.212320	0.861780	0.846010
H12571	H1257	0.213700	0.849400	0.854200
C20441	C2044	0.197790	0.861850	0.829520
C20451	C2045	0.195890	0.879600	0.817350
H12581	H1258	0.186000	0.880300	0.806200
C20461	C2046	0.208910	0.896420	0.821920
H12591	H1259	0.208400	0.908700	0.813600
C20471	C2047	0.222540	0.895110	0.838600
H12601	H1260	0.231100	0.906900	0.841600
C20481	C2048	0.267630	0.861380	0.833010
H12611	H1261	0.257000	0.851100	0.834100
C20491	C2049	0.279400	0.861660	0.815400
H12621	H1262	0.276900	0.851900	0.804500
C20501	C2050	0.295300	0.876670	0.813600
H12631	H1263	0.304100	0.877100	0.801600
C20511	C2051	0.297830	0.890760	0.829840
C20521	C2052	0.285020	0.889150	0.847310
H12641	H1264	0.287000	0.898700	0.858500
C20531	C2053	0.314410	0.906980	0.829080
C20541	C2054	0.250590	0.925220	0.876110
N7811	N781	0.159040	0.764750	0.866920
N7821	N782	0.137150	0.893010	0.774460
N7831	N783	0.124970	0.847580	0.765510
N7841	N784	0.170400	0.844180	0.810910
N7851	N785	0.160340	0.809710	0.820250
N7861	N786	0.188870	0.826130	0.837630
N7871	N787	0.224320	0.878150	0.850750
N7881	N788	0.248810	0.907620	0.876760
N7891	N789	0.270090	0.874760	0.848970
N7901	N790	0.328310	0.905720	0.813970
S1571	S157	0.163040	0.921880	0.794630
S1581	S158	0.252160	0.950720	0.873460
C20551	C2055	0.159720	0.280110	0.352580
H12651	H1265	0.147600	0.282700	0.344400
C20561	C2056	0.177420	0.292500	0.349140
C20571	C2057	0.195230	0.288620	0.360720
H12661	H1266	0.207400	0.297000	0.359200
C20581	C2058	0.194860	0.271900	0.374820
H12671	H1267	0.207100	0.268200	0.382400
C20591	C2059	0.176860	0.260930	0.377580
H12681	H1268	0.176800	0.249900	0.387600
C20601	C2060	0.147740	0.404670	0.283380
C20611	C2061	0.111480	0.331570	0.263210
H12691	H1269	0.100600	0.332900	0.253200
C20621	C2062	0.112600	0.313340	0.274620
H12701	H1270	0.103100	0.302200	0.272000
C20631	C2063	0.127790	0.311420	0.290070
H12711	H1271	0.128400	0.299300	0.298700
C20641	C2064	0.142100	0.327740	0.292490
C20651	C2065	0.140260	0.345280	0.280010
H12721	H1272	0.150200	0.356200	0.281700
C20661	C2066	0.158680	0.327180	0.308770
C20671	C2067	0.175670	0.310300	0.334610
C20681	C2068	0.185110	0.343160	0.325890
C20691	C2069	0.212320	0.361780	0.346010
H12731	H1273	0.213700	0.349400	0.354200
C20701	C2070	0.197790	0.361850	0.329520
C20711	C2071	0.195890	0.379600	0.317350
H12741	H1274	0.186000	0.380300	0.306200
C20721	C2072	0.208910	0.396420	0.321920
H12751	H1275	0.208400	0.408700	0.313600
C20731	C2073	0.222540	0.395110	0.338600
H12761	H1276	0.231100	0.406900	0.341600
C20741	C2074	0.267630	0.361380	0.333010
H12771	H1277	0.257000	0.351100	0.334100
C20751	C2075	0.279400	0.361660	0.315400
H12781	H1278	0.276900	0.351900	0.304500
C20761	C2076	0.295300	0.376670	0.313600
H12791	H1279	0.304100	0.377100	0.301600
C20771	C2077	0.297830	0.390760	0.329840
C20781	C2078	0.285020	0.389150	0.347310
H12801	H1280	0.287000	0.398700	0.358500
C20791	C2079	0.314410	0.406980	0.329080
C20801	C2080	0.250590	0.425220	0.376110
N7911	N791	0.159040	0.264750	0.366920
N7921	N792	0.137150	0.393010	0.274460
N7931	N793	0.124970	0.347580	0.265510
N7941	N794	0.170400	0.344180	0.310910
N7951	N795	0.160340	0.309710	0.320250
N7961	N796	0.188870	0.326130	0.337630
N7971	N797	0.224320	0.378150	0.350750
N7981	N798	0.248810	0.407620	0.376760
N7991	N799	0.270090	0.374760	0.348970
N8001	N800	0.328310	0.405720	0.313970
S1591	S159	0.163040	0.421880	0.294630
S1601	S160	0.252160	0.450720	0.373460
C20811	C2081	0.969890	0.852580	0.590280
H12811	H1281	0.967300	0.844400	0.602400
C20821	C2082	0.957500	0.849140	0.572580
C20831	C2083	0.961380	0.860720	0.554770
H12821	H1282	0.953000	0.859200	0.542600
C20841	C2084	0.978100	0.874820	0.555140
H12831	H1283	0.981800	0.882400	0.542900
C20851	C2085	0.989070	0.877580	0.573140
H12841	H1284	0.000100	0.887600	0.573200
C20861	C2086	0.845330	0.783380	0.602260
C20871	C2087	0.918430	0.763210	0.638520
H12851	H1285	0.917100	0.753200	0.649400
C20881	C2088	0.936660	0.774620	0.637400
H12861	H1286	0.947800	0.772000	0.646900
C20891	C2089	0.938580	0.790070	0.622210
H12871	H1287	0.950700	0.798700	0.621600
C20901	C2090	0.922260	0.792490	0.607900
C20911	C2091	0.904720	0.780010	0.609740
H12881	H1288	0.893800	0.781700	0.599800
C20921	C2092	0.922820	0.808770	0.591320
C20931	C2093	0.939700	0.834610	0.574330
C20941	C2094	0.906840	0.825890	0.564890
C20951	C2095	0.888220	0.846010	0.537680
H12891	H1289	0.900600	0.854200	0.536300
C20961	C2096	0.888150	0.829520	0.552210
C20971	C2097	0.870400	0.817350	0.554110
H12901	H1290	0.869700	0.806200	0.564000
C20981	C2098	0.853580	0.821920	0.541090
H12911	H1291	0.841300	0.813600	0.541600
C20991	C2099	0.854890	0.838600	0.527460
H12921	H1292	0.843100	0.841600	0.518900
C21001	C2100	0.888620	0.833010	0.482370
H12931	H1293	0.898900	0.834100	0.493000
C21011	C2101	0.888340	0.815400	0.470600
H12941	H1294	0.898100	0.804500	0.473100
C21021	C2102	0.873330	0.813600	0.454700
H12951	H1295	0.872900	0.801600	0.445900
C21031	C2103	0.859240	0.829840	0.452170
C21041	C2104	0.860850	0.847310	0.464980
H12961	H1296	0.851300	0.858500	0.463000
C21051	C2105	0.843020	0.829080	0.435590
C21061	C2106	0.824780	0.876110	0.499410
N8011	N801	0.985250	0.866920	0.590960
N8021	N802	0.856990	0.774460	0.612850
N8031	N803	0.902420	0.765510	0.625030
N8041	N804	0.905820	0.810910	0.579600
N8051	N805	0.940290	0.820250	0.589660
N8061	N806	0.923870	0.837630	0.561130
N8071	N807	0.871850	0.850750	0.525680
N8081	N808	0.842380	0.876760	0.501190
N8091	N809	0.875240	0.848970	0.479910
N8101	N810	0.844280	0.813970	0.421690
S1611	S161	0.828120	0.794630	0.586960
S1621	S162	0.799280	0.873460	0.497840
C21071	C2107	0.969890	0.352580	0.090280
H12971	H1297	0.967300	0.344400	0.102400
C21081	C2108	0.957500	0.349140	0.072580
C21091	C2109	0.961380	0.360720	0.054770
H12981	H1298	0.953000	0.359200	0.042600
C21101	C2110	0.978100	0.374820	0.055140
H12991	H1299	0.981800	0.382400	0.042900
C21111	C2111	0.989070	0.377580	0.073140
H13001	H1300	0.000100	0.387600	0.073200
C21121	C2112	0.845330	0.283380	0.102260
C21131	C2113	0.918430	0.263210	0.138520
H13011	H1301	0.917100	0.253200	0.149400
C21141	C2114	0.936660	0.274620	0.137400
H13021	H1302	0.947800	0.272000	0.146900
C21151	C2115	0.938580	0.290070	0.122210
H13031	H1303	0.950700	0.298700	0.121600
C21161	C2116	0.922260	0.292490	0.107900
C21171	C2117	0.904720	0.280010	0.109740
H13041	H1304	0.893800	0.281700	0.099800
C21181	C2118	0.922820	0.308770	0.091320
C21191	C2119	0.939700	0.334610	0.074330
C21201	C2120	0.906840	0.325890	0.064890
C21211	C2121	0.888220	0.346010	0.037680
H13051	H1305	0.900600	0.354200	0.036300
C21221	C2122	0.888150	0.329520	0.052210
C21231	C2123	0.870400	0.317350	0.054110
H13061	H1306	0.869700	0.306200	0.064000
C21241	C2124	0.853580	0.321920	0.041090
H13071	H1307	0.841300	0.313600	0.041600
C21251	C2125	0.854890	0.338600	0.027460
H13081	H1308	0.843100	0.341600	0.018900
C21261	C2126	0.888620	0.333010	0.982370
H13091	H1309	0.898900	0.334100	0.993000
C21271	C2127	0.888340	0.315400	0.970600
H13101	H1310	0.898100	0.304500	0.973100
C21281	C2128	0.873330	0.313600	0.954700
H13111	H1311	0.872900	0.301600	0.945900
C21291	C2129	0.859240	0.329840	0.952170
C21301	C2130	0.860850	0.347310	0.964980
H13121	H1312	0.851300	0.358500	0.963000
C21311	C2131	0.843020	0.329080	0.935590
C21321	C2132	0.824780	0.376110	0.999410
N8111	N811	0.985250	0.366920	0.090960
N8121	N812	0.856990	0.274460	0.112850
N8131	N813	0.902420	0.265510	0.125030
N8141	N814	0.905820	0.310910	0.079600
N8151	N815	0.940290	0.320250	0.089660
N8161	N816	0.923870	0.337630	0.061130
N8171	N817	0.871850	0.350750	0.025680
N8181	N818	0.842380	0.376760	0.001190
N8191	N819	0.875240	0.348970	0.979910
N8201	N820	0.844280	0.313970	0.921690
S1631	S163	0.828120	0.294630	0.086960
S1641	S164	0.799280	0.373460	0.997840
C21331	C2133	0.469890	0.852580	0.090280
H13131	H1313	0.467300	0.844400	0.102400
C21341	C2134	0.457500	0.849140	0.072580
C21351	C2135	0.461380	0.860720	0.054770
H13141	H1314	0.453000	0.859200	0.042600
C21361	C2136	0.478100	0.874820	0.055140
H13151	H1315	0.481800	0.882400	0.042900
C21371	C2137	0.489070	0.877580	0.073140
H13161	H1316	0.500100	0.887600	0.073200
C21381	C2138	0.345330	0.783380	0.102260
C21391	C2139	0.418430	0.763210	0.138520
H13171	H1317	0.417100	0.753200	0.149400
C21401	C2140	0.436660	0.774620	0.137400
H13181	H1318	0.447800	0.772000	0.146900
C21411	C2141	0.438580	0.790070	0.122210
H13191	H1319	0.450700	0.798700	0.121600
C21421	C2142	0.422260	0.792490	0.107900
C21431	C2143	0.404720	0.780010	0.109740
H13201	H1320	0.393800	0.781700	0.099800
C21441	C2144	0.422820	0.808770	0.091320
C21451	C2145	0.439700	0.834610	0.074330
C21461	C2146	0.406840	0.825890	0.064890
C21471	C2147	0.388220	0.846010	0.037680
H13211	H1321	0.400600	0.854200	0.036300
C21481	C2148	0.388150	0.829520	0.052210
C21491	C2149	0.370400	0.817350	0.054110
H13221	H1322	0.369700	0.806200	0.064000
C21501	C2150	0.353580	0.821920	0.041090
H13231	H1323	0.341300	0.813600	0.041600
C21511	C2151	0.354890	0.838600	0.027460
H13241	H1324	0.343100	0.841600	0.018900
C21521	C2152	0.388620	0.833010	0.982370
H13251	H1325	0.398900	0.834100	0.993000
C21531	C2153	0.388340	0.815400	0.970600
H13261	H1326	0.398100	0.804500	0.973100
C21541	C2154	0.373330	0.813600	0.954700
H13271	H1327	0.372900	0.801600	0.945900
C21551	C2155	0.359240	0.829840	0.952170
C21561	C2156	0.360850	0.847310	0.964980
H13281	H1328	0.351300	0.858500	0.963000
C21571	C2157	0.343020	0.829080	0.935590
C21581	C2158	0.324780	0.876110	0.999410
N8211	N821	0.485250	0.866920	0.090960
N8221	N822	0.356990	0.774460	0.112850
N8231	N823	0.402420	0.765510	0.125030
N8241	N824	0.405820	0.810910	0.079600
N8251	N825	0.440290	0.820250	0.089660
N8261	N826	0.423870	0.837630	0.061130
N8271	N827	0.371850	0.850750	0.025680
N8281	N828	0.342380	0.876760	0.001190
N8291	N829	0.375240	0.848970	0.979910
N8301	N830	0.344280	0.813970	0.921690
S1651	S165	0.328120	0.794630	0.086960
S1661	S166	0.299280	0.873460	0.997840
C21591	C2159	0.469890	0.352580	0.590280
H13291	H1329	0.467300	0.344400	0.602400
C21601	C2160	0.457500	0.349140	0.572580
C21611	C2161	0.461380	0.360720	0.554770
H13301	H1330	0.453000	0.359200	0.542600
C21621	C2162	0.478100	0.374820	0.555140
H13311	H1331	0.481800	0.382400	0.542900
C21631	C2163	0.489070	0.377580	0.573140
H13321	H1332	0.500100	0.387600	0.573200
C21641	C2164	0.345330	0.283380	0.602260
C21651	C2165	0.418430	0.263210	0.638520
H13331	H1333	0.417100	0.253200	0.649400
C21661	C2166	0.436660	0.274620	0.637400
H13341	H1334	0.447800	0.272000	0.646900
C21671	C2167	0.438580	0.290070	0.622210
H13351	H1335	0.450700	0.298700	0.621600
C21681	C2168	0.422260	0.292490	0.607900
C21691	C2169	0.404720	0.280010	0.609740
H13361	H1336	0.393800	0.281700	0.599800
C21701	C2170	0.422820	0.308770	0.591320
C21711	C2171	0.439700	0.334610	0.574330
C21721	C2172	0.406840	0.325890	0.564890
C21731	C2173	0.388220	0.346010	0.537680
H13371	H1337	0.400600	0.354200	0.536300
C21741	C2174	0.388150	0.329520	0.552210
C21751	C2175	0.370400	0.317350	0.554110
H13381	H1338	0.369700	0.306200	0.564000
C21761	C2176	0.353580	0.321920	0.541090
H13391	H1339	0.341300	0.313600	0.541600
C21771	C2177	0.354890	0.338600	0.527460
H13401	H1340	0.343100	0.341600	0.518900
C21781	C2178	0.388620	0.333010	0.482370
H13411	H1341	0.398900	0.334100	0.493000
C21791	C2179	0.388340	0.315400	0.470600
H13421	H1342	0.398100	0.304500	0.473100
C21801	C2180	0.373330	0.313600	0.454700
H13431	H1343	0.372900	0.301600	0.445900
C21811	C2181	0.359240	0.329840	0.452170
C21821	C2182	0.360850	0.347310	0.464980
H13441	H1344	0.351300	0.358500	0.463000
C21831	C2183	0.343020	0.329080	0.435590
C21841	C2184	0.324780	0.376110	0.499410
N8311	N831	0.485250	0.366920	0.590960
N8321	N832	0.356990	0.274460	0.612850
N8331	N833	0.402420	0.265510	0.625030
N8341	N834	0.405820	0.310910	0.579600
N8351	N835	0.440290	0.320250	0.589660
N8361	N836	0.423870	0.337630	0.561130
N8371	N837	0.371850	0.350750	0.525680
N8381	N838	0.342380	0.376760	0.501190
N8391	N839	0.375240	0.348970	0.479910
N8401	N840	0.344280	0.313970	0.421690
S1671	S167	0.328120	0.294630	0.586960
S1681	S168	0.299280	0.373460	0.497840
C21851	C2185	0.469890	0.397420	0.159720
H13451	H1345	0.467300	0.405600	0.147600
C21861	C2186	0.457500	0.400860	0.177420
C21871	C2187	0.461380	0.389280	0.195230
H13461	H1346	0.453000	0.390800	0.207400
C21881	C2188	0.478100	0.375180	0.194860
H13471	H1347	0.481800	0.367600	0.207100
C21891	C2189	0.489070	0.372420	0.176860
H13481	H1348	0.500100	0.362400	0.176800
C21901	C2190	0.345330	0.466620	0.147740
C21911	C2191	0.418430	0.486790	0.111480
H13491	H1349	0.417100	0.496800	0.100600
C21921	C2192	0.436660	0.475380	0.112600
H13501	H1350	0.447800	0.478000	0.103100
C21931	C2193	0.438580	0.459930	0.127790
H13511	H1351	0.450700	0.451300	0.128400
C21941	C2194	0.422260	0.457510	0.142100
C21951	C2195	0.404720	0.469990	0.140260
H13521	H1352	0.393800	0.468300	0.150200
C21961	C2196	0.422820	0.441230	0.158680
C21971	C2197	0.439700	0.415390	0.175670
C21981	C2198	0.406840	0.424110	0.185110
C21991	C2199	0.388220	0.403990	0.212320
H13531	H1353	0.400600	0.395800	0.213700
C22001	C2200	0.388150	0.420480	0.197790
C22011	C2201	0.370400	0.432650	0.195890
H13541	H1354	0.369700	0.443800	0.186000
C22021	C2202	0.353580	0.428080	0.208910
H13551	H1355	0.341300	0.436400	0.208400
C22031	C2203	0.354890	0.411400	0.222540
H13561	H1356	0.343100	0.408400	0.231100
C22041	C2204	0.388620	0.416990	0.267630
H13571	H1357	0.398900	0.415900	0.257000
C22051	C2205	0.388340	0.434600	0.279400
H13581	H1358	0.398100	0.445500	0.276900
C22061	C2206	0.373330	0.436400	0.295300
H13591	H1359	0.372900	0.448400	0.304100
C22071	C2207	0.359240	0.420160	0.297830
C22081	C2208	0.360850	0.402690	0.285020
H13601	H1360	0.351300	0.391500	0.287000
C22091	C2209	0.343020	0.420920	0.314410
C22101	C2210	0.324780	0.373890	0.250590
N8411	N841	0.485250	0.383080	0.159040
N8421	N842	0.356990	0.475540	0.137150
N8431	N843	0.402420	0.484490	0.124970
N8441	N844	0.405820	0.439090	0.170400
N8451	N845	0.440290	0.429750	0.160340
N8461	N846	0.423870	0.412370	0.188870
N8471	N847	0.371850	0.399250	0.224320
N8481	N848	0.342380	0.373240	0.248810
N8491	N849	0.375240	0.401030	0.270090
N8501	N850	0.344280	0.436030	0.328310
S1691	S169	0.328120	0.455370	0.163040
S1701	S170	0.299280	0.376540	0.252160
C22111	C2211	0.469890	0.897420	0.659720
H13611	H1361	0.467300	0.905600	0.647600
C22121	C2212	0.457500	0.900860	0.677420
C22131	C2213	0.461380	0.889280	0.695230
H13621	H1362	0.453000	0.890800	0.707400
C22141	C2214	0.478100	0.875180	0.694860
H13631	H1363	0.481800	0.867600	0.707100
C22151	C2215	0.489070	0.872420	0.676860
H13641	H1364	0.500100	0.862400	0.676800
C22161	C2216	0.345330	0.966620	0.647740
C22171	C2217	0.418430	0.986790	0.611480
H13651	H1365	0.417100	0.996800	0.600600
C22181	C2218	0.436660	0.975380	0.612600
H13661	H1366	0.447800	0.978000	0.603100
C22191	C2219	0.438580	0.959930	0.627790
H13671	H1367	0.450700	0.951300	0.628400
C22201	C2220	0.422260	0.957510	0.642100
C22211	C2221	0.404720	0.969990	0.640260
H13681	H1368	0.393800	0.968300	0.650200
C22221	C2222	0.422820	0.941230	0.658680
C22231	C2223	0.439700	0.915390	0.675670
C22241	C2224	0.406840	0.924110	0.685110
C22251	C2225	0.388220	0.903990	0.712320
H13691	H1369	0.400600	0.895800	0.713700
C22261	C2226	0.388150	0.920480	0.697790
C22271	C2227	0.370400	0.932650	0.695890
H13701	H1370	0.369700	0.943800	0.686000
C22281	C2228	0.353580	0.928080	0.708910
H13711	H1371	0.341300	0.936400	0.708400
C22291	C2229	0.354890	0.911400	0.722540
H13721	H1372	0.343100	0.908400	0.731100
C22301	C2230	0.388620	0.916990	0.767630
H13731	H1373	0.398900	0.915900	0.757000
C22311	C2231	0.388340	0.934600	0.779400
H13741	H1374	0.398100	0.945500	0.776900
C22321	C2232	0.373330	0.936400	0.795300
H13751	H1375	0.372900	0.948400	0.804100
C22331	C2233	0.359240	0.920160	0.797830
C22341	C2234	0.360850	0.902690	0.785020
H13761	H1376	0.351300	0.891500	0.787000
C22351	C2235	0.343020	0.920920	0.814410
C22361	C2236	0.324780	0.873890	0.750590
N8511	N851	0.485250	0.883080	0.659040
N8521	N852	0.356990	0.975540	0.637150
N8531	N853	0.402420	0.984490	0.624970
N8541	N854	0.405820	0.939090	0.670400
N8551	N855	0.440290	0.929750	0.660340
N8561	N856	0.423870	0.912370	0.688870
N8571	N857	0.371850	0.899250	0.724320
N8581	N858	0.342380	0.873240	0.748810
N8591	N859	0.375240	0.901030	0.770090
N8601	N860	0.344280	0.936030	0.828310
S1711	S171	0.328120	0.955370	0.663040
S1721	S172	0.299280	0.876540	0.752160
C22371	C2237	0.969890	0.397420	0.659720
H13771	H1377	0.967300	0.405600	0.647600
C22381	C2238	0.957500	0.400860	0.677420
C22391	C2239	0.961380	0.389280	0.695230
H13781	H1378	0.953000	0.390800	0.707400
C22401	C2240	0.978100	0.375180	0.694860
H13791	H1379	0.981800	0.367600	0.707100
C22411	C2241	0.989070	0.372420	0.676860
H13801	H1380	0.000100	0.362400	0.676800
C22421	C2242	0.845330	0.466620	0.647740
C22431	C2243	0.918430	0.486790	0.611480
H13811	H1381	0.917100	0.496800	0.600600
C22441	C2244	0.936660	0.475380	0.612600
H13821	H1382	0.947800	0.478000	0.603100
C22451	C2245	0.938580	0.459930	0.627790
H13831	H1383	0.950700	0.451300	0.628400
C22461	C2246	0.922260	0.457510	0.642100
C22471	C2247	0.904720	0.469990	0.640260
H13841	H1384	0.893800	0.468300	0.650200
C22481	C2248	0.922820	0.441230	0.658680
C22491	C2249	0.939700	0.415390	0.675670
C22501	C2250	0.906840	0.424110	0.685110
C22511	C2251	0.888220	0.403990	0.712320
H13851	H1385	0.900600	0.395800	0.713700
C22521	C2252	0.888150	0.420480	0.697790
C22531	C2253	0.870400	0.432650	0.695890
H13861	H1386	0.869700	0.443800	0.686000
C22541	C2254	0.853580	0.428080	0.708910
H13871	H1387	0.841300	0.436400	0.708400
C22551	C2255	0.854890	0.411400	0.722540
H13881	H1388	0.843100	0.408400	0.731100
C22561	C2256	0.888620	0.416990	0.767630
H13891	H1389	0.898900	0.415900	0.757000
C22571	C2257	0.888340	0.434600	0.779400
H13901	H1390	0.898100	0.445500	0.776900
C22581	C2258	0.873330	0.436400	0.795300
H13911	H1391	0.872900	0.448400	0.804100
C22591	C2259	0.859240	0.420160	0.797830
C22601	C2260	0.860850	0.402690	0.785020
H13921	H1392	0.851300	0.391500	0.787000
C22611	C2261	0.843020	0.420920	0.814410
C22621	C2262	0.824780	0.373890	0.750590
N8611	N861	0.985250	0.383080	0.659040
N8621	N862	0.856990	0.475540	0.637150
N8631	N863	0.902420	0.484490	0.624970
N8641	N864	0.905820	0.439090	0.670400
N8651	N865	0.940290	0.429750	0.660340
N8661	N866	0.923870	0.412370	0.688870
N8671	N867	0.871850	0.399250	0.724320
N8681	N868	0.842380	0.373240	0.748810
N8691	N869	0.875240	0.401030	0.770090
N8701	N870	0.844280	0.436030	0.828310
S1731	S173	0.828120	0.455370	0.663040
S1741	S174	0.799280	0.376540	0.752160
C22631	C2263	0.969890	0.897420	0.159720
H13931	H1393	0.967300	0.905600	0.147600
C22641	C2264	0.957500	0.900860	0.177420
C22651	C2265	0.961380	0.889280	0.195230
H13941	H1394	0.953000	0.890800	0.207400
C22661	C2266	0.978100	0.875180	0.194860
H13951	H1395	0.981800	0.867600	0.207100
C22671	C2267	0.989070	0.872420	0.176860
H13961	H1396	0.000100	0.862400	0.176800
C22681	C2268	0.845330	0.966620	0.147740
C22691	C2269	0.918430	0.986790	0.111480
H13971	H1397	0.917100	0.996800	0.100600
C22701	C2270	0.936660	0.975380	0.112600
H13981	H1398	0.947800	0.978000	0.103100
C22711	C2271	0.938580	0.959930	0.127790
H13991	H1399	0.950700	0.951300	0.128400
C22721	C2272	0.922260	0.957510	0.142100
C22731	C2273	0.904720	0.969990	0.140260
H14001	H1400	0.893800	0.968300	0.150200
C22741	C2274	0.922820	0.941230	0.158680
C22751	C2275	0.939700	0.915390	0.175670
C22761	C2276	0.906840	0.924110	0.185110
C22771	C2277	0.888220	0.903990	0.212320
H14011	H1401	0.900600	0.895800	0.213700
C22781	C2278	0.888150	0.920480	0.197790
C22791	C2279	0.870400	0.932650	0.195890
H14021	H1402	0.869700	0.943800	0.186000
C22801	C2280	0.853580	0.928080	0.208910
H14031	H1403	0.841300	0.936400	0.208400
C22811	C2281	0.854890	0.911400	0.222540
H14041	H1404	0.843100	0.908400	0.231100
C22821	C2282	0.888620	0.916990	0.267630
H14051	H1405	0.898900	0.915900	0.257000
C22831	C2283	0.888340	0.934600	0.279400
H14061	H1406	0.898100	0.945500	0.276900
C22841	C2284	0.873330	0.936400	0.295300
H14071	H1407	0.872900	0.948400	0.304100
C22851	C2285	0.859240	0.920160	0.297830
C22861	C2286	0.860850	0.902690	0.285020
H14081	H1408	0.851300	0.891500	0.287000
C22871	C2287	0.843020	0.920920	0.314410
C22881	C2288	0.824780	0.873890	0.250590
N8711	N871	0.985250	0.883080	0.159040
N8721	N872	0.856990	0.975540	0.137150
N8731	N873	0.902420	0.984490	0.124970
N8741	N874	0.905820	0.939090	0.170400
N8751	N875	0.940290	0.929750	0.160340
N8761	N876	0.923870	0.912370	0.188870
N8771	N877	0.871850	0.899250	0.224320
N8781	N878	0.842380	0.873240	0.248810
N8791	N879	0.875240	0.901030	0.270090
N8801	N880	0.844280	0.936030	0.328310
S1751	S175	0.828120	0.955370	0.163040
S1761	S176	0.799280	0.876540	0.252160
C22891	C2289	0.780110	0.352580	0.659720
H14091	H1409	0.782700	0.344400	0.647600
C22901	C2290	0.792500	0.349140	0.677420
C22911	C2291	0.788620	0.360720	0.695230
H14101	H1410	0.797000	0.359200	0.707400
C22921	C2292	0.771900	0.374820	0.694860
H14111	H1411	0.768200	0.382400	0.707100
C22931	C2293	0.760930	0.377580	0.676860
H14121	H1412	0.749900	0.387600	0.676800
C22941	C2294	0.904670	0.283380	0.647740
C22951	C2295	0.831570	0.263210	0.611480
H14131	H1413	0.832900	0.253200	0.600600
C22961	C2296	0.813340	0.274620	0.612600
H14141	H1414	0.802200	0.272000	0.603100
C22971	C2297	0.811420	0.290070	0.627790
H14151	H1415	0.799300	0.298700	0.628400
C22981	C2298	0.827740	0.292490	0.642100
C22991	C2299	0.845280	0.280010	0.640260
H14161	H1416	0.856200	0.281700	0.650200
C23001	C2300	0.827180	0.308770	0.658680
C23011	C2301	0.810300	0.334610	0.675670
C23021	C2302	0.843160	0.325890	0.685110
C23031	C2303	0.861780	0.346010	0.712320
H14171	H1417	0.849400	0.354200	0.713700
C23041	C2304	0.861850	0.329520	0.697790
C23051	C2305	0.879600	0.317350	0.695890
H14181	H1418	0.880300	0.306200	0.686000
C23061	C2306	0.896420	0.321920	0.708910
H14191	H1419	0.908700	0.313600	0.708400
C23071	C2307	0.895110	0.338600	0.722540
H14201	H1420	0.906900	0.341600	0.731100
C23081	C2308	0.861380	0.333010	0.767630
H14211	H1421	0.851100	0.334100	0.757000
C23091	C2309	0.861660	0.315400	0.779400
H14221	H1422	0.851900	0.304500	0.776900
C23101	C2310	0.876670	0.313600	0.795300
H14231	H1423	0.877100	0.301600	0.804100
C23111	C2311	0.890760	0.329840	0.797830
C23121	C2312	0.889150	0.347310	0.785020
H14241	H1424	0.898700	0.358500	0.787000
C23131	C2313	0.906980	0.329080	0.814410
C23141	C2314	0.925220	0.376110	0.750590
N8811	N881	0.764750	0.366920	0.659040
N8821	N882	0.893010	0.274460	0.637150
N8831	N883	0.847580	0.265510	0.624970
N8841	N884	0.844180	0.310910	0.670400
N8851	N885	0.809710	0.320250	0.660340
N8861	N886	0.826130	0.337630	0.688870
N8871	N887	0.878150	0.350750	0.724320
N8881	N888	0.907620	0.376760	0.748810
N8891	N889	0.874760	0.348970	0.770090
N8901	N890	0.905720	0.313970	0.828310
S1771	S177	0.921880	0.294630	0.663040
S1781	S178	0.950720	0.373460	0.752160
C23151	C2315	0.780110	0.852580	0.159720
H14251	H1425	0.782700	0.844400	0.147600
C23161	C2316	0.792500	0.849140	0.177420
C23171	C2317	0.788620	0.860720	0.195230
H14261	H1426	0.797000	0.859200	0.207400
C23181	C2318	0.771900	0.874820	0.194860
H14271	H1427	0.768200	0.882400	0.207100
C23191	C2319	0.760930	0.877580	0.176860
H14281	H1428	0.749900	0.887600	0.176800
C23201	C2320	0.904670	0.783380	0.147740
C23211	C2321	0.831570	0.763210	0.111480
H14291	H1429	0.832900	0.753200	0.100600
C23221	C2322	0.813340	0.774620	0.112600
H14301	H1430	0.802200	0.772000	0.103100
C23231	C2323	0.811420	0.790070	0.127790
H14311	H1431	0.799300	0.798700	0.128400
C23241	C2324	0.827740	0.792490	0.142100
C23251	C2325	0.845280	0.780010	0.140260
H14321	H1432	0.856200	0.781700	0.150200
C23261	C2326	0.827180	0.808770	0.158680
C23271	C2327	0.810300	0.834610	0.175670
C23281	C2328	0.843160	0.825890	0.185110
C23291	C2329	0.861780	0.846010	0.212320
H14331	H1433	0.849400	0.854200	0.213700
C23301	C2330	0.861850	0.829520	0.197790
C23311	C2331	0.879600	0.817350	0.195890
H14341	H1434	0.880300	0.806200	0.186000
C23321	C2332	0.896420	0.821920	0.208910
H14351	H1435	0.908700	0.813600	0.208400
C23331	C2333	0.895110	0.838600	0.222540
H14361	H1436	0.906900	0.841600	0.231100
C23341	C2334	0.861380	0.833010	0.267630
H14371	H1437	0.851100	0.834100	0.257000
C23351	C2335	0.861660	0.815400	0.279400
H14381	H1438	0.851900	0.804500	0.276900
C23361	C2336	0.876670	0.813600	0.295300
H14391	H1439	0.877100	0.801600	0.304100
C23371	C2337	0.890760	0.829840	0.297830
C23381	C2338	0.889150	0.847310	0.285020
H14401	H1440	0.898700	0.858500	0.287000
C23391	C2339	0.906980	0.829080	0.314410
C23401	C2340	0.925220	0.876110	0.250590
N8911	N891	0.764750	0.866920	0.159040
N8921	N892	0.893010	0.774460	0.137150
N8931	N893	0.847580	0.765510	0.124970
N8941	N894	0.844180	0.810910	0.170400
N8951	N895	0.809710	0.820250	0.160340
N8961	N896	0.826130	0.837630	0.188870
N8971	N897	0.878150	0.850750	0.224320
N8981	N898	0.907620	0.876760	0.248810
N8991	N899	0.874760	0.848970	0.270090
N9001	N900	0.905720	0.813970	0.328310
S1791	S179	0.921880	0.794630	0.163040
S1801	S180	0.950720	0.873460	0.252160
C23411	C2341	0.280110	0.352580	0.159720
H14411	H1441	0.282700	0.344400	0.147600
C23421	C2342	0.292500	0.349140	0.177420
C23431	C2343	0.288620	0.360720	0.195230
H14421	H1442	0.297000	0.359200	0.207400
C23441	C2344	0.271900	0.374820	0.194860
H14431	H1443	0.268200	0.382400	0.207100
C23451	C2345	0.260930	0.377580	0.176860
H14441	H1444	0.249900	0.387600	0.176800
C23461	C2346	0.404670	0.283380	0.147740
C23471	C2347	0.331570	0.263210	0.111480
H14451	H1445	0.332900	0.253200	0.100600
C23481	C2348	0.313340	0.274620	0.112600
H14461	H1446	0.302200	0.272000	0.103100
C23491	C2349	0.311420	0.290070	0.127790
H14471	H1447	0.299300	0.298700	0.128400
C23501	C2350	0.327740	0.292490	0.142100
C23511	C2351	0.345280	0.280010	0.140260
H14481	H1448	0.356200	0.281700	0.150200
C23521	C2352	0.327180	0.308770	0.158680
C23531	C2353	0.310300	0.334610	0.175670
C23541	C2354	0.343160	0.325890	0.185110
C23551	C2355	0.361780	0.346010	0.212320
H14491	H1449	0.349400	0.354200	0.213700
C23561	C2356	0.361850	0.329520	0.197790
C23571	C2357	0.379600	0.317350	0.195890
H14501	H1450	0.380300	0.306200	0.186000
C23581	C2358	0.396420	0.321920	0.208910
H14511	H1451	0.408700	0.313600	0.208400
C23591	C2359	0.395110	0.338600	0.222540
H14521	H1452	0.406900	0.341600	0.231100
C23601	C2360	0.361380	0.333010	0.267630
H14531	H1453	0.351100	0.334100	0.257000
C23611	C2361	0.361660	0.315400	0.279400
H14541	H1454	0.351900	0.304500	0.276900
C23621	C2362	0.376670	0.313600	0.295300
H14551	H1455	0.377100	0.301600	0.304100
C23631	C2363	0.390760	0.329840	0.297830
C23641	C2364	0.389150	0.347310	0.285020
H14561	H1456	0.398700	0.358500	0.287000
C23651	C2365	0.406980	0.329080	0.314410
C23661	C2366	0.425220	0.376110	0.250590
N9011	N901	0.264750	0.366920	0.159040
N9021	N902	0.393010	0.274460	0.137150
N9031	N903	0.347580	0.265510	0.124970
N9041	N904	0.344180	0.310910	0.170400
N9051	N905	0.309710	0.320250	0.160340
N9061	N906	0.326130	0.337630	0.188870
N9071	N907	0.378150	0.350750	0.224320
N9081	N908	0.407620	0.376760	0.248810
N9091	N909	0.374760	0.348970	0.270090
N9101	N910	0.405720	0.313970	0.328310
S1811	S181	0.421880	0.294630	0.163040
S1821	S182	0.450720	0.373460	0.252160
C23671	C2367	0.280110	0.852580	0.659720
H14571	H1457	0.282700	0.844400	0.647600
C23681	C2368	0.292500	0.849140	0.677420
C23691	C2369	0.288620	0.860720	0.695230
H14581	H1458	0.297000	0.859200	0.707400
C23701	C2370	0.271900	0.874820	0.694860
H14591	H1459	0.268200	0.882400	0.707100
C23711	C2371	0.260930	0.877580	0.676860
H14601	H1460	0.249900	0.887600	0.676800
C23721	C2372	0.404670	0.783380	0.647740
C23731	C2373	0.331570	0.763210	0.611480
H14611	H1461	0.332900	0.753200	0.600600
C23741	C2374	0.313340	0.774620	0.612600
H14621	H1462	0.302200	0.772000	0.603100
C23751	C2375	0.311420	0.790070	0.627790
H14631	H1463	0.299300	0.798700	0.628400
C23761	C2376	0.327740	0.792490	0.642100
C23771	C2377	0.345280	0.780010	0.640260
H14641	H1464	0.356200	0.781700	0.650200
C23781	C2378	0.327180	0.808770	0.658680
C23791	C2379	0.310300	0.834610	0.675670
C23801	C2380	0.343160	0.825890	0.685110
C23811	C2381	0.361780	0.846010	0.712320
H14651	H1465	0.349400	0.854200	0.713700
C23821	C2382	0.361850	0.829520	0.697790
C23831	C2383	0.379600	0.817350	0.695890
H14661	H1466	0.380300	0.806200	0.686000
C23841	C2384	0.396420	0.821920	0.708910
H14671	H1467	0.408700	0.813600	0.708400
C23851	C2385	0.395110	0.838600	0.722540
H14681	H1468	0.406900	0.841600	0.731100
C23861	C2386	0.361380	0.833010	0.767630
H14691	H1469	0.351100	0.834100	0.757000
C23871	C2387	0.361660	0.815400	0.779400
H14701	H1470	0.351900	0.804500	0.776900
C23881	C2388	0.376670	0.813600	0.795300
H14711	H1471	0.377100	0.801600	0.804100
C23891	C2389	0.390760	0.829840	0.797830
C23901	C2390	0.389150	0.847310	0.785020
H14721	H1472	0.398700	0.858500	0.787000
C23911	C2391	0.406980	0.829080	0.814410
C23921	C2392	0.425220	0.876110	0.750590
N9111	N911	0.264750	0.866920	0.659040
N9121	N912	0.393010	0.774460	0.637150
N9131	N913	0.347580	0.765510	0.624970
N9141	N914	0.344180	0.810910	0.670400
N9151	N915	0.309710	0.820250	0.660340
N9161	N916	0.326130	0.837630	0.688870
N9171	N917	0.378150	0.850750	0.724320
N9181	N918	0.407620	0.876760	0.748810
N9191	N919	0.374760	0.848970	0.770090
N9201	N920	0.405720	0.813970	0.828310
S1831	S183	0.421880	0.794630	0.663040
S1841	S184	0.450720	0.873460	0.752160
C23931	C2393	0.280110	0.897420	0.090280
H14731	H1473	0.282700	0.905600	0.102400
C23941	C2394	0.292500	0.900860	0.072580
C23951	C2395	0.288620	0.889280	0.054770
H14741	H1474	0.297000	0.890800	0.042600
C23961	C2396	0.271900	0.875180	0.055140
H14751	H1475	0.268200	0.867600	0.042900
C23971	C2397	0.260930	0.872420	0.073140
H14761	H1476	0.249900	0.862400	0.073200
C23981	C2398	0.404670	0.966620	0.102260
C23991	C2399	0.331570	0.986790	0.138520
H14771	H1477	0.332900	0.996800	0.149400
C24001	C2400	0.313340	0.975380	0.137400
H14781	H1478	0.302200	0.978000	0.146900
C24011	C2401	0.311420	0.959930	0.122210
H14791	H1479	0.299300	0.951300	0.121600
C24021	C2402	0.327740	0.957510	0.107900
C24031	C2403	0.345280	0.969990	0.109740
H14801	H1480	0.356200	0.968300	0.099800
C24041	C2404	0.327180	0.941230	0.091320
C24051	C2405	0.310300	0.915390	0.074330
C24061	C2406	0.343160	0.924110	0.064890
C24071	C2407	0.361780	0.903990	0.037680
H14811	H1481	0.349400	0.895800	0.036300
C24081	C2408	0.361850	0.920480	0.052210
C24091	C2409	0.379600	0.932650	0.054110
H14821	H1482	0.380300	0.943800	0.064000
C24101	C2410	0.396420	0.928080	0.041090
H14831	H1483	0.408700	0.936400	0.041600
C24111	C2411	0.395110	0.911400	0.027460
H14841	H1484	0.406900	0.908400	0.018900
C24121	C2412	0.361380	0.916990	0.982370
H14851	H1485	0.351100	0.915900	0.993000
C24131	C2413	0.361660	0.934600	0.970600
H14861	H1486	0.351900	0.945500	0.973100
C24141	C2414	0.376670	0.936400	0.954700
H14871	H1487	0.377100	0.948400	0.945900
C24151	C2415	0.390760	0.920160	0.952170
C24161	C2416	0.389150	0.902690	0.964980
H14881	H1488	0.398700	0.891500	0.963000
C24171	C2417	0.406980	0.920920	0.935590
C24181	C2418	0.425220	0.873890	0.999410
N9211	N921	0.264750	0.883080	0.090960
N9221	N922	0.393010	0.975540	0.112850
N9231	N923	0.347580	0.984490	0.125030
N9241	N924	0.344180	0.939090	0.079600
N9251	N925	0.309710	0.929750	0.089660
N9261	N926	0.326130	0.912370	0.061130
N9271	N927	0.378150	0.899250	0.025680
N9281	N928	0.407620	0.873240	0.001190
N9291	N929	0.374760	0.901030	0.979910
N9301	N930	0.405720	0.936030	0.921690
S1851	S185	0.421880	0.955370	0.086960
S1861	S186	0.450720	0.876540	0.997840
C24191	C2419	0.280110	0.397420	0.590280
H14891	H1489	0.282700	0.405600	0.602400
C24201	C2420	0.292500	0.400860	0.572580
C24211	C2421	0.288620	0.389280	0.554770
H14901	H1490	0.297000	0.390800	0.542600
C24221	C2422	0.271900	0.375180	0.555140
H14911	H1491	0.268200	0.367600	0.542900
C24231	C2423	0.260930	0.372420	0.573140
H14921	H1492	0.249900	0.362400	0.573200
C24241	C2424	0.404670	0.466620	0.602260
C24251	C2425	0.331570	0.486790	0.638520
H14931	H1493	0.332900	0.496800	0.649400
C24261	C2426	0.313340	0.475380	0.637400
H14941	H1494	0.302200	0.478000	0.646900
C24271	C2427	0.311420	0.459930	0.622210
H14951	H1495	0.299300	0.451300	0.621600
C24281	C2428	0.327740	0.457510	0.607900
C24291	C2429	0.345280	0.469990	0.609740
H14961	H1496	0.356200	0.468300	0.599800
C24301	C2430	0.327180	0.441230	0.591320
C24311	C2431	0.310300	0.415390	0.574330
C24321	C2432	0.343160	0.424110	0.564890
C24331	C2433	0.361780	0.403990	0.537680
H14971	H1497	0.349400	0.395800	0.536300
C24341	C2434	0.361850	0.420480	0.552210
C24351	C2435	0.379600	0.432650	0.554110
H14981	H1498	0.380300	0.443800	0.564000
C24361	C2436	0.396420	0.428080	0.541090
H14991	H1499	0.408700	0.436400	0.541600
C24371	C2437	0.395110	0.411400	0.527460
H15001	H1500	0.406900	0.408400	0.518900
C24381	C2438	0.361380	0.416990	0.482370
H15011	H1501	0.351100	0.415900	0.493000
C24391	C2439	0.361660	0.434600	0.470600
H15021	H1502	0.351900	0.445500	0.473100
C24401	C2440	0.376670	0.436400	0.454700
H15031	H1503	0.377100	0.448400	0.445900
C24411	C2441	0.390760	0.420160	0.452170
C24421	C2442	0.389150	0.402690	0.464980
H15041	H1504	0.398700	0.391500	0.463000
C24431	C2443	0.406980	0.420920	0.435590
C24441	C2444	0.425220	0.373890	0.499410
N9311	N931	0.264750	0.383080	0.590960
N9321	N932	0.393010	0.475540	0.612850
N9331	N933	0.347580	0.484490	0.625030
N9341	N934	0.344180	0.439090	0.579600
N9351	N935	0.309710	0.429750	0.589660
N9361	N936	0.326130	0.412370	0.561130
N9371	N937	0.378150	0.399250	0.525680
N9381	N938	0.407620	0.373240	0.501190
N9391	N939	0.374760	0.401030	0.479910
N9401	N940	0.405720	0.436030	0.421690
S1871	S187	0.421880	0.455370	0.586960
S1881	S188	0.450720	0.376540	0.497840
C24451	C2445	0.780110	0.897420	0.590280
H15051	H1505	0.782700	0.905600	0.602400
C24461	C2446	0.792500	0.900860	0.572580
C24471	C2447	0.788620	0.889280	0.554770
H15061	H1506	0.797000	0.890800	0.542600
C24481	C2448	0.771900	0.875180	0.555140
H15071	H1507	0.768200	0.867600	0.542900
C24491	C2449	0.760930	0.872420	0.573140
H15081	H1508	0.749900	0.862400	0.573200
C24501	C2450	0.904670	0.966620	0.602260
C24511	C2451	0.831570	0.986790	0.638520
H15091	H1509	0.832900	0.996800	0.649400
C24521	C2452	0.813340	0.975380	0.637400
H15101	H1510	0.802200	0.978000	0.646900
C24531	C2453	0.811420	0.959930	0.622210
H15111	H1511	0.799300	0.951300	0.621600
C24541	C2454	0.827740	0.957510	0.607900
C24551	C2455	0.845280	0.969990	0.609740
H15121	H1512	0.856200	0.968300	0.599800
C24561	C2456	0.827180	0.941230	0.591320
C24571	C2457	0.810300	0.915390	0.574330
C24581	C2458	0.843160	0.924110	0.564890
C24591	C2459	0.861780	0.903990	0.537680
H15131	H1513	0.849400	0.895800	0.536300
C24601	C2460	0.861850	0.920480	0.552210
C24611	C2461	0.879600	0.932650	0.554110
H15141	H1514	0.880300	0.943800	0.564000
C24621	C2462	0.896420	0.928080	0.541090
H15151	H1515	0.908700	0.936400	0.541600
C24631	C2463	0.895110	0.911400	0.527460
H15161	H1516	0.906900	0.908400	0.518900
C24641	C2464	0.861380	0.916990	0.482370
H15171	H1517	0.851100	0.915900	0.493000
C24651	C2465	0.861660	0.934600	0.470600
H15181	H1518	0.851900	0.945500	0.473100
C24661	C2466	0.876670	0.936400	0.454700
H15191	H1519	0.877100	0.948400	0.445900
C24671	C2467	0.890760	0.920160	0.452170
C24681	C2468	0.889150	0.902690	0.464980
H15201	H1520	0.898700	0.891500	0.463000
C24691	C2469	0.906980	0.920920	0.435590
C24701	C2470	0.925220	0.873890	0.499410
N9411	N941	0.764750	0.883080	0.590960
N9421	N942	0.893010	0.975540	0.612850
N9431	N943	0.847580	0.984490	0.625030
N9441	N944	0.844180	0.939090	0.579600
N9451	N945	0.809710	0.929750	0.589660
N9461	N946	0.826130	0.912370	0.561130
N9471	N947	0.878150	0.899250	0.525680
N9481	N948	0.907620	0.873240	0.501190
N9491	N949	0.874760	0.901030	0.479910
N9501	N950	0.905720	0.936030	0.421690
S1891	S189	0.921880	0.955370	0.586960
S1901	S190	0.950720	0.876540	0.497840
C24711	C2471	0.780110	0.397420	0.090280
H15211	H1521	0.782700	0.405600	0.102400
C24721	C2472	0.792500	0.400860	0.072580
C24731	C2473	0.788620	0.389280	0.054770
H15221	H1522	0.797000	0.390800	0.042600
C24741	C2474	0.771900	0.375180	0.055140
H15231	H1523	0.768200	0.367600	0.042900
C24751	C2475	0.760930	0.372420	0.073140
H15241	H1524	0.749900	0.362400	0.073200
C24761	C2476	0.904670	0.466620	0.102260
C24771	C2477	0.831570	0.486790	0.138520
H15251	H1525	0.832900	0.496800	0.149400
C24781	C2478	0.813340	0.475380	0.137400
H15261	H1526	0.802200	0.478000	0.146900
C24791	C2479	0.811420	0.459930	0.122210
H15271	H1527	0.799300	0.451300	0.121600
C24801	C2480	0.827740	0.457510	0.107900
C24811	C2481	0.845280	0.469990	0.109740
H15281	H1528	0.856200	0.468300	0.099800
C24821	C2482	0.827180	0.441230	0.091320
C24831	C2483	0.810300	0.415390	0.074330
C24841	C2484	0.843160	0.424110	0.064890
C24851	C2485	0.861780	0.403990	0.037680
H15291	H1529	0.849400	0.395800	0.036300
C24861	C2486	0.861850	0.420480	0.052210
C24871	C2487	0.879600	0.432650	0.054110
H15301	H1530	0.880300	0.443800	0.064000
C24881	C2488	0.896420	0.428080	0.041090
H15311	H1531	0.908700	0.436400	0.041600
C24891	C2489	0.895110	0.411400	0.027460
H15321	H1532	0.906900	0.408400	0.018900
C24901	C2490	0.861380	0.416990	0.982370
H15331	H1533	0.851100	0.415900	0.993000
C24911	C2491	0.861660	0.434600	0.970600
H15341	H1534	0.851900	0.445500	0.973100
C24921	C2492	0.876670	0.436400	0.954700
H15351	H1535	0.877100	0.448400	0.945900
C24931	C2493	0.890760	0.420160	0.952170
C24941	C2494	0.889150	0.402690	0.964980
H15361	H1536	0.898700	0.391500	0.963000
C24951	C2495	0.906980	0.420920	0.935590
C24961	C2496	0.925220	0.373890	0.999410
N9511	N951	0.764750	0.383080	0.090960
N9521	N952	0.893010	0.475540	0.112850
N9531	N953	0.847580	0.484490	0.125030
N9541	N954	0.844180	0.439090	0.079600
N9551	N955	0.809710	0.429750	0.089660
N9561	N956	0.826130	0.412370	0.061130
N9571	N957	0.878150	0.399250	0.025680
N9581	N958	0.907620	0.373240	0.001190
N9591	N959	0.874760	0.401030	0.979910
N9601	N960	0.905720	0.436030	0.921690
S1911	S191	0.921880	0.455370	0.086960
S1921	S192	0.950720	0.376540	0.997840
C24971	C2497	0.590280	0.397420	0.780110
H15371	H1537	0.602400	0.405600	0.782700
C24981	C2498	0.572580	0.400860	0.792500
C24991	C2499	0.554770	0.389280	0.788620
H15381	H1538	0.542600	0.390800	0.797000
C25001	C2500	0.555140	0.375180	0.771900
H15391	H1539	0.542900	0.367600	0.768200
C25011	C2501	0.573140	0.372420	0.760930
H15401	H1540	0.573200	0.362400	0.749900
C25021	C2502	0.602260	0.466620	0.904670
C25031	C2503	0.638520	0.486790	0.831570
H15411	H1541	0.649400	0.496800	0.832900
C25041	C2504	0.637400	0.475380	0.813340
H15421	H1542	0.646900	0.478000	0.802200
C25051	C2505	0.622210	0.459930	0.811420
H15431	H1543	0.621600	0.451300	0.799300
C25061	C2506	0.607900	0.457510	0.827740
C25071	C2507	0.609740	0.469990	0.845280
H15441	H1544	0.599800	0.468300	0.856200
C25081	C2508	0.591320	0.441230	0.827180
C25091	C2509	0.574330	0.415390	0.810300
C25101	C2510	0.564890	0.424110	0.843160
C25111	C2511	0.537680	0.403990	0.861780
H15451	H1545	0.536300	0.395800	0.849400
C25121	C2512	0.552210	0.420480	0.861850
C25131	C2513	0.554110	0.432650	0.879600
H15461	H1546	0.564000	0.443800	0.880300
C25141	C2514	0.541090	0.428080	0.896420
H15471	H1547	0.541600	0.436400	0.908700
C25151	C2515	0.527460	0.411400	0.895110
H15481	H1548	0.518900	0.408400	0.906900
C25161	C2516	0.482370	0.416990	0.861380
H15491	H1549	0.493000	0.415900	0.851100
C25171	C2517	0.470600	0.434600	0.861660
H15501	H1550	0.473100	0.445500	0.851900
C25181	C2518	0.454700	0.436400	0.876670
H15511	H1551	0.445900	0.448400	0.877100
C25191	C2519	0.452170	0.420160	0.890760
C25201	C2520	0.464980	0.402690	0.889150
H15521	H1552	0.463000	0.391500	0.898700
C25211	C2521	0.435590	0.420920	0.906980
C25221	C2522	0.499410	0.373890	0.925220
N9611	N961	0.590960	0.383080	0.764750
N9621	N962	0.612850	0.475540	0.893010
N9631	N963	0.625030	0.484490	0.847580
N9641	N964	0.579600	0.439090	0.844180
N9651	N965	0.589660	0.429750	0.809710
N9661	N966	0.561130	0.412370	0.826130
N9671	N967	0.525680	0.399250	0.878150
N9681	N968	0.501190	0.373240	0.907620
N9691	N969	0.479910	0.401030	0.874760
N9701	N970	0.421690	0.436030	0.905720
S1931	S193	0.586960	0.455370	0.921880
S1941	S194	0.497840	0.376540	0.950720
C25231	C2523	0.590280	0.897420	0.280110
H15531	H1553	0.602400	0.905600	0.282700
C25241	C2524	0.572580	0.900860	0.292500
C25251	C2525	0.554770	0.889280	0.288620
H15541	H1554	0.542600	0.890800	0.297000
C25261	C2526	0.555140	0.875180	0.271900
H15551	H1555	0.542900	0.867600	0.268200
C25271	C2527	0.573140	0.872420	0.260930
H15561	H1556	0.573200	0.862400	0.249900
C25281	C2528	0.602260	0.966620	0.404670
C25291	C2529	0.638520	0.986790	0.331570
H15571	H1557	0.649400	0.996800	0.332900
C25301	C2530	0.637400	0.975380	0.313340
H15581	H1558	0.646900	0.978000	0.302200
C25311	C2531	0.622210	0.959930	0.311420
H15591	H1559	0.621600	0.951300	0.299300
C25321	C2532	0.607900	0.957510	0.327740
C25331	C2533	0.609740	0.969990	0.345280
H15601	H1560	0.599800	0.968300	0.356200
C25341	C2534	0.591320	0.941230	0.327180
C25351	C2535	0.574330	0.915390	0.310300
C25361	C2536	0.564890	0.924110	0.343160
C25371	C2537	0.537680	0.903990	0.361780
H15611	H1561	0.536300	0.895800	0.349400
C25381	C2538	0.552210	0.920480	0.361850
C25391	C2539	0.554110	0.932650	0.379600
H15621	H1562	0.564000	0.943800	0.380300
C25401	C2540	0.541090	0.928080	0.396420
H15631	H1563	0.541600	0.936400	0.408700
C25411	C2541	0.527460	0.911400	0.395110
H15641	H1564	0.518900	0.908400	0.406900
C25421	C2542	0.482370	0.916990	0.361380
H15651	H1565	0.493000	0.915900	0.351100
C25431	C2543	0.470600	0.934600	0.361660
H15661	H1566	0.473100	0.945500	0.351900
C25441	C2544	0.454700	0.936400	0.376670
H15671	H1567	0.445900	0.948400	0.377100
C25451	C2545	0.452170	0.920160	0.390760
C25461	C2546	0.464980	0.902690	0.389150
H15681	H1568	0.463000	0.891500	0.398700
C25471	C2547	0.435590	0.920920	0.406980
C25481	C2548	0.499410	0.873890	0.425220
N9711	N971	0.590960	0.883080	0.264750
N9721	N972	0.612850	0.975540	0.393010
N9731	N973	0.625030	0.984490	0.347580
N9741	N974	0.579600	0.939090	0.344180
N9751	N975	0.589660	0.929750	0.309710
N9761	N976	0.561130	0.912370	0.326130
N9771	N977	0.525680	0.899250	0.378150
N9781	N978	0.501190	0.873240	0.407620
N9791	N979	0.479910	0.901030	0.374760
N9801	N980	0.421690	0.936030	0.405720
S1951	S195	0.586960	0.955370	0.421880
S1961	S196	0.497840	0.876540	0.450720
C25491	C2549	0.090280	0.397420	0.280110
H15691	H1569	0.102400	0.405600	0.282700
C25501	C2550	0.072580	0.400860	0.292500
C25511	C2551	0.054770	0.389280	0.288620
H15701	H1570	0.042600	0.390800	0.297000
C25521	C2552	0.055140	0.375180	0.271900
H15711	H1571	0.042900	0.367600	0.268200
C25531	C2553	0.073140	0.372420	0.260930
H15721	H1572	0.073200	0.362400	0.249900
C25541	C2554	0.102260	0.466620	0.404670
C25551	C2555	0.138520	0.486790	0.331570
H15731	H1573	0.149400	0.496800	0.332900
C25561	C2556	0.137400	0.475380	0.313340
H15741	H1574	0.146900	0.478000	0.302200
C25571	C2557	0.122210	0.459930	0.311420
H15751	H1575	0.121600	0.451300	0.299300
C25581	C2558	0.107900	0.457510	0.327740
C25591	C2559	0.109740	0.469990	0.345280
H15761	H1576	0.099800	0.468300	0.356200
C25601	C2560	0.091320	0.441230	0.327180
C25611	C2561	0.074330	0.415390	0.310300
C25621	C2562	0.064890	0.424110	0.343160
C25631	C2563	0.037680	0.403990	0.361780
H15771	H1577	0.036300	0.395800	0.349400
C25641	C2564	0.052210	0.420480	0.361850
C25651	C2565	0.054110	0.432650	0.379600
H15781	H1578	0.064000	0.443800	0.380300
C25661	C2566	0.041090	0.428080	0.396420
H15791	H1579	0.041600	0.436400	0.408700
C25671	C2567	0.027460	0.411400	0.395110
H15801	H1580	0.018900	0.408400	0.406900
C25681	C2568	0.982370	0.416990	0.361380
H15811	H1581	0.993000	0.415900	0.351100
C25691	C2569	0.970600	0.434600	0.361660
H15821	H1582	0.973100	0.445500	0.351900
C25701	C2570	0.954700	0.436400	0.376670
H15831	H1583	0.945900	0.448400	0.377100
C25711	C2571	0.952170	0.420160	0.390760
C25721	C2572	0.964980	0.402690	0.389150
H15841	H1584	0.963000	0.391500	0.398700
C25731	C2573	0.935590	0.420920	0.406980
C25741	C2574	0.999410	0.373890	0.425220
N9811	N981	0.090960	0.383080	0.264750
N9821	N982	0.112850	0.475540	0.393010
N9831	N983	0.125030	0.484490	0.347580
N9841	N984	0.079600	0.439090	0.344180
N9851	N985	0.089660	0.429750	0.309710
N9861	N986	0.061130	0.412370	0.326130
N9871	N987	0.025680	0.399250	0.378150
N9881	N988	0.001190	0.373240	0.407620
N9891	N989	0.979910	0.401030	0.374760
N9901	N990	0.921690	0.436030	0.405720
S1971	S197	0.086960	0.455370	0.421880
S1981	S198	0.997840	0.376540	0.450720
C25751	C2575	0.090280	0.897420	0.780110
H15851	H1585	0.102400	0.905600	0.782700
C25761	C2576	0.072580	0.900860	0.792500
C25771	C2577	0.054770	0.889280	0.788620
H15861	H1586	0.042600	0.890800	0.797000
C25781	C2578	0.055140	0.875180	0.771900
H15871	H1587	0.042900	0.867600	0.768200
C25791	C2579	0.073140	0.872420	0.760930
H15881	H1588	0.073200	0.862400	0.749900
C25801	C2580	0.102260	0.966620	0.904670
C25811	C2581	0.138520	0.986790	0.831570
H15891	H1589	0.149400	0.996800	0.832900
C25821	C2582	0.137400	0.975380	0.813340
H15901	H1590	0.146900	0.978000	0.802200
C25831	C2583	0.122210	0.959930	0.811420
H15911	H1591	0.121600	0.951300	0.799300
C25841	C2584	0.107900	0.957510	0.827740
C25851	C2585	0.109740	0.969990	0.845280
H15921	H1592	0.099800	0.968300	0.856200
C25861	C2586	0.091320	0.941230	0.827180
C25871	C2587	0.074330	0.915390	0.810300
C25881	C2588	0.064890	0.924110	0.843160
C25891	C2589	0.037680	0.903990	0.861780
H15931	H1593	0.036300	0.895800	0.849400
C25901	C2590	0.052210	0.920480	0.861850
C25911	C2591	0.054110	0.932650	0.879600
H15941	H1594	0.064000	0.943800	0.880300
C25921	C2592	0.041090	0.928080	0.896420
H15951	H1595	0.041600	0.936400	0.908700
C25931	C2593	0.027460	0.911400	0.895110
H15961	H1596	0.018900	0.908400	0.906900
C25941	C2594	0.982370	0.916990	0.861380
H15971	H1597	0.993000	0.915900	0.851100
C25951	C2595	0.970600	0.934600	0.861660
H15981	H1598	0.973100	0.945500	0.851900
C25961	C2596	0.954700	0.936400	0.876670
H15991	H1599	0.945900	0.948400	0.877100
C25971	C2597	0.952170	0.920160	0.890760
C25981	C2598	0.964980	0.902690	0.889150
H16001	H1600	0.963000	0.891500	0.898700
C25991	C2599	0.935590	0.920920	0.906980
C26001	C2600	0.999410	0.873890	0.925220
N9911	N991	0.090960	0.883080	0.764750
N9921	N992	0.112850	0.975540	0.893010
N9931	N993	0.125030	0.984490	0.847580
N9941	N994	0.079600	0.939090	0.844180
N9951	N995	0.089660	0.929750	0.809710
N9961	N996	0.061130	0.912370	0.826130
N9971	N997	0.025680	0.899250	0.878150
N9981	N998	0.001190	0.873240	0.907620
N9991	N999	0.979910	0.901030	0.874760
N10001	N1000	0.921690	0.936030	0.905720
S1991	S199	0.086960	0.955370	0.921880
S2001	S200	0.997840	0.876540	0.950720
C26011	C2601	0.159720	0.852580	0.280110
H16011	H1601	0.147600	0.844400	0.282700
C26021	C2602	0.177420	0.849140	0.292500
C26031	C2603	0.195230	0.860720	0.288620
H16021	H1602	0.207400	0.859200	0.297000
C26041	C2604	0.194860	0.874820	0.271900
H16031	H1603	0.207100	0.882400	0.268200
C26051	C2605	0.176860	0.877580	0.260930
H16041	H1604	0.176800	0.887600	0.249900
C26061	C2606	0.147740	0.783380	0.404670
C26071	C2607	0.111480	0.763210	0.331570
H16051	H1605	0.100600	0.753200	0.332900
C26081	C2608	0.112600	0.774620	0.313340
H16061	H1606	0.103100	0.772000	0.302200
C26091	C2609	0.127790	0.790070	0.311420
H16071	H1607	0.128400	0.798700	0.299300
C26101	C2610	0.142100	0.792490	0.327740
C26111	C2611	0.140260	0.780010	0.345280
H16081	H1608	0.150200	0.781700	0.356200
C26121	C2612	0.158680	0.808770	0.327180
C26131	C2613	0.175670	0.834610	0.310300
C26141	C2614	0.185110	0.825890	0.343160
C26151	C2615	0.212320	0.846010	0.361780
H16091	H1609	0.213700	0.854200	0.349400
C26161	C2616	0.197790	0.829520	0.361850
C26171	C2617	0.195890	0.817350	0.379600
H16101	H1610	0.186000	0.806200	0.380300
C26181	C2618	0.208910	0.821920	0.396420
H16111	H1611	0.208400	0.813600	0.408700
C26191	C2619	0.222540	0.838600	0.395110
H16121	H1612	0.231100	0.841600	0.406900
C26201	C2620	0.267630	0.833010	0.361380
H16131	H1613	0.257000	0.834100	0.351100
C26211	C2621	0.279400	0.815400	0.361660
H16141	H1614	0.276900	0.804500	0.351900
C26221	C2622	0.295300	0.813600	0.376670
H16151	H1615	0.304100	0.801600	0.377100
C26231	C2623	0.297830	0.829840	0.390760
C26241	C2624	0.285020	0.847310	0.389150
H16161	H1616	0.287000	0.858500	0.398700
C26251	C2625	0.314410	0.829080	0.406980
C26261	C2626	0.250590	0.876110	0.425220
N10011	N1001	0.159040	0.866920	0.264750
N10021	N1002	0.137150	0.774460	0.393010
N10031	N1003	0.124970	0.765510	0.347580
N10041	N1004	0.170400	0.810910	0.344180
N10051	N1005	0.160340	0.820250	0.309710
N10061	N1006	0.188870	0.837630	0.326130
N10071	N1007	0.224320	0.850750	0.378150
N10081	N1008	0.248810	0.876760	0.407620
N10091	N1009	0.270090	0.848970	0.374760
N10101	N1010	0.328310	0.813970	0.405720
S2011	S201	0.163040	0.794630	0.421880
S2021	S202	0.252160	0.873460	0.450720
C26271	C2627	0.159720	0.352580	0.780110
H16171	H1617	0.147600	0.344400	0.782700
C26281	C2628	0.177420	0.349140	0.792500
C26291	C2629	0.195230	0.360720	0.788620
H16181	H1618	0.207400	0.359200	0.797000
C26301	C2630	0.194860	0.374820	0.771900
H16191	H1619	0.207100	0.382400	0.768200
C26311	C2631	0.176860	0.377580	0.760930
H16201	H1620	0.176800	0.387600	0.749900
C26321	C2632	0.147740	0.283380	0.904670
C26331	C2633	0.111480	0.263210	0.831570
H16211	H1621	0.100600	0.253200	0.832900
C26341	C2634	0.112600	0.274620	0.813340
H16221	H1622	0.103100	0.272000	0.802200
C26351	C2635	0.127790	0.290070	0.811420
H16231	H1623	0.128400	0.298700	0.799300
C26361	C2636	0.142100	0.292490	0.827740
C26371	C2637	0.140260	0.280010	0.845280
H16241	H1624	0.150200	0.281700	0.856200
C26381	C2638	0.158680	0.308770	0.827180
C26391	C2639	0.175670	0.334610	0.810300
C26401	C2640	0.185110	0.325890	0.843160
C26411	C2641	0.212320	0.346010	0.861780
H16251	H1625	0.213700	0.354200	0.849400
C26421	C2642	0.197790	0.329520	0.861850
C26431	C2643	0.195890	0.317350	0.879600
H16261	H1626	0.186000	0.306200	0.880300
C26441	C2644	0.208910	0.321920	0.896420
H16271	H1627	0.208400	0.313600	0.908700
C26451	C2645	0.222540	0.338600	0.895110
H16281	H1628	0.231100	0.341600	0.906900
C26461	C2646	0.267630	0.333010	0.861380
H16291	H1629	0.257000	0.334100	0.851100
C26471	C2647	0.279400	0.315400	0.861660
H16301	H1630	0.276900	0.304500	0.851900
C26481	C2648	0.295300	0.313600	0.876670
H16311	H1631	0.304100	0.301600	0.877100
C26491	C2649	0.297830	0.329840	0.890760
C26501	C2650	0.285020	0.347310	0.889150
H16321	H1632	0.287000	0.358500	0.898700
C26511	C2651	0.314410	0.329080	0.906980
C26521	C2652	0.250590	0.376110	0.925220
N10111	N1011	0.159040	0.366920	0.764750
N10121	N1012	0.137150	0.274460	0.893010
N10131	N1013	0.124970	0.265510	0.847580
N10141	N1014	0.170400	0.310910	0.844180
N10151	N1015	0.160340	0.320250	0.809710
N10161	N1016	0.188870	0.337630	0.826130
N10171	N1017	0.224320	0.350750	0.878150
N10181	N1018	0.248810	0.376760	0.907620
N10191	N1019	0.270090	0.348970	0.874760
N10201	N1020	0.328310	0.313970	0.905720
S2031	S203	0.163040	0.294630	0.921880
S2041	S204	0.252160	0.373460	0.950720
C26531	C2653	0.659720	0.852580	0.780110
H16331	H1633	0.647600	0.844400	0.782700
C26541	C2654	0.677420	0.849140	0.792500
C26551	C2655	0.695230	0.860720	0.788620
H16341	H1634	0.707400	0.859200	0.797000
C26561	C2656	0.694860	0.874820	0.771900
H16351	H1635	0.707100	0.882400	0.768200
C26571	C2657	0.676860	0.877580	0.760930
H16361	H1636	0.676800	0.887600	0.749900
C26581	C2658	0.647740	0.783380	0.904670
C26591	C2659	0.611480	0.763210	0.831570
H16371	H1637	0.600600	0.753200	0.832900
C26601	C2660	0.612600	0.774620	0.813340
H16381	H1638	0.603100	0.772000	0.802200
C26611	C2661	0.627790	0.790070	0.811420
H16391	H1639	0.628400	0.798700	0.799300
C26621	C2662	0.642100	0.792490	0.827740
C26631	C2663	0.640260	0.780010	0.845280
H16401	H1640	0.650200	0.781700	0.856200
C26641	C2664	0.658680	0.808770	0.827180
C26651	C2665	0.675670	0.834610	0.810300
C26661	C2666	0.685110	0.825890	0.843160
C26671	C2667	0.712320	0.846010	0.861780
H16411	H1641	0.713700	0.854200	0.849400
C26681	C2668	0.697790	0.829520	0.861850
C26691	C2669	0.695890	0.817350	0.879600
H16421	H1642	0.686000	0.806200	0.880300
C26701	C2670	0.708910	0.821920	0.896420
H16431	H1643	0.708400	0.813600	0.908700
C26711	C2671	0.722540	0.838600	0.895110
H16441	H1644	0.731100	0.841600	0.906900
C26721	C2672	0.767630	0.833010	0.861380
H16451	H1645	0.757000	0.834100	0.851100
C26731	C2673	0.779400	0.815400	0.861660
H16461	H1646	0.776900	0.804500	0.851900
C26741	C2674	0.795300	0.813600	0.876670
H16471	H1647	0.804100	0.801600	0.877100
C26751	C2675	0.797830	0.829840	0.890760
C26761	C2676	0.785020	0.847310	0.889150
H16481	H1648	0.787000	0.858500	0.898700
C26771	C2677	0.814410	0.829080	0.906980
C26781	C2678	0.750590	0.876110	0.925220
N10211	N1021	0.659040	0.866920	0.764750
N10221	N1022	0.637150	0.774460	0.893010
N10231	N1023	0.624970	0.765510	0.847580
N10241	N1024	0.670400	0.810910	0.844180
N10251	N1025	0.660340	0.820250	0.809710
N10261	N1026	0.688870	0.837630	0.826130
N10271	N1027	0.724320	0.850750	0.878150
N10281	N1028	0.748810	0.876760	0.907620
N10291	N1029	0.770090	0.848970	0.874760
N10301	N1030	0.828310	0.813970	0.905720
S2051	S205	0.663040	0.794630	0.921880
S2061	S206	0.752160	0.873460	0.950720
C26791	C2679	0.659720	0.352580	0.280110
H16491	H1649	0.647600	0.344400	0.282700
C26801	C2680	0.677420	0.349140	0.292500
C26811	C2681	0.695230	0.360720	0.288620
H16501	H1650	0.707400	0.359200	0.297000
C26821	C2682	0.694860	0.374820	0.271900
H16511	H1651	0.707100	0.382400	0.268200
C26831	C2683	0.676860	0.377580	0.260930
H16521	H1652	0.676800	0.387600	0.249900
C26841	C2684	0.647740	0.283380	0.404670
C26851	C2685	0.611480	0.263210	0.331570
H16531	H1653	0.600600	0.253200	0.332900
C26861	C2686	0.612600	0.274620	0.313340
H16541	H1654	0.603100	0.272000	0.302200
C26871	C2687	0.627790	0.290070	0.311420
H16551	H1655	0.628400	0.298700	0.299300
C26881	C2688	0.642100	0.292490	0.327740
C26891	C2689	0.640260	0.280010	0.345280
H16561	H1656	0.650200	0.281700	0.356200
C26901	C2690	0.658680	0.308770	0.327180
C26911	C2691	0.675670	0.334610	0.310300
C26921	C2692	0.685110	0.325890	0.343160
C26931	C2693	0.712320	0.346010	0.361780
H16571	H1657	0.713700	0.354200	0.349400
C26941	C2694	0.697790	0.329520	0.361850
C26951	C2695	0.695890	0.317350	0.379600
H16581	H1658	0.686000	0.306200	0.380300
C26961	C2696	0.708910	0.321920	0.396420
H16591	H1659	0.708400	0.313600	0.408700
C26971	C2697	0.722540	0.338600	0.395110
H16601	H1660	0.731100	0.341600	0.406900
C26981	C2698	0.767630	0.333010	0.361380
H16611	H1661	0.757000	0.334100	0.351100
C26991	C2699	0.779400	0.315400	0.361660
H16621	H1662	0.776900	0.304500	0.351900
C27001	C2700	0.795300	0.313600	0.376670
H16631	H1663	0.804100	0.301600	0.377100
C27011	C2701	0.797830	0.329840	0.390760
C27021	C2702	0.785020	0.347310	0.389150
H16641	H1664	0.787000	0.358500	0.398700
C27031	C2703	0.814410	0.329080	0.406980
C27041	C2704	0.750590	0.376110	0.425220
N10311	N1031	0.659040	0.366920	0.264750
N10321	N1032	0.637150	0.274460	0.393010
N10331	N1033	0.624970	0.265510	0.347580
N10341	N1034	0.670400	0.310910	0.344180
N10351	N1035	0.660340	0.320250	0.309710
N10361	N1036	0.688870	0.337630	0.326130
N10371	N1037	0.724320	0.350750	0.378150
N10381	N1038	0.748810	0.376760	0.407620
N10391	N1039	0.770090	0.348970	0.374760
N10401	N1040	0.828310	0.313970	0.405720
S2071	S207	0.663040	0.294630	0.421880
S2081	S208	0.752160	0.373460	0.450720
C27051	C2705	0.659720	0.897420	0.969890
H16651	H1665	0.647600	0.905600	0.967300
C27061	C2706	0.677420	0.900860	0.957500
C27071	C2707	0.695230	0.889280	0.961380
H16661	H1666	0.707400	0.890800	0.953000
C27081	C2708	0.694860	0.875180	0.978100
H16671	H1667	0.707100	0.867600	0.981800
C27091	C2709	0.676860	0.872420	0.989070
H16681	H1668	0.676800	0.862400	0.000100
C27101	C2710	0.647740	0.966620	0.845330
C27111	C2711	0.611480	0.986790	0.918430
H16691	H1669	0.600600	0.996800	0.917100
C27121	C2712	0.612600	0.975380	0.936660
H16701	H1670	0.603100	0.978000	0.947800
C27131	C2713	0.627790	0.959930	0.938580
H16711	H1671	0.628400	0.951300	0.950700
C27141	C2714	0.642100	0.957510	0.922260
C27151	C2715	0.640260	0.969990	0.904720
H16721	H1672	0.650200	0.968300	0.893800
C27161	C2716	0.658680	0.941230	0.922820
C27171	C2717	0.675670	0.915390	0.939700
C27181	C2718	0.685110	0.924110	0.906840
C27191	C2719	0.712320	0.903990	0.888220
H16731	H1673	0.713700	0.895800	0.900600
C27201	C2720	0.697790	0.920480	0.888150
C27211	C2721	0.695890	0.932650	0.870400
H16741	H1674	0.686000	0.943800	0.869700
C27221	C2722	0.708910	0.928080	0.853580
H16751	H1675	0.708400	0.936400	0.841300
C27231	C2723	0.722540	0.911400	0.854890
H16761	H1676	0.731100	0.908400	0.843100
C27241	C2724	0.767630	0.916990	0.888620
H16771	H1677	0.757000	0.915900	0.898900
C27251	C2725	0.779400	0.934600	0.888340
H16781	H1678	0.776900	0.945500	0.898100
C27261	C2726	0.795300	0.936400	0.873330
H16791	H1679	0.804100	0.948400	0.872900
C27271	C2727	0.797830	0.920160	0.859240
C27281	C2728	0.785020	0.902690	0.860850
H16801	H1680	0.787000	0.891500	0.851300
C27291	C2729	0.814410	0.920920	0.843020
C27301	C2730	0.750590	0.873890	0.824780
N10411	N1041	0.659040	0.883080	0.985250
N10421	N1042	0.637150	0.975540	0.856990
N10431	N1043	0.624970	0.984490	0.902420
N10441	N1044	0.670400	0.939090	0.905820
N10451	N1045	0.660340	0.929750	0.940290
N10461	N1046	0.688870	0.912370	0.923870
N10471	N1047	0.724320	0.899250	0.871850
N10481	N1048	0.748810	0.873240	0.842380
N10491	N1049	0.770090	0.901030	0.875240
N10501	N1050	0.828310	0.936030	0.844280
S2091	S209	0.663040	0.955370	0.828120
S2101	S210	0.752160	0.876540	0.799280
C27311	C2731	0.659720	0.397420	0.469890
H16811	H1681	0.647600	0.405600	0.467300
C27321	C2732	0.677420	0.400860	0.457500
C27331	C2733	0.695230	0.389280	0.461380
H16821	H1682	0.707400	0.390800	0.453000
C27341	C2734	0.694860	0.375180	0.478100
H16831	H1683	0.707100	0.367600	0.481800
C27351	C2735	0.676860	0.372420	0.489070
H16841	H1684	0.676800	0.362400	0.500100
C27361	C2736	0.647740	0.466620	0.345330
C27371	C2737	0.611480	0.486790	0.418430
H16851	H1685	0.600600	0.496800	0.417100
C27381	C2738	0.612600	0.475380	0.436660
H16861	H1686	0.603100	0.478000	0.447800
C27391	C2739	0.627790	0.459930	0.438580
H16871	H1687	0.628400	0.451300	0.450700
C27401	C2740	0.642100	0.457510	0.422260
C27411	C2741	0.640260	0.469990	0.404720
H16881	H1688	0.650200	0.468300	0.393800
C27421	C2742	0.658680	0.441230	0.422820
C27431	C2743	0.675670	0.415390	0.439700
C27441	C2744	0.685110	0.424110	0.406840
C27451	C2745	0.712320	0.403990	0.388220
H16891	H1689	0.713700	0.395800	0.400600
C27461	C2746	0.697790	0.420480	0.388150
C27471	C2747	0.695890	0.432650	0.370400
H16901	H1690	0.686000	0.443800	0.369700
C27481	C2748	0.708910	0.428080	0.353580
H16911	H1691	0.708400	0.436400	0.341300
C27491	C2749	0.722540	0.411400	0.354890
H16921	H1692	0.731100	0.408400	0.343100
C27501	C2750	0.767630	0.416990	0.388620
H16931	H1693	0.757000	0.415900	0.398900
C27511	C2751	0.779400	0.434600	0.388340
H16941	H1694	0.776900	0.445500	0.398100
C27521	C2752	0.795300	0.436400	0.373330
H16951	H1695	0.804100	0.448400	0.372900
C27531	C2753	0.797830	0.420160	0.359240
C27541	C2754	0.785020	0.402690	0.360850
H16961	H1696	0.787000	0.391500	0.351300
C27551	C2755	0.814410	0.420920	0.343020
C27561	C2756	0.750590	0.373890	0.324780
N10511	N1051	0.659040	0.383080	0.485250
N10521	N1052	0.637150	0.475540	0.356990
N10531	N1053	0.624970	0.484490	0.402420
N10541	N1054	0.670400	0.439090	0.405820
N10551	N1055	0.660340	0.429750	0.440290
N10561	N1056	0.688870	0.412370	0.423870
N10571	N1057	0.724320	0.399250	0.371850
N10581	N1058	0.748810	0.373240	0.342380
N10591	N1059	0.770090	0.401030	0.375240
N10601	N1060	0.828310	0.436030	0.344280
S2111	S211	0.663040	0.455370	0.328120
S2121	S212	0.752160	0.376540	0.299280
C27571	C2757	0.159720	0.897420	0.469890
H16971	H1697	0.147600	0.905600	0.467300
C27581	C2758	0.177420	0.900860	0.457500
C27591	C2759	0.195230	0.889280	0.461380
H16981	H1698	0.207400	0.890800	0.453000
C27601	C2760	0.194860	0.875180	0.478100
H16991	H1699	0.207100	0.867600	0.481800
C27611	C2761	0.176860	0.872420	0.489070
H17001	H1700	0.176800	0.862400	0.500100
C27621	C2762	0.147740	0.966620	0.345330
C27631	C2763	0.111480	0.986790	0.418430
H17011	H1701	0.100600	0.996800	0.417100
C27641	C2764	0.112600	0.975380	0.436660
H17021	H1702	0.103100	0.978000	0.447800
C27651	C2765	0.127790	0.959930	0.438580
H17031	H1703	0.128400	0.951300	0.450700
C27661	C2766	0.142100	0.957510	0.422260
C27671	C2767	0.140260	0.969990	0.404720
H17041	H1704	0.150200	0.968300	0.393800
C27681	C2768	0.158680	0.941230	0.422820
C27691	C2769	0.175670	0.915390	0.439700
C27701	C2770	0.185110	0.924110	0.406840
C27711	C2771	0.212320	0.903990	0.388220
H17051	H1705	0.213700	0.895800	0.400600
C27721	C2772	0.197790	0.920480	0.388150
C27731	C2773	0.195890	0.932650	0.370400
H17061	H1706	0.186000	0.943800	0.369700
C27741	C2774	0.208910	0.928080	0.353580
H17071	H1707	0.208400	0.936400	0.341300
C27751	C2775	0.222540	0.911400	0.354890
H17081	H1708	0.231100	0.908400	0.343100
C27761	C2776	0.267630	0.916990	0.388620
H17091	H1709	0.257000	0.915900	0.398900
C27771	C2777	0.279400	0.934600	0.388340
H17101	H1710	0.276900	0.945500	0.398100
C27781	C2778	0.295300	0.936400	0.373330
H17111	H1711	0.304100	0.948400	0.372900
C27791	C2779	0.297830	0.920160	0.359240
C27801	C2780	0.285020	0.902690	0.360850
H17121	H1712	0.287000	0.891500	0.351300
C27811	C2781	0.314410	0.920920	0.343020
C27821	C2782	0.250590	0.873890	0.324780
N10611	N1061	0.159040	0.883080	0.485250
N10621	N1062	0.137150	0.975540	0.356990
N10631	N1063	0.124970	0.984490	0.402420
N10641	N1064	0.170400	0.939090	0.405820
N10651	N1065	0.160340	0.929750	0.440290
N10661	N1066	0.188870	0.912370	0.423870
N10671	N1067	0.224320	0.899250	0.371850
N10681	N1068	0.248810	0.873240	0.342380
N10691	N1069	0.270090	0.901030	0.375240
N10701	N1070	0.328310	0.936030	0.344280
S2131	S213	0.163040	0.955370	0.328120
S2141	S214	0.252160	0.876540	0.299280
C27831	C2783	0.159720	0.397420	0.969890
H17131	H1713	0.147600	0.405600	0.967300
C27841	C2784	0.177420	0.400860	0.957500
C27851	C2785	0.195230	0.389280	0.961380
H17141	H1714	0.207400	0.390800	0.953000
C27861	C2786	0.194860	0.375180	0.978100
H17151	H1715	0.207100	0.367600	0.981800
C27871	C2787	0.176860	0.372420	0.989070
H17161	H1716	0.176800	0.362400	0.000100
C27881	C2788	0.147740	0.466620	0.845330
C27891	C2789	0.111480	0.486790	0.918430
H17171	H1717	0.100600	0.496800	0.917100
C27901	C2790	0.112600	0.475380	0.936660
H17181	H1718	0.103100	0.478000	0.947800
C27911	C2791	0.127790	0.459930	0.938580
H17191	H1719	0.128400	0.451300	0.950700
C27921	C2792	0.142100	0.457510	0.922260
C27931	C2793	0.140260	0.469990	0.904720
H17201	H1720	0.150200	0.468300	0.893800
C27941	C2794	0.158680	0.441230	0.922820
C27951	C2795	0.175670	0.415390	0.939700
C27961	C2796	0.185110	0.424110	0.906840
C27971	C2797	0.212320	0.403990	0.888220
H17211	H1721	0.213700	0.395800	0.900600
C27981	C2798	0.197790	0.420480	0.888150
C27991	C2799	0.195890	0.432650	0.870400
H17221	H1722	0.186000	0.443800	0.869700
C28001	C2800	0.208910	0.428080	0.853580
H17231	H1723	0.208400	0.436400	0.841300
C28011	C2801	0.222540	0.411400	0.854890
H17241	H1724	0.231100	0.408400	0.843100
C28021	C2802	0.267630	0.416990	0.888620
H17251	H1725	0.257000	0.415900	0.898900
C28031	C2803	0.279400	0.434600	0.888340
H17261	H1726	0.276900	0.445500	0.898100
C28041	C2804	0.295300	0.436400	0.873330
H17271	H1727	0.304100	0.448400	0.872900
C28051	C2805	0.297830	0.420160	0.859240
C28061	C2806	0.285020	0.402690	0.860850
H17281	H1728	0.287000	0.391500	0.851300
C28071	C2807	0.314410	0.420920	0.843020
C28081	C2808	0.250590	0.373890	0.824780
N10711	N1071	0.159040	0.383080	0.985250
N10721	N1072	0.137150	0.475540	0.856990
N10731	N1073	0.124970	0.484490	0.902420
N10741	N1074	0.170400	0.439090	0.905820
N10751	N1075	0.160340	0.429750	0.940290
N10761	N1076	0.188870	0.412370	0.923870
N10771	N1077	0.224320	0.399250	0.871850
N10781	N1078	0.248810	0.373240	0.842380
N10791	N1079	0.270090	0.401030	0.875240
N10801	N1080	0.328310	0.436030	0.844280
S2151	S215	0.163040	0.455370	0.828120
S2161	S216	0.252160	0.376540	0.799280
C28091	C2809	0.090280	0.352580	0.469890
H17291	H1729	0.102400	0.344400	0.467300
C28101	C2810	0.072580	0.349140	0.457500
C28111	C2811	0.054770	0.360720	0.461380
H17301	H1730	0.042600	0.359200	0.453000
C28121	C2812	0.055140	0.374820	0.478100
H17311	H1731	0.042900	0.382400	0.481800
C28131	C2813	0.073140	0.377580	0.489070
H17321	H1732	0.073200	0.387600	0.500100
C28141	C2814	0.102260	0.283380	0.345330
C28151	C2815	0.138520	0.263210	0.418430
H17331	H1733	0.149400	0.253200	0.417100
C28161	C2816	0.137400	0.274620	0.436660
H17341	H1734	0.146900	0.272000	0.447800
C28171	C2817	0.122210	0.290070	0.438580
H17351	H1735	0.121600	0.298700	0.450700
C28181	C2818	0.107900	0.292490	0.422260
C28191	C2819	0.109740	0.280010	0.404720
H17361	H1736	0.099800	0.281700	0.393800
C28201	C2820	0.091320	0.308770	0.422820
C28211	C2821	0.074330	0.334610	0.439700
C28221	C2822	0.064890	0.325890	0.406840
C28231	C2823	0.037680	0.346010	0.388220
H17371	H1737	0.036300	0.354200	0.400600
C28241	C2824	0.052210	0.329520	0.388150
C28251	C2825	0.054110	0.317350	0.370400
H17381	H1738	0.064000	0.306200	0.369700
C28261	C2826	0.041090	0.321920	0.353580
H17391	H1739	0.041600	0.313600	0.341300
C28271	C2827	0.027460	0.338600	0.354890
H17401	H1740	0.018900	0.341600	0.343100
C28281	C2828	0.982370	0.333010	0.388620
H17411	H1741	0.993000	0.334100	0.398900
C28291	C2829	0.970600	0.315400	0.388340
H17421	H1742	0.973100	0.304500	0.398100
C28301	C2830	0.954700	0.313600	0.373330
H17431	H1743	0.945900	0.301600	0.372900
C28311	C2831	0.952170	0.329840	0.359240
C28321	C2832	0.964980	0.347310	0.360850
H17441	H1744	0.963000	0.358500	0.351300
C28331	C2833	0.935590	0.329080	0.343020
C28341	C2834	0.999410	0.376110	0.324780
N10811	N1081	0.090960	0.366920	0.485250
N10821	N1082	0.112850	0.274460	0.356990
N10831	N1083	0.125030	0.265510	0.402420
N10841	N1084	0.079600	0.310910	0.405820
N10851	N1085	0.089660	0.320250	0.440290
N10861	N1086	0.061130	0.337630	0.423870
N10871	N1087	0.025680	0.350750	0.371850
N10881	N1088	0.001190	0.376760	0.342380
N10891	N1089	0.979910	0.348970	0.375240
N10901	N1090	0.921690	0.313970	0.344280
S2171	S217	0.086960	0.294630	0.328120
S2181	S218	0.997840	0.373460	0.299280
C28351	C2835	0.090280	0.852580	0.969890
H17451	H1745	0.102400	0.844400	0.967300
C28361	C2836	0.072580	0.849140	0.957500
C28371	C2837	0.054770	0.860720	0.961380
H17461	H1746	0.042600	0.859200	0.953000
C28381	C2838	0.055140	0.874820	0.978100
H17471	H1747	0.042900	0.882400	0.981800
C28391	C2839	0.073140	0.877580	0.989070
H17481	H1748	0.073200	0.887600	0.000100
C28401	C2840	0.102260	0.783380	0.845330
C28411	C2841	0.138520	0.763210	0.918430
H17491	H1749	0.149400	0.753200	0.917100
C28421	C2842	0.137400	0.774620	0.936660
H17501	H1750	0.146900	0.772000	0.947800
C28431	C2843	0.122210	0.790070	0.938580
H17511	H1751	0.121600	0.798700	0.950700
C28441	C2844	0.107900	0.792490	0.922260
C28451	C2845	0.109740	0.780010	0.904720
H17521	H1752	0.099800	0.781700	0.893800
C28461	C2846	0.091320	0.808770	0.922820
C28471	C2847	0.074330	0.834610	0.939700
C28481	C2848	0.064890	0.825890	0.906840
C28491	C2849	0.037680	0.846010	0.888220
H17531	H1753	0.036300	0.854200	0.900600
C28501	C2850	0.052210	0.829520	0.888150
C28511	C2851	0.054110	0.817350	0.870400
H17541	H1754	0.064000	0.806200	0.869700
C28521	C2852	0.041090	0.821920	0.853580
H17551	H1755	0.041600	0.813600	0.841300
C28531	C2853	0.027460	0.838600	0.854890
H17561	H1756	0.018900	0.841600	0.843100
C28541	C2854	0.982370	0.833010	0.888620
H17571	H1757	0.993000	0.834100	0.898900
C28551	C2855	0.970600	0.815400	0.888340
H17581	H1758	0.973100	0.804500	0.898100
C28561	C2856	0.954700	0.813600	0.873330
H17591	H1759	0.945900	0.801600	0.872900
C28571	C2857	0.952170	0.829840	0.859240
C28581	C2858	0.964980	0.847310	0.860850
H17601	H1760	0.963000	0.858500	0.851300
C28591	C2859	0.935590	0.829080	0.843020
C28601	C2860	0.999410	0.876110	0.824780
N10911	N1091	0.090960	0.866920	0.985250
N10921	N1092	0.112850	0.774460	0.856990
N10931	N1093	0.125030	0.765510	0.902420
N10941	N1094	0.079600	0.810910	0.905820
N10951	N1095	0.089660	0.820250	0.940290
N10961	N1096	0.061130	0.837630	0.923870
N10971	N1097	0.025680	0.850750	0.871850
N10981	N1098	0.001190	0.876760	0.842380
N10991	N1099	0.979910	0.848970	0.875240
N11001	N1100	0.921690	0.813970	0.844280
S2191	S219	0.086960	0.794630	0.828120
S2201	S220	0.997840	0.873460	0.799280
C28611	C2861	0.590280	0.352580	0.969890
H17611	H1761	0.602400	0.344400	0.967300
C28621	C2862	0.572580	0.349140	0.957500
C28631	C2863	0.554770	0.360720	0.961380
H17621	H1762	0.542600	0.359200	0.953000
C28641	C2864	0.555140	0.374820	0.978100
H17631	H1763	0.542900	0.382400	0.981800
C28651	C2865	0.573140	0.377580	0.989070
H17641	H1764	0.573200	0.387600	0.000100
C28661	C2866	0.602260	0.283380	0.845330
C28671	C2867	0.638520	0.263210	0.918430
H17651	H1765	0.649400	0.253200	0.917100
C28681	C2868	0.637400	0.274620	0.936660
H17661	H1766	0.646900	0.272000	0.947800
C28691	C2869	0.622210	0.290070	0.938580
H17671	H1767	0.621600	0.298700	0.950700
C28701	C2870	0.607900	0.292490	0.922260
C28711	C2871	0.609740	0.280010	0.904720
H17681	H1768	0.599800	0.281700	0.893800
C28721	C2872	0.591320	0.308770	0.922820
C28731	C2873	0.574330	0.334610	0.939700
C28741	C2874	0.564890	0.325890	0.906840
C28751	C2875	0.537680	0.346010	0.888220
H17691	H1769	0.536300	0.354200	0.900600
C28761	C2876	0.552210	0.329520	0.888150
C28771	C2877	0.554110	0.317350	0.870400
H17701	H1770	0.564000	0.306200	0.869700
C28781	C2878	0.541090	0.321920	0.853580
H17711	H1771	0.541600	0.313600	0.841300
C28791	C2879	0.527460	0.338600	0.854890
H17721	H1772	0.518900	0.341600	0.843100
C28801	C2880	0.482370	0.333010	0.888620
H17731	H1773	0.493000	0.334100	0.898900
C28811	C2881	0.470600	0.315400	0.888340
H17741	H1774	0.473100	0.304500	0.898100
C28821	C2882	0.454700	0.313600	0.873330
H17751	H1775	0.445900	0.301600	0.872900
C28831	C2883	0.452170	0.329840	0.859240
C28841	C2884	0.464980	0.347310	0.860850
H17761	H1776	0.463000	0.358500	0.851300
C28851	C2885	0.435590	0.329080	0.843020
C28861	C2886	0.499410	0.376110	0.824780
N11011	N1101	0.590960	0.366920	0.985250
N11021	N1102	0.612850	0.274460	0.856990
N11031	N1103	0.625030	0.265510	0.902420
N11041	N1104	0.579600	0.310910	0.905820
N11051	N1105	0.589660	0.320250	0.940290
N11061	N1106	0.561130	0.337630	0.923870
N11071	N1107	0.525680	0.350750	0.871850
N11081	N1108	0.501190	0.376760	0.842380
N11091	N1109	0.479910	0.348970	0.875240
N11101	N1110	0.421690	0.313970	0.844280
S2211	S221	0.586960	0.294630	0.828120
S2221	S222	0.497840	0.373460	0.799280
C28871	C2887	0.590280	0.852580	0.469890
H17771	H1777	0.602400	0.844400	0.467300
C28881	C2888	0.572580	0.849140	0.457500
C28891	C2889	0.554770	0.860720	0.461380
H17781	H1778	0.542600	0.859200	0.453000
C28901	C2890	0.555140	0.874820	0.478100
H17791	H1779	0.542900	0.882400	0.481800
C28911	C2891	0.573140	0.877580	0.489070
H17801	H1780	0.573200	0.887600	0.500100
C28921	C2892	0.602260	0.783380	0.345330
C28931	C2893	0.638520	0.763210	0.418430
H17811	H1781	0.649400	0.753200	0.417100
C28941	C2894	0.637400	0.774620	0.436660
H17821	H1782	0.646900	0.772000	0.447800
C28951	C2895	0.622210	0.790070	0.438580
H17831	H1783	0.621600	0.798700	0.450700
C28961	C2896	0.607900	0.792490	0.422260
C28971	C2897	0.609740	0.780010	0.404720
H17841	H1784	0.599800	0.781700	0.393800
C28981	C2898	0.591320	0.808770	0.422820
C28991	C2899	0.574330	0.834610	0.439700
C29001	C2900	0.564890	0.825890	0.406840
C29011	C2901	0.537680	0.846010	0.388220
H17851	H1785	0.536300	0.854200	0.400600
C29021	C2902	0.552210	0.829520	0.388150
C29031	C2903	0.554110	0.817350	0.370400
H17861	H1786	0.564000	0.806200	0.369700
C29041	C2904	0.541090	0.821920	0.353580
H17871	H1787	0.541600	0.813600	0.341300
C29051	C2905	0.527460	0.838600	0.354890
H17881	H1788	0.518900	0.841600	0.343100
C29061	C2906	0.482370	0.833010	0.388620
H17891	H1789	0.493000	0.834100	0.398900
C29071	C2907	0.470600	0.815400	0.388340
H17901	H1790	0.473100	0.804500	0.398100
C29081	C2908	0.454700	0.813600	0.373330
H17911	H1791	0.445900	0.801600	0.372900
C29091	C2909	0.452170	0.829840	0.359240
C29101	C2910	0.464980	0.847310	0.360850
H17921	H1792	0.463000	0.858500	0.351300
C29111	C2911	0.435590	0.829080	0.343020
C29121	C2912	0.499410	0.876110	0.324780
N11111	N1111	0.590960	0.866920	0.485250
N11121	N1112	0.612850	0.774460	0.356990
N11131	N1113	0.625030	0.765510	0.402420
N11141	N1114	0.579600	0.810910	0.405820
N11151	N1115	0.589660	0.820250	0.440290
N11161	N1116	0.561130	0.837630	0.423870
N11171	N1117	0.525680	0.850750	0.371850
N11181	N1118	0.501190	0.876760	0.342380
N11191	N1119	0.479910	0.848970	0.375240
N11201	N1120	0.421690	0.813970	0.344280
S2231	S223	0.586960	0.794630	0.328120
S2241	S224	0.497840	0.873460	0.299280
C29131	C2913	0.780110	0.590280	0.397420
H17931	H1793	0.782700	0.602400	0.405600
C29141	C2914	0.792500	0.572580	0.400860
C29151	C2915	0.788620	0.554770	0.389280
H17941	H1794	0.797000	0.542600	0.390800
C29161	C2916	0.771900	0.555140	0.375180
H17951	H1795	0.768200	0.542900	0.367600
C29171	C2917	0.760930	0.573140	0.372420
H17961	H1796	0.749900	0.573200	0.362400
C29181	C2918	0.904670	0.602260	0.466620
C29191	C2919	0.831570	0.638520	0.486790
H17971	H1797	0.832900	0.649400	0.496800
C29201	C2920	0.813340	0.637400	0.475380
H17981	H1798	0.802200	0.646900	0.478000
C29211	C2921	0.811420	0.622210	0.459930
H17991	H1799	0.799300	0.621600	0.451300
C29221	C2922	0.827740	0.607900	0.457510
C29231	C2923	0.845280	0.609740	0.469990
H18001	H1800	0.856200	0.599800	0.468300
C29241	C2924	0.827180	0.591320	0.441230
C29251	C2925	0.810300	0.574330	0.415390
C29261	C2926	0.843160	0.564890	0.424110
C29271	C2927	0.861780	0.537680	0.403990
H18011	H1801	0.849400	0.536300	0.395800
C29281	C2928	0.861850	0.552210	0.420480
C29291	C2929	0.879600	0.554110	0.432650
H18021	H1802	0.880300	0.564000	0.443800
C29301	C2930	0.896420	0.541090	0.428080
H18031	H1803	0.908700	0.541600	0.436400
C29311	C2931	0.895110	0.527460	0.411400
H18041	H1804	0.906900	0.518900	0.408400
C29321	C2932	0.861380	0.482370	0.416990
H18051	H1805	0.851100	0.493000	0.415900
C29331	C2933	0.861660	0.470600	0.434600
H18061	H1806	0.851900	0.473100	0.445500
C29341	C2934	0.876670	0.454700	0.436400
H18071	H1807	0.877100	0.445900	0.448400
C29351	C2935	0.890760	0.452170	0.420160
C29361	C2936	0.889150	0.464980	0.402690
H18081	H1808	0.898700	0.463000	0.391500
C29371	C2937	0.906980	0.435590	0.420920
C29381	C2938	0.925220	0.499410	0.373890
N11211	N1121	0.764750	0.590960	0.383080
N11221	N1122	0.893010	0.612850	0.475540
N11231	N1123	0.847580	0.625030	0.484490
N11241	N1124	0.844180	0.579600	0.439090
N11251	N1125	0.809710	0.589660	0.429750
N11261	N1126	0.826130	0.561130	0.412370
N11271	N1127	0.878150	0.525680	0.399250
N11281	N1128	0.907620	0.501190	0.373240
N11291	N1129	0.874760	0.479910	0.401030
N11301	N1130	0.905720	0.421690	0.436030
S2251	S225	0.921880	0.586960	0.455370
S2261	S226	0.950720	0.497840	0.376540
C29391	C2939	0.780110	0.090280	0.897420
H18091	H1809	0.782700	0.102400	0.905600
C29401	C2940	0.792500	0.072580	0.900860
C29411	C2941	0.788620	0.054770	0.889280
H18101	H1810	0.797000	0.042600	0.890800
C29421	C2942	0.771900	0.055140	0.875180
H18111	H1811	0.768200	0.042900	0.867600
C29431	C2943	0.760930	0.073140	0.872420
H18121	H1812	0.749900	0.073200	0.862400
C29441	C2944	0.904670	0.102260	0.966620
C29451	C2945	0.831570	0.138520	0.986790
H18131	H1813	0.832900	0.149400	0.996800
C29461	C2946	0.813340	0.137400	0.975380
H18141	H1814	0.802200	0.146900	0.978000
C29471	C2947	0.811420	0.122210	0.959930
H18151	H1815	0.799300	0.121600	0.951300
C29481	C2948	0.827740	0.107900	0.957510
C29491	C2949	0.845280	0.109740	0.969990
H18161	H1816	0.856200	0.099800	0.968300
C29501	C2950	0.827180	0.091320	0.941230
C29511	C2951	0.810300	0.074330	0.915390
C29521	C2952	0.843160	0.064890	0.924110
C29531	C2953	0.861780	0.037680	0.903990
H18171	H1817	0.849400	0.036300	0.895800
C29541	C2954	0.861850	0.052210	0.920480
C29551	C2955	0.879600	0.054110	0.932650
H18181	H1818	0.880300	0.064000	0.943800
C29561	C2956	0.896420	0.041090	0.928080
H18191	H1819	0.908700	0.041600	0.936400
C29571	C2957	0.895110	0.027460	0.911400
H18201	H1820	0.906900	0.018900	0.908400
C29581	C2958	0.861380	0.982370	0.916990
H18211	H1821	0.851100	0.993000	0.915900
C29591	C2959	0.861660	0.970600	0.934600
H18221	H1822	0.851900	0.973100	0.945500
C29601	C2960	0.876670	0.954700	0.936400
H18231	H1823	0.877100	0.945900	0.948400
C29611	C2961	0.890760	0.952170	0.920160
C29621	C2962	0.889150	0.964980	0.902690
H18241	H1824	0.898700	0.963000	0.891500
C29631	C2963	0.906980	0.935590	0.920920
C29641	C2964	0.925220	0.999410	0.873890
N11311	N1131	0.764750	0.090960	0.883080
N11321	N1132	0.893010	0.112850	0.975540
N11331	N1133	0.847580	0.125030	0.984490
N11341	N1134	0.844180	0.079600	0.939090
N11351	N1135	0.809710	0.089660	0.929750
N11361	N1136	0.826130	0.061130	0.912370
N11371	N1137	0.878150	0.025680	0.899250
N11381	N1138	0.907620	0.001190	0.873240
N11391	N1139	0.874760	0.979910	0.901030
N11401	N1140	0.905720	0.921690	0.936030
S2271	S227	0.921880	0.086960	0.955370
S2281	S228	0.950720	0.997840	0.876540
C29651	C2965	0.280110	0.590280	0.897420
H18251	H1825	0.282700	0.602400	0.905600
C29661	C2966	0.292500	0.572580	0.900860
C29671	C2967	0.288620	0.554770	0.889280
H18261	H1826	0.297000	0.542600	0.890800
C29681	C2968	0.271900	0.555140	0.875180
H18271	H1827	0.268200	0.542900	0.867600
C29691	C2969	0.260930	0.573140	0.872420
H18281	H1828	0.249900	0.573200	0.862400
C29701	C2970	0.404670	0.602260	0.966620
C29711	C2971	0.331570	0.638520	0.986790
H18291	H1829	0.332900	0.649400	0.996800
C29721	C2972	0.313340	0.637400	0.975380
H18301	H1830	0.302200	0.646900	0.978000
C29731	C2973	0.311420	0.622210	0.959930
H18311	H1831	0.299300	0.621600	0.951300
C29741	C2974	0.327740	0.607900	0.957510
C29751	C2975	0.345280	0.609740	0.969990
H18321	H1832	0.356200	0.599800	0.968300
C29761	C2976	0.327180	0.591320	0.941230
C29771	C2977	0.310300	0.574330	0.915390
C29781	C2978	0.343160	0.564890	0.924110
C29791	C2979	0.361780	0.537680	0.903990
H18331	H1833	0.349400	0.536300	0.895800
C29801	C2980	0.361850	0.552210	0.920480
C29811	C2981	0.379600	0.554110	0.932650
H18341	H1834	0.380300	0.564000	0.943800
C29821	C2982	0.396420	0.541090	0.928080
H18351	H1835	0.408700	0.541600	0.936400
C29831	C2983	0.395110	0.527460	0.911400
H18361	H1836	0.406900	0.518900	0.908400
C29841	C2984	0.361380	0.482370	0.916990
H18371	H1837	0.351100	0.493000	0.915900
C29851	C2985	0.361660	0.470600	0.934600
H18381	H1838	0.351900	0.473100	0.945500
C29861	C2986	0.376670	0.454700	0.936400
H18391	H1839	0.377100	0.445900	0.948400
C29871	C2987	0.390760	0.452170	0.920160
C29881	C2988	0.389150	0.464980	0.902690
H18401	H1840	0.398700	0.463000	0.891500
C29891	C2989	0.406980	0.435590	0.920920
C29901	C2990	0.425220	0.499410	0.873890
N11411	N1141	0.264750	0.590960	0.883080
N11421	N1142	0.393010	0.612850	0.975540
N11431	N1143	0.347580	0.625030	0.984490
N11441	N1144	0.344180	0.579600	0.939090
N11451	N1145	0.309710	0.589660	0.929750
N11461	N1146	0.326130	0.561130	0.912370
N11471	N1147	0.378150	0.525680	0.899250
N11481	N1148	0.407620	0.501190	0.873240
N11491	N1149	0.374760	0.479910	0.901030
N11501	N1150	0.405720	0.421690	0.936030
S2291	S229	0.421880	0.586960	0.955370
S2301	S230	0.450720	0.497840	0.876540
C29911	C2991	0.280110	0.090280	0.397420
H18411	H1841	0.282700	0.102400	0.405600
C29921	C2992	0.292500	0.072580	0.400860
C29931	C2993	0.288620	0.054770	0.389280
H18421	H1842	0.297000	0.042600	0.390800
C29941	C2994	0.271900	0.055140	0.375180
H18431	H1843	0.268200	0.042900	0.367600
C29951	C2995	0.260930	0.073140	0.372420
H18441	H1844	0.249900	0.073200	0.362400
C29961	C2996	0.404670	0.102260	0.466620
C29971	C2997	0.331570	0.138520	0.486790
H18451	H1845	0.332900	0.149400	0.496800
C29981	C2998	0.313340	0.137400	0.475380
H18461	H1846	0.302200	0.146900	0.478000
C29991	C2999	0.311420	0.122210	0.459930
H18471	H1847	0.299300	0.121600	0.451300
C30001	C3000	0.327740	0.107900	0.457510
C30011	C3001	0.345280	0.109740	0.469990
H18481	H1848	0.356200	0.099800	0.468300
C30021	C3002	0.327180	0.091320	0.441230
C30031	C3003	0.310300	0.074330	0.415390
C30041	C3004	0.343160	0.064890	0.424110
C30051	C3005	0.361780	0.037680	0.403990
H18491	H1849	0.349400	0.036300	0.395800
C30061	C3006	0.361850	0.052210	0.420480
C30071	C3007	0.379600	0.054110	0.432650
H18501	H1850	0.380300	0.064000	0.443800
C30081	C3008	0.396420	0.041090	0.428080
H18511	H1851	0.408700	0.041600	0.436400
C30091	C3009	0.395110	0.027460	0.411400
H18521	H1852	0.406900	0.018900	0.408400
C30101	C3010	0.361380	0.982370	0.416990
H18531	H1853	0.351100	0.993000	0.415900
C30111	C3011	0.361660	0.970600	0.434600
H18541	H1854	0.351900	0.973100	0.445500
C30121	C3012	0.376670	0.954700	0.436400
H18551	H1855	0.377100	0.945900	0.448400
C30131	C3013	0.390760	0.952170	0.420160
C30141	C3014	0.389150	0.964980	0.402690
H18561	H1856	0.398700	0.963000	0.391500
C30151	C3015	0.406980	0.935590	0.420920
C30161	C3016	0.425220	0.999410	0.373890
N11511	N1151	0.264750	0.090960	0.383080
N11521	N1152	0.393010	0.112850	0.475540
N11531	N1153	0.347580	0.125030	0.484490
N11541	N1154	0.344180	0.079600	0.439090
N11551	N1155	0.309710	0.089660	0.429750
N11561	N1156	0.326130	0.061130	0.412370
N11571	N1157	0.378150	0.025680	0.399250
N11581	N1158	0.407620	0.001190	0.373240
N11591	N1159	0.374760	0.979910	0.401030
N11601	N1160	0.405720	0.921690	0.436030
S2311	S231	0.421880	0.086960	0.455370
S2321	S232	0.450720	0.997840	0.376540
C30171	C3017	0.280110	0.159720	0.852580
H18571	H1857	0.282700	0.147600	0.844400
C30181	C3018	0.292500	0.177420	0.849140
C30191	C3019	0.288620	0.195230	0.860720
H18581	H1858	0.297000	0.207400	0.859200
C30201	C3020	0.271900	0.194860	0.874820
H18591	H1859	0.268200	0.207100	0.882400
C30211	C3021	0.260930	0.176860	0.877580
H18601	H1860	0.249900	0.176800	0.887600
C30221	C3022	0.404670	0.147740	0.783380
C30231	C3023	0.331570	0.111480	0.763210
H18611	H1861	0.332900	0.100600	0.753200
C30241	C3024	0.313340	0.112600	0.774620
H18621	H1862	0.302200	0.103100	0.772000
C30251	C3025	0.311420	0.127790	0.790070
H18631	H1863	0.299300	0.128400	0.798700
C30261	C3026	0.327740	0.142100	0.792490
C30271	C3027	0.345280	0.140260	0.780010
H18641	H1864	0.356200	0.150200	0.781700
C30281	C3028	0.327180	0.158680	0.808770
C30291	C3029	0.310300	0.175670	0.834610
C30301	C3030	0.343160	0.185110	0.825890
C30311	C3031	0.361780	0.212320	0.846010
H18651	H1865	0.349400	0.213700	0.854200
C30321	C3032	0.361850	0.197790	0.829520
C30331	C3033	0.379600	0.195890	0.817350
H18661	H1866	0.380300	0.186000	0.806200
C30341	C3034	0.396420	0.208910	0.821920
H18671	H1867	0.408700	0.208400	0.813600
C30351	C3035	0.395110	0.222540	0.838600
H18681	H1868	0.406900	0.231100	0.841600
C30361	C3036	0.361380	0.267630	0.833010
H18691	H1869	0.351100	0.257000	0.834100
C30371	C3037	0.361660	0.279400	0.815400
H18701	H1870	0.351900	0.276900	0.804500
C30381	C3038	0.376670	0.295300	0.813600
H18711	H1871	0.377100	0.304100	0.801600
C30391	C3039	0.390760	0.297830	0.829840
C30401	C3040	0.389150	0.285020	0.847310
H18721	H1872	0.398700	0.287000	0.858500
C30411	C3041	0.406980	0.314410	0.829080
C30421	C3042	0.425220	0.250590	0.876110
N11611	N1161	0.264750	0.159040	0.866920
N11621	N1162	0.393010	0.137150	0.774460
N11631	N1163	0.347580	0.124970	0.765510
N11641	N1164	0.344180	0.170400	0.810910
N11651	N1165	0.309710	0.160340	0.820250
N11661	N1166	0.326130	0.188870	0.837630
N11671	N1167	0.378150	0.224320	0.850750
N11681	N1168	0.407620	0.248810	0.876760
N11691	N1169	0.374760	0.270090	0.848970
N11701	N1170	0.405720	0.328310	0.813970
S2331	S233	0.421880	0.163040	0.794630
S2341	S234	0.450720	0.252160	0.873460
C30431	C3043	0.280110	0.659720	0.352580
H18731	H1873	0.282700	0.647600	0.344400
C30441	C3044	0.292500	0.677420	0.349140
C30451	C3045	0.288620	0.695230	0.360720
H18741	H1874	0.297000	0.707400	0.359200
C30461	C3046	0.271900	0.694860	0.374820
H18751	H1875	0.268200	0.707100	0.382400
C30471	C3047	0.260930	0.676860	0.377580
H18761	H1876	0.249900	0.676800	0.387600
C30481	C3048	0.404670	0.647740	0.283380
C30491	C3049	0.331570	0.611480	0.263210
H18771	H1877	0.332900	0.600600	0.253200
C30501	C3050	0.313340	0.612600	0.274620
H18781	H1878	0.302200	0.603100	0.272000
C30511	C3051	0.311420	0.627790	0.290070
H18791	H1879	0.299300	0.628400	0.298700
C30521	C3052	0.327740	0.642100	0.292490
C30531	C3053	0.345280	0.640260	0.280010
H18801	H1880	0.356200	0.650200	0.281700
C30541	C3054	0.327180	0.658680	0.308770
C30551	C3055	0.310300	0.675670	0.334610
C30561	C3056	0.343160	0.685110	0.325890
C30571	C3057	0.361780	0.712320	0.346010
H18811	H1881	0.349400	0.713700	0.354200
C30581	C3058	0.361850	0.697790	0.329520
C30591	C3059	0.379600	0.695890	0.317350
H18821	H1882	0.380300	0.686000	0.306200
C30601	C3060	0.396420	0.708910	0.321920
H18831	H1883	0.408700	0.708400	0.313600
C30611	C3061	0.395110	0.722540	0.338600
H18841	H1884	0.406900	0.731100	0.341600
C30621	C3062	0.361380	0.767630	0.333010
H18851	H1885	0.351100	0.757000	0.334100
C30631	C3063	0.361660	0.779400	0.315400
H18861	H1886	0.351900	0.776900	0.304500
C30641	C3064	0.376670	0.795300	0.313600
H18871	H1887	0.377100	0.804100	0.301600
C30651	C3065	0.390760	0.797830	0.329840
C30661	C3066	0.389150	0.785020	0.347310
H18881	H1888	0.398700	0.787000	0.358500
C30671	C3067	0.406980	0.814410	0.329080
C30681	C3068	0.425220	0.750590	0.376110
N11711	N1171	0.264750	0.659040	0.366920
N11721	N1172	0.393010	0.637150	0.274460
N11731	N1173	0.347580	0.624970	0.265510
N11741	N1174	0.344180	0.670400	0.310910
N11751	N1175	0.309710	0.660340	0.320250
N11761	N1176	0.326130	0.688870	0.337630
N11771	N1177	0.378150	0.724320	0.350750
N11781	N1178	0.407620	0.748810	0.376760
N11791	N1179	0.374760	0.770090	0.348970
N11801	N1180	0.405720	0.828310	0.313970
S2351	S235	0.421880	0.663040	0.294630
S2361	S236	0.450720	0.752160	0.373460
C30691	C3069	0.780110	0.159720	0.352580
H18891	H1889	0.782700	0.147600	0.344400
C30701	C3070	0.792500	0.177420	0.349140
C30711	C3071	0.788620	0.195230	0.360720
H18901	H1890	0.797000	0.207400	0.359200
C30721	C3072	0.771900	0.194860	0.374820
H18911	H1891	0.768200	0.207100	0.382400
C30731	C3073	0.760930	0.176860	0.377580
H18921	H1892	0.749900	0.176800	0.387600
C30741	C3074	0.904670	0.147740	0.283380
C30751	C3075	0.831570	0.111480	0.263210
H18931	H1893	0.832900	0.100600	0.253200
C30761	C3076	0.813340	0.112600	0.274620
H18941	H1894	0.802200	0.103100	0.272000
C30771	C3077	0.811420	0.127790	0.290070
H18951	H1895	0.799300	0.128400	0.298700
C30781	C3078	0.827740	0.142100	0.292490
C30791	C3079	0.845280	0.140260	0.280010
H18961	H1896	0.856200	0.150200	0.281700
C30801	C3080	0.827180	0.158680	0.308770
C30811	C3081	0.810300	0.175670	0.334610
C30821	C3082	0.843160	0.185110	0.325890
C30831	C3083	0.861780	0.212320	0.346010
H18971	H1897	0.849400	0.213700	0.354200
C30841	C3084	0.861850	0.197790	0.329520
C30851	C3085	0.879600	0.195890	0.317350
H18981	H1898	0.880300	0.186000	0.306200
C30861	C3086	0.896420	0.208910	0.321920
H18991	H1899	0.908700	0.208400	0.313600
C30871	C3087	0.895110	0.222540	0.338600
H19001	H1900	0.906900	0.231100	0.341600
C30881	C3088	0.861380	0.267630	0.333010
H19011	H1901	0.851100	0.257000	0.334100
C30891	C3089	0.861660	0.279400	0.315400
H19021	H1902	0.851900	0.276900	0.304500
C30901	C3090	0.876670	0.295300	0.313600
H19031	H1903	0.877100	0.304100	0.301600
C30911	C3091	0.890760	0.297830	0.329840
C30921	C3092	0.889150	0.285020	0.347310
H19041	H1904	0.898700	0.287000	0.358500
C30931	C3093	0.906980	0.314410	0.329080
C30941	C3094	0.925220	0.250590	0.376110
N11811	N1181	0.764750	0.159040	0.366920
N11821	N1182	0.893010	0.137150	0.274460
N11831	N1183	0.847580	0.124970	0.265510
N11841	N1184	0.844180	0.170400	0.310910
N11851	N1185	0.809710	0.160340	0.320250
N11861	N1186	0.826130	0.188870	0.337630
N11871	N1187	0.878150	0.224320	0.350750
N11881	N1188	0.907620	0.248810	0.376760
N11891	N1189	0.874760	0.270090	0.348970
N11901	N1190	0.905720	0.328310	0.313970
S2371	S237	0.921880	0.163040	0.294630
S2381	S238	0.950720	0.252160	0.373460
C30951	C3095	0.780110	0.659720	0.852580
H19051	H1905	0.782700	0.647600	0.844400
C30961	C3096	0.792500	0.677420	0.849140
C30971	C3097	0.788620	0.695230	0.860720
H19061	H1906	0.797000	0.707400	0.859200
C30981	C3098	0.771900	0.694860	0.874820
H19071	H1907	0.768200	0.707100	0.882400
C30991	C3099	0.760930	0.676860	0.877580
H19081	H1908	0.749900	0.676800	0.887600
C31001	C3100	0.904670	0.647740	0.783380
C31011	C3101	0.831570	0.611480	0.763210
H19091	H1909	0.832900	0.600600	0.753200
C31021	C3102	0.813340	0.612600	0.774620
H19101	H1910	0.802200	0.603100	0.772000
C31031	C3103	0.811420	0.627790	0.790070
H19111	H1911	0.799300	0.628400	0.798700
C31041	C3104	0.827740	0.642100	0.792490
C31051	C3105	0.845280	0.640260	0.780010
H19121	H1912	0.856200	0.650200	0.781700
C31061	C3106	0.827180	0.658680	0.808770
C31071	C3107	0.810300	0.675670	0.834610
C31081	C3108	0.843160	0.685110	0.825890
C31091	C3109	0.861780	0.712320	0.846010
H19131	H1913	0.849400	0.713700	0.854200
C31101	C3110	0.861850	0.697790	0.829520
C31111	C3111	0.879600	0.695890	0.817350
H19141	H1914	0.880300	0.686000	0.806200
C31121	C3112	0.896420	0.708910	0.821920
H19151	H1915	0.908700	0.708400	0.813600
C31131	C3113	0.895110	0.722540	0.838600
H19161	H1916	0.906900	0.731100	0.841600
C31141	C3114	0.861380	0.767630	0.833010
H19171	H1917	0.851100	0.757000	0.834100
C31151	C3115	0.861660	0.779400	0.815400
H19181	H1918	0.851900	0.776900	0.804500
C31161	C3116	0.876670	0.795300	0.813600
H19191	H1919	0.877100	0.804100	0.801600
C31171	C3117	0.890760	0.797830	0.829840
C31181	C3118	0.889150	0.785020	0.847310
H19201	H1920	0.898700	0.787000	0.858500
C31191	C3119	0.906980	0.814410	0.829080
C31201	C3120	0.925220	0.750590	0.876110
N11911	N1191	0.764750	0.659040	0.866920
N11921	N1192	0.893010	0.637150	0.774460
N11931	N1193	0.847580	0.624970	0.765510
N11941	N1194	0.844180	0.670400	0.810910
N11951	N1195	0.809710	0.660340	0.820250
N11961	N1196	0.826130	0.688870	0.837630
N11971	N1197	0.878150	0.724320	0.850750
N11981	N1198	0.907620	0.748810	0.876760
N11991	N1199	0.874760	0.770090	0.848970
N12001	N1200	0.905720	0.828310	0.813970
S2391	S239	0.921880	0.663040	0.794630
S2401	S240	0.950720	0.752160	0.873460
C31211	C3121	0.969890	0.659720	0.897420
H19211	H1921	0.967300	0.647600	0.905600
C31221	C3122	0.957500	0.677420	0.900860
C31231	C3123	0.961380	0.695230	0.889280
H19221	H1922	0.953000	0.707400	0.890800
C31241	C3124	0.978100	0.694860	0.875180
H19231	H1923	0.981800	0.707100	0.867600
C31251	C3125	0.989070	0.676860	0.872420
H19241	H1924	0.000100	0.676800	0.862400
C31261	C3126	0.845330	0.647740	0.966620
C31271	C3127	0.918430	0.611480	0.986790
H19251	H1925	0.917100	0.600600	0.996800
C31281	C3128	0.936660	0.612600	0.975380
H19261	H1926	0.947800	0.603100	0.978000
C31291	C3129	0.938580	0.627790	0.959930
H19271	H1927	0.950700	0.628400	0.951300
C31301	C3130	0.922260	0.642100	0.957510
C31311	C3131	0.904720	0.640260	0.969990
H19281	H1928	0.893800	0.650200	0.968300
C31321	C3132	0.922820	0.658680	0.941230
C31331	C3133	0.939700	0.675670	0.915390
C31341	C3134	0.906840	0.685110	0.924110
C31351	C3135	0.888220	0.712320	0.903990
H19291	H1929	0.900600	0.713700	0.895800
C31361	C3136	0.888150	0.697790	0.920480
C31371	C3137	0.870400	0.695890	0.932650
H19301	H1930	0.869700	0.686000	0.943800
C31381	C3138	0.853580	0.708910	0.928080
H19311	H1931	0.841300	0.708400	0.936400
C31391	C3139	0.854890	0.722540	0.911400
H19321	H1932	0.843100	0.731100	0.908400
C31401	C3140	0.888620	0.767630	0.916990
H19331	H1933	0.898900	0.757000	0.915900
C31411	C3141	0.888340	0.779400	0.934600
H19341	H1934	0.898100	0.776900	0.945500
C31421	C3142	0.873330	0.795300	0.936400
H19351	H1935	0.872900	0.804100	0.948400
C31431	C3143	0.859240	0.797830	0.920160
C31441	C3144	0.860850	0.785020	0.902690
H19361	H1936	0.851300	0.787000	0.891500
C31451	C3145	0.843020	0.814410	0.920920
C31461	C3146	0.824780	0.750590	0.873890
N12011	N1201	0.985250	0.659040	0.883080
N12021	N1202	0.856990	0.637150	0.975540
N12031	N1203	0.902420	0.624970	0.984490
N12041	N1204	0.905820	0.670400	0.939090
N12051	N1205	0.940290	0.660340	0.929750
N12061	N1206	0.923870	0.688870	0.912370
N12071	N1207	0.871850	0.724320	0.899250
N12081	N1208	0.842380	0.748810	0.873240
N12091	N1209	0.875240	0.770090	0.901030
N12101	N1210	0.844280	0.828310	0.936030
S2411	S241	0.828120	0.663040	0.955370
S2421	S242	0.799280	0.752160	0.876540
C31471	C3147	0.969890	0.159720	0.397420
H19371	H1937	0.967300	0.147600	0.405600
C31481	C3148	0.957500	0.177420	0.400860
C31491	C3149	0.961380	0.195230	0.389280
H19381	H1938	0.953000	0.207400	0.390800
C31501	C3150	0.978100	0.194860	0.375180
H19391	H1939	0.981800	0.207100	0.367600
C31511	C3151	0.989070	0.176860	0.372420
H19401	H1940	0.000100	0.176800	0.362400
C31521	C3152	0.845330	0.147740	0.466620
C31531	C3153	0.918430	0.111480	0.486790
H19411	H1941	0.917100	0.100600	0.496800
C31541	C3154	0.936660	0.112600	0.475380
H19421	H1942	0.947800	0.103100	0.478000
C31551	C3155	0.938580	0.127790	0.459930
H19431	H1943	0.950700	0.128400	0.451300
C31561	C3156	0.922260	0.142100	0.457510
C31571	C3157	0.904720	0.140260	0.469990
H19441	H1944	0.893800	0.150200	0.468300
C31581	C3158	0.922820	0.158680	0.441230
C31591	C3159	0.939700	0.175670	0.415390
C31601	C3160	0.906840	0.185110	0.424110
C31611	C3161	0.888220	0.212320	0.403990
H19451	H1945	0.900600	0.213700	0.395800
C31621	C3162	0.888150	0.197790	0.420480
C31631	C3163	0.870400	0.195890	0.432650
H19461	H1946	0.869700	0.186000	0.443800
C31641	C3164	0.853580	0.208910	0.428080
H19471	H1947	0.841300	0.208400	0.436400
C31651	C3165	0.854890	0.222540	0.411400
H19481	H1948	0.843100	0.231100	0.408400
C31661	C3166	0.888620	0.267630	0.416990
H19491	H1949	0.898900	0.257000	0.415900
C31671	C3167	0.888340	0.279400	0.434600
H19501	H1950	0.898100	0.276900	0.445500
C31681	C3168	0.873330	0.295300	0.436400
H19511	H1951	0.872900	0.304100	0.448400
C31691	C3169	0.859240	0.297830	0.420160
C31701	C3170	0.860850	0.285020	0.402690
H19521	H1952	0.851300	0.287000	0.391500
C31711	C3171	0.843020	0.314410	0.420920
C31721	C3172	0.824780	0.250590	0.373890
N12111	N1211	0.985250	0.159040	0.383080
N12121	N1212	0.856990	0.137150	0.475540
N12131	N1213	0.902420	0.124970	0.484490
N12141	N1214	0.905820	0.170400	0.439090
N12151	N1215	0.940290	0.160340	0.429750
N12161	N1216	0.923870	0.188870	0.412370
N12171	N1217	0.871850	0.224320	0.399250
N12181	N1218	0.842380	0.248810	0.373240
N12191	N1219	0.875240	0.270090	0.401030
N12201	N1220	0.844280	0.328310	0.436030
S2431	S243	0.828120	0.163040	0.455370
S2441	S244	0.799280	0.252160	0.376540
C31731	C3173	0.469890	0.659720	0.397420
H19531	H1953	0.467300	0.647600	0.405600
C31741	C3174	0.457500	0.677420	0.400860
C31751	C3175	0.461380	0.695230	0.389280
H19541	H1954	0.453000	0.707400	0.390800
C31761	C3176	0.478100	0.694860	0.375180
H19551	H1955	0.481800	0.707100	0.367600
C31771	C3177	0.489070	0.676860	0.372420
H19561	H1956	0.500100	0.676800	0.362400
C31781	C3178	0.345330	0.647740	0.466620
C31791	C3179	0.418430	0.611480	0.486790
H19571	H1957	0.417100	0.600600	0.496800
C31801	C3180	0.436660	0.612600	0.475380
H19581	H1958	0.447800	0.603100	0.478000
C31811	C3181	0.438580	0.627790	0.459930
H19591	H1959	0.450700	0.628400	0.451300
C31821	C3182	0.422260	0.642100	0.457510
C31831	C3183	0.404720	0.640260	0.469990
H19601	H1960	0.393800	0.650200	0.468300
C31841	C3184	0.422820	0.658680	0.441230
C31851	C3185	0.439700	0.675670	0.415390
C31861	C3186	0.406840	0.685110	0.424110
C31871	C3187	0.388220	0.712320	0.403990
H19611	H1961	0.400600	0.713700	0.395800
C31881	C3188	0.388150	0.697790	0.420480
C31891	C3189	0.370400	0.695890	0.432650
H19621	H1962	0.369700	0.686000	0.443800
C31901	C3190	0.353580	0.708910	0.428080
H19631	H1963	0.341300	0.708400	0.436400
C31911	C3191	0.354890	0.722540	0.411400
H19641	H1964	0.343100	0.731100	0.408400
C31921	C3192	0.388620	0.767630	0.416990
H19651	H1965	0.398900	0.757000	0.415900
C31931	C3193	0.388340	0.779400	0.434600
H19661	H1966	0.398100	0.776900	0.445500
C31941	C3194	0.373330	0.795300	0.436400
H19671	H1967	0.372900	0.804100	0.448400
C31951	C3195	0.359240	0.797830	0.420160
C31961	C3196	0.360850	0.785020	0.402690
H19681	H1968	0.351300	0.787000	0.391500
C31971	C3197	0.343020	0.814410	0.420920
C31981	C3198	0.324780	0.750590	0.373890
N12211	N1221	0.485250	0.659040	0.383080
N12221	N1222	0.356990	0.637150	0.475540
N12231	N1223	0.402420	0.624970	0.484490
N12241	N1224	0.405820	0.670400	0.439090
N12251	N1225	0.440290	0.660340	0.429750
N12261	N1226	0.423870	0.688870	0.412370
N12271	N1227	0.371850	0.724320	0.399250
N12281	N1228	0.342380	0.748810	0.373240
N12291	N1229	0.375240	0.770090	0.401030
N12301	N1230	0.344280	0.828310	0.436030
S2451	S245	0.328120	0.663040	0.455370
S2461	S246	0.299280	0.752160	0.376540
C31991	C3199	0.469890	0.159720	0.897420
H19691	H1969	0.467300	0.147600	0.905600
C32001	C3200	0.457500	0.177420	0.900860
C32011	C3201	0.461380	0.195230	0.889280
H19701	H1970	0.453000	0.207400	0.890800
C32021	C3202	0.478100	0.194860	0.875180
H19711	H1971	0.481800	0.207100	0.867600
C32031	C3203	0.489070	0.176860	0.872420
H19721	H1972	0.500100	0.176800	0.862400
C32041	C3204	0.345330	0.147740	0.966620
C32051	C3205	0.418430	0.111480	0.986790
H19731	H1973	0.417100	0.100600	0.996800
C32061	C3206	0.436660	0.112600	0.975380
H19741	H1974	0.447800	0.103100	0.978000
C32071	C3207	0.438580	0.127790	0.959930
H19751	H1975	0.450700	0.128400	0.951300
C32081	C3208	0.422260	0.142100	0.957510
C32091	C3209	0.404720	0.140260	0.969990
H19761	H1976	0.393800	0.150200	0.968300
C32101	C3210	0.422820	0.158680	0.941230
C32111	C3211	0.439700	0.175670	0.915390
C32121	C3212	0.406840	0.185110	0.924110
C32131	C3213	0.388220	0.212320	0.903990
H19771	H1977	0.400600	0.213700	0.895800
C32141	C3214	0.388150	0.197790	0.920480
C32151	C3215	0.370400	0.195890	0.932650
H19781	H1978	0.369700	0.186000	0.943800
C32161	C3216	0.353580	0.208910	0.928080
H19791	H1979	0.341300	0.208400	0.936400
C32171	C3217	0.354890	0.222540	0.911400
H19801	H1980	0.343100	0.231100	0.908400
C32181	C3218	0.388620	0.267630	0.916990
H19811	H1981	0.398900	0.257000	0.915900
C32191	C3219	0.388340	0.279400	0.934600
H19821	H1982	0.398100	0.276900	0.945500
C32201	C3220	0.373330	0.295300	0.936400
H19831	H1983	0.372900	0.304100	0.948400
C32211	C3221	0.359240	0.297830	0.920160
C32221	C3222	0.360850	0.285020	0.902690
H19841	H1984	0.351300	0.287000	0.891500
C32231	C3223	0.343020	0.314410	0.920920
C32241	C3224	0.324780	0.250590	0.873890
N12311	N1231	0.485250	0.159040	0.883080
N12321	N1232	0.356990	0.137150	0.975540
N12331	N1233	0.402420	0.124970	0.984490
N12341	N1234	0.405820	0.170400	0.939090
N12351	N1235	0.440290	0.160340	0.929750
N12361	N1236	0.423870	0.188870	0.912370
N12371	N1237	0.371850	0.224320	0.899250
N12381	N1238	0.342380	0.248810	0.873240
N12391	N1239	0.375240	0.270090	0.901030
N12401	N1240	0.344280	0.328310	0.936030
S2471	S247	0.328120	0.163040	0.955370
S2481	S248	0.299280	0.252160	0.876540
C32251	C3225	0.469890	0.090280	0.352580
H19851	H1985	0.467300	0.102400	0.344400
C32261	C3226	0.457500	0.072580	0.349140
C32271	C3227	0.461380	0.054770	0.360720
H19861	H1986	0.453000	0.042600	0.359200
C32281	C3228	0.478100	0.055140	0.374820
H19871	H1987	0.481800	0.042900	0.382400
C32291	C3229	0.489070	0.073140	0.377580
H19881	H1988	0.500100	0.073200	0.387600
C32301	C3230	0.345330	0.102260	0.283380
C32311	C3231	0.418430	0.138520	0.263210
H19891	H1989	0.417100	0.149400	0.253200
C32321	C3232	0.436660	0.137400	0.274620
H19901	H1990	0.447800	0.146900	0.272000
C32331	C3233	0.438580	0.122210	0.290070
H19911	H1991	0.450700	0.121600	0.298700
C32341	C3234	0.422260	0.107900	0.292490
C32351	C3235	0.404720	0.109740	0.280010
H19921	H1992	0.393800	0.099800	0.281700
C32361	C3236	0.422820	0.091320	0.308770
C32371	C3237	0.439700	0.074330	0.334610
C32381	C3238	0.406840	0.064890	0.325890
C32391	C3239	0.388220	0.037680	0.346010
H19931	H1993	0.400600	0.036300	0.354200
C32401	C3240	0.388150	0.052210	0.329520
C32411	C3241	0.370400	0.054110	0.317350
H19941	H1994	0.369700	0.064000	0.306200
C32421	C3242	0.353580	0.041090	0.321920
H19951	H1995	0.341300	0.041600	0.313600
C32431	C3243	0.354890	0.027460	0.338600
H19961	H1996	0.343100	0.018900	0.341600
C32441	C3244	0.388620	0.982370	0.333010
H19971	H1997	0.398900	0.993000	0.334100
C32451	C3245	0.388340	0.970600	0.315400
H19981	H1998	0.398100	0.973100	0.304500
C32461	C3246	0.373330	0.954700	0.313600
H19991	H1999	0.372900	0.945900	0.301600
C32471	C3247	0.359240	0.952170	0.329840
C32481	C3248	0.360850	0.964980	0.347310
H20001	H2000	0.351300	0.963000	0.358500
C32491	C3249	0.343020	0.935590	0.329080
C32501	C3250	0.324780	0.999410	0.376110
N12411	N1241	0.485250	0.090960	0.366920
N12421	N1242	0.356990	0.112850	0.274460
N12431	N1243	0.402420	0.125030	0.265510
N12441	N1244	0.405820	0.079600	0.310910
N12451	N1245	0.440290	0.089660	0.320250
N12461	N1246	0.423870	0.061130	0.337630
N12471	N1247	0.371850	0.025680	0.350750
N12481	N1248	0.342380	0.001190	0.376760
N12491	N1249	0.375240	0.979910	0.348970
N12501	N1250	0.344280	0.921690	0.313970
S2491	S249	0.328120	0.086960	0.294630
S2501	S250	0.299280	0.997840	0.373460
C32511	C3251	0.469890	0.590280	0.852580
H20011	H2001	0.467300	0.602400	0.844400
C32521	C3252	0.457500	0.572580	0.849140
C32531	C3253	0.461380	0.554770	0.860720
H20021	H2002	0.453000	0.542600	0.859200
C32541	C3254	0.478100	0.555140	0.874820
H20031	H2003	0.481800	0.542900	0.882400
C32551	C3255	0.489070	0.573140	0.877580
H20041	H2004	0.500100	0.573200	0.887600
C32561	C3256	0.345330	0.602260	0.783380
C32571	C3257	0.418430	0.638520	0.763210
H20051	H2005	0.417100	0.649400	0.753200
C32581	C3258	0.436660	0.637400	0.774620
H20061	H2006	0.447800	0.646900	0.772000
C32591	C3259	0.438580	0.622210	0.790070
H20071	H2007	0.450700	0.621600	0.798700
C32601	C3260	0.422260	0.607900	0.792490
C32611	C3261	0.404720	0.609740	0.780010
H20081	H2008	0.393800	0.599800	0.781700
C32621	C3262	0.422820	0.591320	0.808770
C32631	C3263	0.439700	0.574330	0.834610
C32641	C3264	0.406840	0.564890	0.825890
C32651	C3265	0.388220	0.537680	0.846010
H20091	H2009	0.400600	0.536300	0.854200
C32661	C3266	0.388150	0.552210	0.829520
C32671	C3267	0.370400	0.554110	0.817350
H20101	H2010	0.369700	0.564000	0.806200
C32681	C3268	0.353580	0.541090	0.821920
H20111	H2011	0.341300	0.541600	0.813600
C32691	C3269	0.354890	0.527460	0.838600
H20121	H2012	0.343100	0.518900	0.841600
C32701	C3270	0.388620	0.482370	0.833010
H20131	H2013	0.398900	0.493000	0.834100
C32711	C3271	0.388340	0.470600	0.815400
H20141	H2014	0.398100	0.473100	0.804500
C32721	C3272	0.373330	0.454700	0.813600
H20151	H2015	0.372900	0.445900	0.801600
C32731	C3273	0.359240	0.452170	0.829840
C32741	C3274	0.360850	0.464980	0.847310
H20161	H2016	0.351300	0.463000	0.858500
C32751	C3275	0.343020	0.435590	0.829080
C32761	C3276	0.324780	0.499410	0.876110
N12511	N1251	0.485250	0.590960	0.866920
N12521	N1252	0.356990	0.612850	0.774460
N12531	N1253	0.402420	0.625030	0.765510
N12541	N1254	0.405820	0.579600	0.810910
N12551	N1255	0.440290	0.589660	0.820250
N12561	N1256	0.423870	0.561130	0.837630
N12571	N1257	0.371850	0.525680	0.850750
N12581	N1258	0.342380	0.501190	0.876760
N12591	N1259	0.375240	0.479910	0.848970
N12601	N1260	0.344280	0.421690	0.813970
S2511	S251	0.328120	0.586960	0.794630
S2521	S252	0.299280	0.497840	0.873460
C32771	C3277	0.969890	0.090280	0.852580
H20171	H2017	0.967300	0.102400	0.844400
C32781	C3278	0.957500	0.072580	0.849140
C32791	C3279	0.961380	0.054770	0.860720
H20181	H2018	0.953000	0.042600	0.859200
C32801	C3280	0.978100	0.055140	0.874820
H20191	H2019	0.981800	0.042900	0.882400
C32811	C3281	0.989070	0.073140	0.877580
H20201	H2020	0.000100	0.073200	0.887600
C32821	C3282	0.845330	0.102260	0.783380
C32831	C3283	0.918430	0.138520	0.763210
H20211	H2021	0.917100	0.149400	0.753200
C32841	C3284	0.936660	0.137400	0.774620
H20221	H2022	0.947800	0.146900	0.772000
C32851	C3285	0.938580	0.122210	0.790070
H20231	H2023	0.950700	0.121600	0.798700
C32861	C3286	0.922260	0.107900	0.792490
C32871	C3287	0.904720	0.109740	0.780010
H20241	H2024	0.893800	0.099800	0.781700
C32881	C3288	0.922820	0.091320	0.808770
C32891	C3289	0.939700	0.074330	0.834610
C32901	C3290	0.906840	0.064890	0.825890
C32911	C3291	0.888220	0.037680	0.846010
H20251	H2025	0.900600	0.036300	0.854200
C32921	C3292	0.888150	0.052210	0.829520
C32931	C3293	0.870400	0.054110	0.817350
H20261	H2026	0.869700	0.064000	0.806200
C32941	C3294	0.853580	0.041090	0.821920
H20271	H2027	0.841300	0.041600	0.813600
C32951	C3295	0.854890	0.027460	0.838600
H20281	H2028	0.843100	0.018900	0.841600
C32961	C3296	0.888620	0.982370	0.833010
H20291	H2029	0.898900	0.993000	0.834100
C32971	C3297	0.888340	0.970600	0.815400
H20301	H2030	0.898100	0.973100	0.804500
C32981	C3298	0.873330	0.954700	0.813600
H20311	H2031	0.872900	0.945900	0.801600
C32991	C3299	0.859240	0.952170	0.829840
C33001	C3300	0.860850	0.964980	0.847310
H20321	H2032	0.851300	0.963000	0.858500
C33011	C3301	0.843020	0.935590	0.829080
C33021	C3302	0.824780	0.999410	0.876110
N12611	N1261	0.985250	0.090960	0.866920
N12621	N1262	0.856990	0.112850	0.774460
N12631	N1263	0.902420	0.125030	0.765510
N12641	N1264	0.905820	0.079600	0.810910
N12651	N1265	0.940290	0.089660	0.820250
N12661	N1266	0.923870	0.061130	0.837630
N12671	N1267	0.871850	0.025680	0.850750
N12681	N1268	0.842380	0.001190	0.876760
N12691	N1269	0.875240	0.979910	0.848970
N12701	N1270	0.844280	0.921690	0.813970
S2531	S253	0.828120	0.086960	0.794630
S2541	S254	0.799280	0.997840	0.873460
C33031	C3303	0.969890	0.590280	0.352580
H20331	H2033	0.967300	0.602400	0.344400
C33041	C3304	0.957500	0.572580	0.349140
C33051	C3305	0.961380	0.554770	0.360720
H20341	H2034	0.953000	0.542600	0.359200
C33061	C3306	0.978100	0.555140	0.374820
H20351	H2035	0.981800	0.542900	0.382400
C33071	C3307	0.989070	0.573140	0.377580
H20361	H2036	0.000100	0.573200	0.387600
C33081	C3308	0.845330	0.602260	0.283380
C33091	C3309	0.918430	0.638520	0.263210
H20371	H2037	0.917100	0.649400	0.253200
C33101	C3310	0.936660	0.637400	0.274620
H20381	H2038	0.947800	0.646900	0.272000
C33111	C3311	0.938580	0.622210	0.290070
H20391	H2039	0.950700	0.621600	0.298700
C33121	C3312	0.922260	0.607900	0.292490
C33131	C3313	0.904720	0.609740	0.280010
H20401	H2040	0.893800	0.599800	0.281700
C33141	C3314	0.922820	0.591320	0.308770
C33151	C3315	0.939700	0.574330	0.334610
C33161	C3316	0.906840	0.564890	0.325890
C33171	C3317	0.888220	0.537680	0.346010
H20411	H2041	0.900600	0.536300	0.354200
C33181	C3318	0.888150	0.552210	0.329520
C33191	C3319	0.870400	0.554110	0.317350
H20421	H2042	0.869700	0.564000	0.306200
C33201	C3320	0.853580	0.541090	0.321920
H20431	H2043	0.841300	0.541600	0.313600
C33211	C3321	0.854890	0.527460	0.338600
H20441	H2044	0.843100	0.518900	0.341600
C33221	C3322	0.888620	0.482370	0.333010
H20451	H2045	0.898900	0.493000	0.334100
C33231	C3323	0.888340	0.470600	0.315400
H20461	H2046	0.898100	0.473100	0.304500
C33241	C3324	0.873330	0.454700	0.313600
H20471	H2047	0.872900	0.445900	0.301600
C33251	C3325	0.859240	0.452170	0.329840
C33261	C3326	0.860850	0.464980	0.347310
H20481	H2048	0.851300	0.463000	0.358500
C33271	C3327	0.843020	0.435590	0.329080
C33281	C3328	0.824780	0.499410	0.376110
N12711	N1271	0.985250	0.590960	0.366920
N12721	N1272	0.856990	0.612850	0.274460
N12731	N1273	0.902420	0.625030	0.265510
N12741	N1274	0.905820	0.579600	0.310910
N12751	N1275	0.940290	0.589660	0.320250
N12761	N1276	0.923870	0.561130	0.337630
N12771	N1277	0.871850	0.525680	0.350750
N12781	N1278	0.842380	0.501190	0.376760
N12791	N1279	0.875240	0.479910	0.348970
N12801	N1280	0.844280	0.421690	0.313970
S2551	S255	0.828120	0.586960	0.294630
S2561	S256	0.799280	0.497840	0.373460
C33291	C3329	0.397420	0.780110	0.590280
H20491	H2049	0.405600	0.782700	0.602400
C33301	C3330	0.400860	0.792500	0.572580
C33311	C3331	0.389280	0.788620	0.554770
H20501	H2050	0.390800	0.797000	0.542600
C33321	C3332	0.375180	0.771900	0.555140
H20511	H2051	0.367600	0.768200	0.542900
C33331	C3333	0.372420	0.760930	0.573140
H20521	H2052	0.362400	0.749900	0.573200
C33341	C3334	0.466620	0.904670	0.602260
C33351	C3335	0.486790	0.831570	0.638520
H20531	H2053	0.496800	0.832900	0.649400
C33361	C3336	0.475380	0.813340	0.637400
H20541	H2054	0.478000	0.802200	0.646900
C33371	C3337	0.459930	0.811420	0.622210
H20551	H2055	0.451300	0.799300	0.621600
C33381	C3338	0.457510	0.827740	0.607900
C33391	C3339	0.469990	0.845280	0.609740
H20561	H2056	0.468300	0.856200	0.599800
C33401	C3340	0.441230	0.827180	0.591320
C33411	C3341	0.415390	0.810300	0.574330
C33421	C3342	0.424110	0.843160	0.564890
C33431	C3343	0.403990	0.861780	0.537680
H20571	H2057	0.395800	0.849400	0.536300
C33441	C3344	0.420480	0.861850	0.552210
C33451	C3345	0.432650	0.879600	0.554110
H20581	H2058	0.443800	0.880300	0.564000
C33461	C3346	0.428080	0.896420	0.541090
H20591	H2059	0.436400	0.908700	0.541600
C33471	C3347	0.411400	0.895110	0.527460
H20601	H2060	0.408400	0.906900	0.518900
C33481	C3348	0.416990	0.861380	0.482370
H20611	H2061	0.415900	0.851100	0.493000
C33491	C3349	0.434600	0.861660	0.470600
H20621	H2062	0.445500	0.851900	0.473100
C33501	C3350	0.436400	0.876670	0.454700
H20631	H2063	0.448400	0.877100	0.445900
C33511	C3351	0.420160	0.890760	0.452170
C33521	C3352	0.402690	0.889150	0.464980
H20641	H2064	0.391500	0.898700	0.463000
C33531	C3353	0.420920	0.906980	0.435590
C33541	C3354	0.373890	0.925220	0.499410
N12811	N1281	0.383080	0.764750	0.590960
N12821	N1282	0.475540	0.893010	0.612850
N12831	N1283	0.484490	0.847580	0.625030
N12841	N1284	0.439090	0.844180	0.579600
N12851	N1285	0.429750	0.809710	0.589660
N12861	N1286	0.412370	0.826130	0.561130
N12871	N1287	0.399250	0.878150	0.525680
N12881	N1288	0.373240	0.907620	0.501190
N12891	N1289	0.401030	0.874760	0.479910
N12901	N1290	0.436030	0.905720	0.421690
S2571	S257	0.455370	0.921880	0.586960
S2581	S258	0.376540	0.950720	0.497840
C33551	C3355	0.397420	0.280110	0.090280
H20651	H2065	0.405600	0.282700	0.102400
C33561	C3356	0.400860	0.292500	0.072580
C33571	C3357	0.389280	0.288620	0.054770
H20661	H2066	0.390800	0.297000	0.042600
C33581	C3358	0.375180	0.271900	0.055140
H20671	H2067	0.367600	0.268200	0.042900
C33591	C3359	0.372420	0.260930	0.073140
H20681	H2068	0.362400	0.249900	0.073200
C33601	C3360	0.466620	0.404670	0.102260
C33611	C3361	0.486790	0.331570	0.138520
H20691	H2069	0.496800	0.332900	0.149400
C33621	C3362	0.475380	0.313340	0.137400
H20701	H2070	0.478000	0.302200	0.146900
C33631	C3363	0.459930	0.311420	0.122210
H20711	H2071	0.451300	0.299300	0.121600
C33641	C3364	0.457510	0.327740	0.107900
C33651	C3365	0.469990	0.345280	0.109740
H20721	H2072	0.468300	0.356200	0.099800
C33661	C3366	0.441230	0.327180	0.091320
C33671	C3367	0.415390	0.310300	0.074330
C33681	C3368	0.424110	0.343160	0.064890
C33691	C3369	0.403990	0.361780	0.037680
H20731	H2073	0.395800	0.349400	0.036300
C33701	C3370	0.420480	0.361850	0.052210
C33711	C3371	0.432650	0.379600	0.054110
H20741	H2074	0.443800	0.380300	0.064000
C33721	C3372	0.428080	0.396420	0.041090
H20751	H2075	0.436400	0.408700	0.041600
C33731	C3373	0.411400	0.395110	0.027460
H20761	H2076	0.408400	0.406900	0.018900
C33741	C3374	0.416990	0.361380	0.982370
H20771	H2077	0.415900	0.351100	0.993000
C33751	C3375	0.434600	0.361660	0.970600
H20781	H2078	0.445500	0.351900	0.973100
C33761	C3376	0.436400	0.376670	0.954700
H20791	H2079	0.448400	0.377100	0.945900
C33771	C3377	0.420160	0.390760	0.952170
C33781	C3378	0.402690	0.389150	0.964980
H20801	H2080	0.391500	0.398700	0.963000
C33791	C3379	0.420920	0.406980	0.935590
C33801	C3380	0.373890	0.425220	0.999410
N12911	N1291	0.383080	0.264750	0.090960
N12921	N1292	0.475540	0.393010	0.112850
N12931	N1293	0.484490	0.347580	0.125030
N12941	N1294	0.439090	0.344180	0.079600
N12951	N1295	0.429750	0.309710	0.089660
N12961	N1296	0.412370	0.326130	0.061130
N12971	N1297	0.399250	0.378150	0.025680
N12981	N1298	0.373240	0.407620	0.001190
N12991	N1299	0.401030	0.374760	0.979910
N13001	N1300	0.436030	0.405720	0.921690
S2591	S259	0.455370	0.421880	0.086960
S2601	S260	0.376540	0.450720	0.997840
C33811	C3381	0.897420	0.780110	0.090280
H20811	H2081	0.905600	0.782700	0.102400
C33821	C3382	0.900860	0.792500	0.072580
C33831	C3383	0.889280	0.788620	0.054770
H20821	H2082	0.890800	0.797000	0.042600
C33841	C3384	0.875180	0.771900	0.055140
H20831	H2083	0.867600	0.768200	0.042900
C33851	C3385	0.872420	0.760930	0.073140
H20841	H2084	0.862400	0.749900	0.073200
C33861	C3386	0.966620	0.904670	0.102260
C33871	C3387	0.986790	0.831570	0.138520
H20851	H2085	0.996800	0.832900	0.149400
C33881	C3388	0.975380	0.813340	0.137400
H20861	H2086	0.978000	0.802200	0.146900
C33891	C3389	0.959930	0.811420	0.122210
H20871	H2087	0.951300	0.799300	0.121600
C33901	C3390	0.957510	0.827740	0.107900
C33911	C3391	0.969990	0.845280	0.109740
H20881	H2088	0.968300	0.856200	0.099800
C33921	C3392	0.941230	0.827180	0.091320
C33931	C3393	0.915390	0.810300	0.074330
C33941	C3394	0.924110	0.843160	0.064890
C33951	C3395	0.903990	0.861780	0.037680
H20891	H2089	0.895800	0.849400	0.036300
C33961	C3396	0.920480	0.861850	0.052210
C33971	C3397	0.932650	0.879600	0.054110
H20901	H2090	0.943800	0.880300	0.064000
C33981	C3398	0.928080	0.896420	0.041090
H20911	H2091	0.936400	0.908700	0.041600
C33991	C3399	0.911400	0.895110	0.027460
H20921	H2092	0.908400	0.906900	0.018900
C34001	C3400	0.916990	0.861380	0.982370
H20931	H2093	0.915900	0.851100	0.993000
C34011	C3401	0.934600	0.861660	0.970600
H20941	H2094	0.945500	0.851900	0.973100
C34021	C3402	0.936400	0.876670	0.954700
H20951	H2095	0.948400	0.877100	0.945900
C34031	C3403	0.920160	0.890760	0.952170
C34041	C3404	0.902690	0.889150	0.964980
H20961	H2096	0.891500	0.898700	0.963000
C34051	C3405	0.920920	0.906980	0.935590
C34061	C3406	0.873890	0.925220	0.999410
N13011	N1301	0.883080	0.764750	0.090960
N13021	N1302	0.975540	0.893010	0.112850
N13031	N1303	0.984490	0.847580	0.125030
N13041	N1304	0.939090	0.844180	0.079600
N13051	N1305	0.929750	0.809710	0.089660
N13061	N1306	0.912370	0.826130	0.061130
N13071	N1307	0.899250	0.878150	0.025680
N13081	N1308	0.873240	0.907620	0.001190
N13091	N1309	0.901030	0.874760	0.979910
N13101	N1310	0.936030	0.905720	0.921690
S2611	S261	0.955370	0.921880	0.086960
S2621	S262	0.876540	0.950720	0.997840
C34071	C3407	0.897420	0.280110	0.590280
H20971	H2097	0.905600	0.282700	0.602400
C34081	C3408	0.900860	0.292500	0.572580
C34091	C3409	0.889280	0.288620	0.554770
H20981	H2098	0.890800	0.297000	0.542600
C34101	C3410	0.875180	0.271900	0.555140
H20991	H2099	0.867600	0.268200	0.542900
C34111	C3411	0.872420	0.260930	0.573140
H21001	H2100	0.862400	0.249900	0.573200
C34121	C3412	0.966620	0.404670	0.602260
C34131	C3413	0.986790	0.331570	0.638520
H21011	H2101	0.996800	0.332900	0.649400
C34141	C3414	0.975380	0.313340	0.637400
H21021	H2102	0.978000	0.302200	0.646900
C34151	C3415	0.959930	0.311420	0.622210
H21031	H2103	0.951300	0.299300	0.621600
C34161	C3416	0.957510	0.327740	0.607900
C34171	C3417	0.969990	0.345280	0.609740
H21041	H2104	0.968300	0.356200	0.599800
C34181	C3418	0.941230	0.327180	0.591320
C34191	C3419	0.915390	0.310300	0.574330
C34201	C3420	0.924110	0.343160	0.564890
C34211	C3421	0.903990	0.361780	0.537680
H21051	H2105	0.895800	0.349400	0.536300
C34221	C3422	0.920480	0.361850	0.552210
C34231	C3423	0.932650	0.379600	0.554110
H21061	H2106	0.943800	0.380300	0.564000
C34241	C3424	0.928080	0.396420	0.541090
H21071	H2107	0.936400	0.408700	0.541600
C34251	C3425	0.911400	0.395110	0.527460
H21081	H2108	0.908400	0.406900	0.518900
C34261	C3426	0.916990	0.361380	0.482370
H21091	H2109	0.915900	0.351100	0.493000
C34271	C3427	0.934600	0.361660	0.470600
H21101	H2110	0.945500	0.351900	0.473100
C34281	C3428	0.936400	0.376670	0.454700
H21111	H2111	0.948400	0.377100	0.445900
C34291	C3429	0.920160	0.390760	0.452170
C34301	C3430	0.902690	0.389150	0.464980
H21121	H2112	0.891500	0.398700	0.463000
C34311	C3431	0.920920	0.406980	0.435590
C34321	C3432	0.873890	0.425220	0.499410
N13111	N1311	0.883080	0.264750	0.590960
N13121	N1312	0.975540	0.393010	0.612850
N13131	N1313	0.984490	0.347580	0.625030
N13141	N1314	0.939090	0.344180	0.579600
N13151	N1315	0.929750	0.309710	0.589660
N13161	N1316	0.912370	0.326130	0.561130
N13171	N1317	0.899250	0.378150	0.525680
N13181	N1318	0.873240	0.407620	0.501190
N13191	N1319	0.901030	0.374760	0.479910
N13201	N1320	0.936030	0.405720	0.421690
S2631	S263	0.955370	0.421880	0.586960
S2641	S264	0.876540	0.450720	0.497840
C34331	C3433	0.852580	0.280110	0.159720
H21131	H2113	0.844400	0.282700	0.147600
C34341	C3434	0.849140	0.292500	0.177420
C34351	C3435	0.860720	0.288620	0.195230
H21141	H2114	0.859200	0.297000	0.207400
C34361	C3436	0.874820	0.271900	0.194860
H21151	H2115	0.882400	0.268200	0.207100
C34371	C3437	0.877580	0.260930	0.176860
H21161	H2116	0.887600	0.249900	0.176800
C34381	C3438	0.783380	0.404670	0.147740
C34391	C3439	0.763210	0.331570	0.111480
H21171	H2117	0.753200	0.332900	0.100600
C34401	C3440	0.774620	0.313340	0.112600
H21181	H2118	0.772000	0.302200	0.103100
C34411	C3441	0.790070	0.311420	0.127790
H21191	H2119	0.798700	0.299300	0.128400
C34421	C3442	0.792490	0.327740	0.142100
C34431	C3443	0.780010	0.345280	0.140260
H21201	H2120	0.781700	0.356200	0.150200
C34441	C3444	0.808770	0.327180	0.158680
C34451	C3445	0.834610	0.310300	0.175670
C34461	C3446	0.825890	0.343160	0.185110
C34471	C3447	0.846010	0.361780	0.212320
H21211	H2121	0.854200	0.349400	0.213700
C34481	C3448	0.829520	0.361850	0.197790
C34491	C3449	0.817350	0.379600	0.195890
H21221	H2122	0.806200	0.380300	0.186000
C34501	C3450	0.821920	0.396420	0.208910
H21231	H2123	0.813600	0.408700	0.208400
C34511	C3451	0.838600	0.395110	0.222540
H21241	H2124	0.841600	0.406900	0.231100
C34521	C3452	0.833010	0.361380	0.267630
H21251	H2125	0.834100	0.351100	0.257000
C34531	C3453	0.815400	0.361660	0.279400
H21261	H2126	0.804500	0.351900	0.276900
C34541	C3454	0.813600	0.376670	0.295300
H21271	H2127	0.801600	0.377100	0.304100
C34551	C3455	0.829840	0.390760	0.297830
C34561	C3456	0.847310	0.389150	0.285020
H21281	H2128	0.858500	0.398700	0.287000
C34571	C3457	0.829080	0.406980	0.314410
C34581	C3458	0.876110	0.425220	0.250590
N13211	N1321	0.866920	0.264750	0.159040
N13221	N1322	0.774460	0.393010	0.137150
N13231	N1323	0.765510	0.347580	0.124970
N13241	N1324	0.810910	0.344180	0.170400
N13251	N1325	0.820250	0.309710	0.160340
N13261	N1326	0.837630	0.326130	0.188870
N13271	N1327	0.850750	0.378150	0.224320
N13281	N1328	0.876760	0.407620	0.248810
N13291	N1329	0.848970	0.374760	0.270090
N13301	N1330	0.813970	0.405720	0.328310
S2651	S265	0.794630	0.421880	0.163040
S2661	S266	0.873460	0.450720	0.252160
C34591	C3459	0.852580	0.780110	0.659720
H21291	H2129	0.844400	0.782700	0.647600
C34601	C3460	0.849140	0.792500	0.677420
C34611	C3461	0.860720	0.788620	0.695230
H21301	H2130	0.859200	0.797000	0.707400
C34621	C3462	0.874820	0.771900	0.694860
H21311	H2131	0.882400	0.768200	0.707100
C34631	C3463	0.877580	0.760930	0.676860
H21321	H2132	0.887600	0.749900	0.676800
C34641	C3464	0.783380	0.904670	0.647740
C34651	C3465	0.763210	0.831570	0.611480
H21331	H2133	0.753200	0.832900	0.600600
C34661	C3466	0.774620	0.813340	0.612600
H21341	H2134	0.772000	0.802200	0.603100
C34671	C3467	0.790070	0.811420	0.627790
H21351	H2135	0.798700	0.799300	0.628400
C34681	C3468	0.792490	0.827740	0.642100
C34691	C3469	0.780010	0.845280	0.640260
H21361	H2136	0.781700	0.856200	0.650200
C34701	C3470	0.808770	0.827180	0.658680
C34711	C3471	0.834610	0.810300	0.675670
C34721	C3472	0.825890	0.843160	0.685110
C34731	C3473	0.846010	0.861780	0.712320
H21371	H2137	0.854200	0.849400	0.713700
C34741	C3474	0.829520	0.861850	0.697790
C34751	C3475	0.817350	0.879600	0.695890
H21381	H2138	0.806200	0.880300	0.686000
C34761	C3476	0.821920	0.896420	0.708910
H21391	H2139	0.813600	0.908700	0.708400
C34771	C3477	0.838600	0.895110	0.722540
H21401	H2140	0.841600	0.906900	0.731100
C34781	C3478	0.833010	0.861380	0.767630
H21411	H2141	0.834100	0.851100	0.757000
C34791	C3479	0.815400	0.861660	0.779400
H21421	H2142	0.804500	0.851900	0.776900
C34801	C3480	0.813600	0.876670	0.795300
H21431	H2143	0.801600	0.877100	0.804100
C34811	C3481	0.829840	0.890760	0.797830
C34821	C3482	0.847310	0.889150	0.785020
H21441	H2144	0.858500	0.898700	0.787000
C34831	C3483	0.829080	0.906980	0.814410
C34841	C3484	0.876110	0.925220	0.750590
N13311	N1331	0.866920	0.764750	0.659040
N13321	N1332	0.774460	0.893010	0.637150
N13331	N1333	0.765510	0.847580	0.624970
N13341	N1334	0.810910	0.844180	0.670400
N13351	N1335	0.820250	0.809710	0.660340
N13361	N1336	0.837630	0.826130	0.688870
N13371	N1337	0.850750	0.878150	0.724320
N13381	N1338	0.876760	0.907620	0.748810
N13391	N1339	0.848970	0.874760	0.770090
N13401	N1340	0.813970	0.905720	0.828310
S2671	S267	0.794630	0.921880	0.663040
S2681	S268	0.873460	0.950720	0.752160
C34851	C3485	0.352580	0.280110	0.659720
H21451	H2145	0.344400	0.282700	0.647600
C34861	C3486	0.349140	0.292500	0.677420
C34871	C3487	0.360720	0.288620	0.695230
H21461	H2146	0.359200	0.297000	0.707400
C34881	C3488	0.374820	0.271900	0.694860
H21471	H2147	0.382400	0.268200	0.707100
C34891	C3489	0.377580	0.260930	0.676860
H21481	H2148	0.387600	0.249900	0.676800
C34901	C3490	0.283380	0.404670	0.647740
C34911	C3491	0.263210	0.331570	0.611480
H21491	H2149	0.253200	0.332900	0.600600
C34921	C3492	0.274620	0.313340	0.612600
H21501	H2150	0.272000	0.302200	0.603100
C34931	C3493	0.290070	0.311420	0.627790
H21511	H2151	0.298700	0.299300	0.628400
C34941	C3494	0.292490	0.327740	0.642100
C34951	C3495	0.280010	0.345280	0.640260
H21521	H2152	0.281700	0.356200	0.650200
C34961	C3496	0.308770	0.327180	0.658680
C34971	C3497	0.334610	0.310300	0.675670
C34981	C3498	0.325890	0.343160	0.685110
C34991	C3499	0.346010	0.361780	0.712320
H21531	H2153	0.354200	0.349400	0.713700
C35001	C3500	0.329520	0.361850	0.697790
C35011	C3501	0.317350	0.379600	0.695890
H21541	H2154	0.306200	0.380300	0.686000
C35021	C3502	0.321920	0.396420	0.708910
H21551	H2155	0.313600	0.408700	0.708400
C35031	C3503	0.338600	0.395110	0.722540
H21561	H2156	0.341600	0.406900	0.731100
C35041	C3504	0.333010	0.361380	0.767630
H21571	H2157	0.334100	0.351100	0.757000
C35051	C3505	0.315400	0.361660	0.779400
H21581	H2158	0.304500	0.351900	0.776900
C35061	C3506	0.313600	0.376670	0.795300
H21591	H2159	0.301600	0.377100	0.804100
C35071	C3507	0.329840	0.390760	0.797830
C35081	C3508	0.347310	0.389150	0.785020
H21601	H2160	0.358500	0.398700	0.787000
C35091	C3509	0.329080	0.406980	0.814410
C35101	C3510	0.376110	0.425220	0.750590
N13411	N1341	0.366920	0.264750	0.659040
N13421	N1342	0.274460	0.393010	0.637150
N13431	N1343	0.265510	0.347580	0.624970
N13441	N1344	0.310910	0.344180	0.670400
N13451	N1345	0.320250	0.309710	0.660340
N13461	N1346	0.337630	0.326130	0.688870
N13471	N1347	0.350750	0.378150	0.724320
N13481	N1348	0.376760	0.407620	0.748810
N13491	N1349	0.348970	0.374760	0.770090
N13501	N1350	0.313970	0.405720	0.828310
S2691	S269	0.294630	0.421880	0.663040
S2701	S270	0.373460	0.450720	0.752160
C35111	C3511	0.352580	0.780110	0.159720
H21611	H2161	0.344400	0.782700	0.147600
C35121	C3512	0.349140	0.792500	0.177420
C35131	C3513	0.360720	0.788620	0.195230
H21621	H2162	0.359200	0.797000	0.207400
C35141	C3514	0.374820	0.771900	0.194860
H21631	H2163	0.382400	0.768200	0.207100
C35151	C3515	0.377580	0.760930	0.176860
H21641	H2164	0.387600	0.749900	0.176800
C35161	C3516	0.283380	0.904670	0.147740
C35171	C3517	0.263210	0.831570	0.111480
H21651	H2165	0.253200	0.832900	0.100600
C35181	C3518	0.274620	0.813340	0.112600
H21661	H2166	0.272000	0.802200	0.103100
C35191	C3519	0.290070	0.811420	0.127790
H21671	H2167	0.298700	0.799300	0.128400
C35201	C3520	0.292490	0.827740	0.142100
C35211	C3521	0.280010	0.845280	0.140260
H21681	H2168	0.281700	0.856200	0.150200
C35221	C3522	0.308770	0.827180	0.158680
C35231	C3523	0.334610	0.810300	0.175670
C35241	C3524	0.325890	0.843160	0.185110
C35251	C3525	0.346010	0.861780	0.212320
H21691	H2169	0.354200	0.849400	0.213700
C35261	C3526	0.329520	0.861850	0.197790
C35271	C3527	0.317350	0.879600	0.195890
H21701	H2170	0.306200	0.880300	0.186000
C35281	C3528	0.321920	0.896420	0.208910
H21711	H2171	0.313600	0.908700	0.208400
C35291	C3529	0.338600	0.895110	0.222540
H21721	H2172	0.341600	0.906900	0.231100
C35301	C3530	0.333010	0.861380	0.267630
H21731	H2173	0.334100	0.851100	0.257000
C35311	C3531	0.315400	0.861660	0.279400
H21741	H2174	0.304500	0.851900	0.276900
C35321	C3532	0.313600	0.876670	0.295300
H21751	H2175	0.301600	0.877100	0.304100
C35331	C3533	0.329840	0.890760	0.297830
C35341	C3534	0.347310	0.889150	0.285020
H21761	H2176	0.358500	0.898700	0.287000
C35351	C3535	0.329080	0.906980	0.314410
C35361	C3536	0.376110	0.925220	0.250590
N13511	N1351	0.366920	0.764750	0.159040
N13521	N1352	0.274460	0.893010	0.137150
N13531	N1353	0.265510	0.847580	0.124970
N13541	N1354	0.310910	0.844180	0.170400
N13551	N1355	0.320250	0.809710	0.160340
N13561	N1356	0.337630	0.826130	0.188870
N13571	N1357	0.350750	0.878150	0.224320
N13581	N1358	0.376760	0.907620	0.248810
N13591	N1359	0.348970	0.874760	0.270090
N13601	N1360	0.313970	0.905720	0.328310
S2711	S271	0.294630	0.921880	0.163040
S2721	S272	0.373460	0.950720	0.252160
C35371	C3537	0.897420	0.969890	0.659720
H21771	H2177	0.905600	0.967300	0.647600
C35381	C3538	0.900860	0.957500	0.677420
C35391	C3539	0.889280	0.961380	0.695230
H21781	H2178	0.890800	0.953000	0.707400
C35401	C3540	0.875180	0.978100	0.694860
H21791	H2179	0.867600	0.981800	0.707100
C35411	C3541	0.872420	0.989070	0.676860
H21801	H2180	0.862400	0.000100	0.676800
C35421	C3542	0.966620	0.845330	0.647740
C35431	C3543	0.986790	0.918430	0.611480
H21811	H2181	0.996800	0.917100	0.600600
C35441	C3544	0.975380	0.936660	0.612600
H21821	H2182	0.978000	0.947800	0.603100
C35451	C3545	0.959930	0.938580	0.627790
H21831	H2183	0.951300	0.950700	0.628400
C35461	C3546	0.957510	0.922260	0.642100
C35471	C3547	0.969990	0.904720	0.640260
H21841	H2184	0.968300	0.893800	0.650200
C35481	C3548	0.941230	0.922820	0.658680
C35491	C3549	0.915390	0.939700	0.675670
C35501	C3550	0.924110	0.906840	0.685110
C35511	C3551	0.903990	0.888220	0.712320
H21851	H2185	0.895800	0.900600	0.713700
C35521	C3552	0.920480	0.888150	0.697790
C35531	C3553	0.932650	0.870400	0.695890
H21861	H2186	0.943800	0.869700	0.686000
C35541	C3554	0.928080	0.853580	0.708910
H21871	H2187	0.936400	0.841300	0.708400
C35551	C3555	0.911400	0.854890	0.722540
H21881	H2188	0.908400	0.843100	0.731100
C35561	C3556	0.916990	0.888620	0.767630
H21891	H2189	0.915900	0.898900	0.757000
C35571	C3557	0.934600	0.888340	0.779400
H21901	H2190	0.945500	0.898100	0.776900
C35581	C3558	0.936400	0.873330	0.795300
H21911	H2191	0.948400	0.872900	0.804100
C35591	C3559	0.920160	0.859240	0.797830
C35601	C3560	0.902690	0.860850	0.785020
H21921	H2192	0.891500	0.851300	0.787000
C35611	C3561	0.920920	0.843020	0.814410
C35621	C3562	0.873890	0.824780	0.750590
N13611	N1361	0.883080	0.985250	0.659040
N13621	N1362	0.975540	0.856990	0.637150
N13631	N1363	0.984490	0.902420	0.624970
N13641	N1364	0.939090	0.905820	0.670400
N13651	N1365	0.929750	0.940290	0.660340
N13661	N1366	0.912370	0.923870	0.688870
N13671	N1367	0.899250	0.871850	0.724320
N13681	N1368	0.873240	0.842380	0.748810
N13691	N1369	0.901030	0.875240	0.770090
N13701	N1370	0.936030	0.844280	0.828310
S2731	S273	0.955370	0.828120	0.663040
S2741	S274	0.876540	0.799280	0.752160
C35631	C3563	0.897420	0.469890	0.159720
H21931	H2193	0.905600	0.467300	0.147600
C35641	C3564	0.900860	0.457500	0.177420
C35651	C3565	0.889280	0.461380	0.195230
H21941	H2194	0.890800	0.453000	0.207400
C35661	C3566	0.875180	0.478100	0.194860
H21951	H2195	0.867600	0.481800	0.207100
C35671	C3567	0.872420	0.489070	0.176860
H21961	H2196	0.862400	0.500100	0.176800
C35681	C3568	0.966620	0.345330	0.147740
C35691	C3569	0.986790	0.418430	0.111480
H21971	H2197	0.996800	0.417100	0.100600
C35701	C3570	0.975380	0.436660	0.112600
H21981	H2198	0.978000	0.447800	0.103100
C35711	C3571	0.959930	0.438580	0.127790
H21991	H2199	0.951300	0.450700	0.128400
C35721	C3572	0.957510	0.422260	0.142100
C35731	C3573	0.969990	0.404720	0.140260
H22001	H2200	0.968300	0.393800	0.150200
C35741	C3574	0.941230	0.422820	0.158680
C35751	C3575	0.915390	0.439700	0.175670
C35761	C3576	0.924110	0.406840	0.185110
C35771	C3577	0.903990	0.388220	0.212320
H22011	H2201	0.895800	0.400600	0.213700
C35781	C3578	0.920480	0.388150	0.197790
C35791	C3579	0.932650	0.370400	0.195890
H22021	H2202	0.943800	0.369700	0.186000
C35801	C3580	0.928080	0.353580	0.208910
H22031	H2203	0.936400	0.341300	0.208400
C35811	C3581	0.911400	0.354890	0.222540
H22041	H2204	0.908400	0.343100	0.231100
C35821	C3582	0.916990	0.388620	0.267630
H22051	H2205	0.915900	0.398900	0.257000
C35831	C3583	0.934600	0.388340	0.279400
H22061	H2206	0.945500	0.398100	0.276900
C35841	C3584	0.936400	0.373330	0.295300
H22071	H2207	0.948400	0.372900	0.304100
C35851	C3585	0.920160	0.359240	0.297830
C35861	C3586	0.902690	0.360850	0.285020
H22081	H2208	0.891500	0.351300	0.287000
C35871	C3587	0.920920	0.343020	0.314410
C35881	C3588	0.873890	0.324780	0.250590
N13711	N1371	0.883080	0.485250	0.159040
N13721	N1372	0.975540	0.356990	0.137150
N13731	N1373	0.984490	0.402420	0.124970
N13741	N1374	0.939090	0.405820	0.170400
N13751	N1375	0.929750	0.440290	0.160340
N13761	N1376	0.912370	0.423870	0.188870
N13771	N1377	0.899250	0.371850	0.224320
N13781	N1378	0.873240	0.342380	0.248810
N13791	N1379	0.901030	0.375240	0.270090
N13801	N1380	0.936030	0.344280	0.328310
S2751	S275	0.955370	0.328120	0.163040
S2761	S276	0.876540	0.299280	0.252160
C35891	C3589	0.397420	0.969890	0.159720
H22091	H2209	0.405600	0.967300	0.147600
C35901	C3590	0.400860	0.957500	0.177420
C35911	C3591	0.389280	0.961380	0.195230
H22101	H2210	0.390800	0.953000	0.207400
C35921	C3592	0.375180	0.978100	0.194860
H22111	H2211	0.367600	0.981800	0.207100
C35931	C3593	0.372420	0.989070	0.176860
H22121	H2212	0.362400	0.000100	0.176800
C35941	C3594	0.466620	0.845330	0.147740
C35951	C3595	0.486790	0.918430	0.111480
H22131	H2213	0.496800	0.917100	0.100600
C35961	C3596	0.475380	0.936660	0.112600
H22141	H2214	0.478000	0.947800	0.103100
C35971	C3597	0.459930	0.938580	0.127790
H22151	H2215	0.451300	0.950700	0.128400
C35981	C3598	0.457510	0.922260	0.142100
C35991	C3599	0.469990	0.904720	0.140260
H22161	H2216	0.468300	0.893800	0.150200
C36001	C3600	0.441230	0.922820	0.158680
C36011	C3601	0.415390	0.939700	0.175670
C36021	C3602	0.424110	0.906840	0.185110
C36031	C3603	0.403990	0.888220	0.212320
H22171	H2217	0.395800	0.900600	0.213700
C36041	C3604	0.420480	0.888150	0.197790
C36051	C3605	0.432650	0.870400	0.195890
H22181	H2218	0.443800	0.869700	0.186000
C36061	C3606	0.428080	0.853580	0.208910
H22191	H2219	0.436400	0.841300	0.208400
C36071	C3607	0.411400	0.854890	0.222540
H22201	H2220	0.408400	0.843100	0.231100
C36081	C3608	0.416990	0.888620	0.267630
H22211	H2221	0.415900	0.898900	0.257000
C36091	C3609	0.434600	0.888340	0.279400
H22221	H2222	0.445500	0.898100	0.276900
C36101	C3610	0.436400	0.873330	0.295300
H22231	H2223	0.448400	0.872900	0.304100
C36111	C3611	0.420160	0.859240	0.297830
C36121	C3612	0.402690	0.860850	0.285020
H22241	H2224	0.391500	0.851300	0.287000
C36131	C3613	0.420920	0.843020	0.314410
C36141	C3614	0.373890	0.824780	0.250590
N13811	N1381	0.383080	0.985250	0.159040
N13821	N1382	0.475540	0.856990	0.137150
N13831	N1383	0.484490	0.902420	0.124970
N13841	N1384	0.439090	0.905820	0.170400
N13851	N1385	0.429750	0.940290	0.160340
N13861	N1386	0.412370	0.923870	0.188870
N13871	N1387	0.399250	0.871850	0.224320
N13881	N1388	0.373240	0.842380	0.248810
N13891	N1389	0.401030	0.875240	0.270090
N13901	N1390	0.436030	0.844280	0.328310
S2771	S277	0.455370	0.828120	0.163040
S2781	S278	0.376540	0.799280	0.252160
C36151	C3615	0.397420	0.469890	0.659720
H22251	H2225	0.405600	0.467300	0.647600
C36161	C3616	0.400860	0.457500	0.677420
C36171	C3617	0.389280	0.461380	0.695230
H22261	H2226	0.390800	0.453000	0.707400
C36181	C3618	0.375180	0.478100	0.694860
H22271	H2227	0.367600	0.481800	0.707100
C36191	C3619	0.372420	0.489070	0.676860
H22281	H2228	0.362400	0.500100	0.676800
C36201	C3620	0.466620	0.345330	0.647740
C36211	C3621	0.486790	0.418430	0.611480
H22291	H2229	0.496800	0.417100	0.600600
C36221	C3622	0.475380	0.436660	0.612600
H22301	H2230	0.478000	0.447800	0.603100
C36231	C3623	0.459930	0.438580	0.627790
H22311	H2231	0.451300	0.450700	0.628400
C36241	C3624	0.457510	0.422260	0.642100
C36251	C3625	0.469990	0.404720	0.640260
H22321	H2232	0.468300	0.393800	0.650200
C36261	C3626	0.441230	0.422820	0.658680
C36271	C3627	0.415390	0.439700	0.675670
C36281	C3628	0.424110	0.406840	0.685110
C36291	C3629	0.403990	0.388220	0.712320
H22331	H2233	0.395800	0.400600	0.713700
C36301	C3630	0.420480	0.388150	0.697790
C36311	C3631	0.432650	0.370400	0.695890
H22341	H2234	0.443800	0.369700	0.686000
C36321	C3632	0.428080	0.353580	0.708910
H22351	H2235	0.436400	0.341300	0.708400
C36331	C3633	0.411400	0.354890	0.722540
H22361	H2236	0.408400	0.343100	0.731100
C36341	C3634	0.416990	0.388620	0.767630
H22371	H2237	0.415900	0.398900	0.757000
C36351	C3635	0.434600	0.388340	0.779400
H22381	H2238	0.445500	0.398100	0.776900
C36361	C3636	0.436400	0.373330	0.795300
H22391	H2239	0.448400	0.372900	0.804100
C36371	C3637	0.420160	0.359240	0.797830
C36381	C3638	0.402690	0.360850	0.785020
H22401	H2240	0.391500	0.351300	0.787000
C36391	C3639	0.420920	0.343020	0.814410
C36401	C3640	0.373890	0.324780	0.750590
N13911	N1391	0.383080	0.485250	0.659040
N13921	N1392	0.475540	0.356990	0.637150
N13931	N1393	0.484490	0.402420	0.624970
N13941	N1394	0.439090	0.405820	0.670400
N13951	N1395	0.429750	0.440290	0.660340
N13961	N1396	0.412370	0.423870	0.688870
N13971	N1397	0.399250	0.371850	0.724320
N13981	N1398	0.373240	0.342380	0.748810
N13991	N1399	0.401030	0.375240	0.770090
N14001	N1400	0.436030	0.344280	0.828310
S2791	S279	0.455370	0.328120	0.663040
S2801	S280	0.376540	0.299280	0.752160
C36411	C3641	0.352580	0.469890	0.090280
H22411	H2241	0.344400	0.467300	0.102400
C36421	C3642	0.349140	0.457500	0.072580
C36431	C3643	0.360720	0.461380	0.054770
H22421	H2242	0.359200	0.453000	0.042600
C36441	C3644	0.374820	0.478100	0.055140
H22431	H2243	0.382400	0.481800	0.042900
C36451	C3645	0.377580	0.489070	0.073140
H22441	H2244	0.387600	0.500100	0.073200
C36461	C3646	0.283380	0.345330	0.102260
C36471	C3647	0.263210	0.418430	0.138520
H22451	H2245	0.253200	0.417100	0.149400
C36481	C3648	0.274620	0.436660	0.137400
H22461	H2246	0.272000	0.447800	0.146900
C36491	C3649	0.290070	0.438580	0.122210
H22471	H2247	0.298700	0.450700	0.121600
C36501	C3650	0.292490	0.422260	0.107900
C36511	C3651	0.280010	0.404720	0.109740
H22481	H2248	0.281700	0.393800	0.099800
C36521	C3652	0.308770	0.422820	0.091320
C36531	C3653	0.334610	0.439700	0.074330
C36541	C3654	0.325890	0.406840	0.064890
C36551	C3655	0.346010	0.388220	0.037680
H22491	H2249	0.354200	0.400600	0.036300
C36561	C3656	0.329520	0.388150	0.052210
C36571	C3657	0.317350	0.370400	0.054110
H22501	H2250	0.306200	0.369700	0.064000
C36581	C3658	0.321920	0.353580	0.041090
H22511	H2251	0.313600	0.341300	0.041600
C36591	C3659	0.338600	0.354890	0.027460
H22521	H2252	0.341600	0.343100	0.018900
C36601	C3660	0.333010	0.388620	0.982370
H22531	H2253	0.334100	0.398900	0.993000
C36611	C3661	0.315400	0.388340	0.970600
H22541	H2254	0.304500	0.398100	0.973100
C36621	C3662	0.313600	0.373330	0.954700
H22551	H2255	0.301600	0.372900	0.945900
C36631	C3663	0.329840	0.359240	0.952170
C36641	C3664	0.347310	0.360850	0.964980
H22561	H2256	0.358500	0.351300	0.963000
C36651	C3665	0.329080	0.343020	0.935590
C36661	C3666	0.376110	0.324780	0.999410
N14011	N1401	0.366920	0.485250	0.090960
N14021	N1402	0.274460	0.356990	0.112850
N14031	N1403	0.265510	0.402420	0.125030
N14041	N1404	0.310910	0.405820	0.079600
N14051	N1405	0.320250	0.440290	0.089660
N14061	N1406	0.337630	0.423870	0.061130
N14071	N1407	0.350750	0.371850	0.025680
N14081	N1408	0.376760	0.342380	0.001190
N14091	N1409	0.348970	0.375240	0.979910
N14101	N1410	0.313970	0.344280	0.921690
S2811	S281	0.294630	0.328120	0.086960
S2821	S282	0.373460	0.299280	0.997840
C36671	C3667	0.352580	0.969890	0.590280
H22571	H2257	0.344400	0.967300	0.602400
C36681	C3668	0.349140	0.957500	0.572580
C36691	C3669	0.360720	0.961380	0.554770
H22581	H2258	0.359200	0.953000	0.542600
C36701	C3670	0.374820	0.978100	0.555140
H22591	H2259	0.382400	0.981800	0.542900
C36711	C3671	0.377580	0.989070	0.573140
H22601	H2260	0.387600	0.000100	0.573200
C36721	C3672	0.283380	0.845330	0.602260
C36731	C3673	0.263210	0.918430	0.638520
H22611	H2261	0.253200	0.917100	0.649400
C36741	C3674	0.274620	0.936660	0.637400
H22621	H2262	0.272000	0.947800	0.646900
C36751	C3675	0.290070	0.938580	0.622210
H22631	H2263	0.298700	0.950700	0.621600
C36761	C3676	0.292490	0.922260	0.607900
C36771	C3677	0.280010	0.904720	0.609740
H22641	H2264	0.281700	0.893800	0.599800
C36781	C3678	0.308770	0.922820	0.591320
C36791	C3679	0.334610	0.939700	0.574330
C36801	C3680	0.325890	0.906840	0.564890
C36811	C3681	0.346010	0.888220	0.537680
H22651	H2265	0.354200	0.900600	0.536300
C36821	C3682	0.329520	0.888150	0.552210
C36831	C3683	0.317350	0.870400	0.554110
H22661	H2266	0.306200	0.869700	0.564000
C36841	C3684	0.321920	0.853580	0.541090
H22671	H2267	0.313600	0.841300	0.541600
C36851	C3685	0.338600	0.854890	0.527460
H22681	H2268	0.341600	0.843100	0.518900
C36861	C3686	0.333010	0.888620	0.482370
H22691	H2269	0.334100	0.898900	0.493000
C36871	C3687	0.315400	0.888340	0.470600
H22701	H2270	0.304500	0.898100	0.473100
C36881	C3688	0.313600	0.873330	0.454700
H22711	H2271	0.301600	0.872900	0.445900
C36891	C3689	0.329840	0.859240	0.452170
C36901	C3690	0.347310	0.860850	0.464980
H22721	H2272	0.358500	0.851300	0.463000
C36911	C3691	0.329080	0.843020	0.435590
C36921	C3692	0.376110	0.824780	0.499410
N14111	N1411	0.366920	0.985250	0.590960
N14121	N1412	0.274460	0.856990	0.612850
N14131	N1413	0.265510	0.902420	0.625030
N14141	N1414	0.310910	0.905820	0.579600
N14151	N1415	0.320250	0.940290	0.589660
N14161	N1416	0.337630	0.923870	0.561130
N14171	N1417	0.350750	0.871850	0.525680
N14181	N1418	0.376760	0.842380	0.501190
N14191	N1419	0.348970	0.875240	0.479910
N14201	N1420	0.313970	0.844280	0.421690
S2831	S283	0.294630	0.828120	0.586960
S2841	S284	0.373460	0.799280	0.497840
C36931	C3693	0.852580	0.469890	0.590280
H22731	H2273	0.844400	0.467300	0.602400
C36941	C3694	0.849140	0.457500	0.572580
C36951	C3695	0.860720	0.461380	0.554770
H22741	H2274	0.859200	0.453000	0.542600
C36961	C3696	0.874820	0.478100	0.555140
H22751	H2275	0.882400	0.481800	0.542900
C36971	C3697	0.877580	0.489070	0.573140
H22761	H2276	0.887600	0.500100	0.573200
C36981	C3698	0.783380	0.345330	0.602260
C36991	C3699	0.763210	0.418430	0.638520
H22771	H2277	0.753200	0.417100	0.649400
C37001	C3700	0.774620	0.436660	0.637400
H22781	H2278	0.772000	0.447800	0.646900
C37011	C3701	0.790070	0.438580	0.622210
H22791	H2279	0.798700	0.450700	0.621600
C37021	C3702	0.792490	0.422260	0.607900
C37031	C3703	0.780010	0.404720	0.609740
H22801	H2280	0.781700	0.393800	0.599800
C37041	C3704	0.808770	0.422820	0.591320
C37051	C3705	0.834610	0.439700	0.574330
C37061	C3706	0.825890	0.406840	0.564890
C37071	C3707	0.846010	0.388220	0.537680
H22811	H2281	0.854200	0.400600	0.536300
C37081	C3708	0.829520	0.388150	0.552210
C37091	C3709	0.817350	0.370400	0.554110
H22821	H2282	0.806200	0.369700	0.564000
C37101	C3710	0.821920	0.353580	0.541090
H22831	H2283	0.813600	0.341300	0.541600
C37111	C3711	0.838600	0.354890	0.527460
H22841	H2284	0.841600	0.343100	0.518900
C37121	C3712	0.833010	0.388620	0.482370
H22851	H2285	0.834100	0.398900	0.493000
C37131	C3713	0.815400	0.388340	0.470600
H22861	H2286	0.804500	0.398100	0.473100
C37141	C3714	0.813600	0.373330	0.454700
H22871	H2287	0.801600	0.372900	0.445900
C37151	C3715	0.829840	0.359240	0.452170
C37161	C3716	0.847310	0.360850	0.464980
H22881	H2288	0.858500	0.351300	0.463000
C37171	C3717	0.829080	0.343020	0.435590
C37181	C3718	0.876110	0.324780	0.499410
N14211	N1421	0.866920	0.485250	0.590960
N14221	N1422	0.774460	0.356990	0.612850
N14231	N1423	0.765510	0.402420	0.625030
N14241	N1424	0.810910	0.405820	0.579600
N14251	N1425	0.820250	0.440290	0.589660
N14261	N1426	0.837630	0.423870	0.561130
N14271	N1427	0.850750	0.371850	0.525680
N14281	N1428	0.876760	0.342380	0.501190
N14291	N1429	0.848970	0.375240	0.479910
N14301	N1430	0.813970	0.344280	0.421690
S2851	S285	0.794630	0.328120	0.586960
S2861	S286	0.873460	0.299280	0.497840
C37191	C3719	0.852580	0.969890	0.090280
H22891	H2289	0.844400	0.967300	0.102400
C37201	C3720	0.849140	0.957500	0.072580
C37211	C3721	0.860720	0.961380	0.054770
H22901	H2290	0.859200	0.953000	0.042600
C37221	C3722	0.874820	0.978100	0.055140
H22911	H2291	0.882400	0.981800	0.042900
C37231	C3723	0.877580	0.989070	0.073140
H22921	H2292	0.887600	0.000100	0.073200
C37241	C3724	0.783380	0.845330	0.102260
C37251	C3725	0.763210	0.918430	0.138520
H22931	H2293	0.753200	0.917100	0.149400
C37261	C3726	0.774620	0.936660	0.137400
H22941	H2294	0.772000	0.947800	0.146900
C37271	C3727	0.790070	0.938580	0.122210
H22951	H2295	0.798700	0.950700	0.121600
C37281	C3728	0.792490	0.922260	0.107900
C37291	C3729	0.780010	0.904720	0.109740
H22961	H2296	0.781700	0.893800	0.099800
C37301	C3730	0.808770	0.922820	0.091320
C37311	C3731	0.834610	0.939700	0.074330
C37321	C3732	0.825890	0.906840	0.064890
C37331	C3733	0.846010	0.888220	0.037680
H22971	H2297	0.854200	0.900600	0.036300
C37341	C3734	0.829520	0.888150	0.052210
C37351	C3735	0.817350	0.870400	0.054110
H22981	H2298	0.806200	0.869700	0.064000
C37361	C3736	0.821920	0.853580	0.041090
H22991	H2299	0.813600	0.841300	0.041600
C37371	C3737	0.838600	0.854890	0.027460
H23001	H2300	0.841600	0.843100	0.018900
C37381	C3738	0.833010	0.888620	0.982370
H23011	H2301	0.834100	0.898900	0.993000
C37391	C3739	0.815400	0.888340	0.970600
H23021	H2302	0.804500	0.898100	0.973100
C37401	C3740	0.813600	0.873330	0.954700
H23031	H2303	0.801600	0.872900	0.945900
C37411	C3741	0.829840	0.859240	0.952170
C37421	C3742	0.847310	0.860850	0.964980
H23041	H2304	0.858500	0.851300	0.963000
C37431	C3743	0.829080	0.843020	0.935590
C37441	C3744	0.876110	0.824780	0.999410
N14311	N1431	0.866920	0.985250	0.090960
N14321	N1432	0.774460	0.856990	0.112850
N14331	N1433	0.765510	0.902420	0.125030
N14341	N1434	0.810910	0.905820	0.079600
N14351	N1435	0.820250	0.940290	0.089660
N14361	N1436	0.837630	0.923870	0.061130
N14371	N1437	0.850750	0.871850	0.025680
N14381	N1438	0.876760	0.842380	0.001190
N14391	N1439	0.848970	0.875240	0.979910
N14401	N1440	0.813970	0.844280	0.921690
S2871	S287	0.794630	0.828120	0.086960
S2881	S288	0.873460	0.799280	0.997840
C37451	C3745	0.647420	0.340280	0.219890
H23051	H2305	0.655600	0.352400	0.217300
C37461	C3746	0.650860	0.322580	0.207500
C37471	C3747	0.639280	0.304770	0.211380
H23061	H2306	0.640800	0.292600	0.203000
C37481	C3748	0.625180	0.305140	0.228100
H23071	H2307	0.617600	0.292900	0.231800
C37491	C3749	0.622420	0.323140	0.239070
H23081	H2308	0.612400	0.323200	0.250100
C37501	C3750	0.716620	0.352260	0.095330
C37511	C3751	0.736790	0.388520	0.168430
H23091	H2309	0.746800	0.399400	0.167100
C37521	C3752	0.725380	0.387400	0.186660
H23101	H2310	0.728000	0.396900	0.197800
C37531	C3753	0.709930	0.372210	0.188580
H23111	H2311	0.701300	0.371600	0.200700
C37541	C3754	0.707510	0.357900	0.172260
C37551	C3755	0.719990	0.359740	0.154720
H23121	H2312	0.718300	0.349800	0.143800
C37561	C3756	0.691230	0.341320	0.172820
C37571	C3757	0.665390	0.324330	0.189700
C37581	C3758	0.674110	0.314890	0.156840
C37591	C3759	0.653990	0.287680	0.138220
H23131	H2313	0.645800	0.286300	0.150600
C37601	C3760	0.670480	0.302210	0.138150
C37611	C3761	0.682650	0.304110	0.120400
H23141	H2314	0.693800	0.314000	0.119700
C37621	C3762	0.678080	0.291090	0.103580
H23151	H2315	0.686400	0.291600	0.091300
C37631	C3763	0.661400	0.277460	0.104890
H23161	H2316	0.658400	0.268900	0.093100
C37641	C3764	0.666990	0.232370	0.138620
H23171	H2317	0.665900	0.243000	0.148900
C37651	C3765	0.684600	0.220600	0.138340
H23181	H2318	0.695500	0.223100	0.148100
C37661	C3766	0.686400	0.204700	0.123330
H23191	H2319	0.698400	0.195900	0.122900
C37671	C3767	0.670160	0.202170	0.109240
C37681	C3768	0.652690	0.214980	0.110850
H23201	H2320	0.641500	0.213000	0.101300
C37691	C3769	0.670920	0.185590	0.093020
C37701	C3770	0.623890	0.249410	0.074780
N14411	N1441	0.633080	0.340960	0.235250
N14421	N1442	0.725540	0.362850	0.106990
N14431	N1443	0.734490	0.375030	0.152420
N14441	N1444	0.689090	0.329600	0.155820
N14451	N1445	0.679750	0.339660	0.190290
N14461	N1446	0.662370	0.311130	0.173870
N14471	N1447	0.649250	0.275680	0.121850
N14481	N1448	0.623240	0.251190	0.092380
N14491	N1449	0.651030	0.229910	0.125240
N14501	N1450	0.686030	0.171690	0.094280
S2891	S289	0.705370	0.336960	0.078120
S2901	S290	0.626540	0.247840	0.049280
C37711	C3771	0.647420	0.840280	0.719890
H23211	H2321	0.655600	0.852400	0.717300
C37721	C3772	0.650860	0.822580	0.707500
C37731	C3773	0.639280	0.804770	0.711380
H23221	H2322	0.640800	0.792600	0.703000
C37741	C3774	0.625180	0.805140	0.728100
H23231	H2323	0.617600	0.792900	0.731800
C37751	C3775	0.622420	0.823140	0.739070
H23241	H2324	0.612400	0.823200	0.750100
C37761	C3776	0.716620	0.852260	0.595330
C37771	C3777	0.736790	0.888520	0.668430
H23251	H2325	0.746800	0.899400	0.667100
C37781	C3778	0.725380	0.887400	0.686660
H23261	H2326	0.728000	0.896900	0.697800
C37791	C3779	0.709930	0.872210	0.688580
H23271	H2327	0.701300	0.871600	0.700700
C37801	C3780	0.707510	0.857900	0.672260
C37811	C3781	0.719990	0.859740	0.654720
H23281	H2328	0.718300	0.849800	0.643800
C37821	C3782	0.691230	0.841320	0.672820
C37831	C3783	0.665390	0.824330	0.689700
C37841	C3784	0.674110	0.814890	0.656840
C37851	C3785	0.653990	0.787680	0.638220
H23291	H2329	0.645800	0.786300	0.650600
C37861	C3786	0.670480	0.802210	0.638150
C37871	C3787	0.682650	0.804110	0.620400
H23301	H2330	0.693800	0.814000	0.619700
C37881	C3788	0.678080	0.791090	0.603580
H23311	H2331	0.686400	0.791600	0.591300
C37891	C3789	0.661400	0.777460	0.604890
H23321	H2332	0.658400	0.768900	0.593100
C37901	C3790	0.666990	0.732370	0.638620
H23331	H2333	0.665900	0.743000	0.648900
C37911	C3791	0.684600	0.720600	0.638340
H23341	H2334	0.695500	0.723100	0.648100
C37921	C3792	0.686400	0.704700	0.623330
H23351	H2335	0.698400	0.695900	0.622900
C37931	C3793	0.670160	0.702170	0.609240
C37941	C3794	0.652690	0.714980	0.610850
H23361	H2336	0.641500	0.713000	0.601300
C37951	C3795	0.670920	0.685590	0.593020
C37961	C3796	0.623890	0.749410	0.574780
N14511	N1451	0.633080	0.840960	0.735250
N14521	N1452	0.725540	0.862850	0.606990
N14531	N1453	0.734490	0.875030	0.652420
N14541	N1454	0.689090	0.829600	0.655820
N14551	N1455	0.679750	0.839660	0.690290
N14561	N1456	0.662370	0.811130	0.673870
N14571	N1457	0.649250	0.775680	0.621850
N14581	N1458	0.623240	0.751190	0.592380
N14591	N1459	0.651030	0.729910	0.625240
N14601	N1460	0.686030	0.671690	0.594280
S2911	S291	0.705370	0.836960	0.578120
S2921	S292	0.626540	0.747840	0.549280
C37971	C3797	0.147420	0.340280	0.719890
H23371	H2337	0.155600	0.352400	0.717300
C37981	C3798	0.150860	0.322580	0.707500
C37991	C3799	0.139280	0.304770	0.711380
H23381	H2338	0.140800	0.292600	0.703000
C38001	C3800	0.125180	0.305140	0.728100
H23391	H2339	0.117600	0.292900	0.731800
C38011	C3801	0.122420	0.323140	0.739070
H23401	H2340	0.112400	0.323200	0.750100
C38021	C3802	0.216620	0.352260	0.595330
C38031	C3803	0.236790	0.388520	0.668430
H23411	H2341	0.246800	0.399400	0.667100
C38041	C3804	0.225380	0.387400	0.686660
H23421	H2342	0.228000	0.396900	0.697800
C38051	C3805	0.209930	0.372210	0.688580
H23431	H2343	0.201300	0.371600	0.700700
C38061	C3806	0.207510	0.357900	0.672260
C38071	C3807	0.219990	0.359740	0.654720
H23441	H2344	0.218300	0.349800	0.643800
C38081	C3808	0.191230	0.341320	0.672820
C38091	C3809	0.165390	0.324330	0.689700
C38101	C3810	0.174110	0.314890	0.656840
C38111	C3811	0.153990	0.287680	0.638220
H23451	H2345	0.145800	0.286300	0.650600
C38121	C3812	0.170480	0.302210	0.638150
C38131	C3813	0.182650	0.304110	0.620400
H23461	H2346	0.193800	0.314000	0.619700
C38141	C3814	0.178080	0.291090	0.603580
H23471	H2347	0.186400	0.291600	0.591300
C38151	C3815	0.161400	0.277460	0.604890
H23481	H2348	0.158400	0.268900	0.593100
C38161	C3816	0.166990	0.232370	0.638620
H23491	H2349	0.165900	0.243000	0.648900
C38171	C3817	0.184600	0.220600	0.638340
H23501	H2350	0.195500	0.223100	0.648100
C38181	C3818	0.186400	0.204700	0.623330
H23511	H2351	0.198400	0.195900	0.622900
C38191	C3819	0.170160	0.202170	0.609240
C38201	C3820	0.152690	0.214980	0.610850
H23521	H2352	0.141500	0.213000	0.601300
C38211	C3821	0.170920	0.185590	0.593020
C38221	C3822	0.123890	0.249410	0.574780
N14611	N1461	0.133080	0.340960	0.735250
N14621	N1462	0.225540	0.362850	0.606990
N14631	N1463	0.234490	0.375030	0.652420
N14641	N1464	0.189090	0.329600	0.655820
N14651	N1465	0.179750	0.339660	0.690290
N14661	N1466	0.162370	0.311130	0.673870
N14671	N1467	0.149250	0.275680	0.621850
N14681	N1468	0.123240	0.251190	0.592380
N14691	N1469	0.151030	0.229910	0.625240
N14701	N1470	0.186030	0.171690	0.594280
S2931	S293	0.205370	0.336960	0.578120
S2941	S294	0.126540	0.247840	0.549280
C38231	C3823	0.147420	0.840280	0.219890
H23531	H2353	0.155600	0.852400	0.217300
C38241	C3824	0.150860	0.822580	0.207500
C38251	C3825	0.139280	0.804770	0.211380
H23541	H2354	0.140800	0.792600	0.203000
C38261	C3826	0.125180	0.805140	0.228100
H23551	H2355	0.117600	0.792900	0.231800
C38271	C3827	0.122420	0.823140	0.239070
H23561	H2356	0.112400	0.823200	0.250100
C38281	C3828	0.216620	0.852260	0.095330
C38291	C3829	0.236790	0.888520	0.168430
H23571	H2357	0.246800	0.899400	0.167100
C38301	C3830	0.225380	0.887400	0.186660
H23581	H2358	0.228000	0.896900	0.197800
C38311	C3831	0.209930	0.872210	0.188580
H23591	H2359	0.201300	0.871600	0.200700
C38321	C3832	0.207510	0.857900	0.172260
C38331	C3833	0.219990	0.859740	0.154720
H23601	H2360	0.218300	0.849800	0.143800
C38341	C3834	0.191230	0.841320	0.172820
C38351	C3835	0.165390	0.824330	0.189700
C38361	C3836	0.174110	0.814890	0.156840
C38371	C3837	0.153990	0.787680	0.138220
H23611	H2361	0.145800	0.786300	0.150600
C38381	C3838	0.170480	0.802210	0.138150
C38391	C3839	0.182650	0.804110	0.120400
H23621	H2362	0.193800	0.814000	0.119700
C38401	C3840	0.178080	0.791090	0.103580
H23631	H2363	0.186400	0.791600	0.091300
C38411	C3841	0.161400	0.777460	0.104890
H23641	H2364	0.158400	0.768900	0.093100
C38421	C3842	0.166990	0.732370	0.138620
H23651	H2365	0.165900	0.743000	0.148900
C38431	C3843	0.184600	0.720600	0.138340
H23661	H2366	0.195500	0.723100	0.148100
C38441	C3844	0.186400	0.704700	0.123330
H23671	H2367	0.198400	0.695900	0.122900
C38451	C3845	0.170160	0.702170	0.109240
C38461	C3846	0.152690	0.714980	0.110850
H23681	H2368	0.141500	0.713000	0.101300
C38471	C3847	0.170920	0.685590	0.093020
C38481	C3848	0.123890	0.749410	0.074780
N14711	N1471	0.133080	0.840960	0.235250
N14721	N1472	0.225540	0.862850	0.106990
N14731	N1473	0.234490	0.875030	0.152420
N14741	N1474	0.189090	0.829600	0.155820
N14751	N1475	0.179750	0.839660	0.190290
N14761	N1476	0.162370	0.811130	0.173870
N14771	N1477	0.149250	0.775680	0.121850
N14781	N1478	0.123240	0.751190	0.092380
N14791	N1479	0.151030	0.729910	0.125240
N14801	N1480	0.186030	0.671690	0.094280
S2951	S295	0.205370	0.836960	0.078120
S2961	S296	0.126540	0.747840	0.049280
C38491	C3849	0.102580	0.909720	0.719890
H23691	H2369	0.094400	0.897600	0.717300
C38501	C3850	0.099140	0.927420	0.707500
C38511	C3851	0.110720	0.945230	0.711380
H23701	H2370	0.109200	0.957400	0.703000
C38521	C3852	0.124820	0.944860	0.728100
H23711	H2371	0.132400	0.957100	0.731800
C38531	C3853	0.127580	0.926860	0.739070
H23721	H2372	0.137600	0.926800	0.750100
C38541	C3854	0.033380	0.897740	0.595330
C38551	C3855	0.013210	0.861480	0.668430
H23731	H2373	0.003200	0.850600	0.667100
C38561	C3856	0.024620	0.862600	0.686660
H23741	H2374	0.022000	0.853100	0.697800
C38571	C3857	0.040070	0.877790	0.688580
H23751	H2375	0.048700	0.878400	0.700700
C38581	C3858	0.042490	0.892100	0.672260
C38591	C3859	0.030010	0.890260	0.654720
H23761	H2376	0.031700	0.900200	0.643800
C38601	C3860	0.058770	0.908680	0.672820
C38611	C3861	0.084610	0.925670	0.689700
C38621	C3862	0.075890	0.935110	0.656840
C38631	C3863	0.096010	0.962320	0.638220
H23771	H2377	0.104200	0.963700	0.650600
C38641	C3864	0.079520	0.947790	0.638150
C38651	C3865	0.067350	0.945890	0.620400
H23781	H2378	0.056200	0.936000	0.619700
C38661	C3866	0.071920	0.958910	0.603580
H23791	H2379	0.063600	0.958400	0.591300
C38671	C3867	0.088600	0.972540	0.604890
H23801	H2380	0.091600	0.981100	0.593100
C38681	C3868	0.083010	0.017630	0.638620
H23811	H2381	0.084100	0.007000	0.648900
C38691	C3869	0.065400	0.029400	0.638340
H23821	H2382	0.054500	0.026900	0.648100
C38701	C3870	0.063600	0.045300	0.623330
H23831	H2383	0.051600	0.054100	0.622900
C38711	C3871	0.079840	0.047830	0.609240
C38721	C3872	0.097310	0.035020	0.610850
H23841	H2384	0.108500	0.037000	0.601300
C38731	C3873	0.079080	0.064410	0.593020
C38741	C3874	0.126110	0.000590	0.574780
N14811	N1481	0.116920	0.909040	0.735250
N14821	N1482	0.024460	0.887150	0.606990
N14831	N1483	0.015510	0.874970	0.652420
N14841	N1484	0.060910	0.920400	0.655820
N14851	N1485	0.070250	0.910340	0.690290
N14861	N1486	0.087630	0.938870	0.673870
N14871	N1487	0.100750	0.974320	0.621850
N14881	N1488	0.126760	0.998810	0.592380
N14891	N1489	0.098970	0.020090	0.625240
N14901	N1490	0.063970	0.078310	0.594280
S2971	S297	0.044630	0.913040	0.578120
S2981	S298	0.123460	0.002160	0.549280
C38751	C3875	0.102580	0.409720	0.219890
H23851	H2385	0.094400	0.397600	0.217300
C38761	C3876	0.099140	0.427420	0.207500
C38771	C3877	0.110720	0.445230	0.211380
H23861	H2386	0.109200	0.457400	0.203000
C38781	C3878	0.124820	0.444860	0.228100
H23871	H2387	0.132400	0.457100	0.231800
C38791	C3879	0.127580	0.426860	0.239070
H23881	H2388	0.137600	0.426800	0.250100
C38801	C3880	0.033380	0.397740	0.095330
C38811	C3881	0.013210	0.361480	0.168430
H23891	H2389	0.003200	0.350600	0.167100
C38821	C3882	0.024620	0.362600	0.186660
H23901	H2390	0.022000	0.353100	0.197800
C38831	C3883	0.040070	0.377790	0.188580
H23911	H2391	0.048700	0.378400	0.200700
C38841	C3884	0.042490	0.392100	0.172260
C38851	C3885	0.030010	0.390260	0.154720
H23921	H2392	0.031700	0.400200	0.143800
C38861	C3886	0.058770	0.408680	0.172820
C38871	C3887	0.084610	0.425670	0.189700
C38881	C3888	0.075890	0.435110	0.156840
C38891	C3889	0.096010	0.462320	0.138220
H23931	H2393	0.104200	0.463700	0.150600
C38901	C3890	0.079520	0.447790	0.138150
C38911	C3891	0.067350	0.445890	0.120400
H23941	H2394	0.056200	0.436000	0.119700
C38921	C3892	0.071920	0.458910	0.103580
H23951	H2395	0.063600	0.458400	0.091300
C38931	C3893	0.088600	0.472540	0.104890
H23961	H2396	0.091600	0.481100	0.093100
C38941	C3894	0.083010	0.517630	0.138620
H23971	H2397	0.084100	0.507000	0.148900
C38951	C3895	0.065400	0.529400	0.138340
H23981	H2398	0.054500	0.526900	0.148100
C38961	C3896	0.063600	0.545300	0.123330
H23991	H2399	0.051600	0.554100	0.122900
C38971	C3897	0.079840	0.547830	0.109240
C38981	C3898	0.097310	0.535020	0.110850
H24001	H2400	0.108500	0.537000	0.101300
C38991	C3899	0.079080	0.564410	0.093020
C39001	C3900	0.126110	0.500590	0.074780
N14911	N1491	0.116920	0.409040	0.235250
N14921	N1492	0.024460	0.387150	0.106990
N14931	N1493	0.015510	0.374970	0.152420
N14941	N1494	0.060910	0.420400	0.155820
N14951	N1495	0.070250	0.410340	0.190290
N14961	N1496	0.087630	0.438870	0.173870
N14971	N1497	0.100750	0.474320	0.121850
N14981	N1498	0.126760	0.498810	0.092380
N14991	N1499	0.098970	0.520090	0.125240
N15001	N1500	0.063970	0.578310	0.094280
S2991	S299	0.044630	0.413040	0.078120
S3001	S300	0.123460	0.502160	0.049280
C39011	C3901	0.602580	0.909720	0.219890
H24011	H2401	0.594400	0.897600	0.217300
C39021	C3902	0.599140	0.927420	0.207500
C39031	C3903	0.610720	0.945230	0.211380
H24021	H2402	0.609200	0.957400	0.203000
C39041	C3904	0.624820	0.944860	0.228100
H24031	H2403	0.632400	0.957100	0.231800
C39051	C3905	0.627580	0.926860	0.239070
H24041	H2404	0.637600	0.926800	0.250100
C39061	C3906	0.533380	0.897740	0.095330
C39071	C3907	0.513210	0.861480	0.168430
H24051	H2405	0.503200	0.850600	0.167100
C39081	C3908	0.524620	0.862600	0.186660
H24061	H2406	0.522000	0.853100	0.197800
C39091	C3909	0.540070	0.877790	0.188580
H24071	H2407	0.548700	0.878400	0.200700
C39101	C3910	0.542490	0.892100	0.172260
C39111	C3911	0.530010	0.890260	0.154720
H24081	H2408	0.531700	0.900200	0.143800
C39121	C3912	0.558770	0.908680	0.172820
C39131	C3913	0.584610	0.925670	0.189700
C39141	C3914	0.575890	0.935110	0.156840
C39151	C3915	0.596010	0.962320	0.138220
H24091	H2409	0.604200	0.963700	0.150600
C39161	C3916	0.579520	0.947790	0.138150
C39171	C3917	0.567350	0.945890	0.120400
H24101	H2410	0.556200	0.936000	0.119700
C39181	C3918	0.571920	0.958910	0.103580
H24111	H2411	0.563600	0.958400	0.091300
C39191	C3919	0.588600	0.972540	0.104890
H24121	H2412	0.591600	0.981100	0.093100
C39201	C3920	0.583010	0.017630	0.138620
H24131	H2413	0.584100	0.007000	0.148900
C39211	C3921	0.565400	0.029400	0.138340
H24141	H2414	0.554500	0.026900	0.148100
C39221	C3922	0.563600	0.045300	0.123330
H24151	H2415	0.551600	0.054100	0.122900
C39231	C3923	0.579840	0.047830	0.109240
C39241	C3924	0.597310	0.035020	0.110850
H24161	H2416	0.608500	0.037000	0.101300
C39251	C3925	0.579080	0.064410	0.093020
C39261	C3926	0.626110	0.000590	0.074780
N15011	N1501	0.616920	0.909040	0.235250
N15021	N1502	0.524460	0.887150	0.106990
N15031	N1503	0.515510	0.874970	0.152420
N15041	N1504	0.560910	0.920400	0.155820
N15051	N1505	0.570250	0.910340	0.190290
N15061	N1506	0.587630	0.938870	0.173870
N15071	N1507	0.600750	0.974320	0.121850
N15081	N1508	0.626760	0.998810	0.092380
N15091	N1509	0.598970	0.020090	0.125240
N15101	N1510	0.563970	0.078310	0.094280
S3011	S301	0.544630	0.913040	0.078120
S3021	S302	0.623460	0.002160	0.049280
C39271	C3927	0.602580	0.409720	0.719890
H24171	H2417	0.594400	0.397600	0.717300
C39281	C3928	0.599140	0.427420	0.707500
C39291	C3929	0.610720	0.445230	0.711380
H24181	H2418	0.609200	0.457400	0.703000
C39301	C3930	0.624820	0.444860	0.728100
H24191	H2419	0.632400	0.457100	0.731800
C39311	C3931	0.627580	0.426860	0.739070
H24201	H2420	0.637600	0.426800	0.750100
C39321	C3932	0.533380	0.397740	0.595330
C39331	C3933	0.513210	0.361480	0.668430
H24211	H2421	0.503200	0.350600	0.667100
C39341	C3934	0.524620	0.362600	0.686660
H24221	H2422	0.522000	0.353100	0.697800
C39351	C3935	0.540070	0.377790	0.688580
H24231	H2423	0.548700	0.378400	0.700700
C39361	C3936	0.542490	0.392100	0.672260
C39371	C3937	0.530010	0.390260	0.654720
H24241	H2424	0.531700	0.400200	0.643800
C39381	C3938	0.558770	0.408680	0.672820
C39391	C3939	0.584610	0.425670	0.689700
C39401	C3940	0.575890	0.435110	0.656840
C39411	C3941	0.596010	0.462320	0.638220
H24251	H2425	0.604200	0.463700	0.650600
C39421	C3942	0.579520	0.447790	0.638150
C39431	C3943	0.567350	0.445890	0.620400
H24261	H2426	0.556200	0.436000	0.619700
C39441	C3944	0.571920	0.458910	0.603580
H24271	H2427	0.563600	0.458400	0.591300
C39451	C3945	0.588600	0.472540	0.604890
H24281	H2428	0.591600	0.481100	0.593100
C39461	C3946	0.583010	0.517630	0.638620
H24291	H2429	0.584100	0.507000	0.648900
C39471	C3947	0.565400	0.529400	0.638340
H24301	H2430	0.554500	0.526900	0.648100
C39481	C3948	0.563600	0.545300	0.623330
H24311	H2431	0.551600	0.554100	0.622900
C39491	C3949	0.579840	0.547830	0.609240
C39501	C3950	0.597310	0.535020	0.610850
H24321	H2432	0.608500	0.537000	0.601300
C39511	C3951	0.579080	0.564410	0.593020
C39521	C3952	0.626110	0.500590	0.574780
N15111	N1511	0.616920	0.409040	0.735250
N15121	N1512	0.524460	0.387150	0.606990
N15131	N1513	0.515510	0.374970	0.652420
N15141	N1514	0.560910	0.420400	0.655820
N15151	N1515	0.570250	0.410340	0.690290
N15161	N1516	0.587630	0.438870	0.673870
N15171	N1517	0.600750	0.474320	0.621850
N15181	N1518	0.626760	0.498810	0.592380
N15191	N1519	0.598970	0.520090	0.625240
N15201	N1520	0.563970	0.578310	0.594280
S3031	S303	0.544630	0.413040	0.578120
S3041	S304	0.623460	0.502160	0.549280
C39531	C3953	0.147420	0.409720	0.030110
H24331	H2433	0.155600	0.397600	0.032700
C39541	C3954	0.150860	0.427420	0.042500
C39551	C3955	0.139280	0.445230	0.038620
H24341	H2434	0.140800	0.457400	0.047000
C39561	C3956	0.125180	0.444860	0.021900
H24351	H2435	0.117600	0.457100	0.018200
C39571	C3957	0.122420	0.426860	0.010930
H24361	H2436	0.112400	0.426800	0.999900
C39581	C3958	0.216620	0.397740	0.154670
C39591	C3959	0.236790	0.361480	0.081570
H24371	H2437	0.246800	0.350600	0.082900
C39601	C3960	0.225380	0.362600	0.063340
H24381	H2438	0.228000	0.353100	0.052200
C39611	C3961	0.209930	0.377790	0.061420
H24391	H2439	0.201300	0.378400	0.049300
C39621	C3962	0.207510	0.392100	0.077740
C39631	C3963	0.219990	0.390260	0.095280
H24401	H2440	0.218300	0.400200	0.106200
C39641	C3964	0.191230	0.408680	0.077180
C39651	C3965	0.165390	0.425670	0.060300
C39661	C3966	0.174110	0.435110	0.093160
C39671	C3967	0.153990	0.462320	0.111780
H24411	H2441	0.145800	0.463700	0.099400
C39681	C3968	0.170480	0.447790	0.111850
C39691	C3969	0.182650	0.445890	0.129600
H24421	H2442	0.193800	0.436000	0.130300
C39701	C3970	0.178080	0.458910	0.146420
H24431	H2443	0.186400	0.458400	0.158700
C39711	C3971	0.161400	0.472540	0.145110
H24441	H2444	0.158400	0.481100	0.156900
C39721	C3972	0.166990	0.517630	0.111380
H24451	H2445	0.165900	0.507000	0.101100
C39731	C3973	0.184600	0.529400	0.111660
H24461	H2446	0.195500	0.526900	0.101900
C39741	C3974	0.186400	0.545300	0.126670
H24471	H2447	0.198400	0.554100	0.127100
C39751	C3975	0.170160	0.547830	0.140760
C39761	C3976	0.152690	0.535020	0.139150
H24481	H2448	0.141500	0.537000	0.148700
C39771	C3977	0.170920	0.564410	0.156980
C39781	C3978	0.123890	0.500590	0.175220
N15211	N1521	0.133080	0.409040	0.014750
N15221	N1522	0.225540	0.387150	0.143010
N15231	N1523	0.234490	0.374970	0.097580
N15241	N1524	0.189090	0.420400	0.094180
N15251	N1525	0.179750	0.410340	0.059710
N15261	N1526	0.162370	0.438870	0.076130
N15271	N1527	0.149250	0.474320	0.128150
N15281	N1528	0.123240	0.498810	0.157620
N15291	N1529	0.151030	0.520090	0.124760
N15301	N1530	0.186030	0.578310	0.155720
S3051	S305	0.205370	0.413040	0.171880
S3061	S306	0.126540	0.502160	0.200720
C39791	C3979	0.147420	0.909720	0.530110
H24491	H2449	0.155600	0.897600	0.532700
C39801	C3980	0.150860	0.927420	0.542500
C39811	C3981	0.139280	0.945230	0.538620
H24501	H2450	0.140800	0.957400	0.547000
C39821	C3982	0.125180	0.944860	0.521900
H24511	H2451	0.117600	0.957100	0.518200
C39831	C3983	0.122420	0.926860	0.510930
H24521	H2452	0.112400	0.926800	0.499900
C39841	C3984	0.216620	0.897740	0.654670
C39851	C3985	0.236790	0.861480	0.581570
H24531	H2453	0.246800	0.850600	0.582900
C39861	C3986	0.225380	0.862600	0.563340
H24541	H2454	0.228000	0.853100	0.552200
C39871	C3987	0.209930	0.877790	0.561420
H24551	H2455	0.201300	0.878400	0.549300
C39881	C3988	0.207510	0.892100	0.577740
C39891	C3989	0.219990	0.890260	0.595280
H24561	H2456	0.218300	0.900200	0.606200
C39901	C3990	0.191230	0.908680	0.577180
C39911	C3991	0.165390	0.925670	0.560300
C39921	C3992	0.174110	0.935110	0.593160
C39931	C3993	0.153990	0.962320	0.611780
H24571	H2457	0.145800	0.963700	0.599400
C39941	C3994	0.170480	0.947790	0.611850
C39951	C3995	0.182650	0.945890	0.629600
H24581	H2458	0.193800	0.936000	0.630300
C39961	C3996	0.178080	0.958910	0.646420
H24591	H2459	0.186400	0.958400	0.658700
C39971	C3997	0.161400	0.972540	0.645110
H24601	H2460	0.158400	0.981100	0.656900
C39981	C3998	0.166990	0.017630	0.611380
H24611	H2461	0.165900	0.007000	0.601100
C39991	C3999	0.184600	0.029400	0.611660
H24621	H2462	0.195500	0.026900	0.601900
C40001	C4000	0.186400	0.045300	0.626670
H24631	H2463	0.198400	0.054100	0.627100
C40011	C4001	0.170160	0.047830	0.640760
C40021	C4002	0.152690	0.035020	0.639150
H24641	H2464	0.141500	0.037000	0.648700
C40031	C4003	0.170920	0.064410	0.656980
C40041	C4004	0.123890	0.000590	0.675220
N15311	N1531	0.133080	0.909040	0.514750
N15321	N1532	0.225540	0.887150	0.643010
N15331	N1533	0.234490	0.874970	0.597580
N15341	N1534	0.189090	0.920400	0.594180
N15351	N1535	0.179750	0.910340	0.559710
N15361	N1536	0.162370	0.938870	0.576130
N15371	N1537	0.149250	0.974320	0.628150
N15381	N1538	0.123240	0.998810	0.657620
N15391	N1539	0.151030	0.020090	0.624760
N15401	N1540	0.186030	0.078310	0.655720
S3071	S307	0.205370	0.913040	0.671880
S3081	S308	0.126540	0.002160	0.700720
C40051	C4005	0.647420	0.409720	0.530110
H24651	H2465	0.655600	0.397600	0.532700
C40061	C4006	0.650860	0.427420	0.542500
C40071	C4007	0.639280	0.445230	0.538620
H24661	H2466	0.640800	0.457400	0.547000
C40081	C4008	0.625180	0.444860	0.521900
H24671	H2467	0.617600	0.457100	0.518200
C40091	C4009	0.622420	0.426860	0.510930
H24681	H2468	0.612400	0.426800	0.499900
C40101	C4010	0.716620	0.397740	0.654670
C40111	C4011	0.736790	0.361480	0.581570
H24691	H2469	0.746800	0.350600	0.582900
C40121	C4012	0.725380	0.362600	0.563340
H24701	H2470	0.728000	0.353100	0.552200
C40131	C4013	0.709930	0.377790	0.561420
H24711	H2471	0.701300	0.378400	0.549300
C40141	C4014	0.707510	0.392100	0.577740
C40151	C4015	0.719990	0.390260	0.595280
H24721	H2472	0.718300	0.400200	0.606200
C40161	C4016	0.691230	0.408680	0.577180
C40171	C4017	0.665390	0.425670	0.560300
C40181	C4018	0.674110	0.435110	0.593160
C40191	C4019	0.653990	0.462320	0.611780
H24731	H2473	0.645800	0.463700	0.599400
C40201	C4020	0.670480	0.447790	0.611850
C40211	C4021	0.682650	0.445890	0.629600
H24741	H2474	0.693800	0.436000	0.630300
C40221	C4022	0.678080	0.458910	0.646420
H24751	H2475	0.686400	0.458400	0.658700
C40231	C4023	0.661400	0.472540	0.645110
H24761	H2476	0.658400	0.481100	0.656900
C40241	C4024	0.666990	0.517630	0.611380
H24771	H2477	0.665900	0.507000	0.601100
C40251	C4025	0.684600	0.529400	0.611660
H24781	H2478	0.695500	0.526900	0.601900
C40261	C4026	0.686400	0.545300	0.626670
H24791	H2479	0.698400	0.554100	0.627100
C40271	C4027	0.670160	0.547830	0.640760
C40281	C4028	0.652690	0.535020	0.639150
H24801	H2480	0.641500	0.537000	0.648700
C40291	C4029	0.670920	0.564410	0.656980
C40301	C4030	0.623890	0.500590	0.675220
N15411	N1541	0.633080	0.409040	0.514750
N15421	N1542	0.725540	0.387150	0.643010
N15431	N1543	0.734490	0.374970	0.597580
N15441	N1544	0.689090	0.420400	0.594180
N15451	N1545	0.679750	0.410340	0.559710
N15461	N1546	0.662370	0.438870	0.576130
N15471	N1547	0.649250	0.474320	0.628150
N15481	N1548	0.623240	0.498810	0.657620
N15491	N1549	0.651030	0.520090	0.624760
N15501	N1550	0.686030	0.578310	0.655720
S3091	S309	0.705370	0.413040	0.671880
S3101	S310	0.626540	0.502160	0.700720
C40311	C4031	0.647420	0.909720	0.030110
H24811	H2481	0.655600	0.897600	0.032700
C40321	C4032	0.650860	0.927420	0.042500
C40331	C4033	0.639280	0.945230	0.038620
H24821	H2482	0.640800	0.957400	0.047000
C40341	C4034	0.625180	0.944860	0.021900
H24831	H2483	0.617600	0.957100	0.018200
C40351	C4035	0.622420	0.926860	0.010930
H24841	H2484	0.612400	0.926800	0.999900
C40361	C4036	0.716620	0.897740	0.154670
C40371	C4037	0.736790	0.861480	0.081570
H24851	H2485	0.746800	0.850600	0.082900
C40381	C4038	0.725380	0.862600	0.063340
H24861	H2486	0.728000	0.853100	0.052200
C40391	C4039	0.709930	0.877790	0.061420
H24871	H2487	0.701300	0.878400	0.049300
C40401	C4040	0.707510	0.892100	0.077740
C40411	C4041	0.719990	0.890260	0.095280
H24881	H2488	0.718300	0.900200	0.106200
C40421	C4042	0.691230	0.908680	0.077180
C40431	C4043	0.665390	0.925670	0.060300
C40441	C4044	0.674110	0.935110	0.093160
C40451	C4045	0.653990	0.962320	0.111780
H24891	H2489	0.645800	0.963700	0.099400
C40461	C4046	0.670480	0.947790	0.111850
C40471	C4047	0.682650	0.945890	0.129600
H24901	H2490	0.693800	0.936000	0.130300
C40481	C4048	0.678080	0.958910	0.146420
H24911	H2491	0.686400	0.958400	0.158700
C40491	C4049	0.661400	0.972540	0.145110
H24921	H2492	0.658400	0.981100	0.156900
C40501	C4050	0.666990	0.017630	0.111380
H24931	H2493	0.665900	0.007000	0.101100
C40511	C4051	0.684600	0.029400	0.111660
H24941	H2494	0.695500	0.026900	0.101900
C40521	C4052	0.686400	0.045300	0.126670
H24951	H2495	0.698400	0.054100	0.127100
C40531	C4053	0.670160	0.047830	0.140760
C40541	C4054	0.652690	0.035020	0.139150
H24961	H2496	0.641500	0.037000	0.148700
C40551	C4055	0.670920	0.064410	0.156980
C40561	C4056	0.623890	0.000590	0.175220
N15511	N1551	0.633080	0.909040	0.014750
N15521	N1552	0.725540	0.887150	0.143010
N15531	N1553	0.734490	0.874970	0.097580
N15541	N1554	0.689090	0.920400	0.094180
N15551	N1555	0.679750	0.910340	0.059710
N15561	N1556	0.662370	0.938870	0.076130
N15571	N1557	0.649250	0.974320	0.128150
N15581	N1558	0.623240	0.998810	0.157620
N15591	N1559	0.651030	0.020090	0.124760
N15601	N1560	0.686030	0.078310	0.155720
S3111	S311	0.705370	0.913040	0.171880
S3121	S312	0.626540	0.002160	0.200720
C40571	C4057	0.602580	0.840280	0.530110
H24971	H2497	0.594400	0.852400	0.532700
C40581	C4058	0.599140	0.822580	0.542500
C40591	C4059	0.610720	0.804770	0.538620
H24981	H2498	0.609200	0.792600	0.547000
C40601	C4060	0.624820	0.805140	0.521900
H24991	H2499	0.632400	0.792900	0.518200
C40611	C4061	0.627580	0.823140	0.510930
H25001	H2500	0.637600	0.823200	0.499900
C40621	C4062	0.533380	0.852260	0.654670
C40631	C4063	0.513210	0.888520	0.581570
H25011	H2501	0.503200	0.899400	0.582900
C40641	C4064	0.524620	0.887400	0.563340
H25021	H2502	0.522000	0.896900	0.552200
C40651	C4065	0.540070	0.872210	0.561420
H25031	H2503	0.548700	0.871600	0.549300
C40661	C4066	0.542490	0.857900	0.577740
C40671	C4067	0.530010	0.859740	0.595280
H25041	H2504	0.531700	0.849800	0.606200
C40681	C4068	0.558770	0.841320	0.577180
C40691	C4069	0.584610	0.824330	0.560300
C40701	C4070	0.575890	0.814890	0.593160
C40711	C4071	0.596010	0.787680	0.611780
H25051	H2505	0.604200	0.786300	0.599400
C40721	C4072	0.579520	0.802210	0.611850
C40731	C4073	0.567350	0.804110	0.629600
H25061	H2506	0.556200	0.814000	0.630300
C40741	C4074	0.571920	0.791090	0.646420
H25071	H2507	0.563600	0.791600	0.658700
C40751	C4075	0.588600	0.777460	0.645110
H25081	H2508	0.591600	0.768900	0.656900
C40761	C4076	0.583010	0.732370	0.611380
H25091	H2509	0.584100	0.743000	0.601100
C40771	C4077	0.565400	0.720600	0.611660
H25101	H2510	0.554500	0.723100	0.601900
C40781	C4078	0.563600	0.704700	0.626670
H25111	H2511	0.551600	0.695900	0.627100
C40791	C4079	0.579840	0.702170	0.640760
C40801	C4080	0.597310	0.714980	0.639150
H25121	H2512	0.608500	0.713000	0.648700
C40811	C4081	0.579080	0.685590	0.656980
C40821	C4082	0.626110	0.749410	0.675220
N15611	N1561	0.616920	0.840960	0.514750
N15621	N1562	0.524460	0.862850	0.643010
N15631	N1563	0.515510	0.875030	0.597580
N15641	N1564	0.560910	0.829600	0.594180
N15651	N1565	0.570250	0.839660	0.559710
N15661	N1566	0.587630	0.811130	0.576130
N15671	N1567	0.600750	0.775680	0.628150
N15681	N1568	0.626760	0.751190	0.657620
N15691	N1569	0.598970	0.729910	0.624760
N15701	N1570	0.563970	0.671690	0.655720
S3131	S313	0.544630	0.836960	0.671880
S3141	S314	0.623460	0.747840	0.700720
C40831	C4083	0.602580	0.340280	0.030110
H25131	H2513	0.594400	0.352400	0.032700
C40841	C4084	0.599140	0.322580	0.042500
C40851	C4085	0.610720	0.304770	0.038620
H25141	H2514	0.609200	0.292600	0.047000
C40861	C4086	0.624820	0.305140	0.021900
H25151	H2515	0.632400	0.292900	0.018200
C40871	C4087	0.627580	0.323140	0.010930
H25161	H2516	0.637600	0.323200	0.999900
C40881	C4088	0.533380	0.352260	0.154670
C40891	C4089	0.513210	0.388520	0.081570
H25171	H2517	0.503200	0.399400	0.082900
C40901	C4090	0.524620	0.387400	0.063340
H25181	H2518	0.522000	0.396900	0.052200
C40911	C4091	0.540070	0.372210	0.061420
H25191	H2519	0.548700	0.371600	0.049300
C40921	C4092	0.542490	0.357900	0.077740
C40931	C4093	0.530010	0.359740	0.095280
H25201	H2520	0.531700	0.349800	0.106200
C40941	C4094	0.558770	0.341320	0.077180
C40951	C4095	0.584610	0.324330	0.060300
C40961	C4096	0.575890	0.314890	0.093160
C40971	C4097	0.596010	0.287680	0.111780
H25211	H2521	0.604200	0.286300	0.099400
C40981	C4098	0.579520	0.302210	0.111850
C40991	C4099	0.567350	0.304110	0.129600
H25221	H2522	0.556200	0.314000	0.130300
C41001	C4100	0.571920	0.291090	0.146420
H25231	H2523	0.563600	0.291600	0.158700
C41011	C4101	0.588600	0.277460	0.145110
H25241	H2524	0.591600	0.268900	0.156900
C41021	C4102	0.583010	0.232370	0.111380
H25251	H2525	0.584100	0.243000	0.101100
C41031	C4103	0.565400	0.220600	0.111660
H25261	H2526	0.554500	0.223100	0.101900
C41041	C4104	0.563600	0.204700	0.126670
H25271	H2527	0.551600	0.195900	0.127100
C41051	C4105	0.579840	0.202170	0.140760
C41061	C4106	0.597310	0.214980	0.139150
H25281	H2528	0.608500	0.213000	0.148700
C41071	C4107	0.579080	0.185590	0.156980
C41081	C4108	0.626110	0.249410	0.175220
N15711	N1571	0.616920	0.340960	0.014750
N15721	N1572	0.524460	0.362850	0.143010
N15731	N1573	0.515510	0.375030	0.097580
N15741	N1574	0.560910	0.329600	0.094180
N15751	N1575	0.570250	0.339660	0.059710
N15761	N1576	0.587630	0.311130	0.076130
N15771	N1577	0.600750	0.275680	0.128150
N15781	N1578	0.626760	0.251190	0.157620
N15791	N1579	0.598970	0.229910	0.124760
N15801	N1580	0.563970	0.171690	0.155720
S3151	S315	0.544630	0.336960	0.171880
S3161	S316	0.623460	0.247840	0.200720
C41091	C4109	0.102580	0.840280	0.030110
H25291	H2529	0.094400	0.852400	0.032700
C41101	C4110	0.099140	0.822580	0.042500
C41111	C4111	0.110720	0.804770	0.038620
H25301	H2530	0.109200	0.792600	0.047000
C41121	C4112	0.124820	0.805140	0.021900
H25311	H2531	0.132400	0.792900	0.018200
C41131	C4113	0.127580	0.823140	0.010930
H25321	H2532	0.137600	0.823200	0.999900
C41141	C4114	0.033380	0.852260	0.154670
C41151	C4115	0.013210	0.888520	0.081570
H25331	H2533	0.003200	0.899400	0.082900
C41161	C4116	0.024620	0.887400	0.063340
H25341	H2534	0.022000	0.896900	0.052200
C41171	C4117	0.040070	0.872210	0.061420
H25351	H2535	0.048700	0.871600	0.049300
C41181	C4118	0.042490	0.857900	0.077740
C41191	C4119	0.030010	0.859740	0.095280
H25361	H2536	0.031700	0.849800	0.106200
C41201	C4120	0.058770	0.841320	0.077180
C41211	C4121	0.084610	0.824330	0.060300
C41221	C4122	0.075890	0.814890	0.093160
C41231	C4123	0.096010	0.787680	0.111780
H25371	H2537	0.104200	0.786300	0.099400
C41241	C4124	0.079520	0.802210	0.111850
C41251	C4125	0.067350	0.804110	0.129600
H25381	H2538	0.056200	0.814000	0.130300
C41261	C4126	0.071920	0.791090	0.146420
H25391	H2539	0.063600	0.791600	0.158700
C41271	C4127	0.088600	0.777460	0.145110
H25401	H2540	0.091600	0.768900	0.156900
C41281	C4128	0.083010	0.732370	0.111380
H25411	H2541	0.084100	0.743000	0.101100
C41291	C4129	0.065400	0.720600	0.111660
H25421	H2542	0.054500	0.723100	0.101900
C41301	C4130	0.063600	0.704700	0.126670
H25431	H2543	0.051600	0.695900	0.127100
C41311	C4131	0.079840	0.702170	0.140760
C41321	C4132	0.097310	0.714980	0.139150
H25441	H2544	0.108500	0.713000	0.148700
C41331	C4133	0.079080	0.685590	0.156980
C41341	C4134	0.126110	0.749410	0.175220
N15811	N1581	0.116920	0.840960	0.014750
N15821	N1582	0.024460	0.862850	0.143010
N15831	N1583	0.015510	0.875030	0.097580
N15841	N1584	0.060910	0.829600	0.094180
N15851	N1585	0.070250	0.839660	0.059710
N15861	N1586	0.087630	0.811130	0.076130
N15871	N1587	0.100750	0.775680	0.128150
N15881	N1588	0.126760	0.751190	0.157620
N15891	N1589	0.098970	0.729910	0.124760
N15901	N1590	0.063970	0.671690	0.155720
S3171	S317	0.044630	0.836960	0.171880
S3181	S318	0.123460	0.747840	0.200720
C41351	C4135	0.102580	0.340280	0.530110
H25451	H2545	0.094400	0.352400	0.532700
C41361	C4136	0.099140	0.322580	0.542500
C41371	C4137	0.110720	0.304770	0.538620
H25461	H2546	0.109200	0.292600	0.547000
C41381	C4138	0.124820	0.305140	0.521900
H25471	H2547	0.132400	0.292900	0.518200
C41391	C4139	0.127580	0.323140	0.510930
H25481	H2548	0.137600	0.323200	0.499900
C41401	C4140	0.033380	0.352260	0.654670
C41411	C4141	0.013210	0.388520	0.581570
H25491	H2549	0.003200	0.399400	0.582900
C41421	C4142	0.024620	0.387400	0.563340
H25501	H2550	0.022000	0.396900	0.552200
C41431	C4143	0.040070	0.372210	0.561420
H25511	H2551	0.048700	0.371600	0.549300
C41441	C4144	0.042490	0.357900	0.577740
C41451	C4145	0.030010	0.359740	0.595280
H25521	H2552	0.031700	0.349800	0.606200
C41461	C4146	0.058770	0.341320	0.577180
C41471	C4147	0.084610	0.324330	0.560300
C41481	C4148	0.075890	0.314890	0.593160
C41491	C4149	0.096010	0.287680	0.611780
H25531	H2553	0.104200	0.286300	0.599400
C41501	C4150	0.079520	0.302210	0.611850
C41511	C4151	0.067350	0.304110	0.629600
H25541	H2554	0.056200	0.314000	0.630300
C41521	C4152	0.071920	0.291090	0.646420
H25551	H2555	0.063600	0.291600	0.658700
C41531	C4153	0.088600	0.277460	0.645110
H25561	H2556	0.091600	0.268900	0.656900
C41541	C4154	0.083010	0.232370	0.611380
H25571	H2557	0.084100	0.243000	0.601100
C41551	C4155	0.065400	0.220600	0.611660
H25581	H2558	0.054500	0.223100	0.601900
C41561	C4156	0.063600	0.204700	0.626670
H25591	H2559	0.051600	0.195900	0.627100
C41571	C4157	0.079840	0.202170	0.640760
C41581	C4158	0.097310	0.214980	0.639150
H25601	H2560	0.108500	0.213000	0.648700
C41591	C4159	0.079080	0.185590	0.656980
C41601	C4160	0.126110	0.249410	0.675220
N15911	N1591	0.116920	0.340960	0.514750
N15921	N1592	0.024460	0.362850	0.643010
N15931	N1593	0.015510	0.375030	0.597580
N15941	N1594	0.060910	0.329600	0.594180
N15951	N1595	0.070250	0.339660	0.559710
N15961	N1596	0.087630	0.311130	0.576130
N15971	N1597	0.100750	0.275680	0.628150
N15981	N1598	0.126760	0.251190	0.657620
N15991	N1599	0.098970	0.229910	0.624760
N16001	N1600	0.063970	0.171690	0.655720
S3191	S319	0.044630	0.336960	0.671880
S3201	S320	0.123460	0.247840	0.700720
C41611	C4161	0.840280	0.530110	0.602580
H25611	H2561	0.852400	0.532700	0.594400
C41621	C4162	0.822580	0.542500	0.599140
C41631	C4163	0.804770	0.538620	0.610720
H25621	H2562	0.792600	0.547000	0.609200
C41641	C4164	0.805140	0.521900	0.624820
H25631	H2563	0.792900	0.518200	0.632400
C41651	C4165	0.823140	0.510930	0.627580
H25641	H2564	0.823200	0.499900	0.637600
C41661	C4166	0.852260	0.654670	0.533380
C41671	C4167	0.888520	0.581570	0.513210
H25651	H2565	0.899400	0.582900	0.503200
C41681	C4168	0.887400	0.563340	0.524620
H25661	H2566	0.896900	0.552200	0.522000
C41691	C4169	0.872210	0.561420	0.540070
H25671	H2567	0.871600	0.549300	0.548700
C41701	C4170	0.857900	0.577740	0.542490
C41711	C4171	0.859740	0.595280	0.530010
H25681	H2568	0.849800	0.606200	0.531700
C41721	C4172	0.841320	0.577180	0.558770
C41731	C4173	0.824330	0.560300	0.584610
C41741	C4174	0.814890	0.593160	0.575890
C41751	C4175	0.787680	0.611780	0.596010
H25691	H2569	0.786300	0.599400	0.604200
C41761	C4176	0.802210	0.611850	0.579520
C41771	C4177	0.804110	0.629600	0.567350
H25701	H2570	0.814000	0.630300	0.556200
C41781	C4178	0.791090	0.646420	0.571920
H25711	H2571	0.791600	0.658700	0.563600
C41791	C4179	0.777460	0.645110	0.588600
H25721	H2572	0.768900	0.656900	0.591600
C41801	C4180	0.732370	0.611380	0.583010
H25731	H2573	0.743000	0.601100	0.584100
C41811	C4181	0.720600	0.611660	0.565400
H25741	H2574	0.723100	0.601900	0.554500
C41821	C4182	0.704700	0.626670	0.563600
H25751	H2575	0.695900	0.627100	0.551600
C41831	C4183	0.702170	0.640760	0.579840
C41841	C4184	0.714980	0.639150	0.597310
H25761	H2576	0.713000	0.648700	0.608500
C41851	C4185	0.685590	0.656980	0.579080
C41861	C4186	0.749410	0.675220	0.626110
N16011	N1601	0.840960	0.514750	0.616920
N16021	N1602	0.862850	0.643010	0.524460
N16031	N1603	0.875030	0.597580	0.515510
N16041	N1604	0.829600	0.594180	0.560910
N16051	N1605	0.839660	0.559710	0.570250
N16061	N1606	0.811130	0.576130	0.587630
N16071	N1607	0.775680	0.628150	0.600750
N16081	N1608	0.751190	0.657620	0.626760
N16091	N1609	0.729910	0.624760	0.598970
N16101	N1610	0.671690	0.655720	0.563970
S3211	S321	0.836960	0.671880	0.544630
S3221	S322	0.747840	0.700720	0.623460
C41871	C4187	0.840280	0.030110	0.102580
H25771	H2577	0.852400	0.032700	0.094400
C41881	C4188	0.822580	0.042500	0.099140
C41891	C4189	0.804770	0.038620	0.110720
H25781	H2578	0.792600	0.047000	0.109200
C41901	C4190	0.805140	0.021900	0.124820
H25791	H2579	0.792900	0.018200	0.132400
C41911	C4191	0.823140	0.010930	0.127580
H25801	H2580	0.823200	0.999900	0.137600
C41921	C4192	0.852260	0.154670	0.033380
C41931	C4193	0.888520	0.081570	0.013210
H25811	H2581	0.899400	0.082900	0.003200
C41941	C4194	0.887400	0.063340	0.024620
H25821	H2582	0.896900	0.052200	0.022000
C41951	C4195	0.872210	0.061420	0.040070
H25831	H2583	0.871600	0.049300	0.048700
C41961	C4196	0.857900	0.077740	0.042490
C41971	C4197	0.859740	0.095280	0.030010
H25841	H2584	0.849800	0.106200	0.031700
C41981	C4198	0.841320	0.077180	0.058770
C41991	C4199	0.824330	0.060300	0.084610
C42001	C4200	0.814890	0.093160	0.075890
C42011	C4201	0.787680	0.111780	0.096010
H25851	H2585	0.786300	0.099400	0.104200
C42021	C4202	0.802210	0.111850	0.079520
C42031	C4203	0.804110	0.129600	0.067350
H25861	H2586	0.814000	0.130300	0.056200
C42041	C4204	0.791090	0.146420	0.071920
H25871	H2587	0.791600	0.158700	0.063600
C42051	C4205	0.777460	0.145110	0.088600
H25881	H2588	0.768900	0.156900	0.091600
C42061	C4206	0.732370	0.111380	0.083010
H25891	H2589	0.743000	0.101100	0.084100
C42071	C4207	0.720600	0.111660	0.065400
H25901	H2590	0.723100	0.101900	0.054500
C42081	C4208	0.704700	0.126670	0.063600
H25911	H2591	0.695900	0.127100	0.051600
C42091	C4209	0.702170	0.140760	0.079840
C42101	C4210	0.714980	0.139150	0.097310
H25921	H2592	0.713000	0.148700	0.108500
C42111	C4211	0.685590	0.156980	0.079080
C42121	C4212	0.749410	0.175220	0.126110
N16111	N1611	0.840960	0.014750	0.116920
N16121	N1612	0.862850	0.143010	0.024460
N16131	N1613	0.875030	0.097580	0.015510
N16141	N1614	0.829600	0.094180	0.060910
N16151	N1615	0.839660	0.059710	0.070250
N16161	N1616	0.811130	0.076130	0.087630
N16171	N1617	0.775680	0.128150	0.100750
N16181	N1618	0.751190	0.157620	0.126760
N16191	N1619	0.729910	0.124760	0.098970
N16201	N1620	0.671690	0.155720	0.063970
S3231	S323	0.836960	0.171880	0.044630
S3241	S324	0.747840	0.200720	0.123460
C42131	C4213	0.340280	0.530110	0.102580
H25931	H2593	0.352400	0.532700	0.094400
C42141	C4214	0.322580	0.542500	0.099140
C42151	C4215	0.304770	0.538620	0.110720
H25941	H2594	0.292600	0.547000	0.109200
C42161	C4216	0.305140	0.521900	0.124820
H25951	H2595	0.292900	0.518200	0.132400
C42171	C4217	0.323140	0.510930	0.127580
H25961	H2596	0.323200	0.499900	0.137600
C42181	C4218	0.352260	0.654670	0.033380
C42191	C4219	0.388520	0.581570	0.013210
H25971	H2597	0.399400	0.582900	0.003200
C42201	C4220	0.387400	0.563340	0.024620
H25981	H2598	0.396900	0.552200	0.022000
C42211	C4221	0.372210	0.561420	0.040070
H25991	H2599	0.371600	0.549300	0.048700
C42221	C4222	0.357900	0.577740	0.042490
C42231	C4223	0.359740	0.595280	0.030010
H26001	H2600	0.349800	0.606200	0.031700
C42241	C4224	0.341320	0.577180	0.058770
C42251	C4225	0.324330	0.560300	0.084610
C42261	C4226	0.314890	0.593160	0.075890
C42271	C4227	0.287680	0.611780	0.096010
H26011	H2601	0.286300	0.599400	0.104200
C42281	C4228	0.302210	0.611850	0.079520
C42291	C4229	0.304110	0.629600	0.067350
H26021	H2602	0.314000	0.630300	0.056200
C42301	C4230	0.291090	0.646420	0.071920
H26031	H2603	0.291600	0.658700	0.063600
C42311	C4231	0.277460	0.645110	0.088600
H26041	H2604	0.268900	0.656900	0.091600
C42321	C4232	0.232370	0.611380	0.083010
H26051	H2605	0.243000	0.601100	0.084100
C42331	C4233	0.220600	0.611660	0.065400
H26061	H2606	0.223100	0.601900	0.054500
C42341	C4234	0.204700	0.626670	0.063600
H26071	H2607	0.195900	0.627100	0.051600
C42351	C4235	0.202170	0.640760	0.079840
C42361	C4236	0.214980	0.639150	0.097310
H26081	H2608	0.213000	0.648700	0.108500
C42371	C4237	0.185590	0.656980	0.079080
C42381	C4238	0.249410	0.675220	0.126110
N16211	N1621	0.340960	0.514750	0.116920
N16221	N1622	0.362850	0.643010	0.024460
N16231	N1623	0.375030	0.597580	0.015510
N16241	N1624	0.329600	0.594180	0.060910
N16251	N1625	0.339660	0.559710	0.070250
N16261	N1626	0.311130	0.576130	0.087630
N16271	N1627	0.275680	0.628150	0.100750
N16281	N1628	0.251190	0.657620	0.126760
N16291	N1629	0.229910	0.624760	0.098970
N16301	N1630	0.171690	0.655720	0.063970
S3251	S325	0.336960	0.671880	0.044630
S3261	S326	0.247840	0.700720	0.123460
C42391	C4239	0.340280	0.030110	0.602580
H26091	H2609	0.352400	0.032700	0.594400
C42401	C4240	0.322580	0.042500	0.599140
C42411	C4241	0.304770	0.038620	0.610720
H26101	H2610	0.292600	0.047000	0.609200
C42421	C4242	0.305140	0.021900	0.624820
H26111	H2611	0.292900	0.018200	0.632400
C42431	C4243	0.323140	0.010930	0.627580
H26121	H2612	0.323200	0.999900	0.637600
C42441	C4244	0.352260	0.154670	0.533380
C42451	C4245	0.388520	0.081570	0.513210
H26131	H2613	0.399400	0.082900	0.503200
C42461	C4246	0.387400	0.063340	0.524620
H26141	H2614	0.396900	0.052200	0.522000
C42471	C4247	0.372210	0.061420	0.540070
H26151	H2615	0.371600	0.049300	0.548700
C42481	C4248	0.357900	0.077740	0.542490
C42491	C4249	0.359740	0.095280	0.530010
H26161	H2616	0.349800	0.106200	0.531700
C42501	C4250	0.341320	0.077180	0.558770
C42511	C4251	0.324330	0.060300	0.584610
C42521	C4252	0.314890	0.093160	0.575890
C42531	C4253	0.287680	0.111780	0.596010
H26171	H2617	0.286300	0.099400	0.604200
C42541	C4254	0.302210	0.111850	0.579520
C42551	C4255	0.304110	0.129600	0.567350
H26181	H2618	0.314000	0.130300	0.556200
C42561	C4256	0.291090	0.146420	0.571920
H26191	H2619	0.291600	0.158700	0.563600
C42571	C4257	0.277460	0.145110	0.588600
H26201	H2620	0.268900	0.156900	0.591600
C42581	C4258	0.232370	0.111380	0.583010
H26211	H2621	0.243000	0.101100	0.584100
C42591	C4259	0.220600	0.111660	0.565400
H26221	H2622	0.223100	0.101900	0.554500
C42601	C4260	0.204700	0.126670	0.563600
H26231	H2623	0.195900	0.127100	0.551600
C42611	C4261	0.202170	0.140760	0.579840
C42621	C4262	0.214980	0.139150	0.597310
H26241	H2624	0.213000	0.148700	0.608500
C42631	C4263	0.185590	0.156980	0.579080
C42641	C4264	0.249410	0.175220	0.626110
N16311	N1631	0.340960	0.014750	0.616920
N16321	N1632	0.362850	0.143010	0.524460
N16331	N1633	0.375030	0.097580	0.515510
N16341	N1634	0.329600	0.094180	0.560910
N16351	N1635	0.339660	0.059710	0.570250
N16361	N1636	0.311130	0.076130	0.587630
N16371	N1637	0.275680	0.128150	0.600750
N16381	N1638	0.251190	0.157620	0.626760
N16391	N1639	0.229910	0.124760	0.598970
N16401	N1640	0.171690	0.155720	0.563970
S3271	S327	0.336960	0.171880	0.544630
S3281	S328	0.247840	0.200720	0.623460
C42651	C4265	0.409720	0.030110	0.147420
H26251	H2625	0.397600	0.032700	0.155600
C42661	C4266	0.427420	0.042500	0.150860
C42671	C4267	0.445230	0.038620	0.139280
H26261	H2626	0.457400	0.047000	0.140800
C42681	C4268	0.444860	0.021900	0.125180
H26271	H2627	0.457100	0.018200	0.117600
C42691	C4269	0.426860	0.010930	0.122420
H26281	H2628	0.426800	0.999900	0.112400
C42701	C4270	0.397740	0.154670	0.216620
C42711	C4271	0.361480	0.081570	0.236790
H26291	H2629	0.350600	0.082900	0.246800
C42721	C4272	0.362600	0.063340	0.225380
H26301	H2630	0.353100	0.052200	0.228000
C42731	C4273	0.377790	0.061420	0.209930
H26311	H2631	0.378400	0.049300	0.201300
C42741	C4274	0.392100	0.077740	0.207510
C42751	C4275	0.390260	0.095280	0.219990
H26321	H2632	0.400200	0.106200	0.218300
C42761	C4276	0.408680	0.077180	0.191230
C42771	C4277	0.425670	0.060300	0.165390
C42781	C4278	0.435110	0.093160	0.174110
C42791	C4279	0.462320	0.111780	0.153990
H26331	H2633	0.463700	0.099400	0.145800
C42801	C4280	0.447790	0.111850	0.170480
C42811	C4281	0.445890	0.129600	0.182650
H26341	H2634	0.436000	0.130300	0.193800
C42821	C4282	0.458910	0.146420	0.178080
H26351	H2635	0.458400	0.158700	0.186400
C42831	C4283	0.472540	0.145110	0.161400
H26361	H2636	0.481100	0.156900	0.158400
C42841	C4284	0.517630	0.111380	0.166990
H26371	H2637	0.507000	0.101100	0.165900
C42851	C4285	0.529400	0.111660	0.184600
H26381	H2638	0.526900	0.101900	0.195500
C42861	C4286	0.545300	0.126670	0.186400
H26391	H2639	0.554100	0.127100	0.198400
C42871	C4287	0.547830	0.140760	0.170160
C42881	C4288	0.535020	0.139150	0.152690
H26401	H2640	0.537000	0.148700	0.141500
C42891	C4289	0.564410	0.156980	0.170920
C42901	C4290	0.500590	0.175220	0.123890
N16411	N1641	0.409040	0.014750	0.133080
N16421	N1642	0.387150	0.143010	0.225540
N16431	N1643	0.374970	0.097580	0.234490
N16441	N1644	0.420400	0.094180	0.189090
N16451	N1645	0.410340	0.059710	0.179750
N16461	N1646	0.438870	0.076130	0.162370
N16471	N1647	0.474320	0.128150	0.149250
N16481	N1648	0.498810	0.157620	0.123240
N16491	N1649	0.520090	0.124760	0.151030
N16501	N1650	0.578310	0.155720	0.186030
S3291	S329	0.413040	0.171880	0.205370
S3301	S330	0.502160	0.200720	0.126540
C42911	C4291	0.409720	0.530110	0.647420
H26411	H2641	0.397600	0.532700	0.655600
C42921	C4292	0.427420	0.542500	0.650860
C42931	C4293	0.445230	0.538620	0.639280
H26421	H2642	0.457400	0.547000	0.640800
C42941	C4294	0.444860	0.521900	0.625180
H26431	H2643	0.457100	0.518200	0.617600
C42951	C4295	0.426860	0.510930	0.622420
H26441	H2644	0.426800	0.499900	0.612400
C42961	C4296	0.397740	0.654670	0.716620
C42971	C4297	0.361480	0.581570	0.736790
H26451	H2645	0.350600	0.582900	0.746800
C42981	C4298	0.362600	0.563340	0.725380
H26461	H2646	0.353100	0.552200	0.728000
C42991	C4299	0.377790	0.561420	0.709930
H26471	H2647	0.378400	0.549300	0.701300
C43001	C4300	0.392100	0.577740	0.707510
C43011	C4301	0.390260	0.595280	0.719990
H26481	H2648	0.400200	0.606200	0.718300
C43021	C4302	0.408680	0.577180	0.691230
C43031	C4303	0.425670	0.560300	0.665390
C43041	C4304	0.435110	0.593160	0.674110
C43051	C4305	0.462320	0.611780	0.653990
H26491	H2649	0.463700	0.599400	0.645800
C43061	C4306	0.447790	0.611850	0.670480
C43071	C4307	0.445890	0.629600	0.682650
H26501	H2650	0.436000	0.630300	0.693800
C43081	C4308	0.458910	0.646420	0.678080
H26511	H2651	0.458400	0.658700	0.686400
C43091	C4309	0.472540	0.645110	0.661400
H26521	H2652	0.481100	0.656900	0.658400
C43101	C4310	0.517630	0.611380	0.666990
H26531	H2653	0.507000	0.601100	0.665900
C43111	C4311	0.529400	0.611660	0.684600
H26541	H2654	0.526900	0.601900	0.695500
C43121	C4312	0.545300	0.626670	0.686400
H26551	H2655	0.554100	0.627100	0.698400
C43131	C4313	0.547830	0.640760	0.670160
C43141	C4314	0.535020	0.639150	0.652690
H26561	H2656	0.537000	0.648700	0.641500
C43151	C4315	0.564410	0.656980	0.670920
C43161	C4316	0.500590	0.675220	0.623890
N16511	N1651	0.409040	0.514750	0.633080
N16521	N1652	0.387150	0.643010	0.725540
N16531	N1653	0.374970	0.597580	0.734490
N16541	N1654	0.420400	0.594180	0.689090
N16551	N1655	0.410340	0.559710	0.679750
N16561	N1656	0.438870	0.576130	0.662370
N16571	N1657	0.474320	0.628150	0.649250
N16581	N1658	0.498810	0.657620	0.623240
N16591	N1659	0.520090	0.624760	0.651030
N16601	N1660	0.578310	0.655720	0.686030
S3311	S331	0.413040	0.671880	0.705370
S3321	S332	0.502160	0.700720	0.626540
C43171	C4317	0.909720	0.030110	0.647420
H26571	H2657	0.897600	0.032700	0.655600
C43181	C4318	0.927420	0.042500	0.650860
C43191	C4319	0.945230	0.038620	0.639280
H26581	H2658	0.957400	0.047000	0.640800
C43201	C4320	0.944860	0.021900	0.625180
H26591	H2659	0.957100	0.018200	0.617600
C43211	C4321	0.926860	0.010930	0.622420
H26601	H2660	0.926800	0.999900	0.612400
C43221	C4322	0.897740	0.154670	0.716620
C43231	C4323	0.861480	0.081570	0.736790
H26611	H2661	0.850600	0.082900	0.746800
C43241	C4324	0.862600	0.063340	0.725380
H26621	H2662	0.853100	0.052200	0.728000
C43251	C4325	0.877790	0.061420	0.709930
H26631	H2663	0.878400	0.049300	0.701300
C43261	C4326	0.892100	0.077740	0.707510
C43271	C4327	0.890260	0.095280	0.719990
H26641	H2664	0.900200	0.106200	0.718300
C43281	C4328	0.908680	0.077180	0.691230
C43291	C4329	0.925670	0.060300	0.665390
C43301	C4330	0.935110	0.093160	0.674110
C43311	C4331	0.962320	0.111780	0.653990
H26651	H2665	0.963700	0.099400	0.645800
C43321	C4332	0.947790	0.111850	0.670480
C43331	C4333	0.945890	0.129600	0.682650
H26661	H2666	0.936000	0.130300	0.693800
C43341	C4334	0.958910	0.146420	0.678080
H26671	H2667	0.958400	0.158700	0.686400
C43351	C4335	0.972540	0.145110	0.661400
H26681	H2668	0.981100	0.156900	0.658400
C43361	C4336	0.017630	0.111380	0.666990
H26691	H2669	0.007000	0.101100	0.665900
C43371	C4337	0.029400	0.111660	0.684600
H26701	H2670	0.026900	0.101900	0.695500
C43381	C4338	0.045300	0.126670	0.686400
H26711	H2671	0.054100	0.127100	0.698400
C43391	C4339	0.047830	0.140760	0.670160
C43401	C4340	0.035020	0.139150	0.652690
H26721	H2672	0.037000	0.148700	0.641500
C43411	C4341	0.064410	0.156980	0.670920
C43421	C4342	0.000590	0.175220	0.623890
N16611	N1661	0.909040	0.014750	0.633080
N16621	N1662	0.887150	0.143010	0.725540
N16631	N1663	0.874970	0.097580	0.734490
N16641	N1664	0.920400	0.094180	0.689090
N16651	N1665	0.910340	0.059710	0.679750
N16661	N1666	0.938870	0.076130	0.662370
N16671	N1667	0.974320	0.128150	0.649250
N16681	N1668	0.998810	0.157620	0.623240
N16691	N1669	0.020090	0.124760	0.651030
N16701	N1670	0.078310	0.155720	0.686030
S3331	S333	0.913040	0.171880	0.705370
S3341	S334	0.002160	0.200720	0.626540
C43431	C4343	0.909720	0.530110	0.147420
H26731	H2673	0.897600	0.532700	0.155600
C43441	C4344	0.927420	0.542500	0.150860
C43451	C4345	0.945230	0.538620	0.139280
H26741	H2674	0.957400	0.547000	0.140800
C43461	C4346	0.944860	0.521900	0.125180
H26751	H2675	0.957100	0.518200	0.117600
C43471	C4347	0.926860	0.510930	0.122420
H26761	H2676	0.926800	0.499900	0.112400
C43481	C4348	0.897740	0.654670	0.216620
C43491	C4349	0.861480	0.581570	0.236790
H26771	H2677	0.850600	0.582900	0.246800
C43501	C4350	0.862600	0.563340	0.225380
H26781	H2678	0.853100	0.552200	0.228000
C43511	C4351	0.877790	0.561420	0.209930
H26791	H2679	0.878400	0.549300	0.201300
C43521	C4352	0.892100	0.577740	0.207510
C43531	C4353	0.890260	0.595280	0.219990
H26801	H2680	0.900200	0.606200	0.218300
C43541	C4354	0.908680	0.577180	0.191230
C43551	C4355	0.925670	0.560300	0.165390
C43561	C4356	0.935110	0.593160	0.174110
C43571	C4357	0.962320	0.611780	0.153990
H26811	H2681	0.963700	0.599400	0.145800
C43581	C4358	0.947790	0.611850	0.170480
C43591	C4359	0.945890	0.629600	0.182650
H26821	H2682	0.936000	0.630300	0.193800
C43601	C4360	0.958910	0.646420	0.178080
H26831	H2683	0.958400	0.658700	0.186400
C43611	C4361	0.972540	0.645110	0.161400
H26841	H2684	0.981100	0.656900	0.158400
C43621	C4362	0.017630	0.611380	0.166990
H26851	H2685	0.007000	0.601100	0.165900
C43631	C4363	0.029400	0.611660	0.184600
H26861	H2686	0.026900	0.601900	0.195500
C43641	C4364	0.045300	0.626670	0.186400
H26871	H2687	0.054100	0.627100	0.198400
C43651	C4365	0.047830	0.640760	0.170160
C43661	C4366	0.035020	0.639150	0.152690
H26881	H2688	0.037000	0.648700	0.141500
C43671	C4367	0.064410	0.656980	0.170920
C43681	C4368	0.000590	0.675220	0.123890
N16711	N1671	0.909040	0.514750	0.133080
N16721	N1672	0.887150	0.643010	0.225540
N16731	N1673	0.874970	0.597580	0.234490
N16741	N1674	0.920400	0.594180	0.189090
N16751	N1675	0.910340	0.559710	0.179750
N16761	N1676	0.938870	0.576130	0.162370
N16771	N1677	0.974320	0.628150	0.149250
N16781	N1678	0.998810	0.657620	0.123240
N16791	N1679	0.020090	0.624760	0.151030
N16801	N1680	0.078310	0.655720	0.186030
S3351	S335	0.913040	0.671880	0.205370
S3361	S336	0.002160	0.700720	0.126540
C43691	C4369	0.909720	0.719890	0.102580
H26891	H2689	0.897600	0.717300	0.094400
C43701	C4370	0.927420	0.707500	0.099140
C43711	C4371	0.945230	0.711380	0.110720
H26901	H2690	0.957400	0.703000	0.109200
C43721	C4372	0.944860	0.728100	0.124820
H26911	H2691	0.957100	0.731800	0.132400
C43731	C4373	0.926860	0.739070	0.127580
H26921	H2692	0.926800	0.750100	0.137600
C43741	C4374	0.897740	0.595330	0.033380
C43751	C4375	0.861480	0.668430	0.013210
H26931	H2693	0.850600	0.667100	0.003200
C43761	C4376	0.862600	0.686660	0.024620
H26941	H2694	0.853100	0.697800	0.022000
C43771	C4377	0.877790	0.688580	0.040070
H26951	H2695	0.878400	0.700700	0.048700
C43781	C4378	0.892100	0.672260	0.042490
C43791	C4379	0.890260	0.654720	0.030010
H26961	H2696	0.900200	0.643800	0.031700
C43801	C4380	0.908680	0.672820	0.058770
C43811	C4381	0.925670	0.689700	0.084610
C43821	C4382	0.935110	0.656840	0.075890
C43831	C4383	0.962320	0.638220	0.096010
H26971	H2697	0.963700	0.650600	0.104200
C43841	C4384	0.947790	0.638150	0.079520
C43851	C4385	0.945890	0.620400	0.067350
H26981	H2698	0.936000	0.619700	0.056200
C43861	C4386	0.958910	0.603580	0.071920
H26991	H2699	0.958400	0.591300	0.063600
C43871	C4387	0.972540	0.604890	0.088600
H27001	H2700	0.981100	0.593100	0.091600
C43881	C4388	0.017630	0.638620	0.083010
H27011	H2701	0.007000	0.648900	0.084100
C43891	C4389	0.029400	0.638340	0.065400
H27021	H2702	0.026900	0.648100	0.054500
C43901	C4390	0.045300	0.623330	0.063600
H27031	H2703	0.054100	0.622900	0.051600
C43911	C4391	0.047830	0.609240	0.079840
C43921	C4392	0.035020	0.610850	0.097310
H27041	H2704	0.037000	0.601300	0.108500
C43931	C4393	0.064410	0.593020	0.079080
C43941	C4394	0.000590	0.574780	0.126110
N16811	N1681	0.909040	0.735250	0.116920
N16821	N1682	0.887150	0.606990	0.024460
N16831	N1683	0.874970	0.652420	0.015510
N16841	N1684	0.920400	0.655820	0.060910
N16851	N1685	0.910340	0.690290	0.070250
N16861	N1686	0.938870	0.673870	0.087630
N16871	N1687	0.974320	0.621850	0.100750
N16881	N1688	0.998810	0.592380	0.126760
N16891	N1689	0.020090	0.625240	0.098970
N16901	N1690	0.078310	0.594280	0.063970
S3371	S337	0.913040	0.578120	0.044630
S3381	S338	0.002160	0.549280	0.123460
C43951	C4395	0.909720	0.219890	0.602580
H27051	H2705	0.897600	0.217300	0.594400
C43961	C4396	0.927420	0.207500	0.599140
C43971	C4397	0.945230	0.211380	0.610720
H27061	H2706	0.957400	0.203000	0.609200
C43981	C4398	0.944860	0.228100	0.624820
H27071	H2707	0.957100	0.231800	0.632400
C43991	C4399	0.926860	0.239070	0.627580
H27081	H2708	0.926800	0.250100	0.637600
C44001	C4400	0.897740	0.095330	0.533380
C44011	C4401	0.861480	0.168430	0.513210
H27091	H2709	0.850600	0.167100	0.503200
C44021	C4402	0.862600	0.186660	0.524620
H27101	H2710	0.853100	0.197800	0.522000
C44031	C4403	0.877790	0.188580	0.540070
H27111	H2711	0.878400	0.200700	0.548700
C44041	C4404	0.892100	0.172260	0.542490
C44051	C4405	0.890260	0.154720	0.530010
H27121	H2712	0.900200	0.143800	0.531700
C44061	C4406	0.908680	0.172820	0.558770
C44071	C4407	0.925670	0.189700	0.584610
C44081	C4408	0.935110	0.156840	0.575890
C44091	C4409	0.962320	0.138220	0.596010
H27131	H2713	0.963700	0.150600	0.604200
C44101	C4410	0.947790	0.138150	0.579520
C44111	C4411	0.945890	0.120400	0.567350
H27141	H2714	0.936000	0.119700	0.556200
C44121	C4412	0.958910	0.103580	0.571920
H27151	H2715	0.958400	0.091300	0.563600
C44131	C4413	0.972540	0.104890	0.588600
H27161	H2716	0.981100	0.093100	0.591600
C44141	C4414	0.017630	0.138620	0.583010
H27171	H2717	0.007000	0.148900	0.584100
C44151	C4415	0.029400	0.138340	0.565400
H27181	H2718	0.026900	0.148100	0.554500
C44161	C4416	0.045300	0.123330	0.563600
H27191	H2719	0.054100	0.122900	0.551600
C44171	C4417	0.047830	0.109240	0.579840
C44181	C4418	0.035020	0.110850	0.597310
H27201	H2720	0.037000	0.101300	0.608500
C44191	C4419	0.064410	0.093020	0.579080
C44201	C4420	0.000590	0.074780	0.626110
N16911	N1691	0.909040	0.235250	0.616920
N16921	N1692	0.887150	0.106990	0.524460
N16931	N1693	0.874970	0.152420	0.515510
N16941	N1694	0.920400	0.155820	0.560910
N16951	N1695	0.910340	0.190290	0.570250
N16961	N1696	0.938870	0.173870	0.587630
N16971	N1697	0.974320	0.121850	0.600750
N16981	N1698	0.998810	0.092380	0.626760
N16991	N1699	0.020090	0.125240	0.598970
N17001	N1700	0.078310	0.094280	0.563970
S3391	S339	0.913040	0.078120	0.544630
S3401	S340	0.002160	0.049280	0.623460
C44211	C4421	0.409720	0.719890	0.602580
H27211	H2721	0.397600	0.717300	0.594400
C44221	C4422	0.427420	0.707500	0.599140
C44231	C4423	0.445230	0.711380	0.610720
H27221	H2722	0.457400	0.703000	0.609200
C44241	C4424	0.444860	0.728100	0.624820
H27231	H2723	0.457100	0.731800	0.632400
C44251	C4425	0.426860	0.739070	0.627580
H27241	H2724	0.426800	0.750100	0.637600
C44261	C4426	0.397740	0.595330	0.533380
C44271	C4427	0.361480	0.668430	0.513210
H27251	H2725	0.350600	0.667100	0.503200
C44281	C4428	0.362600	0.686660	0.524620
H27261	H2726	0.353100	0.697800	0.522000
C44291	C4429	0.377790	0.688580	0.540070
H27271	H2727	0.378400	0.700700	0.548700
C44301	C4430	0.392100	0.672260	0.542490
C44311	C4431	0.390260	0.654720	0.530010
H27281	H2728	0.400200	0.643800	0.531700
C44321	C4432	0.408680	0.672820	0.558770
C44331	C4433	0.425670	0.689700	0.584610
C44341	C4434	0.435110	0.656840	0.575890
C44351	C4435	0.462320	0.638220	0.596010
H27291	H2729	0.463700	0.650600	0.604200
C44361	C4436	0.447790	0.638150	0.579520
C44371	C4437	0.445890	0.620400	0.567350
H27301	H2730	0.436000	0.619700	0.556200
C44381	C4438	0.458910	0.603580	0.571920
H27311	H2731	0.458400	0.591300	0.563600
C44391	C4439	0.472540	0.604890	0.588600
H27321	H2732	0.481100	0.593100	0.591600
C44401	C4440	0.517630	0.638620	0.583010
H27331	H2733	0.507000	0.648900	0.584100
C44411	C4441	0.529400	0.638340	0.565400
H27341	H2734	0.526900	0.648100	0.554500
C44421	C4442	0.545300	0.623330	0.563600
H27351	H2735	0.554100	0.622900	0.551600
C44431	C4443	0.547830	0.609240	0.579840
C44441	C4444	0.535020	0.610850	0.597310
H27361	H2736	0.537000	0.601300	0.608500
C44451	C4445	0.564410	0.593020	0.579080
C44461	C4446	0.500590	0.574780	0.626110
N17011	N1701	0.409040	0.735250	0.616920
N17021	N1702	0.387150	0.606990	0.524460
N17031	N1703	0.374970	0.652420	0.515510
N17041	N1704	0.420400	0.655820	0.560910
N17051	N1705	0.410340	0.690290	0.570250
N17061	N1706	0.438870	0.673870	0.587630
N17071	N1707	0.474320	0.621850	0.600750
N17081	N1708	0.498810	0.592380	0.626760
N17091	N1709	0.520090	0.625240	0.598970
N17101	N1710	0.578310	0.594280	0.563970
S3411	S341	0.413040	0.578120	0.544630
S3421	S342	0.502160	0.549280	0.623460
C44471	C4447	0.409720	0.219890	0.102580
H27371	H2737	0.397600	0.217300	0.094400
C44481	C4448	0.427420	0.207500	0.099140
C44491	C4449	0.445230	0.211380	0.110720
H27381	H2738	0.457400	0.203000	0.109200
C44501	C4450	0.444860	0.228100	0.124820
H27391	H2739	0.457100	0.231800	0.132400
C44511	C4451	0.426860	0.239070	0.127580
H27401	H2740	0.426800	0.250100	0.137600
C44521	C4452	0.397740	0.095330	0.033380
C44531	C4453	0.361480	0.168430	0.013210
H27411	H2741	0.350600	0.167100	0.003200
C44541	C4454	0.362600	0.186660	0.024620
H27421	H2742	0.353100	0.197800	0.022000
C44551	C4455	0.377790	0.188580	0.040070
H27431	H2743	0.378400	0.200700	0.048700
C44561	C4456	0.392100	0.172260	0.042490
C44571	C4457	0.390260	0.154720	0.030010
H27441	H2744	0.400200	0.143800	0.031700
C44581	C4458	0.408680	0.172820	0.058770
C44591	C4459	0.425670	0.189700	0.084610
C44601	C4460	0.435110	0.156840	0.075890
C44611	C4461	0.462320	0.138220	0.096010
H27451	H2745	0.463700	0.150600	0.104200
C44621	C4462	0.447790	0.138150	0.079520
C44631	C4463	0.445890	0.120400	0.067350
H27461	H2746	0.436000	0.119700	0.056200
C44641	C4464	0.458910	0.103580	0.071920
H27471	H2747	0.458400	0.091300	0.063600
C44651	C4465	0.472540	0.104890	0.088600
H27481	H2748	0.481100	0.093100	0.091600
C44661	C4466	0.517630	0.138620	0.083010
H27491	H2749	0.507000	0.148900	0.084100
C44671	C4467	0.529400	0.138340	0.065400
H27501	H2750	0.526900	0.148100	0.054500
C44681	C4468	0.545300	0.123330	0.063600
H27511	H2751	0.554100	0.122900	0.051600
C44691	C4469	0.547830	0.109240	0.079840
C44701	C4470	0.535020	0.110850	0.097310
H27521	H2752	0.537000	0.101300	0.108500
C44711	C4471	0.564410	0.093020	0.079080
C44721	C4472	0.500590	0.074780	0.126110
N17111	N1711	0.409040	0.235250	0.116920
N17121	N1712	0.387150	0.106990	0.024460
N17131	N1713	0.374970	0.152420	0.015510
N17141	N1714	0.420400	0.155820	0.060910
N17151	N1715	0.410340	0.190290	0.070250
N17161	N1716	0.438870	0.173870	0.087630
N17171	N1717	0.474320	0.121850	0.100750
N17181	N1718	0.498810	0.092380	0.126760
N17191	N1719	0.520090	0.125240	0.098970
N17201	N1720	0.578310	0.094280	0.063970
S3431	S343	0.413040	0.078120	0.044630
S3441	S344	0.502160	0.049280	0.123460
C44731	C4473	0.340280	0.219890	0.647420
H27531	H2753	0.352400	0.217300	0.655600
C44741	C4474	0.322580	0.207500	0.650860
C44751	C4475	0.304770	0.211380	0.639280
H27541	H2754	0.292600	0.203000	0.640800
C44761	C4476	0.305140	0.228100	0.625180
H27551	H2755	0.292900	0.231800	0.617600
C44771	C4477	0.323140	0.239070	0.622420
H27561	H2756	0.323200	0.250100	0.612400
C44781	C4478	0.352260	0.095330	0.716620
C44791	C4479	0.388520	0.168430	0.736790
H27571	H2757	0.399400	0.167100	0.746800
C44801	C4480	0.387400	0.186660	0.725380
H27581	H2758	0.396900	0.197800	0.728000
C44811	C4481	0.372210	0.188580	0.709930
H27591	H2759	0.371600	0.200700	0.701300
C44821	C4482	0.357900	0.172260	0.707510
C44831	C4483	0.359740	0.154720	0.719990
H27601	H2760	0.349800	0.143800	0.718300
C44841	C4484	0.341320	0.172820	0.691230
C44851	C4485	0.324330	0.189700	0.665390
C44861	C4486	0.314890	0.156840	0.674110
C44871	C4487	0.287680	0.138220	0.653990
H27611	H2761	0.286300	0.150600	0.645800
C44881	C4488	0.302210	0.138150	0.670480
C44891	C4489	0.304110	0.120400	0.682650
H27621	H2762	0.314000	0.119700	0.693800
C44901	C4490	0.291090	0.103580	0.678080
H27631	H2763	0.291600	0.091300	0.686400
C44911	C4491	0.277460	0.104890	0.661400
H27641	H2764	0.268900	0.093100	0.658400
C44921	C4492	0.232370	0.138620	0.666990
H27651	H2765	0.243000	0.148900	0.665900
C44931	C4493	0.220600	0.138340	0.684600
H27661	H2766	0.223100	0.148100	0.695500
C44941	C4494	0.204700	0.123330	0.686400
H27671	H2767	0.195900	0.122900	0.698400
C44951	C4495	0.202170	0.109240	0.670160
C44961	C4496	0.214980	0.110850	0.652690
H27681	H2768	0.213000	0.101300	0.641500
C44971	C4497	0.185590	0.093020	0.670920
C44981	C4498	0.249410	0.074780	0.623890
N17211	N1721	0.340960	0.235250	0.633080
N17221	N1722	0.362850	0.106990	0.725540
N17231	N1723	0.375030	0.152420	0.734490
N17241	N1724	0.329600	0.155820	0.689090
N17251	N1725	0.339660	0.190290	0.679750
N17261	N1726	0.311130	0.173870	0.662370
N17271	N1727	0.275680	0.121850	0.649250
N17281	N1728	0.251190	0.092380	0.623240
N17291	N1729	0.229910	0.125240	0.651030
N17301	N1730	0.171690	0.094280	0.686030
S3451	S345	0.336960	0.078120	0.705370
S3461	S346	0.247840	0.049280	0.626540
C44991	C4499	0.340280	0.719890	0.147420
H27691	H2769	0.352400	0.717300	0.155600
C45001	C4500	0.322580	0.707500	0.150860
C45011	C4501	0.304770	0.711380	0.139280
H27701	H2770	0.292600	0.703000	0.140800
C45021	C4502	0.305140	0.728100	0.125180
H27711	H2771	0.292900	0.731800	0.117600
C45031	C4503	0.323140	0.739070	0.122420
H27721	H2772	0.323200	0.750100	0.112400
C45041	C4504	0.352260	0.595330	0.216620
C45051	C4505	0.388520	0.668430	0.236790
H27731	H2773	0.399400	0.667100	0.246800
C45061	C4506	0.387400	0.686660	0.225380
H27741	H2774	0.396900	0.697800	0.228000
C45071	C4507	0.372210	0.688580	0.209930
H27751	H2775	0.371600	0.700700	0.201300
C45081	C4508	0.357900	0.672260	0.207510
C45091	C4509	0.359740	0.654720	0.219990
H27761	H2776	0.349800	0.643800	0.218300
C45101	C4510	0.341320	0.672820	0.191230
C45111	C4511	0.324330	0.689700	0.165390
C45121	C4512	0.314890	0.656840	0.174110
C45131	C4513	0.287680	0.638220	0.153990
H27771	H2777	0.286300	0.650600	0.145800
C45141	C4514	0.302210	0.638150	0.170480
C45151	C4515	0.304110	0.620400	0.182650
H27781	H2778	0.314000	0.619700	0.193800
C45161	C4516	0.291090	0.603580	0.178080
H27791	H2779	0.291600	0.591300	0.186400
C45171	C4517	0.277460	0.604890	0.161400
H27801	H2780	0.268900	0.593100	0.158400
C45181	C4518	0.232370	0.638620	0.166990
H27811	H2781	0.243000	0.648900	0.165900
C45191	C4519	0.220600	0.638340	0.184600
H27821	H2782	0.223100	0.648100	0.195500
C45201	C4520	0.204700	0.623330	0.186400
H27831	H2783	0.195900	0.622900	0.198400
C45211	C4521	0.202170	0.609240	0.170160
C45221	C4522	0.214980	0.610850	0.152690
H27841	H2784	0.213000	0.601300	0.141500
C45231	C4523	0.185590	0.593020	0.170920
C45241	C4524	0.249410	0.574780	0.123890
N17311	N1731	0.340960	0.735250	0.133080
N17321	N1732	0.362850	0.606990	0.225540
N17331	N1733	0.375030	0.652420	0.234490
N17341	N1734	0.329600	0.655820	0.189090
N17351	N1735	0.339660	0.690290	0.179750
N17361	N1736	0.311130	0.673870	0.162370
N17371	N1737	0.275680	0.621850	0.149250
N17381	N1738	0.251190	0.592380	0.123240
N17391	N1739	0.229910	0.625240	0.151030
N17401	N1740	0.171690	0.594280	0.186030
S3471	S347	0.336960	0.578120	0.205370
S3481	S348	0.247840	0.549280	0.126540
C45251	C4525	0.840280	0.219890	0.147420
H27851	H2785	0.852400	0.217300	0.155600
C45261	C4526	0.822580	0.207500	0.150860
C45271	C4527	0.804770	0.211380	0.139280
H27861	H2786	0.792600	0.203000	0.140800
C45281	C4528	0.805140	0.228100	0.125180
H27871	H2787	0.792900	0.231800	0.117600
C45291	C4529	0.823140	0.239070	0.122420
H27881	H2788	0.823200	0.250100	0.112400
C45301	C4530	0.852260	0.095330	0.216620
C45311	C4531	0.888520	0.168430	0.236790
H27891	H2789	0.899400	0.167100	0.246800
C45321	C4532	0.887400	0.186660	0.225380
H27901	H2790	0.896900	0.197800	0.228000
C45331	C4533	0.872210	0.188580	0.209930
H27911	H2791	0.871600	0.200700	0.201300
C45341	C4534	0.857900	0.172260	0.207510
C45351	C4535	0.859740	0.154720	0.219990
H27921	H2792	0.849800	0.143800	0.218300
C45361	C4536	0.841320	0.172820	0.191230
C45371	C4537	0.824330	0.189700	0.165390
C45381	C4538	0.814890	0.156840	0.174110
C45391	C4539	0.787680	0.138220	0.153990
H27931	H2793	0.786300	0.150600	0.145800
C45401	C4540	0.802210	0.138150	0.170480
C45411	C4541	0.804110	0.120400	0.182650
H27941	H2794	0.814000	0.119700	0.193800
C45421	C4542	0.791090	0.103580	0.178080
H27951	H2795	0.791600	0.091300	0.186400
C45431	C4543	0.777460	0.104890	0.161400
H27961	H2796	0.768900	0.093100	0.158400
C45441	C4544	0.732370	0.138620	0.166990
H27971	H2797	0.743000	0.148900	0.165900
C45451	C4545	0.720600	0.138340	0.184600
H27981	H2798	0.723100	0.148100	0.195500
C45461	C4546	0.704700	0.123330	0.186400
H27991	H2799	0.695900	0.122900	0.198400
C45471	C4547	0.702170	0.109240	0.170160
C45481	C4548	0.714980	0.110850	0.152690
H28001	H2800	0.713000	0.101300	0.141500
C45491	C4549	0.685590	0.093020	0.170920
C45501	C4550	0.749410	0.074780	0.123890
N17411	N1741	0.840960	0.235250	0.133080
N17421	N1742	0.862850	0.106990	0.225540
N17431	N1743	0.875030	0.152420	0.234490
N17441	N1744	0.829600	0.155820	0.189090
N17451	N1745	0.839660	0.190290	0.179750
N17461	N1746	0.811130	0.173870	0.162370
N17471	N1747	0.775680	0.121850	0.149250
N17481	N1748	0.751190	0.092380	0.123240
N17491	N1749	0.729910	0.125240	0.151030
N17501	N1750	0.671690	0.094280	0.186030
S3491	S349	0.836960	0.078120	0.205370
S3501	S350	0.747840	0.049280	0.126540
C45511	C4551	0.840280	0.719890	0.647420
H28011	H2801	0.852400	0.717300	0.655600
C45521	C4552	0.822580	0.707500	0.650860
C45531	C4553	0.804770	0.711380	0.639280
H28021	H2802	0.792600	0.703000	0.640800
C45541	C4554	0.805140	0.728100	0.625180
H28031	H2803	0.792900	0.731800	0.617600
C45551	C4555	0.823140	0.739070	0.622420
H28041	H2804	0.823200	0.750100	0.612400
C45561	C4556	0.852260	0.595330	0.716620
C45571	C4557	0.888520	0.668430	0.736790
H28051	H2805	0.899400	0.667100	0.746800
C45581	C4558	0.887400	0.686660	0.725380
H28061	H2806	0.896900	0.697800	0.728000
C45591	C4559	0.872210	0.688580	0.709930
H28071	H2807	0.871600	0.700700	0.701300
C45601	C4560	0.857900	0.672260	0.707510
C45611	C4561	0.859740	0.654720	0.719990
H28081	H2808	0.849800	0.643800	0.718300
C45621	C4562	0.841320	0.672820	0.691230
C45631	C4563	0.824330	0.689700	0.665390
C45641	C4564	0.814890	0.656840	0.674110
C45651	C4565	0.787680	0.638220	0.653990
H28091	H2809	0.786300	0.650600	0.645800
C45661	C4566	0.802210	0.638150	0.670480
C45671	C4567	0.804110	0.620400	0.682650
H28101	H2810	0.814000	0.619700	0.693800
C45681	C4568	0.791090	0.603580	0.678080
H28111	H2811	0.791600	0.591300	0.686400
C45691	C4569	0.777460	0.604890	0.661400
H28121	H2812	0.768900	0.593100	0.658400
C45701	C4570	0.732370	0.638620	0.666990
H28131	H2813	0.743000	0.648900	0.665900
C45711	C4571	0.720600	0.638340	0.684600
H28141	H2814	0.723100	0.648100	0.695500
C45721	C4572	0.704700	0.623330	0.686400
H28151	H2815	0.695900	0.622900	0.698400
C45731	C4573	0.702170	0.609240	0.670160
C45741	C4574	0.714980	0.610850	0.652690
H28161	H2816	0.713000	0.601300	0.641500
C45751	C4575	0.685590	0.593020	0.670920
C45761	C4576	0.749410	0.574780	0.623890
N17511	N1751	0.840960	0.735250	0.633080
N17521	N1752	0.862850	0.606990	0.725540
N17531	N1753	0.875030	0.652420	0.734490
N17541	N1754	0.829600	0.655820	0.689090
N17551	N1755	0.839660	0.690290	0.679750
N17561	N1756	0.811130	0.673870	0.662370
N17571	N1757	0.775680	0.621850	0.649250
N17581	N1758	0.751190	0.592380	0.623240
N17591	N1759	0.729910	0.625240	0.651030
N17601	N1760	0.671690	0.594280	0.686030
S3511	S351	0.836960	0.578120	0.705370
S3521	S352	0.747840	0.549280	0.626540
C45771	C4577	0.030110	0.147420	0.409720
H28171	H2817	0.032700	0.155600	0.397600
C45781	C4578	0.042500	0.150860	0.427420
C45791	C4579	0.038620	0.139280	0.445230
H28181	H2818	0.047000	0.140800	0.457400
C45801	C4580	0.021900	0.125180	0.444860
H28191	H2819	0.018200	0.117600	0.457100
C45811	C4581	0.010930	0.122420	0.426860
H28201	H2820	0.999900	0.112400	0.426800
C45821	C4582	0.154670	0.216620	0.397740
C45831	C4583	0.081570	0.236790	0.361480
H28211	H2821	0.082900	0.246800	0.350600
C45841	C4584	0.063340	0.225380	0.362600
H28221	H2822	0.052200	0.228000	0.353100
C45851	C4585	0.061420	0.209930	0.377790
H28231	H2823	0.049300	0.201300	0.378400
C45861	C4586	0.077740	0.207510	0.392100
C45871	C4587	0.095280	0.219990	0.390260
H28241	H2824	0.106200	0.218300	0.400200
C45881	C4588	0.077180	0.191230	0.408680
C45891	C4589	0.060300	0.165390	0.425670
C45901	C4590	0.093160	0.174110	0.435110
C45911	C4591	0.111780	0.153990	0.462320
H28251	H2825	0.099400	0.145800	0.463700
C45921	C4592	0.111850	0.170480	0.447790
C45931	C4593	0.129600	0.182650	0.445890
H28261	H2826	0.130300	0.193800	0.436000
C45941	C4594	0.146420	0.178080	0.458910
H28271	H2827	0.158700	0.186400	0.458400
C45951	C4595	0.145110	0.161400	0.472540
H28281	H2828	0.156900	0.158400	0.481100
C45961	C4596	0.111380	0.166990	0.517630
H28291	H2829	0.101100	0.165900	0.507000
C45971	C4597	0.111660	0.184600	0.529400
H28301	H2830	0.101900	0.195500	0.526900
C45981	C4598	0.126670	0.186400	0.545300
H28311	H2831	0.127100	0.198400	0.554100
C45991	C4599	0.140760	0.170160	0.547830
C46001	C4600	0.139150	0.152690	0.535020
H28321	H2832	0.148700	0.141500	0.537000
C46011	C4601	0.156980	0.170920	0.564410
C46021	C4602	0.175220	0.123890	0.500590
N17611	N1761	0.014750	0.133080	0.409040
N17621	N1762	0.143010	0.225540	0.387150
N17631	N1763	0.097580	0.234490	0.374970
N17641	N1764	0.094180	0.189090	0.420400
N17651	N1765	0.059710	0.179750	0.410340
N17661	N1766	0.076130	0.162370	0.438870
N17671	N1767	0.128150	0.149250	0.474320
N17681	N1768	0.157620	0.123240	0.498810
N17691	N1769	0.124760	0.151030	0.520090
N17701	N1770	0.155720	0.186030	0.578310
S3531	S353	0.171880	0.205370	0.413040
S3541	S354	0.200720	0.126540	0.502160
C46031	C4603	0.030110	0.647420	0.909720
H28331	H2833	0.032700	0.655600	0.897600
C46041	C4604	0.042500	0.650860	0.927420
C46051	C4605	0.038620	0.639280	0.945230
H28341	H2834	0.047000	0.640800	0.957400
C46061	C4606	0.021900	0.625180	0.944860
H28351	H2835	0.018200	0.617600	0.957100
C46071	C4607	0.010930	0.622420	0.926860
H28361	H2836	0.999900	0.612400	0.926800
C46081	C4608	0.154670	0.716620	0.897740
C46091	C4609	0.081570	0.736790	0.861480
H28371	H2837	0.082900	0.746800	0.850600
C46101	C4610	0.063340	0.725380	0.862600
H28381	H2838	0.052200	0.728000	0.853100
C46111	C4611	0.061420	0.709930	0.877790
H28391	H2839	0.049300	0.701300	0.878400
C46121	C4612	0.077740	0.707510	0.892100
C46131	C4613	0.095280	0.719990	0.890260
H28401	H2840	0.106200	0.718300	0.900200
C46141	C4614	0.077180	0.691230	0.908680
C46151	C4615	0.060300	0.665390	0.925670
C46161	C4616	0.093160	0.674110	0.935110
C46171	C4617	0.111780	0.653990	0.962320
H28411	H2841	0.099400	0.645800	0.963700
C46181	C4618	0.111850	0.670480	0.947790
C46191	C4619	0.129600	0.682650	0.945890
H28421	H2842	0.130300	0.693800	0.936000
C46201	C4620	0.146420	0.678080	0.958910
H28431	H2843	0.158700	0.686400	0.958400
C46211	C4621	0.145110	0.661400	0.972540
H28441	H2844	0.156900	0.658400	0.981100
C46221	C4622	0.111380	0.666990	0.017630
H28451	H2845	0.101100	0.665900	0.007000
C46231	C4623	0.111660	0.684600	0.029400
H28461	H2846	0.101900	0.695500	0.026900
C46241	C4624	0.126670	0.686400	0.045300
H28471	H2847	0.127100	0.698400	0.054100
C46251	C4625	0.140760	0.670160	0.047830
C46261	C4626	0.139150	0.652690	0.035020
H28481	H2848	0.148700	0.641500	0.037000
C46271	C4627	0.156980	0.670920	0.064410
C46281	C4628	0.175220	0.623890	0.000590
N17711	N1771	0.014750	0.633080	0.909040
N17721	N1772	0.143010	0.725540	0.887150
N17731	N1773	0.097580	0.734490	0.874970
N17741	N1774	0.094180	0.689090	0.920400
N17751	N1775	0.059710	0.679750	0.910340
N17761	N1776	0.076130	0.662370	0.938870
N17771	N1777	0.128150	0.649250	0.974320
N17781	N1778	0.157620	0.623240	0.998810
N17791	N1779	0.124760	0.651030	0.020090
N17801	N1780	0.155720	0.686030	0.078310
S3551	S355	0.171880	0.705370	0.913040
S3561	S356	0.200720	0.626540	0.002160
C46291	C4629	0.530110	0.147420	0.909720
H28491	H2849	0.532700	0.155600	0.897600
C46301	C4630	0.542500	0.150860	0.927420
C46311	C4631	0.538620	0.139280	0.945230
H28501	H2850	0.547000	0.140800	0.957400
C46321	C4632	0.521900	0.125180	0.944860
H28511	H2851	0.518200	0.117600	0.957100
C46331	C4633	0.510930	0.122420	0.926860
H28521	H2852	0.499900	0.112400	0.926800
C46341	C4634	0.654670	0.216620	0.897740
C46351	C4635	0.581570	0.236790	0.861480
H28531	H2853	0.582900	0.246800	0.850600
C46361	C4636	0.563340	0.225380	0.862600
H28541	H2854	0.552200	0.228000	0.853100
C46371	C4637	0.561420	0.209930	0.877790
H28551	H2855	0.549300	0.201300	0.878400
C46381	C4638	0.577740	0.207510	0.892100
C46391	C4639	0.595280	0.219990	0.890260
H28561	H2856	0.606200	0.218300	0.900200
C46401	C4640	0.577180	0.191230	0.908680
C46411	C4641	0.560300	0.165390	0.925670
C46421	C4642	0.593160	0.174110	0.935110
C46431	C4643	0.611780	0.153990	0.962320
H28571	H2857	0.599400	0.145800	0.963700
C46441	C4644	0.611850	0.170480	0.947790
C46451	C4645	0.629600	0.182650	0.945890
H28581	H2858	0.630300	0.193800	0.936000
C46461	C4646	0.646420	0.178080	0.958910
H28591	H2859	0.658700	0.186400	0.958400
C46471	C4647	0.645110	0.161400	0.972540
H28601	H2860	0.656900	0.158400	0.981100
C46481	C4648	0.611380	0.166990	0.017630
H28611	H2861	0.601100	0.165900	0.007000
C46491	C4649	0.611660	0.184600	0.029400
H28621	H2862	0.601900	0.195500	0.026900
C46501	C4650	0.626670	0.186400	0.045300
H28631	H2863	0.627100	0.198400	0.054100
C46511	C4651	0.640760	0.170160	0.047830
C46521	C4652	0.639150	0.152690	0.035020
H28641	H2864	0.648700	0.141500	0.037000
C46531	C4653	0.656980	0.170920	0.064410
C46541	C4654	0.675220	0.123890	0.000590
N17811	N1781	0.514750	0.133080	0.909040
N17821	N1782	0.643010	0.225540	0.887150
N17831	N1783	0.597580	0.234490	0.874970
N17841	N1784	0.594180	0.189090	0.920400
N17851	N1785	0.559710	0.179750	0.910340
N17861	N1786	0.576130	0.162370	0.938870
N17871	N1787	0.628150	0.149250	0.974320
N17881	N1788	0.657620	0.123240	0.998810
N17891	N1789	0.624760	0.151030	0.020090
N17901	N1790	0.655720	0.186030	0.078310
S3571	S357	0.671880	0.205370	0.913040
S3581	S358	0.700720	0.126540	0.002160
C46551	C4655	0.530110	0.647420	0.409720
H28651	H2865	0.532700	0.655600	0.397600
C46561	C4656	0.542500	0.650860	0.427420
C46571	C4657	0.538620	0.639280	0.445230
H28661	H2866	0.547000	0.640800	0.457400
C46581	C4658	0.521900	0.625180	0.444860
H28671	H2867	0.518200	0.617600	0.457100
C46591	C4659	0.510930	0.622420	0.426860
H28681	H2868	0.499900	0.612400	0.426800
C46601	C4660	0.654670	0.716620	0.397740
C46611	C4661	0.581570	0.736790	0.361480
H28691	H2869	0.582900	0.746800	0.350600
C46621	C4662	0.563340	0.725380	0.362600
H28701	H2870	0.552200	0.728000	0.353100
C46631	C4663	0.561420	0.709930	0.377790
H28711	H2871	0.549300	0.701300	0.378400
C46641	C4664	0.577740	0.707510	0.392100
C46651	C4665	0.595280	0.719990	0.390260
H28721	H2872	0.606200	0.718300	0.400200
C46661	C4666	0.577180	0.691230	0.408680
C46671	C4667	0.560300	0.665390	0.425670
C46681	C4668	0.593160	0.674110	0.435110
C46691	C4669	0.611780	0.653990	0.462320
H28731	H2873	0.599400	0.645800	0.463700
C46701	C4670	0.611850	0.670480	0.447790
C46711	C4671	0.629600	0.682650	0.445890
H28741	H2874	0.630300	0.693800	0.436000
C46721	C4672	0.646420	0.678080	0.458910
H28751	H2875	0.658700	0.686400	0.458400
C46731	C4673	0.645110	0.661400	0.472540
H28761	H2876	0.656900	0.658400	0.481100
C46741	C4674	0.611380	0.666990	0.517630
H28771	H2877	0.601100	0.665900	0.507000
C46751	C4675	0.611660	0.684600	0.529400
H28781	H2878	0.601900	0.695500	0.526900
C46761	C4676	0.626670	0.686400	0.545300
H28791	H2879	0.627100	0.698400	0.554100
C46771	C4677	0.640760	0.670160	0.547830
C46781	C4678	0.639150	0.652690	0.535020
H28801	H2880	0.648700	0.641500	0.537000
C46791	C4679	0.656980	0.670920	0.564410
C46801	C4680	0.675220	0.623890	0.500590
N17911	N1791	0.514750	0.633080	0.409040
N17921	N1792	0.643010	0.725540	0.387150
N17931	N1793	0.597580	0.734490	0.374970
N17941	N1794	0.594180	0.689090	0.420400
N17951	N1795	0.559710	0.679750	0.410340
N17961	N1796	0.576130	0.662370	0.438870
N17971	N1797	0.628150	0.649250	0.474320
N17981	N1798	0.657620	0.623240	0.498810
N17991	N1799	0.624760	0.651030	0.520090
N18001	N1800	0.655720	0.686030	0.578310
S3591	S359	0.671880	0.705370	0.413040
S3601	S360	0.700720	0.626540	0.502160
C46811	C4681	0.530110	0.602580	0.840280
H28811	H2881	0.532700	0.594400	0.852400
C46821	C4682	0.542500	0.599140	0.822580
C46831	C4683	0.538620	0.610720	0.804770
H28821	H2882	0.547000	0.609200	0.792600
C46841	C4684	0.521900	0.624820	0.805140
H28831	H2883	0.518200	0.632400	0.792900
C46851	C4685	0.510930	0.627580	0.823140
H28841	H2884	0.499900	0.637600	0.823200
C46861	C4686	0.654670	0.533380	0.852260
C46871	C4687	0.581570	0.513210	0.888520
H28851	H2885	0.582900	0.503200	0.899400
C46881	C4688	0.563340	0.524620	0.887400
H28861	H2886	0.552200	0.522000	0.896900
C46891	C4689	0.561420	0.540070	0.872210
H28871	H2887	0.549300	0.548700	0.871600
C46901	C4690	0.577740	0.542490	0.857900
C46911	C4691	0.595280	0.530010	0.859740
H28881	H2888	0.606200	0.531700	0.849800
C46921	C4692	0.577180	0.558770	0.841320
C46931	C4693	0.560300	0.584610	0.824330
C46941	C4694	0.593160	0.575890	0.814890
C46951	C4695	0.611780	0.596010	0.787680
H28891	H2889	0.599400	0.604200	0.786300
C46961	C4696	0.611850	0.579520	0.802210
C46971	C4697	0.629600	0.567350	0.804110
H28901	H2890	0.630300	0.556200	0.814000
C46981	C4698	0.646420	0.571920	0.791090
H28911	H2891	0.658700	0.563600	0.791600
C46991	C4699	0.645110	0.588600	0.777460
H28921	H2892	0.656900	0.591600	0.768900
C47001	C4700	0.611380	0.583010	0.732370
H28931	H2893	0.601100	0.584100	0.743000
C47011	C4701	0.611660	0.565400	0.720600
H28941	H2894	0.601900	0.554500	0.723100
C47021	C4702	0.626670	0.563600	0.704700
H28951	H2895	0.627100	0.551600	0.695900
C47031	C4703	0.640760	0.579840	0.702170
C47041	C4704	0.639150	0.597310	0.714980
H28961	H2896	0.648700	0.608500	0.713000
C47051	C4705	0.656980	0.579080	0.685590
C47061	C4706	0.675220	0.626110	0.749410
N18011	N1801	0.514750	0.616920	0.840960
N18021	N1802	0.643010	0.524460	0.862850
N18031	N1803	0.597580	0.515510	0.875030
N18041	N1804	0.594180	0.560910	0.829600
N18051	N1805	0.559710	0.570250	0.839660
N18061	N1806	0.576130	0.587630	0.811130
N18071	N1807	0.628150	0.600750	0.775680
N18081	N1808	0.657620	0.626760	0.751190
N18091	N1809	0.624760	0.598970	0.729910
N18101	N1810	0.655720	0.563970	0.671690
S3611	S361	0.671880	0.544630	0.836960
S3621	S362	0.700720	0.623460	0.747840
C47071	C4707	0.530110	0.102580	0.340280
H28971	H2897	0.532700	0.094400	0.352400
C47081	C4708	0.542500	0.099140	0.322580
C47091	C4709	0.538620	0.110720	0.304770
H28981	H2898	0.547000	0.109200	0.292600
C47101	C4710	0.521900	0.124820	0.305140
H28991	H2899	0.518200	0.132400	0.292900
C47111	C4711	0.510930	0.127580	0.323140
H29001	H2900	0.499900	0.137600	0.323200
C47121	C4712	0.654670	0.033380	0.352260
C47131	C4713	0.581570	0.013210	0.388520
H29011	H2901	0.582900	0.003200	0.399400
C47141	C4714	0.563340	0.024620	0.387400
H29021	H2902	0.552200	0.022000	0.396900
C47151	C4715	0.561420	0.040070	0.372210
H29031	H2903	0.549300	0.048700	0.371600
C47161	C4716	0.577740	0.042490	0.357900
C47171	C4717	0.595280	0.030010	0.359740
H29041	H2904	0.606200	0.031700	0.349800
C47181	C4718	0.577180	0.058770	0.341320
C47191	C4719	0.560300	0.084610	0.324330
C47201	C4720	0.593160	0.075890	0.314890
C47211	C4721	0.611780	0.096010	0.287680
H29051	H2905	0.599400	0.104200	0.286300
C47221	C4722	0.611850	0.079520	0.302210
C47231	C4723	0.629600	0.067350	0.304110
H29061	H2906	0.630300	0.056200	0.314000
C47241	C4724	0.646420	0.071920	0.291090
H29071	H2907	0.658700	0.063600	0.291600
C47251	C4725	0.645110	0.088600	0.277460
H29081	H2908	0.656900	0.091600	0.268900
C47261	C4726	0.611380	0.083010	0.232370
H29091	H2909	0.601100	0.084100	0.243000
C47271	C4727	0.611660	0.065400	0.220600
H29101	H2910	0.601900	0.054500	0.223100
C47281	C4728	0.626670	0.063600	0.204700
H29111	H2911	0.627100	0.051600	0.195900
C47291	C4729	0.640760	0.079840	0.202170
C47301	C4730	0.639150	0.097310	0.214980
H29121	H2912	0.648700	0.108500	0.213000
C47311	C4731	0.656980	0.079080	0.185590
C47321	C4732	0.675220	0.126110	0.249410
N18111	N1811	0.514750	0.116920	0.340960
N18121	N1812	0.643010	0.024460	0.362850
N18131	N1813	0.597580	0.015510	0.375030
N18141	N1814	0.594180	0.060910	0.329600
N18151	N1815	0.559710	0.070250	0.339660
N18161	N1816	0.576130	0.087630	0.311130
N18171	N1817	0.628150	0.100750	0.275680
N18181	N1818	0.657620	0.126760	0.251190
N18191	N1819	0.624760	0.098970	0.229910
N18201	N1820	0.655720	0.063970	0.171690
S3631	S363	0.671880	0.044630	0.336960
S3641	S364	0.700720	0.123460	0.247840
C47331	C4733	0.030110	0.602580	0.340280
H29131	H2913	0.032700	0.594400	0.352400
C47341	C4734	0.042500	0.599140	0.322580
C47351	C4735	0.038620	0.610720	0.304770
H29141	H2914	0.047000	0.609200	0.292600
C47361	C4736	0.021900	0.624820	0.305140
H29151	H2915	0.018200	0.632400	0.292900
C47371	C4737	0.010930	0.627580	0.323140
H29161	H2916	0.999900	0.637600	0.323200
C47381	C4738	0.154670	0.533380	0.352260
C47391	C4739	0.081570	0.513210	0.388520
H29171	H2917	0.082900	0.503200	0.399400
C47401	C4740	0.063340	0.524620	0.387400
H29181	H2918	0.052200	0.522000	0.396900
C47411	C4741	0.061420	0.540070	0.372210
H29191	H2919	0.049300	0.548700	0.371600
C47421	C4742	0.077740	0.542490	0.357900
C47431	C4743	0.095280	0.530010	0.359740
H29201	H2920	0.106200	0.531700	0.349800
C47441	C4744	0.077180	0.558770	0.341320
C47451	C4745	0.060300	0.584610	0.324330
C47461	C4746	0.093160	0.575890	0.314890
C47471	C4747	0.111780	0.596010	0.287680
H29211	H2921	0.099400	0.604200	0.286300
C47481	C4748	0.111850	0.579520	0.302210
C47491	C4749	0.129600	0.567350	0.304110
H29221	H2922	0.130300	0.556200	0.314000
C47501	C4750	0.146420	0.571920	0.291090
H29231	H2923	0.158700	0.563600	0.291600
C47511	C4751	0.145110	0.588600	0.277460
H29241	H2924	0.156900	0.591600	0.268900
C47521	C4752	0.111380	0.583010	0.232370
H29251	H2925	0.101100	0.584100	0.243000
C47531	C4753	0.111660	0.565400	0.220600
H29261	H2926	0.101900	0.554500	0.223100
C47541	C4754	0.126670	0.563600	0.204700
H29271	H2927	0.127100	0.551600	0.195900
C47551	C4755	0.140760	0.579840	0.202170
C47561	C4756	0.139150	0.597310	0.214980
H29281	H2928	0.148700	0.608500	0.213000
C47571	C4757	0.156980	0.579080	0.185590
C47581	C4758	0.175220	0.626110	0.249410
N18211	N1821	0.014750	0.616920	0.340960
N18221	N1822	0.143010	0.524460	0.362850
N18231	N1823	0.097580	0.515510	0.375030
N18241	N1824	0.094180	0.560910	0.329600
N18251	N1825	0.059710	0.570250	0.339660
N18261	N1826	0.076130	0.587630	0.311130
N18271	N1827	0.128150	0.600750	0.275680
N18281	N1828	0.157620	0.626760	0.251190
N18291	N1829	0.124760	0.598970	0.229910
N18301	N1830	0.155720	0.563970	0.171690
S3651	S365	0.171880	0.544630	0.336960
S3661	S366	0.200720	0.623460	0.247840
C47591	C4759	0.030110	0.102580	0.840280
H29291	H2929	0.032700	0.094400	0.852400
C47601	C4760	0.042500	0.099140	0.822580
C47611	C4761	0.038620	0.110720	0.804770
H29301	H2930	0.047000	0.109200	0.792600
C47621	C4762	0.021900	0.124820	0.805140
H29311	H2931	0.018200	0.132400	0.792900
C47631	C4763	0.010930	0.127580	0.823140
H29321	H2932	0.999900	0.137600	0.823200
C47641	C4764	0.154670	0.033380	0.852260
C47651	C4765	0.081570	0.013210	0.888520
H29331	H2933	0.082900	0.003200	0.899400
C47661	C4766	0.063340	0.024620	0.887400
H29341	H2934	0.052200	0.022000	0.896900
C47671	C4767	0.061420	0.040070	0.872210
H29351	H2935	0.049300	0.048700	0.871600
C47681	C4768	0.077740	0.042490	0.857900
C47691	C4769	0.095280	0.030010	0.859740
H29361	H2936	0.106200	0.031700	0.849800
C47701	C4770	0.077180	0.058770	0.841320
C47711	C4771	0.060300	0.084610	0.824330
C47721	C4772	0.093160	0.075890	0.814890
C47731	C4773	0.111780	0.096010	0.787680
H29371	H2937	0.099400	0.104200	0.786300
C47741	C4774	0.111850	0.079520	0.802210
C47751	C4775	0.129600	0.067350	0.804110
H29381	H2938	0.130300	0.056200	0.814000
C47761	C4776	0.146420	0.071920	0.791090
H29391	H2939	0.158700	0.063600	0.791600
C47771	C4777	0.145110	0.088600	0.777460
H29401	H2940	0.156900	0.091600	0.768900
C47781	C4778	0.111380	0.083010	0.732370
H29411	H2941	0.101100	0.084100	0.743000
C47791	C4779	0.111660	0.065400	0.720600
H29421	H2942	0.101900	0.054500	0.723100
C47801	C4780	0.126670	0.063600	0.704700
H29431	H2943	0.127100	0.051600	0.695900
C47811	C4781	0.140760	0.079840	0.702170
C47821	C4782	0.139150	0.097310	0.714980
H29441	H2944	0.148700	0.108500	0.713000
C47831	C4783	0.156980	0.079080	0.685590
C47841	C4784	0.175220	0.126110	0.749410
N18311	N1831	0.014750	0.116920	0.840960
N18321	N1832	0.143010	0.024460	0.862850
N18331	N1833	0.097580	0.015510	0.875030
N18341	N1834	0.094180	0.060910	0.829600
N18351	N1835	0.059710	0.070250	0.839660
N18361	N1836	0.076130	0.087630	0.811130
N18371	N1837	0.128150	0.100750	0.775680
N18381	N1838	0.157620	0.126760	0.751190
N18391	N1839	0.124760	0.098970	0.729910
N18401	N1840	0.155720	0.063970	0.671690
S3671	S367	0.171880	0.044630	0.836960
S3681	S368	0.200720	0.123460	0.747840
C47851	C4785	0.219890	0.647420	0.340280
H29451	H2945	0.217300	0.655600	0.352400
C47861	C4786	0.207500	0.650860	0.322580
C47871	C4787	0.211380	0.639280	0.304770
H29461	H2946	0.203000	0.640800	0.292600
C47881	C4788	0.228100	0.625180	0.305140
H29471	H2947	0.231800	0.617600	0.292900
C47891	C4789	0.239070	0.622420	0.323140
H29481	H2948	0.250100	0.612400	0.323200
C47901	C4790	0.095330	0.716620	0.352260
C47911	C4791	0.168430	0.736790	0.388520
H29491	H2949	0.167100	0.746800	0.399400
C47921	C4792	0.186660	0.725380	0.387400
H29501	H2950	0.197800	0.728000	0.396900
C47931	C4793	0.188580	0.709930	0.372210
H29511	H2951	0.200700	0.701300	0.371600
C47941	C4794	0.172260	0.707510	0.357900
C47951	C4795	0.154720	0.719990	0.359740
H29521	H2952	0.143800	0.718300	0.349800
C47961	C4796	0.172820	0.691230	0.341320
C47971	C4797	0.189700	0.665390	0.324330
C47981	C4798	0.156840	0.674110	0.314890
C47991	C4799	0.138220	0.653990	0.287680
H29531	H2953	0.150600	0.645800	0.286300
C48001	C4800	0.138150	0.670480	0.302210
C48011	C4801	0.120400	0.682650	0.304110
H29541	H2954	0.119700	0.693800	0.314000
C48021	C4802	0.103580	0.678080	0.291090
H29551	H2955	0.091300	0.686400	0.291600
C48031	C4803	0.104890	0.661400	0.277460
H29561	H2956	0.093100	0.658400	0.268900
C48041	C4804	0.138620	0.666990	0.232370
H29571	H2957	0.148900	0.665900	0.243000
C48051	C4805	0.138340	0.684600	0.220600
H29581	H2958	0.148100	0.695500	0.223100
C48061	C4806	0.123330	0.686400	0.204700
H29591	H2959	0.122900	0.698400	0.195900
C48071	C4807	0.109240	0.670160	0.202170
C48081	C4808	0.110850	0.652690	0.214980
H29601	H2960	0.101300	0.641500	0.213000
C48091	C4809	0.093020	0.670920	0.185590
C48101	C4810	0.074780	0.623890	0.249410
N18411	N1841	0.235250	0.633080	0.340960
N18421	N1842	0.106990	0.725540	0.362850
N18431	N1843	0.152420	0.734490	0.375030
N18441	N1844	0.155820	0.689090	0.329600
N18451	N1845	0.190290	0.679750	0.339660
N18461	N1846	0.173870	0.662370	0.311130
N18471	N1847	0.121850	0.649250	0.275680
N18481	N1848	0.092380	0.623240	0.251190
N18491	N1849	0.125240	0.651030	0.229910
N18501	N1850	0.094280	0.686030	0.171690
S3691	S369	0.078120	0.705370	0.336960
S3701	S370	0.049280	0.626540	0.247840
C48111	C4811	0.219890	0.147420	0.840280
H29611	H2961	0.217300	0.155600	0.852400
C48121	C4812	0.207500	0.150860	0.822580
C48131	C4813	0.211380	0.139280	0.804770
H29621	H2962	0.203000	0.140800	0.792600
C48141	C4814	0.228100	0.125180	0.805140
H29631	H2963	0.231800	0.117600	0.792900
C48151	C4815	0.239070	0.122420	0.823140
H29641	H2964	0.250100	0.112400	0.823200
C48161	C4816	0.095330	0.216620	0.852260
C48171	C4817	0.168430	0.236790	0.888520
H29651	H2965	0.167100	0.246800	0.899400
C48181	C4818	0.186660	0.225380	0.887400
H29661	H2966	0.197800	0.228000	0.896900
C48191	C4819	0.188580	0.209930	0.872210
H29671	H2967	0.200700	0.201300	0.871600
C48201	C4820	0.172260	0.207510	0.857900
C48211	C4821	0.154720	0.219990	0.859740
H29681	H2968	0.143800	0.218300	0.849800
C48221	C4822	0.172820	0.191230	0.841320
C48231	C4823	0.189700	0.165390	0.824330
C48241	C4824	0.156840	0.174110	0.814890
C48251	C4825	0.138220	0.153990	0.787680
H29691	H2969	0.150600	0.145800	0.786300
C48261	C4826	0.138150	0.170480	0.802210
C48271	C4827	0.120400	0.182650	0.804110
H29701	H2970	0.119700	0.193800	0.814000
C48281	C4828	0.103580	0.178080	0.791090
H29711	H2971	0.091300	0.186400	0.791600
C48291	C4829	0.104890	0.161400	0.777460
H29721	H2972	0.093100	0.158400	0.768900
C48301	C4830	0.138620	0.166990	0.732370
H29731	H2973	0.148900	0.165900	0.743000
C48311	C4831	0.138340	0.184600	0.720600
H29741	H2974	0.148100	0.195500	0.723100
C48321	C4832	0.123330	0.186400	0.704700
H29751	H2975	0.122900	0.198400	0.695900
C48331	C4833	0.109240	0.170160	0.702170
C48341	C4834	0.110850	0.152690	0.714980
H29761	H2976	0.101300	0.141500	0.713000
C48351	C4835	0.093020	0.170920	0.685590
C48361	C4836	0.074780	0.123890	0.749410
N18511	N1851	0.235250	0.133080	0.840960
N18521	N1852	0.106990	0.225540	0.862850
N18531	N1853	0.152420	0.234490	0.875030
N18541	N1854	0.155820	0.189090	0.829600
N18551	N1855	0.190290	0.179750	0.839660
N18561	N1856	0.173870	0.162370	0.811130
N18571	N1857	0.121850	0.149250	0.775680
N18581	N1858	0.092380	0.123240	0.751190
N18591	N1859	0.125240	0.151030	0.729910
N18601	N1860	0.094280	0.186030	0.671690
S3711	S371	0.078120	0.205370	0.836960
S3721	S372	0.049280	0.126540	0.747840
C48371	C4837	0.719890	0.647420	0.840280
H29771	H2977	0.717300	0.655600	0.852400
C48381	C4838	0.707500	0.650860	0.822580
C48391	C4839	0.711380	0.639280	0.804770
H29781	H2978	0.703000	0.640800	0.792600
C48401	C4840	0.728100	0.625180	0.805140
H29791	H2979	0.731800	0.617600	0.792900
C48411	C4841	0.739070	0.622420	0.823140
H29801	H2980	0.750100	0.612400	0.823200
C48421	C4842	0.595330	0.716620	0.852260
C48431	C4843	0.668430	0.736790	0.888520
H29811	H2981	0.667100	0.746800	0.899400
C48441	C4844	0.686660	0.725380	0.887400
H29821	H2982	0.697800	0.728000	0.896900
C48451	C4845	0.688580	0.709930	0.872210
H29831	H2983	0.700700	0.701300	0.871600
C48461	C4846	0.672260	0.707510	0.857900
C48471	C4847	0.654720	0.719990	0.859740
H29841	H2984	0.643800	0.718300	0.849800
C48481	C4848	0.672820	0.691230	0.841320
C48491	C4849	0.689700	0.665390	0.824330
C48501	C4850	0.656840	0.674110	0.814890
C48511	C4851	0.638220	0.653990	0.787680
H29851	H2985	0.650600	0.645800	0.786300
C48521	C4852	0.638150	0.670480	0.802210
C48531	C4853	0.620400	0.682650	0.804110
H29861	H2986	0.619700	0.693800	0.814000
C48541	C4854	0.603580	0.678080	0.791090
H29871	H2987	0.591300	0.686400	0.791600
C48551	C4855	0.604890	0.661400	0.777460
H29881	H2988	0.593100	0.658400	0.768900
C48561	C4856	0.638620	0.666990	0.732370
H29891	H2989	0.648900	0.665900	0.743000
C48571	C4857	0.638340	0.684600	0.720600
H29901	H2990	0.648100	0.695500	0.723100
C48581	C4858	0.623330	0.686400	0.704700
H29911	H2991	0.622900	0.698400	0.695900
C48591	C4859	0.609240	0.670160	0.702170
C48601	C4860	0.610850	0.652690	0.714980
H29921	H2992	0.601300	0.641500	0.713000
C48611	C4861	0.593020	0.670920	0.685590
C48621	C4862	0.574780	0.623890	0.749410
N18611	N1861	0.735250	0.633080	0.840960
N18621	N1862	0.606990	0.725540	0.862850
N18631	N1863	0.652420	0.734490	0.875030
N18641	N1864	0.655820	0.689090	0.829600
N18651	N1865	0.690290	0.679750	0.839660
N18661	N1866	0.673870	0.662370	0.811130
N18671	N1867	0.621850	0.649250	0.775680
N18681	N1868	0.592380	0.623240	0.751190
N18691	N1869	0.625240	0.651030	0.729910
N18701	N1870	0.594280	0.686030	0.671690
S3731	S373	0.578120	0.705370	0.836960
S3741	S374	0.549280	0.626540	0.747840
C48631	C4863	0.719890	0.147420	0.340280
H29931	H2993	0.717300	0.155600	0.352400
C48641	C4864	0.707500	0.150860	0.322580
C48651	C4865	0.711380	0.139280	0.304770
H29941	H2994	0.703000	0.140800	0.292600
C48661	C4866	0.728100	0.125180	0.305140
H29951	H2995	0.731800	0.117600	0.292900
C48671	C4867	0.739070	0.122420	0.323140
H29961	H2996	0.750100	0.112400	0.323200
C48681	C4868	0.595330	0.216620	0.352260
C48691	C4869	0.668430	0.236790	0.388520
H29971	H2997	0.667100	0.246800	0.399400
C48701	C4870	0.686660	0.225380	0.387400
H29981	H2998	0.697800	0.228000	0.396900
C48711	C4871	0.688580	0.209930	0.372210
H29991	H2999	0.700700	0.201300	0.371600
C48721	C4872	0.672260	0.207510	0.357900
C48731	C4873	0.654720	0.219990	0.359740
H30001	H3000	0.643800	0.218300	0.349800
C48741	C4874	0.672820	0.191230	0.341320
C48751	C4875	0.689700	0.165390	0.324330
C48761	C4876	0.656840	0.174110	0.314890
C48771	C4877	0.638220	0.153990	0.287680
H30011	H3001	0.650600	0.145800	0.286300
C48781	C4878	0.638150	0.170480	0.302210
C48791	C4879	0.620400	0.182650	0.304110
H30021	H3002	0.619700	0.193800	0.314000
C48801	C4880	0.603580	0.178080	0.291090
H30031	H3003	0.591300	0.186400	0.291600
C48811	C4881	0.604890	0.161400	0.277460
H30041	H3004	0.593100	0.158400	0.268900
C48821	C4882	0.638620	0.166990	0.232370
H30051	H3005	0.648900	0.165900	0.243000
C48831	C4883	0.638340	0.184600	0.220600
H30061	H3006	0.648100	0.195500	0.223100
C48841	C4884	0.623330	0.186400	0.204700
H30071	H3007	0.622900	0.198400	0.195900
C48851	C4885	0.609240	0.170160	0.202170
C48861	C4886	0.610850	0.152690	0.214980
H30081	H3008	0.601300	0.141500	0.213000
C48871	C4887	0.593020	0.170920	0.185590
C48881	C4888	0.574780	0.123890	0.249410
N18711	N1871	0.735250	0.133080	0.340960
N18721	N1872	0.606990	0.225540	0.362850
N18731	N1873	0.652420	0.234490	0.375030
N18741	N1874	0.655820	0.189090	0.329600
N18751	N1875	0.690290	0.179750	0.339660
N18761	N1876	0.673870	0.162370	0.311130
N18771	N1877	0.621850	0.149250	0.275680
N18781	N1878	0.592380	0.123240	0.251190
N18791	N1879	0.625240	0.151030	0.229910
N18801	N1880	0.594280	0.186030	0.171690
S3751	S375	0.578120	0.205370	0.336960
S3761	S376	0.549280	0.126540	0.247840
C48891	C4889	0.719890	0.102580	0.909720
H30091	H3009	0.717300	0.094400	0.897600
C48901	C4890	0.707500	0.099140	0.927420
C48911	C4891	0.711380	0.110720	0.945230
H30101	H3010	0.703000	0.109200	0.957400
C48921	C4892	0.728100	0.124820	0.944860
H30111	H3011	0.731800	0.132400	0.957100
C48931	C4893	0.739070	0.127580	0.926860
H30121	H3012	0.750100	0.137600	0.926800
C48941	C4894	0.595330	0.033380	0.897740
C48951	C4895	0.668430	0.013210	0.861480
H30131	H3013	0.667100	0.003200	0.850600
C48961	C4896	0.686660	0.024620	0.862600
H30141	H3014	0.697800	0.022000	0.853100
C48971	C4897	0.688580	0.040070	0.877790
H30151	H3015	0.700700	0.048700	0.878400
C48981	C4898	0.672260	0.042490	0.892100
C48991	C4899	0.654720	0.030010	0.890260
H30161	H3016	0.643800	0.031700	0.900200
C49001	C4900	0.672820	0.058770	0.908680
C49011	C4901	0.689700	0.084610	0.925670
C49021	C4902	0.656840	0.075890	0.935110
C49031	C4903	0.638220	0.096010	0.962320
H30171	H3017	0.650600	0.104200	0.963700
C49041	C4904	0.638150	0.079520	0.947790
C49051	C4905	0.620400	0.067350	0.945890
H30181	H3018	0.619700	0.056200	0.936000
C49061	C4906	0.603580	0.071920	0.958910
H30191	H3019	0.591300	0.063600	0.958400
C49071	C4907	0.604890	0.088600	0.972540
H30201	H3020	0.593100	0.091600	0.981100
C49081	C4908	0.638620	0.083010	0.017630
H30211	H3021	0.648900	0.084100	0.007000
C49091	C4909	0.638340	0.065400	0.029400
H30221	H3022	0.648100	0.054500	0.026900
C49101	C4910	0.623330	0.063600	0.045300
H30231	H3023	0.622900	0.051600	0.054100
C49111	C4911	0.609240	0.079840	0.047830
C49121	C4912	0.610850	0.097310	0.035020
H30241	H3024	0.601300	0.108500	0.037000
C49131	C4913	0.593020	0.079080	0.064410
C49141	C4914	0.574780	0.126110	0.000590
N18811	N1881	0.735250	0.116920	0.909040
N18821	N1882	0.606990	0.024460	0.887150
N18831	N1883	0.652420	0.015510	0.874970
N18841	N1884	0.655820	0.060910	0.920400
N18851	N1885	0.690290	0.070250	0.910340
N18861	N1886	0.673870	0.087630	0.938870
N18871	N1887	0.621850	0.100750	0.974320
N18881	N1888	0.592380	0.126760	0.998810
N18891	N1889	0.625240	0.098970	0.020090
N18901	N1890	0.594280	0.063970	0.078310
S3771	S377	0.578120	0.044630	0.913040
S3781	S378	0.549280	0.123460	0.002160
C49151	C4915	0.719890	0.602580	0.409720
H30251	H3025	0.717300	0.594400	0.397600
C49161	C4916	0.707500	0.599140	0.427420
C49171	C4917	0.711380	0.610720	0.445230
H30261	H3026	0.703000	0.609200	0.457400
C49181	C4918	0.728100	0.624820	0.444860
H30271	H3027	0.731800	0.632400	0.457100
C49191	C4919	0.739070	0.627580	0.426860
H30281	H3028	0.750100	0.637600	0.426800
C49201	C4920	0.595330	0.533380	0.397740
C49211	C4921	0.668430	0.513210	0.361480
H30291	H3029	0.667100	0.503200	0.350600
C49221	C4922	0.686660	0.524620	0.362600
H30301	H3030	0.697800	0.522000	0.353100
C49231	C4923	0.688580	0.540070	0.377790
H30311	H3031	0.700700	0.548700	0.378400
C49241	C4924	0.672260	0.542490	0.392100
C49251	C4925	0.654720	0.530010	0.390260
H30321	H3032	0.643800	0.531700	0.400200
C49261	C4926	0.672820	0.558770	0.408680
C49271	C4927	0.689700	0.584610	0.425670
C49281	C4928	0.656840	0.575890	0.435110
C49291	C4929	0.638220	0.596010	0.462320
H30331	H3033	0.650600	0.604200	0.463700
C49301	C4930	0.638150	0.579520	0.447790
C49311	C4931	0.620400	0.567350	0.445890
H30341	H3034	0.619700	0.556200	0.436000
C49321	C4932	0.603580	0.571920	0.458910
H30351	H3035	0.591300	0.563600	0.458400
C49331	C4933	0.604890	0.588600	0.472540
H30361	H3036	0.593100	0.591600	0.481100
C49341	C4934	0.638620	0.583010	0.517630
H30371	H3037	0.648900	0.584100	0.507000
C49351	C4935	0.638340	0.565400	0.529400
H30381	H3038	0.648100	0.554500	0.526900
C49361	C4936	0.623330	0.563600	0.545300
H30391	H3039	0.622900	0.551600	0.554100
C49371	C4937	0.609240	0.579840	0.547830
C49381	C4938	0.610850	0.597310	0.535020
H30401	H3040	0.601300	0.608500	0.537000
C49391	C4939	0.593020	0.579080	0.564410
C49401	C4940	0.574780	0.626110	0.500590
N18911	N1891	0.735250	0.616920	0.409040
N18921	N1892	0.606990	0.524460	0.387150
N18931	N1893	0.652420	0.515510	0.374970
N18941	N1894	0.655820	0.560910	0.420400
N18951	N1895	0.690290	0.570250	0.410340
N18961	N1896	0.673870	0.587630	0.438870
N18971	N1897	0.621850	0.600750	0.474320
N18981	N1898	0.592380	0.626760	0.498810
N18991	N1899	0.625240	0.598970	0.520090
N19001	N1900	0.594280	0.563970	0.578310
S3791	S379	0.578120	0.544630	0.413040
S3801	S380	0.549280	0.623460	0.502160
C49411	C4941	0.219890	0.102580	0.409720
H30411	H3041	0.217300	0.094400	0.397600
C49421	C4942	0.207500	0.099140	0.427420
C49431	C4943	0.211380	0.110720	0.445230
H30421	H3042	0.203000	0.109200	0.457400
C49441	C4944	0.228100	0.124820	0.444860
H30431	H3043	0.231800	0.132400	0.457100
C49451	C4945	0.239070	0.127580	0.426860
H30441	H3044	0.250100	0.137600	0.426800
C49461	C4946	0.095330	0.033380	0.397740
C49471	C4947	0.168430	0.013210	0.361480
H30451	H3045	0.167100	0.003200	0.350600
C49481	C4948	0.186660	0.024620	0.362600
H30461	H3046	0.197800	0.022000	0.353100
C49491	C4949	0.188580	0.040070	0.377790
H30471	H3047	0.200700	0.048700	0.378400
C49501	C4950	0.172260	0.042490	0.392100
C49511	C4951	0.154720	0.030010	0.390260
H30481	H3048	0.143800	0.031700	0.400200
C49521	C4952	0.172820	0.058770	0.408680
C49531	C4953	0.189700	0.084610	0.425670
C49541	C4954	0.156840	0.075890	0.435110
C49551	C4955	0.138220	0.096010	0.462320
H30491	H3049	0.150600	0.104200	0.463700
C49561	C4956	0.138150	0.079520	0.447790
C49571	C4957	0.120400	0.067350	0.445890
H30501	H3050	0.119700	0.056200	0.436000
C49581	C4958	0.103580	0.071920	0.458910
H30511	H3051	0.091300	0.063600	0.458400
C49591	C4959	0.104890	0.088600	0.472540
H30521	H3052	0.093100	0.091600	0.481100
C49601	C4960	0.138620	0.083010	0.517630
H30531	H3053	0.148900	0.084100	0.507000
C49611	C4961	0.138340	0.065400	0.529400
H30541	H3054	0.148100	0.054500	0.526900
C49621	C4962	0.123330	0.063600	0.545300
H30551	H3055	0.122900	0.051600	0.554100
C49631	C4963	0.109240	0.079840	0.547830
C49641	C4964	0.110850	0.097310	0.535020
H30561	H3056	0.101300	0.108500	0.537000
C49651	C4965	0.093020	0.079080	0.564410
C49661	C4966	0.074780	0.126110	0.500590
N19011	N1901	0.235250	0.116920	0.409040
N19021	N1902	0.106990	0.024460	0.387150
N19031	N1903	0.152420	0.015510	0.374970
N19041	N1904	0.155820	0.060910	0.420400
N19051	N1905	0.190290	0.070250	0.410340
N19061	N1906	0.173870	0.087630	0.438870
N19071	N1907	0.121850	0.100750	0.474320
N19081	N1908	0.092380	0.126760	0.498810
N19091	N1909	0.125240	0.098970	0.520090
N19101	N1910	0.094280	0.063970	0.578310
S3811	S381	0.078120	0.044630	0.413040
S3821	S382	0.049280	0.123460	0.502160
C49671	C4967	0.219890	0.602580	0.909720
H30571	H3057	0.217300	0.594400	0.897600
C49681	C4968	0.207500	0.599140	0.927420
C49691	C4969	0.211380	0.610720	0.945230
H30581	H3058	0.203000	0.609200	0.957400
C49701	C4970	0.228100	0.624820	0.944860
H30591	H3059	0.231800	0.632400	0.957100
C49711	C4971	0.239070	0.627580	0.926860
H30601	H3060	0.250100	0.637600	0.926800
C49721	C4972	0.095330	0.533380	0.897740
C49731	C4973	0.168430	0.513210	0.861480
H30611	H3061	0.167100	0.503200	0.850600
C49741	C4974	0.186660	0.524620	0.862600
H30621	H3062	0.197800	0.522000	0.853100
C49751	C4975	0.188580	0.540070	0.877790
H30631	H3063	0.200700	0.548700	0.878400
C49761	C4976	0.172260	0.542490	0.892100
C49771	C4977	0.154720	0.530010	0.890260
H30641	H3064	0.143800	0.531700	0.900200
C49781	C4978	0.172820	0.558770	0.908680
C49791	C4979	0.189700	0.584610	0.925670
C49801	C4980	0.156840	0.575890	0.935110
C49811	C4981	0.138220	0.596010	0.962320
H30651	H3065	0.150600	0.604200	0.963700
C49821	C4982	0.138150	0.579520	0.947790
C49831	C4983	0.120400	0.567350	0.945890
H30661	H3066	0.119700	0.556200	0.936000
C49841	C4984	0.103580	0.571920	0.958910
H30671	H3067	0.091300	0.563600	0.958400
C49851	C4985	0.104890	0.588600	0.972540
H30681	H3068	0.093100	0.591600	0.981100
C49861	C4986	0.138620	0.583010	0.017630
H30691	H3069	0.148900	0.584100	0.007000
C49871	C4987	0.138340	0.565400	0.029400
H30701	H3070	0.148100	0.554500	0.026900
C49881	C4988	0.123330	0.563600	0.045300
H30711	H3071	0.122900	0.551600	0.054100
C49891	C4989	0.109240	0.579840	0.047830
C49901	C4990	0.110850	0.597310	0.035020
H30721	H3072	0.101300	0.608500	0.037000
C49911	C4991	0.093020	0.579080	0.064410
C49921	C4992	0.074780	0.626110	0.000590
N19111	N1911	0.235250	0.616920	0.909040
N19121	N1912	0.106990	0.524460	0.887150
N19131	N1913	0.152420	0.515510	0.874970
N19141	N1914	0.155820	0.560910	0.920400
N19151	N1915	0.190290	0.570250	0.910340
N19161	N1916	0.173870	0.587630	0.938870
N19171	N1917	0.121850	0.600750	0.974320
N19181	N1918	0.092380	0.626760	0.998810
N19191	N1919	0.125240	0.598970	0.020090
N19201	N1920	0.094280	0.563970	0.078310
S3831	S383	0.078120	0.544630	0.913040
S3841	S384	0.049280	0.623460	0.002160
Co11	Co1	0.371820	0.500000	0.121820
Co21	Co2	0.371820	0.000000	0.621820
Co31	Co3	0.871820	0.500000	0.621820
Co41	Co4	0.871820	0.000000	0.121820
Co51	Co5	0.878180	0.250000	0.621820
Co61	Co6	0.878180	0.750000	0.121820
Co71	Co7	0.378180	0.250000	0.121820
Co81	Co8	0.378180	0.750000	0.621820
Co91	Co9	0.378180	0.000000	0.128180
Co101	Co10	0.378180	0.500000	0.628180
Co111	Co11	0.878180	0.000000	0.628180
Co121	Co12	0.878180	0.500000	0.128180
Co131	Co13	0.871820	0.750000	0.628180
Co141	Co14	0.871820	0.250000	0.128180
Co151	Co15	0.371820	0.750000	0.128180
Co161	Co16	0.371820	0.250000	0.628180
Co171	Co17	0.121820	0.371820	0.500000
Co181	Co18	0.121820	0.871820	0.000000
Co191	Co19	0.621820	0.371820	0.000000
Co201	Co20	0.621820	0.871820	0.500000
Co211	Co21	0.621820	0.878180	0.250000
Co221	Co22	0.621820	0.378180	0.750000
Co231	Co23	0.121820	0.878180	0.750000
Co241	Co24	0.121820	0.378180	0.250000
Co251	Co25	0.128180	0.378180	0.000000
Co261	Co26	0.128180	0.878180	0.500000
Co271	Co27	0.628180	0.378180	0.500000
Co281	Co28	0.628180	0.878180	0.000000
Co291	Co29	0.628180	0.871820	0.750000
Co301	Co30	0.628180	0.371820	0.250000
Co311	Co31	0.128180	0.871820	0.250000
Co321	Co32	0.128180	0.371820	0.750000
Co331	Co33	0.500000	0.121820	0.371820
Co341	Co34	0.500000	0.621820	0.871820
Co351	Co35	0.000000	0.121820	0.871820
Co361	Co36	0.000000	0.621820	0.371820
Co371	Co37	0.250000	0.621820	0.878180
Co381	Co38	0.250000	0.121820	0.378180
Co391	Co39	0.750000	0.621820	0.378180
Co401	Co40	0.750000	0.121820	0.878180
Co411	Co41	0.000000	0.128180	0.378180
Co421	Co42	0.000000	0.628180	0.878180
Co431	Co43	0.500000	0.128180	0.878180
Co441	Co44	0.500000	0.628180	0.378180
Co451	Co45	0.750000	0.628180	0.871820
Co461	Co46	0.750000	0.128180	0.371820
Co471	Co47	0.250000	0.628180	0.371820
Co481	Co48	0.250000	0.128180	0.871820
Co491	Co49	0.628180	0.500000	0.878180
Co501	Co50	0.628180	0.000000	0.378180
Co511	Co51	0.128180	0.500000	0.378180
Co521	Co52	0.128180	0.000000	0.878180
Co531	Co53	0.121820	0.750000	0.378180
Co541	Co54	0.121820	0.250000	0.878180
Co551	Co55	0.621820	0.750000	0.878180
Co561	Co56	0.621820	0.250000	0.378180
Co571	Co57	0.621820	0.000000	0.871820
Co581	Co58	0.621820	0.500000	0.371820
Co591	Co59	0.121820	0.000000	0.371820
Co601	Co60	0.121820	0.500000	0.871820
Co611	Co61	0.128180	0.250000	0.371820
Co621	Co62	0.128180	0.750000	0.871820
Co631	Co63	0.628180	0.250000	0.871820
Co641	Co64	0.628180	0.750000	0.371820
Co651	Co65	0.878180	0.628180	0.500000
Co661	Co66	0.878180	0.128180	0.000000
Co671	Co67	0.378180	0.628180	0.000000
Co681	Co68	0.378180	0.128180	0.500000
Co691	Co69	0.378180	0.121820	0.750000
Co701	Co70	0.378180	0.621820	0.250000
Co711	Co71	0.878180	0.121820	0.250000
Co721	Co72	0.878180	0.621820	0.750000
Co731	Co73	0.871820	0.621820	0.000000
Co741	Co74	0.871820	0.121820	0.500000
Co751	Co75	0.371820	0.621820	0.500000
Co761	Co76	0.371820	0.121820	0.000000
Co771	Co77	0.371820	0.128180	0.250000
Co781	Co78	0.371820	0.628180	0.750000
Co791	Co79	0.871820	0.128180	0.750000
Co801	Co80	0.871820	0.628180	0.250000
Co811	Co81	0.500000	0.878180	0.628180
Co821	Co82	0.500000	0.378180	0.128180
Co831	Co83	0.000000	0.878180	0.128180
Co841	Co84	0.000000	0.378180	0.628180
Co851	Co85	0.750000	0.378180	0.121820
Co861	Co86	0.750000	0.878180	0.621820
Co871	Co87	0.250000	0.378180	0.621820
Co881	Co88	0.250000	0.878180	0.121820
Co891	Co89	0.000000	0.871820	0.621820
Co901	Co90	0.000000	0.371820	0.121820
Co911	Co91	0.500000	0.871820	0.121820
Co921	Co92	0.500000	0.371820	0.621820
Co931	Co93	0.250000	0.371820	0.128180
Co941	Co94	0.250000	0.871820	0.628180
Co951	Co95	0.750000	0.371820	0.628180
Co961	Co96	0.750000	0.871820	0.128180
Co971	Co97	0.497910	0.625000	0.125000
Co981	Co98	0.497910	0.125000	0.625000
Co991	Co99	0.752090	0.125000	0.625000
Co1001	Co100	0.752090	0.625000	0.125000
Co1011	Co101	0.252090	0.125000	0.125000
Co1021	Co102	0.252090	0.625000	0.625000
Co1031	Co103	0.997910	0.625000	0.625000
Co1041	Co104	0.997910	0.125000	0.125000
Co1051	Co105	0.125000	0.497910	0.625000
Co1061	Co106	0.125000	0.997910	0.125000
Co1071	Co107	0.625000	0.752090	0.125000
Co1081	Co108	0.625000	0.252090	0.625000
Co1091	Co109	0.125000	0.252090	0.125000
Co1101	Co110	0.125000	0.752090	0.625000
Co1111	Co111	0.625000	0.997910	0.625000
Co1121	Co112	0.625000	0.497910	0.125000
Co1131	Co113	0.625000	0.125000	0.497910
Co1141	Co114	0.125000	0.125000	0.997910
Co1151	Co115	0.125000	0.625000	0.752090
Co1161	Co116	0.625000	0.625000	0.252090
Co1171	Co117	0.125000	0.125000	0.252090
Co1181	Co118	0.625000	0.125000	0.752090
Co1191	Co119	0.625000	0.625000	0.997910
Co1201	Co120	0.125000	0.625000	0.497910
Co1211	Co121	0.375000	0.747910	0.875000
Co1221	Co122	0.875000	0.747910	0.375000
Co1231	Co123	0.875000	0.002090	0.375000
Co1241	Co124	0.375000	0.002090	0.875000
Co1251	Co125	0.875000	0.502090	0.875000
Co1261	Co126	0.375000	0.502090	0.375000
Co1271	Co127	0.375000	0.247910	0.375000
Co1281	Co128	0.875000	0.247910	0.875000
Co1291	Co129	0.247910	0.375000	0.375000
Co1301	Co130	0.247910	0.875000	0.875000
Co1311	Co131	0.502090	0.875000	0.875000
Co1321	Co132	0.502090	0.375000	0.375000
Co1331	Co133	0.002090	0.375000	0.875000
Co1341	Co134	0.002090	0.875000	0.375000
Co1351	Co135	0.747910	0.875000	0.375000
Co1361	Co136	0.747910	0.375000	0.875000
Co1371	Co137	0.875000	0.875000	0.502090
Co1381	Co138	0.875000	0.375000	0.002090
Co1391	Co139	0.375000	0.375000	0.247910
Co1401	Co140	0.375000	0.875000	0.747910
Co1411	Co141	0.875000	0.375000	0.747910
Co1421	Co142	0.875000	0.875000	0.247910
Co1431	Co143	0.375000	0.875000	0.002090
Co1441	Co144	0.375000	0.375000	0.502090
Co1451	Co145	0.502090	0.375000	0.875000
Co1461	Co146	0.502090	0.875000	0.375000
Co1471	Co147	0.247910	0.875000	0.375000
Co1481	Co148	0.247910	0.375000	0.875000
Co1491	Co149	0.747910	0.875000	0.875000
Co1501	Co150	0.747910	0.375000	0.375000
Co1511	Co151	0.002090	0.375000	0.375000
Co1521	Co152	0.002090	0.875000	0.875000
Co1531	Co153	0.875000	0.502090	0.375000
Co1541	Co154	0.875000	0.002090	0.875000
Co1551	Co155	0.375000	0.247910	0.875000
Co1561	Co156	0.375000	0.747910	0.375000
Co1571	Co157	0.875000	0.747910	0.875000
Co1581	Co158	0.875000	0.247910	0.375000
Co1591	Co159	0.375000	0.002090	0.375000
Co1601	Co160	0.375000	0.502090	0.875000
Co1611	Co161	0.375000	0.875000	0.502090
Co1621	Co162	0.875000	0.875000	0.002090
Co1631	Co163	0.875000	0.375000	0.247910
Co1641	Co164	0.375000	0.375000	0.747910
Co1651	Co165	0.875000	0.875000	0.747910
Co1661	Co166	0.375000	0.875000	0.247910
Co1671	Co167	0.375000	0.375000	0.002090
Co1681	Co168	0.875000	0.375000	0.502090
Co1691	Co169	0.625000	0.252090	0.125000
Co1701	Co170	0.125000	0.252090	0.625000
Co1711	Co171	0.125000	0.997910	0.625000
Co1721	Co172	0.625000	0.997910	0.125000
Co1731	Co173	0.125000	0.497910	0.125000
Co1741	Co174	0.625000	0.497910	0.625000
Co1751	Co175	0.625000	0.752090	0.625000
Co1761	Co176	0.125000	0.752090	0.125000
Co1771	Co177	0.752090	0.625000	0.625000
Co1781	Co178	0.752090	0.125000	0.125000
Co1791	Co179	0.497910	0.125000	0.125000
Co1801	Co180	0.497910	0.625000	0.625000
Co1811	Co181	0.997910	0.625000	0.125000
Co1821	Co182	0.997910	0.125000	0.625000
Co1831	Co183	0.252090	0.125000	0.625000
Co1841	Co184	0.252090	0.625000	0.125000
Co1851	Co185	0.125000	0.125000	0.497910
Co1861	Co186	0.125000	0.625000	0.997910
Co1871	Co187	0.625000	0.625000	0.752090
Co1881	Co188	0.625000	0.125000	0.252090
Co1891	Co189	0.125000	0.625000	0.252090
Co1901	Co190	0.125000	0.125000	0.752090
Co1911	Co191	0.625000	0.125000	0.997910
Co1921	Co192	0.625000	0.625000	0.497910
