data_LAGBUS_freeONLY_PM
_symmetry_space_group_name_H-M	'P1'
_cell_length_a	15.216900
_cell_length_b	15.216900
_cell_length_c	16.738000
_cell_angle_alpha	90.000000
_cell_angle_beta	90.000000
_cell_angle_gamma	120.000000
_symmetry_Int_Tables_number 1

loop_
_symmetry_equiv_pos_as_xyz
'x,y,z'

loop_
_atom_site_label
_atom_site_type_symbol
_atom_site_fract_x
_atom_site_fract_y
_atom_site_fract_z
Fe11	Fe1	0.333330	0.666660	0.317400
Ag11	Ag1	0.759120	0.633050	0.778410
Ag21	Ag2	0.873930	0.240880	0.778410
Ag31	Ag3	0.366950	0.126070	0.778410
H11	H1	0.019900	0.566200	0.285600
H21	H2	0.206700	0.519400	0.108500
H31	H3	0.933900	0.437500	0.203300
H41	H4	0.127100	0.429500	0.992600
H51	H5	0.855300	0.349900	0.088800
H61	H6	0.169900	0.650100	0.520500
H71	H7	0.948200	0.611500	0.371100
H81	H8	0.080200	0.662300	0.627900
H91	H9	0.853500	0.615500	0.478300
H101	H10	0.546300	0.980100	0.285600
H111	H11	0.312700	0.793300	0.108500
H121	H12	0.503600	0.066100	0.203300
H131	H13	0.302400	0.872900	0.992600
H141	H14	0.494600	0.144700	0.088800
H151	H15	0.480200	0.830100	0.520500
H161	H16	0.663300	0.051800	0.371100
H171	H17	0.582100	0.919800	0.627900
H181	H18	0.762000	0.146500	0.478300
H191	H19	0.433800	0.453700	0.285600
H201	H20	0.480600	0.687300	0.108500
H211	H21	0.562500	0.496400	0.203300
H221	H22	0.570500	0.697600	0.992600
H231	H23	0.650100	0.505400	0.088800
H241	H24	0.349900	0.519800	0.520500
H251	H25	0.388500	0.336700	0.371100
H261	H26	0.337700	0.417900	0.627900
H271	H27	0.384500	0.238000	0.478300
C11	C1	0.127700	0.618100	0.370000
C21	C2	0.084000	0.575900	0.297000
C31	C3	0.132900	0.546900	0.238600
C41	C4	0.079100	0.490100	0.166300
C51	C5	0.136400	0.486100	0.104200
C61	C6	0.972700	0.436900	0.160600
C71	C7	0.089200	0.432300	0.035100
C81	C8	0.925600	0.384200	0.093000
C91	C9	0.984600	0.383000	0.031400
C101	C10	0.935700	0.326600	0.958800
C111	C11	0.067200	0.626000	0.436300
C121	C12	0.106400	0.643300	0.512100
C131	C13	0.973300	0.619100	0.422900
C141	C14	0.053000	0.650600	0.576700
C151	C15	0.917600	0.623500	0.486400
C161	C16	0.959400	0.640300	0.563000
C171	C17	0.903100	0.648700	0.629100
C181	C18	0.490400	0.872300	0.370000
C191	C19	0.491900	0.916000	0.297000
C201	C20	0.414000	0.867100	0.238600
C211	C21	0.411000	0.920900	0.166300
C221	C22	0.349700	0.863600	0.104200
C231	C23	0.464200	0.027300	0.160600
C241	C24	0.343100	0.910800	0.035100
C251	C25	0.458600	0.074400	0.093000
C261	C26	0.398400	0.015400	0.031400
C271	C27	0.390900	0.064300	0.958800
C281	C28	0.558800	0.932800	0.436300
C291	C29	0.536900	0.893600	0.512100
C301	C30	0.645800	0.026700	0.422900
C311	C31	0.597600	0.947000	0.576700
C321	C32	0.705900	0.082400	0.486400
C331	C33	0.680900	0.040600	0.563000
C341	C34	0.745600	0.096900	0.629100
C351	C35	0.381900	0.509600	0.370000
C361	C36	0.424100	0.508100	0.297000
C371	C37	0.453100	0.586000	0.238600
C381	C38	0.509900	0.589000	0.166300
C391	C39	0.513900	0.650300	0.104200
C401	C40	0.563100	0.535800	0.160600
C411	C41	0.567700	0.656900	0.035100
C421	C42	0.615800	0.541400	0.093000
C431	C43	0.617000	0.601600	0.031400
C441	C44	0.673400	0.609100	0.958800
C451	C45	0.374000	0.441200	0.436300
C461	C46	0.356700	0.463100	0.512100
C471	C47	0.380900	0.354200	0.422900
C481	C48	0.349400	0.402400	0.576700
C491	C49	0.376500	0.294100	0.486400
C501	C50	0.359700	0.319100	0.563000
C511	C51	0.351300	0.254400	0.629100
N11	N1	0.857100	0.652200	0.682200
N21	N2	0.897600	0.284600	0.901600
N31	N3	0.795100	0.142900	0.682200
N41	N4	0.387000	0.102400	0.901600
N51	N5	0.347800	0.204900	0.682200
N61	N6	0.715400	0.613000	0.901600
O11	O1	0.220500	0.650100	0.386800
O21	O2	0.224400	0.567000	0.245300
O31	O3	0.429600	0.779500	0.386800
O41	O4	0.342600	0.775600	0.245300
O51	O5	0.349900	0.570400	0.386800
O61	O6	0.433000	0.657400	0.245300
Fe21	Fe2	0.666670	0.333340	0.682600
Ag41	Ag4	0.240880	0.366950	0.221590
Ag51	Ag5	0.126070	0.759120	0.221590
Ag61	Ag6	0.633050	0.873930	0.221590
H281	H28	0.980100	0.433800	0.714400
H291	H29	0.793300	0.480600	0.891500
H301	H30	0.066100	0.562500	0.796700
H311	H31	0.872900	0.570500	0.007400
H321	H32	0.144700	0.650100	0.911200
H331	H33	0.830100	0.349900	0.479500
H341	H34	0.051800	0.388500	0.628900
H351	H35	0.919800	0.337700	0.372100
H361	H36	0.146500	0.384500	0.521700
H371	H37	0.453700	0.019900	0.714400
H381	H38	0.687300	0.206700	0.891500
H391	H39	0.496400	0.933900	0.796700
H401	H40	0.697600	0.127100	0.007400
H411	H41	0.505400	0.855300	0.911200
H421	H42	0.519800	0.169900	0.479500
H431	H43	0.336700	0.948200	0.628900
H441	H44	0.417900	0.080200	0.372100
H451	H45	0.238000	0.853500	0.521700
H461	H46	0.566200	0.546300	0.714400
H471	H47	0.519400	0.312700	0.891500
H481	H48	0.437500	0.503600	0.796700
H491	H49	0.429500	0.302400	0.007400
H501	H50	0.349900	0.494600	0.911200
H511	H51	0.650100	0.480200	0.479500
H521	H52	0.611500	0.663300	0.628900
H531	H53	0.662300	0.582100	0.372100
H541	H54	0.615500	0.762000	0.521700
C521	C52	0.872300	0.381900	0.630000
C531	C53	0.916000	0.424100	0.703000
C541	C54	0.867100	0.453100	0.761400
C551	C55	0.920900	0.509900	0.833700
C561	C56	0.863600	0.513900	0.895800
C571	C57	0.027300	0.563100	0.839400
C581	C58	0.910800	0.567700	0.964900
C591	C59	0.074400	0.615800	0.907000
C601	C60	0.015400	0.617000	0.968600
C611	C61	0.064300	0.673400	0.041200
C621	C62	0.932800	0.374000	0.563700
C631	C63	0.893600	0.356700	0.487900
C641	C64	0.026700	0.380900	0.577100
C651	C65	0.947000	0.349400	0.423300
C661	C66	0.082400	0.376500	0.513600
C671	C67	0.040600	0.359700	0.437000
C681	C68	0.096900	0.351300	0.370900
C691	C69	0.509600	0.127700	0.630000
C701	C70	0.508100	0.084000	0.703000
C711	C71	0.586000	0.132900	0.761400
C721	C72	0.589000	0.079100	0.833700
C731	C73	0.650300	0.136400	0.895800
C741	C74	0.535800	0.972700	0.839400
C751	C75	0.656900	0.089200	0.964900
C761	C76	0.541400	0.925600	0.907000
C771	C77	0.601600	0.984600	0.968600
C781	C78	0.609100	0.935700	0.041200
C791	C79	0.441200	0.067200	0.563700
C801	C80	0.463100	0.106400	0.487900
C811	C81	0.354200	0.973300	0.577100
C821	C82	0.402400	0.053000	0.423300
C831	C83	0.294100	0.917600	0.513600
C841	C84	0.319100	0.959400	0.437000
C851	C85	0.254400	0.903100	0.370900
C861	C86	0.618100	0.490400	0.630000
C871	C87	0.575900	0.491900	0.703000
C881	C88	0.546900	0.414000	0.761400
C891	C89	0.490100	0.411000	0.833700
C901	C90	0.486100	0.349700	0.895800
C911	C91	0.436900	0.464200	0.839400
C921	C92	0.432300	0.343100	0.964900
C931	C93	0.384200	0.458600	0.907000
C941	C94	0.383000	0.398400	0.968600
C951	C95	0.326600	0.390900	0.041200
C961	C96	0.626000	0.558800	0.563700
C971	C97	0.643300	0.536900	0.487900
C981	C98	0.619100	0.645800	0.577100
C991	C99	0.650600	0.597600	0.423300
C1001	C100	0.623500	0.705900	0.513600
C1011	C101	0.640300	0.680900	0.437000
C1021	C102	0.648700	0.745600	0.370900
N71	N7	0.142900	0.347800	0.317800
N81	N8	0.102400	0.715400	0.098400
N91	N9	0.204900	0.857100	0.317800
N101	N10	0.613000	0.897600	0.098400
N111	N11	0.652200	0.795100	0.317800
N121	N12	0.284600	0.387000	0.098400
O71	O7	0.779500	0.349900	0.613200
O81	O8	0.775600	0.433000	0.754700
O91	O9	0.570400	0.220500	0.613200
O101	O10	0.657400	0.224400	0.754700
O111	O11	0.650100	0.429600	0.613200
O121	O12	0.567000	0.342600	0.754700
