data_LAGHIL_freeONLY_PM
_symmetry_space_group_name_H-M	'P1'
_cell_length_a	9.071800
_cell_length_b	9.071800
_cell_length_c	16.891000
_cell_angle_alpha	90.000000
_cell_angle_beta	90.000000
_cell_angle_gamma	120.000000
_symmetry_Int_Tables_number 1

loop_
_symmetry_equiv_pos_as_xyz
'x,y,z'

loop_
_atom_site_label
_atom_site_type_symbol
_atom_site_fract_x
_atom_site_fract_y
_atom_site_fract_z
Cu11	Cu1	0.542230	0.000000	0.000000
Cu21	Cu2	0.457770	0.457770	0.333330
Cu31	Cu3	0.000000	0.542230	0.666670
H11	H1	0.081700	0.775400	0.228200
H21	H2	0.987900	0.585600	0.335000
H31	H3	0.150700	0.470000	0.375700
H41	H4	0.478700	0.704300	0.207100
H51	H5	0.693700	0.918300	0.561530
H61	H6	0.597700	0.012100	0.668330
H71	H7	0.319300	0.849300	0.709030
H81	H8	0.225600	0.521300	0.540430
H91	H9	0.224600	0.306300	0.894870
H101	H10	0.414400	0.402300	0.001670
H111	H11	0.530000	0.680700	0.042370
H121	H12	0.295700	0.774400	0.873770
H131	H13	0.306300	0.224600	0.771800
H141	H14	0.402300	0.414400	0.665000
H151	H15	0.680700	0.530000	0.624300
H161	H16	0.774400	0.295700	0.792900
H171	H17	0.775400	0.081700	0.438470
H181	H18	0.585600	0.987900	0.331670
H191	H19	0.470000	0.150700	0.290970
H201	H20	0.704300	0.478700	0.459570
H211	H21	0.918300	0.693700	0.105130
H221	H22	0.012100	0.597700	0.998330
H231	H23	0.849300	0.319300	0.957630
H241	H24	0.521300	0.225600	0.126230
C11	C1	0.347700	0.870600	0.133800
C21	C2	0.288100	0.758100	0.206400
C31	C3	0.143600	0.724500	0.244600
C41	C4	0.088400	0.612600	0.308700
C51	C5	0.186200	0.543000	0.332400
C61	C6	0.379500	0.680900	0.233600
C71	C7	0.522900	0.652300	0.467130
C81	C8	0.470000	0.711900	0.539730
C91	C9	0.580900	0.856400	0.577930
C101	C10	0.524200	0.911600	0.642030
C111	C11	0.356800	0.813800	0.665730
C121	C12	0.301400	0.620500	0.566930
C131	C13	0.129400	0.477100	0.800470
C141	C14	0.241900	0.530000	0.873070
C151	C15	0.275500	0.419100	0.911270
C161	C16	0.387400	0.475800	0.975370
C171	C17	0.457000	0.643200	0.999070
C181	C18	0.319100	0.698600	0.900270
C191	C19	0.477100	0.129400	0.866200
C201	C20	0.530000	0.241900	0.793600
C211	C21	0.419100	0.275500	0.755400
C221	C22	0.475800	0.387400	0.691300
C231	C23	0.643200	0.457000	0.667600
C241	C24	0.698600	0.319100	0.766400
C251	C25	0.870600	0.347700	0.532870
C261	C26	0.758100	0.288100	0.460270
C271	C27	0.724500	0.143600	0.422070
C281	C28	0.612600	0.088400	0.357970
C291	C29	0.543000	0.186200	0.334270
C301	C30	0.680900	0.379500	0.433070
C311	C31	0.652300	0.522900	0.199530
C321	C32	0.711900	0.470000	0.126930
C331	C33	0.856400	0.580900	0.088730
C341	C34	0.911600	0.524200	0.024630
C351	C35	0.813800	0.356800	0.000930
C361	C36	0.620500	0.301400	0.099730
N11	N1	0.331400	0.576600	0.295000
N21	N2	0.245200	0.668600	0.628330
N31	N3	0.423400	0.754800	0.961670
N41	N4	0.754800	0.423400	0.705000
N51	N5	0.576600	0.331400	0.371670
N61	N6	0.668600	0.245200	0.038330
O11	O1	0.247400	0.910000	0.102500
O21	O2	0.492500	0.912200	0.108800
O31	O3	0.662600	0.752600	0.435830
O41	O4	0.419700	0.507500	0.442130
O51	O5	0.090000	0.337400	0.769170
O61	O6	0.087800	0.580300	0.775470
O71	O7	0.337400	0.090000	0.897500
O81	O8	0.580300	0.087800	0.891200
O91	O9	0.910000	0.247400	0.564170
O101	O10	0.912200	0.492500	0.557870
O111	O11	0.752600	0.662600	0.230830
O121	O12	0.507500	0.419700	0.224530
