data_LAJDUV01_charged_PM
_symmetry_space_group_name_H-M	'P1'
_cell_length_a	8.939000
_cell_length_b	8.939000
_cell_length_c	10.893000
_cell_angle_alpha	90.000000
_cell_angle_beta	90.000000
_cell_angle_gamma	120.000000
_symmetry_Int_Tables_number 1

loop_
_symmetry_equiv_pos_as_xyz
'x,y,z'

loop_
_atom_site_label
_atom_site_type_symbol
_atom_site_fract_x
_atom_site_fract_y
_atom_site_fract_z
Ti11	Ti1	0.000000	0.500000	0.166670
Ti21	Ti2	0.500000	0.000000	0.833330
Ti31	Ti3	0.500000	0.500000	0.500000
C11	C1	0.308250	0.616500	0.333330
C21	C2	0.210490	0.420980	0.333330
C31	C3	0.308250	0.691750	0.000000
C41	C4	0.210490	0.789510	0.000000
C51	C5	0.383500	0.691750	0.666670
C61	C6	0.579020	0.789510	0.666670
C71	C7	0.691750	0.383500	0.333330
C81	C8	0.789510	0.579020	0.333330
C91	C9	0.691750	0.308250	0.000000
C101	C10	0.789510	0.210490	0.000000
C111	C11	0.616500	0.308250	0.666670
C121	C12	0.420980	0.210490	0.666670
O11	O1	0.237040	0.686040	0.276350
O21	O2	0.076110	0.348600	0.270130
O31	O3	0.449000	0.762960	0.943020
O41	O4	0.272490	0.923890	0.936800
O51	O5	0.313960	0.551000	0.609680
O61	O6	0.651400	0.727510	0.603460
O71	O7	0.762960	0.313960	0.276350
O81	O8	0.923890	0.651400	0.270130
O91	O9	0.551000	0.237040	0.943020
O101	O10	0.727510	0.076110	0.936800
O111	O11	0.686040	0.449000	0.609680
O121	O12	0.348600	0.272490	0.603460
O131	O13	0.551000	0.313960	0.390320
O141	O14	0.727510	0.651400	0.396540
O151	O15	0.686040	0.237040	0.723650
O161	O16	0.348600	0.076110	0.729870
O171	O17	0.762960	0.449000	0.056980
O181	O18	0.923890	0.272490	0.063200
O191	O19	0.449000	0.686040	0.390320
O201	O20	0.272490	0.348600	0.396540
O211	O21	0.313960	0.762960	0.723650
O221	O22	0.651400	0.923890	0.729870
O231	O23	0.237040	0.551000	0.056980
O241	O24	0.076110	0.727510	0.063200
H11	H1	0.895680	0.911310	0.883790
H21	H2	0.104320	0.088690	0.883790
H31	H3	0.984370	0.088690	0.782880
H41	H4	0.015630	0.911310	0.782880
N11	N1	0.000000	0.000000	0.833330
H51	H5	0.015630	0.104320	0.550460
H61	H6	0.984370	0.895680	0.550460
H71	H7	0.104320	0.015630	0.449540
H81	H8	0.895680	0.984370	0.449540
N21	N2	0.000000	0.000000	0.500000
H91	H9	0.088690	0.984370	0.217120
H101	H10	0.911310	0.015630	0.217120
H111	H11	0.911310	0.895680	0.116210
H121	H12	0.088690	0.104320	0.116210
N31	N3	0.000000	0.000000	0.166670
