data_LAJJAK_freeONLY_PM
_symmetry_space_group_name_H-M	'P1'
_cell_length_a	10.032700
_cell_length_b	25.651000
_cell_length_c	9.512100
_cell_angle_alpha	90.000000
_cell_angle_beta	90.000000
_cell_angle_gamma	90.000000
_symmetry_Int_Tables_number 1

loop_
_symmetry_equiv_pos_as_xyz
'x,y,z'

loop_
_atom_site_label
_atom_site_type_symbol
_atom_site_fract_x
_atom_site_fract_y
_atom_site_fract_z
Zn11	Zn1	0.392450	0.451860	0.078230
C11	C1	0.139100	0.449200	0.244800
H11	H1	0.104000	0.424500	0.183600
C21	C2	0.267800	0.502300	0.339800
H21	H2	0.342300	0.522500	0.360600
C31	C3	0.354600	0.348500	0.100300
C41	C4	0.285400	0.297200	0.072100
C51	C5	0.163900	0.296300	0.005700
H31	H3	0.123400	0.327600	0.981000
N11	N1	0.261500	0.469100	0.230700
N21	N2	0.073800	0.467400	0.351000
N31	N3	0.156800	0.503160	0.414000
O11	O1	0.323300	0.384810	0.017800
O21	O2	0.433000	0.353200	0.198500
Zn21	Zn2	0.107550	0.548140	0.578230
C61	C6	0.360900	0.550800	0.744800
H41	H4	0.396000	0.575500	0.683600
C71	C7	0.232200	0.497700	0.839800
H51	H5	0.157700	0.477500	0.860600
C81	C8	0.145400	0.651500	0.600300
C91	C9	0.214600	0.702800	0.572100
C101	C10	0.336100	0.703700	0.505700
H61	H6	0.376600	0.672400	0.481000
N41	N4	0.238500	0.530900	0.730700
N51	N5	0.426200	0.532600	0.851000
N61	N6	0.343200	0.496840	0.914000
O31	O3	0.176700	0.615190	0.517800
O41	O4	0.067000	0.646800	0.698500
Zn31	Zn3	0.607550	0.951860	0.921770
C111	C11	0.860900	0.949200	0.755200
H71	H7	0.896000	0.924500	0.816400
C121	C12	0.732200	0.002300	0.660200
H81	H8	0.657700	0.022500	0.639400
C131	C13	0.645400	0.848500	0.899700
C141	C14	0.714600	0.797200	0.927900
C151	C15	0.836100	0.796300	0.994300
H91	H9	0.876600	0.827600	0.019000
N71	N7	0.738500	0.969100	0.769300
N81	N8	0.926200	0.967400	0.649000
N91	N9	0.843200	0.003160	0.586000
O51	O5	0.676700	0.884810	0.982200
O61	O6	0.567000	0.853200	0.801500
Zn41	Zn4	0.892450	0.048140	0.421770
C161	C16	0.639100	0.050800	0.255200
H101	H10	0.604000	0.075500	0.316400
C171	C17	0.767800	0.997700	0.160200
H111	H11	0.842300	0.977500	0.139400
C181	C18	0.854600	0.151500	0.399700
C191	C19	0.785400	0.202800	0.427900
C201	C20	0.663900	0.203700	0.494300
H121	H12	0.623400	0.172400	0.519000
N101	N10	0.761500	0.030900	0.269300
N111	N11	0.573800	0.032600	0.149000
N121	N12	0.656800	0.996840	0.086000
O71	O7	0.823300	0.115190	0.482200
O81	O8	0.933000	0.146800	0.301500
Zn51	Zn5	0.607550	0.548140	0.921770
C211	C21	0.860900	0.550800	0.755200
H131	H13	0.896000	0.575500	0.816400
C221	C22	0.732200	0.497700	0.660200
H141	H14	0.657700	0.477500	0.639400
C231	C23	0.645400	0.651500	0.899700
C241	C24	0.714600	0.702800	0.927900
C251	C25	0.836100	0.703700	0.994300
H151	H15	0.876600	0.672400	0.019000
N131	N13	0.738500	0.530900	0.769300
N141	N14	0.926200	0.532600	0.649000
N151	N15	0.843200	0.496840	0.586000
O91	O9	0.676700	0.615190	0.982200
O101	O10	0.567000	0.646800	0.801500
Zn61	Zn6	0.892450	0.451860	0.421770
C261	C26	0.639100	0.449200	0.255200
H161	H16	0.604000	0.424500	0.316400
C271	C27	0.767800	0.502300	0.160200
H171	H17	0.842300	0.522500	0.139400
C281	C28	0.854600	0.348500	0.399700
C291	C29	0.785400	0.297200	0.427900
C301	C30	0.663900	0.296300	0.494300
H181	H18	0.623400	0.327600	0.519000
N161	N16	0.761500	0.469100	0.269300
N171	N17	0.573800	0.467400	0.149000
N181	N18	0.656800	0.503160	0.086000
O111	O11	0.823300	0.384810	0.482200
O121	O12	0.933000	0.353200	0.301500
Zn71	Zn7	0.392450	0.048140	0.078230
C311	C31	0.139100	0.050800	0.244800
H191	H19	0.104000	0.075500	0.183600
C321	C32	0.267800	0.997700	0.339800
H201	H20	0.342300	0.977500	0.360600
C331	C33	0.354600	0.151500	0.100300
C341	C34	0.285400	0.202800	0.072100
C351	C35	0.163900	0.203700	0.005700
H211	H21	0.123400	0.172400	0.981000
N191	N19	0.261500	0.030900	0.230700
N201	N20	0.073800	0.032600	0.351000
N211	N21	0.156800	0.996840	0.414000
O131	O13	0.323300	0.115190	0.017800
O141	O14	0.433000	0.146800	0.198500
Zn81	Zn8	0.107550	0.951860	0.578230
C361	C36	0.360900	0.949200	0.744800
H221	H22	0.396000	0.924500	0.683600
C371	C37	0.232200	0.002300	0.839800
H231	H23	0.157700	0.022500	0.860600
C381	C38	0.145400	0.848500	0.600300
C391	C39	0.214600	0.797200	0.572100
C401	C40	0.336100	0.796300	0.505700
H241	H24	0.376600	0.827600	0.481000
N221	N22	0.238500	0.969100	0.730700
N231	N23	0.426200	0.967400	0.851000
N241	N24	0.343200	0.003160	0.914000
O151	O15	0.176700	0.884810	0.517800
O161	O16	0.067000	0.853200	0.698500
C411	C41	0.345600	0.250000	0.108500
H251	H25	0.426100	0.250000	0.157100
C421	C42	0.100800	0.250000	0.975000
H261	H26	0.016600	0.250000	0.934100
C431	C43	0.154400	0.750000	0.608500
H271	H27	0.073900	0.750000	0.657100
C441	C44	0.399200	0.750000	0.475000
H281	H28	0.483400	0.750000	0.434100
C451	C45	0.654400	0.750000	0.891500
H291	H29	0.573900	0.750000	0.842900
C461	C46	0.899200	0.750000	0.025000
H301	H30	0.983400	0.750000	0.065900
C471	C47	0.845600	0.250000	0.391500
H311	H31	0.926100	0.250000	0.342900
C481	C48	0.600800	0.250000	0.525000
H321	H32	0.516600	0.250000	0.565900
