data_LAMFIO_freeONLY_PM
_symmetry_space_group_name_H-M	'P1'
_cell_length_a	14.116000
_cell_length_b	26.839000
_cell_length_c	7.642000
_cell_angle_alpha	90.000000
_cell_angle_beta	90.000000
_cell_angle_gamma	90.190000
_symmetry_Int_Tables_number 1

loop_
_symmetry_equiv_pos_as_xyz
'x,y,z'

loop_
_atom_site_label
_atom_site_type_symbol
_atom_site_fract_x
_atom_site_fract_y
_atom_site_fract_z
Cd11	Cd1	0.279800	0.135180	0.885200
N11	N1	0.266000	0.082400	0.104000
N21	N2	0.257000	0.080800	0.661000
N31	N3	0.336000	0.199700	0.085000
N41	N4	0.631000	0.168700	0.120000
N51	N5	0.321000	0.193700	0.656000
N61	N6	0.446000	0.126200	0.831000
C11	C1	0.258000	0.048700	0.207000
C21	C2	0.252000	0.047800	0.554000
C31	C3	0.391000	0.217900	0.153000
C41	C4	0.579000	0.199100	0.168000
C51	C5	0.417000	0.189000	0.622000
C61	C6	0.465000	0.148000	0.669000
C71	C7	0.582000	0.158000	0.643000
Cd21	Cd2	0.279800	0.635180	0.385200
N71	N7	0.266000	0.582400	0.604000
N81	N8	0.257000	0.580800	0.161000
N91	N9	0.336000	0.699700	0.585000
N101	N10	0.631000	0.668700	0.620000
N111	N11	0.321000	0.693700	0.156000
N121	N12	0.446000	0.626200	0.331000
C81	C8	0.258000	0.548700	0.707000
C91	C9	0.252000	0.547800	0.054000
C101	C10	0.391000	0.717900	0.653000
C111	C11	0.579000	0.699100	0.668000
C121	C12	0.417000	0.689000	0.122000
C131	C13	0.465000	0.648000	0.169000
C141	C14	0.582000	0.658000	0.143000
Cd31	Cd3	0.220200	0.864820	0.885200
N131	N13	0.234000	0.917600	0.104000
N141	N14	0.243000	0.919200	0.661000
N151	N15	0.164000	0.800300	0.085000
N161	N16	0.869000	0.831300	0.120000
N171	N17	0.179000	0.806300	0.656000
N181	N18	0.054000	0.873800	0.831000
C151	C15	0.242000	0.951300	0.207000
C161	C16	0.248000	0.952200	0.554000
C171	C17	0.109000	0.782100	0.153000
C181	C18	0.921000	0.800900	0.168000
C191	C19	0.083000	0.811000	0.622000
C201	C20	0.035000	0.852000	0.669000
C211	C21	0.918000	0.842000	0.643000
Cd41	Cd4	0.220200	0.364820	0.385200
N191	N19	0.234000	0.417600	0.604000
N201	N20	0.243000	0.419200	0.161000
N211	N21	0.164000	0.300300	0.585000
N221	N22	0.869000	0.331300	0.620000
N231	N23	0.179000	0.306300	0.156000
N241	N24	0.054000	0.373800	0.331000
C221	C22	0.242000	0.451300	0.707000
C231	C23	0.248000	0.452200	0.054000
C241	C24	0.109000	0.282100	0.653000
C251	C25	0.921000	0.300900	0.668000
C261	C26	0.083000	0.311000	0.122000
C271	C27	0.035000	0.352000	0.169000
C281	C28	0.918000	0.342000	0.143000
Cd51	Cd5	0.720200	0.864820	0.114800
N251	N25	0.734000	0.917600	0.896000
N261	N26	0.743000	0.919200	0.339000
N271	N27	0.664000	0.800300	0.915000
N281	N28	0.369000	0.831300	0.880000
N291	N29	0.679000	0.806300	0.344000
N301	N30	0.554000	0.873800	0.169000
C291	C29	0.742000	0.951300	0.793000
C301	C30	0.748000	0.952200	0.446000
C311	C31	0.609000	0.782100	0.847000
C321	C32	0.421000	0.800900	0.832000
C331	C33	0.583000	0.811000	0.378000
C341	C34	0.535000	0.852000	0.331000
C351	C35	0.418000	0.842000	0.357000
Cd61	Cd6	0.720200	0.364820	0.614800
N311	N31	0.734000	0.417600	0.396000
N321	N32	0.743000	0.419200	0.839000
N331	N33	0.664000	0.300300	0.415000
N341	N34	0.369000	0.331300	0.380000
N351	N35	0.679000	0.306300	0.844000
N361	N36	0.554000	0.373800	0.669000
C361	C36	0.742000	0.451300	0.293000
C371	C37	0.748000	0.452200	0.946000
C381	C38	0.609000	0.282100	0.347000
C391	C39	0.421000	0.300900	0.332000
C401	C40	0.583000	0.311000	0.878000
C411	C41	0.535000	0.352000	0.831000
C421	C42	0.418000	0.342000	0.857000
Cd71	Cd7	0.779800	0.135180	0.114800
N371	N37	0.766000	0.082400	0.896000
N381	N38	0.757000	0.080800	0.339000
N391	N39	0.836000	0.199700	0.915000
N401	N40	0.131000	0.168700	0.880000
N411	N41	0.821000	0.193700	0.344000
N421	N42	0.946000	0.126200	0.169000
C431	C43	0.758000	0.048700	0.793000
C441	C44	0.752000	0.047800	0.446000
C451	C45	0.891000	0.217900	0.847000
C461	C46	0.079000	0.199100	0.832000
C471	C47	0.917000	0.189000	0.378000
C481	C48	0.965000	0.148000	0.331000
C491	C49	0.082000	0.158000	0.357000
Cd81	Cd8	0.779800	0.635180	0.614800
N431	N43	0.766000	0.582400	0.396000
N441	N44	0.757000	0.580800	0.839000
N451	N45	0.836000	0.699700	0.415000
N461	N46	0.131000	0.668700	0.380000
N471	N47	0.821000	0.693700	0.844000
N481	N48	0.946000	0.626200	0.669000
C501	C50	0.758000	0.548700	0.293000
C511	C51	0.752000	0.547800	0.946000
C521	C52	0.891000	0.717900	0.347000
C531	C53	0.079000	0.699100	0.332000
C541	C54	0.917000	0.689000	0.878000
C551	C55	0.965000	0.648000	0.831000
C561	C56	0.082000	0.658000	0.857000
Ni11	Ni1	0.250000	0.000000	0.379900
Ni21	Ni2	0.250000	0.500000	0.879900
Ni31	Ni3	0.750000	0.000000	0.620100
Ni41	Ni4	0.750000	0.500000	0.120100
Ni51	Ni5	0.500000	0.250000	0.250000
Ni61	Ni6	0.000000	0.750000	0.250000
Ni71	Ni7	0.500000	0.750000	0.750000
Ni81	Ni8	0.000000	0.250000	0.750000
