data_LAMHAI_freeONLY_PM
_symmetry_space_group_name_H-M	'P1'
_cell_length_a	14.104000
_cell_length_b	26.654000
_cell_length_c	7.645000
_cell_angle_alpha	90.000000
_cell_angle_beta	90.000000
_cell_angle_gamma	90.000000
_symmetry_Int_Tables_number 1

loop_
_symmetry_equiv_pos_as_xyz
'x,y,z'

loop_
_atom_site_label
_atom_site_type_symbol
_atom_site_fract_x
_atom_site_fract_y
_atom_site_fract_z
Cd11	Cd1	0.219890	0.114150	0.136200
N11	N1	0.248100	0.171600	0.914000
N21	N2	0.237100	0.169400	0.357000
N31	N3	0.170600	0.049400	0.339000
N41	N4	0.125300	0.917600	0.631000
N51	N5	0.183200	0.056800	0.905000
N61	N6	0.055700	0.125300	0.082000
C11	C1	0.247200	0.200800	0.805000
C21	C2	0.240100	0.200700	0.462000
C31	C3	0.104700	0.030400	0.404000
C41	C4	0.076800	0.948500	0.584000
C51	C5	0.080000	0.057700	0.878000
C61	C6	0.027000	0.094000	0.940000
C71	C7	0.923000	0.096000	0.895000
Cd21	Cd2	0.280110	0.885850	0.636200
N71	N7	0.251900	0.828400	0.414000
N81	N8	0.262900	0.830600	0.857000
N91	N9	0.329400	0.950600	0.839000
N101	N10	0.374700	0.082400	0.131000
N111	N11	0.316800	0.943200	0.405000
N121	N12	0.444300	0.874700	0.582000
C81	C8	0.252800	0.799200	0.305000
C91	C9	0.259900	0.799300	0.962000
C101	C10	0.395300	0.969600	0.904000
C111	C11	0.423200	0.051500	0.084000
C121	C12	0.420000	0.942300	0.378000
C131	C13	0.473000	0.906000	0.440000
C141	C14	0.577000	0.904000	0.395000
Cd31	Cd3	0.780110	0.614150	0.863800
N131	N13	0.751900	0.671600	0.086000
N141	N14	0.762900	0.669400	0.643000
N151	N15	0.829400	0.549400	0.661000
N161	N16	0.874700	0.417600	0.369000
N171	N17	0.816800	0.556800	0.095000
N181	N18	0.944300	0.625300	0.918000
C151	C15	0.752800	0.700800	0.195000
C161	C16	0.759900	0.700700	0.538000
C171	C17	0.895300	0.530400	0.596000
C181	C18	0.923200	0.448500	0.416000
C191	C19	0.920000	0.557700	0.122000
C201	C20	0.973000	0.594000	0.060000
C211	C21	0.077000	0.596000	0.105000
Cd41	Cd4	0.719890	0.385850	0.363800
N191	N19	0.748100	0.328400	0.586000
N201	N20	0.737100	0.330600	0.143000
N211	N21	0.670600	0.450600	0.161000
N221	N22	0.625300	0.582400	0.869000
N231	N23	0.683200	0.443200	0.595000
N241	N24	0.555700	0.374700	0.418000
C221	C22	0.747200	0.299200	0.695000
C231	C23	0.740100	0.299300	0.038000
C241	C24	0.604700	0.469600	0.096000
C251	C25	0.576800	0.551500	0.916000
C261	C26	0.580000	0.442300	0.622000
C271	C27	0.527000	0.406000	0.560000
C281	C28	0.423000	0.404000	0.605000
Cd51	Cd5	0.780110	0.885850	0.863800
N251	N25	0.751900	0.828400	0.086000
N261	N26	0.762900	0.830600	0.643000
N271	N27	0.829400	0.950600	0.661000
N281	N28	0.874700	0.082400	0.369000
N291	N29	0.816800	0.943200	0.095000
N301	N30	0.944300	0.874700	0.918000
C291	C29	0.752800	0.799200	0.195000
C301	C30	0.759900	0.799300	0.538000
C311	C31	0.895300	0.969600	0.596000
C321	C32	0.923200	0.051500	0.416000
C331	C33	0.920000	0.942300	0.122000
C341	C34	0.973000	0.906000	0.060000
C351	C35	0.077000	0.904000	0.105000
Cd61	Cd6	0.719890	0.114150	0.363800
N311	N31	0.748100	0.171600	0.586000
N321	N32	0.737100	0.169400	0.143000
N331	N33	0.670600	0.049400	0.161000
N341	N34	0.625300	0.917600	0.869000
N351	N35	0.683200	0.056800	0.595000
N361	N36	0.555700	0.125300	0.418000
C361	C36	0.747200	0.200800	0.695000
C371	C37	0.740100	0.200700	0.038000
C381	C38	0.604700	0.030400	0.096000
C391	C39	0.576800	0.948500	0.916000
C401	C40	0.580000	0.057700	0.622000
C411	C41	0.527000	0.094000	0.560000
C421	C42	0.423000	0.096000	0.605000
Cd71	Cd7	0.219890	0.385850	0.136200
N371	N37	0.248100	0.328400	0.914000
N381	N38	0.237100	0.330600	0.357000
N391	N39	0.170600	0.450600	0.339000
N401	N40	0.125300	0.582400	0.631000
N411	N41	0.183200	0.443200	0.905000
N421	N42	0.055700	0.374700	0.082000
C431	C43	0.247200	0.299200	0.805000
C441	C44	0.240100	0.299300	0.462000
C451	C45	0.104700	0.469600	0.404000
C461	C46	0.076800	0.551500	0.584000
C471	C47	0.080000	0.442300	0.878000
C481	C48	0.027000	0.406000	0.940000
C491	C49	0.923000	0.404000	0.895000
Cd81	Cd8	0.280110	0.614150	0.636200
N431	N43	0.251900	0.671600	0.414000
N441	N44	0.262900	0.669400	0.857000
N451	N45	0.329400	0.549400	0.839000
N461	N46	0.374700	0.417600	0.131000
N471	N47	0.316800	0.556800	0.405000
N481	N48	0.444300	0.625300	0.582000
C501	C50	0.252800	0.700800	0.305000
C511	C51	0.259900	0.700700	0.962000
C521	C52	0.395300	0.530400	0.904000
C531	C53	0.423200	0.448500	0.084000
C541	C54	0.420000	0.557700	0.378000
C551	C55	0.473000	0.594000	0.440000
C561	C56	0.577000	0.596000	0.395000
Ni11	Ni1	0.243800	0.250000	0.631600
Ni21	Ni2	0.256200	0.750000	0.131600
Ni31	Ni3	0.756200	0.750000	0.368400
Ni41	Ni4	0.743800	0.250000	0.868400
Ni51	Ni5	0.000000	0.000000	0.500000
Ni61	Ni6	0.500000	0.000000	0.000000
Ni71	Ni7	0.000000	0.500000	0.500000
Ni81	Ni8	0.500000	0.500000	0.000000
