data_LARNEA_freeONLY_PM
_symmetry_space_group_name_H-M	'P1'
_cell_length_a	9.437800
_cell_length_b	10.192000
_cell_length_c	11.234000
_cell_angle_alpha	64.110000
_cell_angle_beta	73.100000
_cell_angle_gamma	83.180000
_symmetry_Int_Tables_number 1

loop_
_symmetry_equiv_pos_as_xyz
'x,y,z'

loop_
_atom_site_label
_atom_site_type_symbol
_atom_site_fract_x
_atom_site_fract_y
_atom_site_fract_z
Cd11	Cd1	0.053250	0.167320	0.299760
Cd21	Cd2	0.047730	0.821510	0.608920
Cd31	Cd3	0.076740	0.503180	0.982530
O11	O1	0.276000	0.911100	0.485300
O21	O2	0.279900	0.073200	0.267400
O31	O3	0.566900	0.930100	0.431600
O41	O4	0.757800	0.796700	0.588500
O51	O5	0.942200	0.936900	0.422900
C11	C1	0.333600	0.987800	0.366900
C21	C2	0.500400	0.994900	0.327500
C31	C3	0.607700	0.065100	0.204300
H11	H1	0.590800	0.121100	0.118700
C41	C4	0.745800	0.035700	0.233800
H21	H2	0.838000	0.065500	0.171100
C51	C5	0.717800	0.952300	0.376700
C61	C6	0.814300	0.897200	0.466500
C71	C7	0.295400	0.444300	0.131500
C81	C8	0.396700	0.394000	0.223100
C91	C9	0.375800	0.329700	0.357800
H31	H3	0.284900	0.306600	0.423500
C101	C10	0.513500	0.302800	0.383400
H41	H4	0.532000	0.258500	0.469300
C111	C11	0.614500	0.351900	0.262800
C121	C12	0.777000	0.356400	0.222300
O61	O6	0.156900	0.402800	0.192900
O71	O7	0.342300	0.523200	0.009000
O81	O8	0.544200	0.419300	0.158900
O91	O9	0.842500	0.286700	0.314300
O101	O10	0.842300	0.427200	0.098100
C131	C13	0.977600	0.099200	0.636200
C141	C14	0.938900	0.191200	0.715000
C151	C15	0.860800	0.154900	0.847100
H51	H5	0.815200	0.065800	0.909900
C161	C16	0.862900	0.280800	0.870000
H61	H6	0.816100	0.292900	0.949600
C171	C17	0.947500	0.379400	0.751200
C181	C18	0.998900	0.534900	0.704800
O111	O11	0.940700	0.967500	0.703900
O121	O12	0.043900	0.169100	0.506400
O131	O13	0.997100	0.326000	0.656300
O141	O14	0.963000	0.587000	0.794000
O151	O15	0.068900	0.603300	0.588200
C191	C19	0.151000	0.792900	0.876100
C201	C20	0.197400	0.936000	0.850700
C211	C21	0.285600	0.037600	0.734200
H71	H7	0.333600	0.027300	0.653800
C221	C22	0.290100	0.160600	0.758900
H81	H8	0.341400	0.247000	0.696800
C231	C23	0.205700	0.132000	0.890400
C241	C24	0.158200	0.211000	0.975800
O161	O16	0.065800	0.721400	0.995400
O171	O17	0.204400	0.748300	0.786200
O181	O18	0.148300	0.988600	0.948400
O191	O19	0.201700	0.345500	0.907100
O201	O20	0.077900	0.161900	0.087900
