data_LARXUA_freeONLY_PM
_symmetry_space_group_name_H-M	'P1'
_cell_length_a	33.326100
_cell_length_b	33.326100
_cell_length_c	33.326100
_cell_angle_alpha	90.000000
_cell_angle_beta	90.000000
_cell_angle_gamma	90.000000
_symmetry_Int_Tables_number 1

loop_
_symmetry_equiv_pos_as_xyz
'x,y,z'

loop_
_atom_site_label
_atom_site_type_symbol
_atom_site_fract_x
_atom_site_fract_y
_atom_site_fract_z
O11	O1	0.038600	0.782270	0.202100
O21	O2	0.968880	0.783540	0.199990
C11	C1	0.938610	0.964900	0.998120
H11	H1	0.919100	0.962800	0.017900
C21	C2	0.970000	0.937360	0.995700
C31	C3	0.971700	0.907420	0.029660
C41	C4	0.937180	0.893870	0.048800
H21	H2	0.912100	0.901700	0.039500
C51	C5	0.940220	0.868670	0.081890
H31	H3	0.917100	0.859600	0.094700
C61	C6	0.977800	0.857020	0.095850
C71	C7	0.012250	0.870570	0.076700
H41	H4	0.037400	0.862800	0.086100
C81	C8	0.009210	0.895770	0.043630
H51	H5	0.032300	0.904800	0.030800
C91	C9	0.977800	0.831300	0.132700
H61	H6	0.952600	0.824700	0.142800
C101	C10	0.006600	0.817800	0.151340
H71	H7	0.032100	0.823900	0.141700
C111	C11	0.003900	0.791000	0.190100
O31	O3	0.461400	0.717730	0.202100
O41	O4	0.531120	0.716460	0.199990
C121	C12	0.561390	0.535100	0.998120
H81	H8	0.580900	0.537200	0.017900
C131	C13	0.530000	0.562640	0.995700
C141	C14	0.528300	0.592580	0.029660
C151	C15	0.562820	0.606130	0.048800
H91	H9	0.587900	0.598300	0.039500
C161	C16	0.559780	0.631330	0.081890
H101	H10	0.582900	0.640400	0.094700
C171	C17	0.522200	0.642980	0.095850
C181	C18	0.487750	0.629430	0.076700
H111	H11	0.462600	0.637200	0.086100
C191	C19	0.490790	0.604230	0.043630
H121	H12	0.467700	0.595200	0.030800
C201	C20	0.522200	0.668700	0.132700
H131	H13	0.547400	0.675300	0.142800
C211	C21	0.493400	0.682200	0.151340
H141	H14	0.467900	0.676100	0.141700
C221	C22	0.496100	0.709000	0.190100
O51	O5	0.461400	0.782270	0.297900
O61	O6	0.531120	0.783540	0.300010
C231	C23	0.561390	0.964900	0.501880
H151	H15	0.580900	0.962800	0.482100
C241	C24	0.530000	0.937360	0.504300
C251	C25	0.528300	0.907420	0.470340
C261	C26	0.562820	0.893870	0.451200
H161	H16	0.587900	0.901700	0.460500
C271	C27	0.559780	0.868670	0.418110
H171	H17	0.582900	0.859600	0.405300
C281	C28	0.522200	0.857020	0.404150
C291	C29	0.487750	0.870570	0.423300
H181	H18	0.462600	0.862800	0.413900
C301	C30	0.490790	0.895770	0.456370
H191	H19	0.467700	0.904800	0.469200
C311	C31	0.522200	0.831300	0.367300
H201	H20	0.547400	0.824700	0.357200
C321	C32	0.493400	0.817800	0.348660
H211	H21	0.467900	0.823900	0.358300
C331	C33	0.496100	0.791000	0.309900
O71	O7	0.038600	0.717730	0.297900
O81	O8	0.968880	0.716460	0.300010
C341	C34	0.938610	0.535100	0.501880
H221	H22	0.919100	0.537200	0.482100
C351	C35	0.970000	0.562640	0.504300
C361	C36	0.971700	0.592580	0.470340
C371	C37	0.937180	0.606130	0.451200
H231	H23	0.912100	0.598300	0.460500
C381	C38	0.940220	0.631330	0.418110
H241	H24	0.917100	0.640400	0.405300
C391	C39	0.977800	0.642980	0.404150
C401	C40	0.012250	0.629430	0.423300
H251	H25	0.037400	0.637200	0.413900
C411	C41	0.009210	0.604230	0.456370
H261	H26	0.032300	0.595200	0.469200
C421	C42	0.977800	0.668700	0.367300
H271	H27	0.952600	0.675300	0.357200
C431	C43	0.006600	0.682200	0.348660
H281	H28	0.032100	0.676100	0.358300
C441	C44	0.003900	0.709000	0.309900
O91	O9	0.202100	0.038600	0.782270
O101	O10	0.199990	0.968880	0.783540
C451	C45	0.998120	0.938610	0.964900
H291	H29	0.017900	0.919100	0.962800
C461	C46	0.995700	0.970000	0.937360
C471	C47	0.029660	0.971700	0.907420
C481	C48	0.048800	0.937180	0.893870
H301	H30	0.039500	0.912100	0.901700
C491	C49	0.081890	0.940220	0.868670
H311	H31	0.094700	0.917100	0.859600
C501	C50	0.095850	0.977800	0.857020
C511	C51	0.076700	0.012250	0.870570
H321	H32	0.086100	0.037400	0.862800
C521	C52	0.043630	0.009210	0.895770
H331	H33	0.030800	0.032300	0.904800
C531	C53	0.132700	0.977800	0.831300
H341	H34	0.142800	0.952600	0.824700
C541	C54	0.151340	0.006600	0.817800
H351	H35	0.141700	0.032100	0.823900
C551	C55	0.190100	0.003900	0.791000
O111	O11	0.202100	0.461400	0.717730
O121	O12	0.199990	0.531120	0.716460
C561	C56	0.998120	0.561390	0.535100
H361	H36	0.017900	0.580900	0.537200
C571	C57	0.995700	0.530000	0.562640
C581	C58	0.029660	0.528300	0.592580
C591	C59	0.048800	0.562820	0.606130
H371	H37	0.039500	0.587900	0.598300
C601	C60	0.081890	0.559780	0.631330
H381	H38	0.094700	0.582900	0.640400
C611	C61	0.095850	0.522200	0.642980
C621	C62	0.076700	0.487750	0.629430
H391	H39	0.086100	0.462600	0.637200
C631	C63	0.043630	0.490790	0.604230
H401	H40	0.030800	0.467700	0.595200
C641	C64	0.132700	0.522200	0.668700
H411	H41	0.142800	0.547400	0.675300
C651	C65	0.151340	0.493400	0.682200
H421	H42	0.141700	0.467900	0.676100
C661	C66	0.190100	0.496100	0.709000
O131	O13	0.297900	0.461400	0.782270
O141	O14	0.300010	0.531120	0.783540
C671	C67	0.501880	0.561390	0.964900
H431	H43	0.482100	0.580900	0.962800
C681	C68	0.504300	0.530000	0.937360
C691	C69	0.470340	0.528300	0.907420
C701	C70	0.451200	0.562820	0.893870
H441	H44	0.460500	0.587900	0.901700
C711	C71	0.418110	0.559780	0.868670
H451	H45	0.405300	0.582900	0.859600
C721	C72	0.404150	0.522200	0.857020
C731	C73	0.423300	0.487750	0.870570
H461	H46	0.413900	0.462600	0.862800
C741	C74	0.456370	0.490790	0.895770
H471	H47	0.469200	0.467700	0.904800
C751	C75	0.367300	0.522200	0.831300
H481	H48	0.357200	0.547400	0.824700
C761	C76	0.348660	0.493400	0.817800
H491	H49	0.358300	0.467900	0.823900
C771	C77	0.309900	0.496100	0.791000
O151	O15	0.297900	0.038600	0.717730
O161	O16	0.300010	0.968880	0.716460
C781	C78	0.501880	0.938610	0.535100
H501	H50	0.482100	0.919100	0.537200
C791	C79	0.504300	0.970000	0.562640
C801	C80	0.470340	0.971700	0.592580
C811	C81	0.451200	0.937180	0.606130
H511	H51	0.460500	0.912100	0.598300
C821	C82	0.418110	0.940220	0.631330
H521	H52	0.405300	0.917100	0.640400
C831	C83	0.404150	0.977800	0.642980
C841	C84	0.423300	0.012250	0.629430
H531	H53	0.413900	0.037400	0.637200
C851	C85	0.456370	0.009210	0.604230
H541	H54	0.469200	0.032300	0.595200
C861	C86	0.367300	0.977800	0.668700
H551	H55	0.357200	0.952600	0.675300
C871	C87	0.348660	0.006600	0.682200
H561	H56	0.358300	0.032100	0.676100
C881	C88	0.309900	0.003900	0.709000
O171	O17	0.782270	0.202100	0.038600
O181	O18	0.783540	0.199990	0.968880
C891	C89	0.964900	0.998120	0.938610
H571	H57	0.962800	0.017900	0.919100
C901	C90	0.937360	0.995700	0.970000
C911	C91	0.907420	0.029660	0.971700
C921	C92	0.893870	0.048800	0.937180
H581	H58	0.901700	0.039500	0.912100
C931	C93	0.868670	0.081890	0.940220
H591	H59	0.859600	0.094700	0.917100
C941	C94	0.857020	0.095850	0.977800
C951	C95	0.870570	0.076700	0.012250
H601	H60	0.862800	0.086100	0.037400
C961	C96	0.895770	0.043630	0.009210
H611	H61	0.904800	0.030800	0.032300
C971	C97	0.831300	0.132700	0.977800
H621	H62	0.824700	0.142800	0.952600
C981	C98	0.817800	0.151340	0.006600
H631	H63	0.823900	0.141700	0.032100
C991	C99	0.791000	0.190100	0.003900
O191	O19	0.717730	0.202100	0.461400
O201	O20	0.716460	0.199990	0.531120
C1001	C100	0.535100	0.998120	0.561390
H641	H64	0.537200	0.017900	0.580900
C1011	C101	0.562640	0.995700	0.530000
C1021	C102	0.592580	0.029660	0.528300
C1031	C103	0.606130	0.048800	0.562820
H651	H65	0.598300	0.039500	0.587900
C1041	C104	0.631330	0.081890	0.559780
H661	H66	0.640400	0.094700	0.582900
C1051	C105	0.642980	0.095850	0.522200
C1061	C106	0.629430	0.076700	0.487750
H671	H67	0.637200	0.086100	0.462600
C1071	C107	0.604230	0.043630	0.490790
H681	H68	0.595200	0.030800	0.467700
C1081	C108	0.668700	0.132700	0.522200
H691	H69	0.675300	0.142800	0.547400
C1091	C109	0.682200	0.151340	0.493400
H701	H70	0.676100	0.141700	0.467900
C1101	C110	0.709000	0.190100	0.496100
O211	O21	0.782270	0.297900	0.461400
O221	O22	0.783540	0.300010	0.531120
C1111	C111	0.964900	0.501880	0.561390
H711	H71	0.962800	0.482100	0.580900
C1121	C112	0.937360	0.504300	0.530000
C1131	C113	0.907420	0.470340	0.528300
C1141	C114	0.893870	0.451200	0.562820
H721	H72	0.901700	0.460500	0.587900
C1151	C115	0.868670	0.418110	0.559780
H731	H73	0.859600	0.405300	0.582900
C1161	C116	0.857020	0.404150	0.522200
C1171	C117	0.870570	0.423300	0.487750
H741	H74	0.862800	0.413900	0.462600
C1181	C118	0.895770	0.456370	0.490790
H751	H75	0.904800	0.469200	0.467700
C1191	C119	0.831300	0.367300	0.522200
H761	H76	0.824700	0.357200	0.547400
C1201	C120	0.817800	0.348660	0.493400
H771	H77	0.823900	0.358300	0.467900
C1211	C121	0.791000	0.309900	0.496100
O231	O23	0.717730	0.297900	0.038600
O241	O24	0.716460	0.300010	0.968880
C1221	C122	0.535100	0.501880	0.938610
H781	H78	0.537200	0.482100	0.919100
C1231	C123	0.562640	0.504300	0.970000
C1241	C124	0.592580	0.470340	0.971700
C1251	C125	0.606130	0.451200	0.937180
H791	H79	0.598300	0.460500	0.912100
C1261	C126	0.631330	0.418110	0.940220
H801	H80	0.640400	0.405300	0.917100
C1271	C127	0.642980	0.404150	0.977800
C1281	C128	0.629430	0.423300	0.012250
H811	H81	0.637200	0.413900	0.037400
C1291	C129	0.604230	0.456370	0.009210
H821	H82	0.595200	0.469200	0.032300
C1301	C130	0.668700	0.367300	0.977800
H831	H83	0.675300	0.357200	0.952600
C1311	C131	0.682200	0.348660	0.006600
H841	H84	0.676100	0.358300	0.032100
C1321	C132	0.709000	0.309900	0.003900
O251	O25	0.217730	0.961400	0.702100
O261	O26	0.216460	0.031120	0.699990
C1331	C133	0.035100	0.061390	0.498120
H851	H85	0.037200	0.080900	0.517900
C1341	C134	0.062640	0.030000	0.495700
C1351	C135	0.092580	0.028300	0.529660
C1361	C136	0.106130	0.062820	0.548800
H861	H86	0.098300	0.087900	0.539500
C1371	C137	0.131330	0.059780	0.581890
H871	H87	0.140400	0.082900	0.594700
C1381	C138	0.142980	0.022200	0.595850
C1391	C139	0.129430	0.987750	0.576700
H881	H88	0.137200	0.962600	0.586100
C1401	C140	0.104230	0.990790	0.543630
H891	H89	0.095200	0.967700	0.530800
C1411	C141	0.168700	0.022200	0.632700
H901	H90	0.175300	0.047400	0.642800
C1421	C142	0.182200	0.993400	0.651340
H911	H91	0.176100	0.967900	0.641700
C1431	C143	0.209000	0.996100	0.690100
O271	O27	0.282270	0.538600	0.702100
O281	O28	0.283540	0.468880	0.699990
C1441	C144	0.464900	0.438610	0.498120
H921	H92	0.462800	0.419100	0.517900
C1451	C145	0.437360	0.470000	0.495700
C1461	C146	0.407420	0.471700	0.529660
C1471	C147	0.393870	0.437180	0.548800
H931	H93	0.401700	0.412100	0.539500
C1481	C148	0.368670	0.440220	0.581890
H941	H94	0.359600	0.417100	0.594700
C1491	C149	0.357020	0.477800	0.595850
C1501	C150	0.370570	0.512250	0.576700
H951	H95	0.362800	0.537400	0.586100
C1511	C151	0.395770	0.509210	0.543630
H961	H96	0.404800	0.532300	0.530800
C1521	C152	0.331300	0.477800	0.632700
H971	H97	0.324700	0.452600	0.642800
C1531	C153	0.317800	0.506600	0.651340
H981	H98	0.323900	0.532100	0.641700
C1541	C154	0.291000	0.503900	0.690100
O291	O29	0.217730	0.538600	0.797900
O301	O30	0.216460	0.468880	0.800010
C1551	C155	0.035100	0.438610	0.001880
H991	H99	0.037200	0.419100	0.982100
C1561	C156	0.062640	0.470000	0.004300
C1571	C157	0.092580	0.471700	0.970340
C1581	C158	0.106130	0.437180	0.951200
H1001	H100	0.098300	0.412100	0.960500
C1591	C159	0.131330	0.440220	0.918110
H1011	H101	0.140400	0.417100	0.905300
C1601	C160	0.142980	0.477800	0.904150
C1611	C161	0.129430	0.512250	0.923300
H1021	H102	0.137200	0.537400	0.913900
C1621	C162	0.104230	0.509210	0.956370
H1031	H103	0.095200	0.532300	0.969200
C1631	C163	0.168700	0.477800	0.867300
H1041	H104	0.175300	0.452600	0.857200
C1641	C164	0.182200	0.506600	0.848660
H1051	H105	0.176100	0.532100	0.858300
C1651	C165	0.209000	0.503900	0.809900
O311	O31	0.282270	0.961400	0.797900
O321	O32	0.283540	0.031120	0.800010
C1661	C166	0.464900	0.061390	0.001880
H1061	H106	0.462800	0.080900	0.982100
C1671	C167	0.437360	0.030000	0.004300
C1681	C168	0.407420	0.028300	0.970340
C1691	C169	0.393870	0.062820	0.951200
H1071	H107	0.401700	0.087900	0.960500
C1701	C170	0.368670	0.059780	0.918110
H1081	H108	0.359600	0.082900	0.905300
C1711	C171	0.357020	0.022200	0.904150
C1721	C172	0.370570	0.987750	0.923300
H1091	H109	0.362800	0.962600	0.913900
C1731	C173	0.395770	0.990790	0.956370
H1101	H110	0.404800	0.967700	0.969200
C1741	C174	0.331300	0.022200	0.867300
H1111	H111	0.324700	0.047400	0.857200
C1751	C175	0.317800	0.993400	0.848660
H1121	H112	0.323900	0.967900	0.858300
C1761	C176	0.291000	0.996100	0.809900
O331	O33	0.961400	0.797900	0.282270
O341	O34	0.031120	0.800010	0.283540
C1771	C177	0.061390	0.001880	0.464900
H1131	H113	0.080900	0.982100	0.462800
C1781	C178	0.030000	0.004300	0.437360
C1791	C179	0.028300	0.970340	0.407420
C1801	C180	0.062820	0.951200	0.393870
H1141	H114	0.087900	0.960500	0.401700
C1811	C181	0.059780	0.918110	0.368670
H1151	H115	0.082900	0.905300	0.359600
C1821	C182	0.022200	0.904150	0.357020
C1831	C183	0.987750	0.923300	0.370570
H1161	H116	0.962600	0.913900	0.362800
C1841	C184	0.990790	0.956370	0.395770
H1171	H117	0.967700	0.969200	0.404800
C1851	C185	0.022200	0.867300	0.331300
H1181	H118	0.047400	0.857200	0.324700
C1861	C186	0.993400	0.848660	0.317800
H1191	H119	0.967900	0.858300	0.323900
C1871	C187	0.996100	0.809900	0.291000
O351	O35	0.538600	0.797900	0.217730
O361	O36	0.468880	0.800010	0.216460
C1881	C188	0.438610	0.001880	0.035100
H1201	H120	0.419100	0.982100	0.037200
C1891	C189	0.470000	0.004300	0.062640
C1901	C190	0.471700	0.970340	0.092580
C1911	C191	0.437180	0.951200	0.106130
H1211	H121	0.412100	0.960500	0.098300
C1921	C192	0.440220	0.918110	0.131330
H1221	H122	0.417100	0.905300	0.140400
C1931	C193	0.477800	0.904150	0.142980
C1941	C194	0.512250	0.923300	0.129430
H1231	H123	0.537400	0.913900	0.137200
C1951	C195	0.509210	0.956370	0.104230
H1241	H124	0.532300	0.969200	0.095200
C1961	C196	0.477800	0.867300	0.168700
H1251	H125	0.452600	0.857200	0.175300
C1971	C197	0.506600	0.848660	0.182200
H1261	H126	0.532100	0.858300	0.176100
C1981	C198	0.503900	0.809900	0.209000
O371	O37	0.538600	0.702100	0.282270
O381	O38	0.468880	0.699990	0.283540
C1991	C199	0.438610	0.498120	0.464900
H1271	H127	0.419100	0.517900	0.462800
C2001	C200	0.470000	0.495700	0.437360
C2011	C201	0.471700	0.529660	0.407420
C2021	C202	0.437180	0.548800	0.393870
H1281	H128	0.412100	0.539500	0.401700
C2031	C203	0.440220	0.581890	0.368670
H1291	H129	0.417100	0.594700	0.359600
C2041	C204	0.477800	0.595850	0.357020
C2051	C205	0.512250	0.576700	0.370570
H1301	H130	0.537400	0.586100	0.362800
C2061	C206	0.509210	0.543630	0.395770
H1311	H131	0.532300	0.530800	0.404800
C2071	C207	0.477800	0.632700	0.331300
H1321	H132	0.452600	0.642800	0.324700
C2081	C208	0.506600	0.651340	0.317800
H1331	H133	0.532100	0.641700	0.323900
C2091	C209	0.503900	0.690100	0.291000
O391	O39	0.961400	0.702100	0.217730
O401	O40	0.031120	0.699990	0.216460
C2101	C210	0.061390	0.498120	0.035100
H1341	H134	0.080900	0.517900	0.037200
C2111	C211	0.030000	0.495700	0.062640
C2121	C212	0.028300	0.529660	0.092580
C2131	C213	0.062820	0.548800	0.106130
H1351	H135	0.087900	0.539500	0.098300
C2141	C214	0.059780	0.581890	0.131330
H1361	H136	0.082900	0.594700	0.140400
C2151	C215	0.022200	0.595850	0.142980
C2161	C216	0.987750	0.576700	0.129430
H1371	H137	0.962600	0.586100	0.137200
C2171	C217	0.990790	0.543630	0.104230
H1381	H138	0.967700	0.530800	0.095200
C2181	C218	0.022200	0.632700	0.168700
H1391	H139	0.047400	0.642800	0.175300
C2191	C219	0.993400	0.651340	0.182200
H1401	H140	0.967900	0.641700	0.176100
C2201	C220	0.996100	0.690100	0.209000
O411	O41	0.797900	0.217730	0.538600
O421	O42	0.800010	0.216460	0.468880
C2211	C221	0.001880	0.035100	0.438610
H1411	H141	0.982100	0.037200	0.419100
C2221	C222	0.004300	0.062640	0.470000
C2231	C223	0.970340	0.092580	0.471700
C2241	C224	0.951200	0.106130	0.437180
H1421	H142	0.960500	0.098300	0.412100
C2251	C225	0.918110	0.131330	0.440220
H1431	H143	0.905300	0.140400	0.417100
C2261	C226	0.904150	0.142980	0.477800
C2271	C227	0.923300	0.129430	0.512250
H1441	H144	0.913900	0.137200	0.537400
C2281	C228	0.956370	0.104230	0.509210
H1451	H145	0.969200	0.095200	0.532300
C2291	C229	0.867300	0.168700	0.477800
H1461	H146	0.857200	0.175300	0.452600
C2301	C230	0.848660	0.182200	0.506600
H1471	H147	0.858300	0.176100	0.532100
C2311	C231	0.809900	0.209000	0.503900
O431	O43	0.797900	0.282270	0.961400
O441	O44	0.800010	0.283540	0.031120
C2321	C232	0.001880	0.464900	0.061390
H1481	H148	0.982100	0.462800	0.080900
C2331	C233	0.004300	0.437360	0.030000
C2341	C234	0.970340	0.407420	0.028300
C2351	C235	0.951200	0.393870	0.062820
H1491	H149	0.960500	0.401700	0.087900
C2361	C236	0.918110	0.368670	0.059780
H1501	H150	0.905300	0.359600	0.082900
C2371	C237	0.904150	0.357020	0.022200
C2381	C238	0.923300	0.370570	0.987750
H1511	H151	0.913900	0.362800	0.962600
C2391	C239	0.956370	0.395770	0.990790
H1521	H152	0.969200	0.404800	0.967700
C2401	C240	0.867300	0.331300	0.022200
H1531	H153	0.857200	0.324700	0.047400
C2411	C241	0.848660	0.317800	0.993400
H1541	H154	0.858300	0.323900	0.967900
C2421	C242	0.809900	0.291000	0.996100
O451	O45	0.702100	0.217730	0.961400
O461	O46	0.699990	0.216460	0.031120
C2431	C243	0.498120	0.035100	0.061390
H1551	H155	0.517900	0.037200	0.080900
C2441	C244	0.495700	0.062640	0.030000
C2451	C245	0.529660	0.092580	0.028300
C2461	C246	0.548800	0.106130	0.062820
H1561	H156	0.539500	0.098300	0.087900
C2471	C247	0.581890	0.131330	0.059780
H1571	H157	0.594700	0.140400	0.082900
C2481	C248	0.595850	0.142980	0.022200
C2491	C249	0.576700	0.129430	0.987750
H1581	H158	0.586100	0.137200	0.962600
C2501	C250	0.543630	0.104230	0.990790
H1591	H159	0.530800	0.095200	0.967700
C2511	C251	0.632700	0.168700	0.022200
H1601	H160	0.642800	0.175300	0.047400
C2521	C252	0.651340	0.182200	0.993400
H1611	H161	0.641700	0.176100	0.967900
C2531	C253	0.690100	0.209000	0.996100
O471	O47	0.702100	0.282270	0.538600
O481	O48	0.699990	0.283540	0.468880
C2541	C254	0.498120	0.464900	0.438610
H1621	H162	0.517900	0.462800	0.419100
C2551	C255	0.495700	0.437360	0.470000
C2561	C256	0.529660	0.407420	0.471700
C2571	C257	0.548800	0.393870	0.437180
H1631	H163	0.539500	0.401700	0.412100
C2581	C258	0.581890	0.368670	0.440220
H1641	H164	0.594700	0.359600	0.417100
C2591	C259	0.595850	0.357020	0.477800
C2601	C260	0.576700	0.370570	0.512250
H1651	H165	0.586100	0.362800	0.537400
C2611	C261	0.543630	0.395770	0.509210
H1661	H166	0.530800	0.404800	0.532300
C2621	C262	0.632700	0.331300	0.477800
H1671	H167	0.642800	0.324700	0.452600
C2631	C263	0.651340	0.317800	0.506600
H1681	H168	0.641700	0.323900	0.532100
C2641	C264	0.690100	0.291000	0.503900
Cu11	Cu1	0.040020	0.750000	0.250000
Cu21	Cu2	0.459980	0.750000	0.250000
Cu31	Cu3	0.250000	0.040020	0.750000
Cu41	Cu4	0.250000	0.459980	0.750000
Cu51	Cu5	0.750000	0.250000	0.040020
Cu61	Cu6	0.750000	0.250000	0.459980
Cu71	Cu7	0.250000	0.959980	0.750000
Cu81	Cu8	0.250000	0.540020	0.750000
Cu91	Cu9	0.959980	0.750000	0.250000
Cu101	Cu10	0.540020	0.750000	0.250000
Cu111	Cu11	0.750000	0.250000	0.540020
Cu121	Cu12	0.750000	0.250000	0.959980
O491	O49	0.782270	0.038600	0.297900
O501	O50	0.783540	0.968880	0.300010
C2651	C265	0.964900	0.938610	0.501880
H1691	H169	0.962800	0.919100	0.482100
C2661	C266	0.937360	0.970000	0.504300
C2671	C267	0.907420	0.971700	0.470340
C2681	C268	0.893870	0.937180	0.451200
H1701	H170	0.901700	0.912100	0.460500
C2691	C269	0.868670	0.940220	0.418110
H1711	H171	0.859600	0.917100	0.405300
C2701	C270	0.857020	0.977800	0.404150
C2711	C271	0.870570	0.012250	0.423300
H1721	H172	0.862800	0.037400	0.413900
C2721	C272	0.895770	0.009210	0.456370
H1731	H173	0.904800	0.032300	0.469200
C2731	C273	0.831300	0.977800	0.367300
H1741	H174	0.824700	0.952600	0.357200
C2741	C274	0.817800	0.006600	0.348660
H1751	H175	0.823900	0.032100	0.358300
C2751	C275	0.791000	0.003900	0.309900
O511	O51	0.717730	0.461400	0.297900
O521	O52	0.716460	0.531120	0.300010
C2761	C276	0.535100	0.561390	0.501880
H1761	H176	0.537200	0.580900	0.482100
C2771	C277	0.562640	0.530000	0.504300
C2781	C278	0.592580	0.528300	0.470340
C2791	C279	0.606130	0.562820	0.451200
H1771	H177	0.598300	0.587900	0.460500
C2801	C280	0.631330	0.559780	0.418110
H1781	H178	0.640400	0.582900	0.405300
C2811	C281	0.642980	0.522200	0.404150
C2821	C282	0.629430	0.487750	0.423300
H1791	H179	0.637200	0.462600	0.413900
C2831	C283	0.604230	0.490790	0.456370
H1801	H180	0.595200	0.467700	0.469200
C2841	C284	0.668700	0.522200	0.367300
H1811	H181	0.675300	0.547400	0.357200
C2851	C285	0.682200	0.493400	0.348660
H1821	H182	0.676100	0.467900	0.358300
C2861	C286	0.709000	0.496100	0.309900
O531	O53	0.782270	0.461400	0.202100
O541	O54	0.783540	0.531120	0.199990
C2871	C287	0.964900	0.561390	0.998120
H1831	H183	0.962800	0.580900	0.017900
C2881	C288	0.937360	0.530000	0.995700
C2891	C289	0.907420	0.528300	0.029660
C2901	C290	0.893870	0.562820	0.048800
H1841	H184	0.901700	0.587900	0.039500
C2911	C291	0.868670	0.559780	0.081890
H1851	H185	0.859600	0.582900	0.094700
C2921	C292	0.857020	0.522200	0.095850
C2931	C293	0.870570	0.487750	0.076700
H1861	H186	0.862800	0.462600	0.086100
C2941	C294	0.895770	0.490790	0.043630
H1871	H187	0.904800	0.467700	0.030800
C2951	C295	0.831300	0.522200	0.132700
H1881	H188	0.824700	0.547400	0.142800
C2961	C296	0.817800	0.493400	0.151340
H1891	H189	0.823900	0.467900	0.141700
C2971	C297	0.791000	0.496100	0.190100
O551	O55	0.717730	0.038600	0.202100
O561	O56	0.716460	0.968880	0.199990
C2981	C298	0.535100	0.938610	0.998120
H1901	H190	0.537200	0.919100	0.017900
C2991	C299	0.562640	0.970000	0.995700
C3001	C300	0.592580	0.971700	0.029660
C3011	C301	0.606130	0.937180	0.048800
H1911	H191	0.598300	0.912100	0.039500
C3021	C302	0.631330	0.940220	0.081890
H1921	H192	0.640400	0.917100	0.094700
C3031	C303	0.642980	0.977800	0.095850
C3041	C304	0.629430	0.012250	0.076700
H1931	H193	0.637200	0.037400	0.086100
C3051	C305	0.604230	0.009210	0.043630
H1941	H194	0.595200	0.032300	0.030800
C3061	C306	0.668700	0.977800	0.132700
H1951	H195	0.675300	0.952600	0.142800
C3071	C307	0.682200	0.006600	0.151340
H1961	H196	0.676100	0.032100	0.141700
C3081	C308	0.709000	0.003900	0.190100
O571	O57	0.038600	0.202100	0.717730
O581	O58	0.968880	0.199990	0.716460
C3091	C309	0.938610	0.998120	0.535100
H1971	H197	0.919100	0.017900	0.537200
C3101	C310	0.970000	0.995700	0.562640
C3111	C311	0.971700	0.029660	0.592580
C3121	C312	0.937180	0.048800	0.606130
H1981	H198	0.912100	0.039500	0.598300
C3131	C313	0.940220	0.081890	0.631330
H1991	H199	0.917100	0.094700	0.640400
C3141	C314	0.977800	0.095850	0.642980
C3151	C315	0.012250	0.076700	0.629430
H2001	H200	0.037400	0.086100	0.637200
C3161	C316	0.009210	0.043630	0.604230
H2011	H201	0.032300	0.030800	0.595200
C3171	C317	0.977800	0.132700	0.668700
H2021	H202	0.952600	0.142800	0.675300
C3181	C318	0.006600	0.151340	0.682200
H2031	H203	0.032100	0.141700	0.676100
C3191	C319	0.003900	0.190100	0.709000
O591	O59	0.461400	0.202100	0.782270
O601	O60	0.531120	0.199990	0.783540
C3201	C320	0.561390	0.998120	0.964900
H2041	H204	0.580900	0.017900	0.962800
C3211	C321	0.530000	0.995700	0.937360
C3221	C322	0.528300	0.029660	0.907420
C3231	C323	0.562820	0.048800	0.893870
H2051	H205	0.587900	0.039500	0.901700
C3241	C324	0.559780	0.081890	0.868670
H2061	H206	0.582900	0.094700	0.859600
C3251	C325	0.522200	0.095850	0.857020
C3261	C326	0.487750	0.076700	0.870570
H2071	H207	0.462600	0.086100	0.862800
C3271	C327	0.490790	0.043630	0.895770
H2081	H208	0.467700	0.030800	0.904800
C3281	C328	0.522200	0.132700	0.831300
H2091	H209	0.547400	0.142800	0.824700
C3291	C329	0.493400	0.151340	0.817800
H2101	H210	0.467900	0.141700	0.823900
C3301	C330	0.496100	0.190100	0.791000
O611	O61	0.461400	0.297900	0.717730
O621	O62	0.531120	0.300010	0.716460
C3311	C331	0.561390	0.501880	0.535100
H2111	H211	0.580900	0.482100	0.537200
C3321	C332	0.530000	0.504300	0.562640
C3331	C333	0.528300	0.470340	0.592580
C3341	C334	0.562820	0.451200	0.606130
H2121	H212	0.587900	0.460500	0.598300
C3351	C335	0.559780	0.418110	0.631330
H2131	H213	0.582900	0.405300	0.640400
C3361	C336	0.522200	0.404150	0.642980
C3371	C337	0.487750	0.423300	0.629430
H2141	H214	0.462600	0.413900	0.637200
C3381	C338	0.490790	0.456370	0.604230
H2151	H215	0.467700	0.469200	0.595200
C3391	C339	0.522200	0.367300	0.668700
H2161	H216	0.547400	0.357200	0.675300
C3401	C340	0.493400	0.348660	0.682200
H2171	H217	0.467900	0.358300	0.676100
C3411	C341	0.496100	0.309900	0.709000
O631	O63	0.038600	0.297900	0.782270
O641	O64	0.968880	0.300010	0.783540
C3421	C342	0.938610	0.501880	0.964900
H2181	H218	0.919100	0.482100	0.962800
C3431	C343	0.970000	0.504300	0.937360
C3441	C344	0.971700	0.470340	0.907420
C3451	C345	0.937180	0.451200	0.893870
H2191	H219	0.912100	0.460500	0.901700
C3461	C346	0.940220	0.418110	0.868670
H2201	H220	0.917100	0.405300	0.859600
C3471	C347	0.977800	0.404150	0.857020
C3481	C348	0.012250	0.423300	0.870570
H2211	H221	0.037400	0.413900	0.862800
C3491	C349	0.009210	0.456370	0.895770
H2221	H222	0.032300	0.469200	0.904800
C3501	C350	0.977800	0.367300	0.831300
H2231	H223	0.952600	0.357200	0.824700
C3511	C351	0.006600	0.348660	0.817800
H2241	H224	0.032100	0.358300	0.823900
C3521	C352	0.003900	0.309900	0.791000
O651	O65	0.202100	0.782270	0.461400
O661	O66	0.199990	0.783540	0.531120
C3531	C353	0.998120	0.964900	0.561390
H2251	H225	0.017900	0.962800	0.580900
C3541	C354	0.995700	0.937360	0.530000
C3551	C355	0.029660	0.907420	0.528300
C3561	C356	0.048800	0.893870	0.562820
H2261	H226	0.039500	0.901700	0.587900
C3571	C357	0.081890	0.868670	0.559780
H2271	H227	0.094700	0.859600	0.582900
C3581	C358	0.095850	0.857020	0.522200
C3591	C359	0.076700	0.870570	0.487750
H2281	H228	0.086100	0.862800	0.462600
C3601	C360	0.043630	0.895770	0.490790
H2291	H229	0.030800	0.904800	0.467700
C3611	C361	0.132700	0.831300	0.522200
H2301	H230	0.142800	0.824700	0.547400
C3621	C362	0.151340	0.817800	0.493400
H2311	H231	0.141700	0.823900	0.467900
C3631	C363	0.190100	0.791000	0.496100
O671	O67	0.202100	0.717730	0.038600
O681	O68	0.199990	0.716460	0.968880
C3641	C364	0.998120	0.535100	0.938610
H2321	H232	0.017900	0.537200	0.919100
C3651	C365	0.995700	0.562640	0.970000
C3661	C366	0.029660	0.592580	0.971700
C3671	C367	0.048800	0.606130	0.937180
H2331	H233	0.039500	0.598300	0.912100
C3681	C368	0.081890	0.631330	0.940220
H2341	H234	0.094700	0.640400	0.917100
C3691	C369	0.095850	0.642980	0.977800
C3701	C370	0.076700	0.629430	0.012250
H2351	H235	0.086100	0.637200	0.037400
C3711	C371	0.043630	0.604230	0.009210
H2361	H236	0.030800	0.595200	0.032300
C3721	C372	0.132700	0.668700	0.977800
H2371	H237	0.142800	0.675300	0.952600
C3731	C373	0.151340	0.682200	0.006600
H2381	H238	0.141700	0.676100	0.032100
C3741	C374	0.190100	0.709000	0.003900
O691	O69	0.297900	0.782270	0.038600
O701	O70	0.300010	0.783540	0.968880
C3751	C375	0.501880	0.964900	0.938610
H2391	H239	0.482100	0.962800	0.919100
C3761	C376	0.504300	0.937360	0.970000
C3771	C377	0.470340	0.907420	0.971700
C3781	C378	0.451200	0.893870	0.937180
H2401	H240	0.460500	0.901700	0.912100
C3791	C379	0.418110	0.868670	0.940220
H2411	H241	0.405300	0.859600	0.917100
C3801	C380	0.404150	0.857020	0.977800
C3811	C381	0.423300	0.870570	0.012250
H2421	H242	0.413900	0.862800	0.037400
C3821	C382	0.456370	0.895770	0.009210
H2431	H243	0.469200	0.904800	0.032300
C3831	C383	0.367300	0.831300	0.977800
H2441	H244	0.357200	0.824700	0.952600
C3841	C384	0.348660	0.817800	0.006600
H2451	H245	0.358300	0.823900	0.032100
C3851	C385	0.309900	0.791000	0.003900
O711	O71	0.297900	0.717730	0.461400
O721	O72	0.300010	0.716460	0.531120
C3861	C386	0.501880	0.535100	0.561390
H2461	H246	0.482100	0.537200	0.580900
C3871	C387	0.504300	0.562640	0.530000
C3881	C388	0.470340	0.592580	0.528300
C3891	C389	0.451200	0.606130	0.562820
H2471	H247	0.460500	0.598300	0.587900
C3901	C390	0.418110	0.631330	0.559780
H2481	H248	0.405300	0.640400	0.582900
C3911	C391	0.404150	0.642980	0.522200
C3921	C392	0.423300	0.629430	0.487750
H2491	H249	0.413900	0.637200	0.462600
C3931	C393	0.456370	0.604230	0.490790
H2501	H250	0.469200	0.595200	0.467700
C3941	C394	0.367300	0.668700	0.522200
H2511	H251	0.357200	0.675300	0.547400
C3951	C395	0.348660	0.682200	0.493400
H2521	H252	0.358300	0.676100	0.467900
C3961	C396	0.309900	0.709000	0.496100
O731	O73	0.961400	0.217730	0.797900
O741	O74	0.031120	0.216460	0.800010
C3971	C397	0.061390	0.035100	0.001880
H2531	H253	0.080900	0.037200	0.982100
C3981	C398	0.030000	0.062640	0.004300
C3991	C399	0.028300	0.092580	0.970340
C4001	C400	0.062820	0.106130	0.951200
H2541	H254	0.087900	0.098300	0.960500
C4011	C401	0.059780	0.131330	0.918110
H2551	H255	0.082900	0.140400	0.905300
C4021	C402	0.022200	0.142980	0.904150
C4031	C403	0.987750	0.129430	0.923300
H2561	H256	0.962600	0.137200	0.913900
C4041	C404	0.990790	0.104230	0.956370
H2571	H257	0.967700	0.095200	0.969200
C4051	C405	0.022200	0.168700	0.867300
H2581	H258	0.047400	0.175300	0.857200
C4061	C406	0.993400	0.182200	0.848660
H2591	H259	0.967900	0.176100	0.858300
C4071	C407	0.996100	0.209000	0.809900
O751	O75	0.538600	0.282270	0.797900
O761	O76	0.468880	0.283540	0.800010
C4081	C408	0.438610	0.464900	0.001880
H2601	H260	0.419100	0.462800	0.982100
C4091	C409	0.470000	0.437360	0.004300
C4101	C410	0.471700	0.407420	0.970340
C4111	C411	0.437180	0.393870	0.951200
H2611	H261	0.412100	0.401700	0.960500
C4121	C412	0.440220	0.368670	0.918110
H2621	H262	0.417100	0.359600	0.905300
C4131	C413	0.477800	0.357020	0.904150
C4141	C414	0.512250	0.370570	0.923300
H2631	H263	0.537400	0.362800	0.913900
C4151	C415	0.509210	0.395770	0.956370
H2641	H264	0.532300	0.404800	0.969200
C4161	C416	0.477800	0.331300	0.867300
H2651	H265	0.452600	0.324700	0.857200
C4171	C417	0.506600	0.317800	0.848660
H2661	H266	0.532100	0.323900	0.858300
C4181	C418	0.503900	0.291000	0.809900
O771	O77	0.538600	0.217730	0.702100
O781	O78	0.468880	0.216460	0.699990
C4191	C419	0.438610	0.035100	0.498120
H2671	H267	0.419100	0.037200	0.517900
C4201	C420	0.470000	0.062640	0.495700
C4211	C421	0.471700	0.092580	0.529660
C4221	C422	0.437180	0.106130	0.548800
H2681	H268	0.412100	0.098300	0.539500
C4231	C423	0.440220	0.131330	0.581890
H2691	H269	0.417100	0.140400	0.594700
C4241	C424	0.477800	0.142980	0.595850
C4251	C425	0.512250	0.129430	0.576700
H2701	H270	0.537400	0.137200	0.586100
C4261	C426	0.509210	0.104230	0.543630
H2711	H271	0.532300	0.095200	0.530800
C4271	C427	0.477800	0.168700	0.632700
H2721	H272	0.452600	0.175300	0.642800
C4281	C428	0.506600	0.182200	0.651340
H2731	H273	0.532100	0.176100	0.641700
C4291	C429	0.503900	0.209000	0.690100
O791	O79	0.961400	0.282270	0.702100
O801	O80	0.031120	0.283540	0.699990
C4301	C430	0.061390	0.464900	0.498120
H2741	H274	0.080900	0.462800	0.517900
C4311	C431	0.030000	0.437360	0.495700
C4321	C432	0.028300	0.407420	0.529660
C4331	C433	0.062820	0.393870	0.548800
H2751	H275	0.087900	0.401700	0.539500
C4341	C434	0.059780	0.368670	0.581890
H2761	H276	0.082900	0.359600	0.594700
C4351	C435	0.022200	0.357020	0.595850
C4361	C436	0.987750	0.370570	0.576700
H2771	H277	0.962600	0.362800	0.586100
C4371	C437	0.990790	0.395770	0.543630
H2781	H278	0.967700	0.404800	0.530800
C4381	C438	0.022200	0.331300	0.632700
H2791	H279	0.047400	0.324700	0.642800
C4391	C439	0.993400	0.317800	0.651340
H2801	H280	0.967900	0.323900	0.641700
C4401	C440	0.996100	0.291000	0.690100
O811	O81	0.797900	0.961400	0.217730
O821	O82	0.800010	0.031120	0.216460
C4411	C441	0.001880	0.061390	0.035100
H2811	H281	0.982100	0.080900	0.037200
C4421	C442	0.004300	0.030000	0.062640
C4431	C443	0.970340	0.028300	0.092580
C4441	C444	0.951200	0.062820	0.106130
H2821	H282	0.960500	0.087900	0.098300
C4451	C445	0.918110	0.059780	0.131330
H2831	H283	0.905300	0.082900	0.140400
C4461	C446	0.904150	0.022200	0.142980
C4471	C447	0.923300	0.987750	0.129430
H2841	H284	0.913900	0.962600	0.137200
C4481	C448	0.956370	0.990790	0.104230
H2851	H285	0.969200	0.967700	0.095200
C4491	C449	0.867300	0.022200	0.168700
H2861	H286	0.857200	0.047400	0.175300
C4501	C450	0.848660	0.993400	0.182200
H2871	H287	0.858300	0.967900	0.176100
C4511	C451	0.809900	0.996100	0.209000
O831	O83	0.797900	0.538600	0.282270
O841	O84	0.800010	0.468880	0.283540
C4521	C452	0.001880	0.438610	0.464900
H2881	H288	0.982100	0.419100	0.462800
C4531	C453	0.004300	0.470000	0.437360
C4541	C454	0.970340	0.471700	0.407420
C4551	C455	0.951200	0.437180	0.393870
H2891	H289	0.960500	0.412100	0.401700
C4561	C456	0.918110	0.440220	0.368670
H2901	H290	0.905300	0.417100	0.359600
C4571	C457	0.904150	0.477800	0.357020
C4581	C458	0.923300	0.512250	0.370570
H2911	H291	0.913900	0.537400	0.362800
C4591	C459	0.956370	0.509210	0.395770
H2921	H292	0.969200	0.532300	0.404800
C4601	C460	0.867300	0.477800	0.331300
H2931	H293	0.857200	0.452600	0.324700
C4611	C461	0.848660	0.506600	0.317800
H2941	H294	0.858300	0.532100	0.323900
C4621	C462	0.809900	0.503900	0.291000
O851	O85	0.702100	0.538600	0.217730
O861	O86	0.699990	0.468880	0.216460
C4631	C463	0.498120	0.438610	0.035100
H2951	H295	0.517900	0.419100	0.037200
C4641	C464	0.495700	0.470000	0.062640
C4651	C465	0.529660	0.471700	0.092580
C4661	C466	0.548800	0.437180	0.106130
H2961	H296	0.539500	0.412100	0.098300
C4671	C467	0.581890	0.440220	0.131330
H2971	H297	0.594700	0.417100	0.140400
C4681	C468	0.595850	0.477800	0.142980
C4691	C469	0.576700	0.512250	0.129430
H2981	H298	0.586100	0.537400	0.137200
C4701	C470	0.543630	0.509210	0.104230
H2991	H299	0.530800	0.532300	0.095200
C4711	C471	0.632700	0.477800	0.168700
H3001	H300	0.642800	0.452600	0.175300
C4721	C472	0.651340	0.506600	0.182200
H3011	H301	0.641700	0.532100	0.176100
C4731	C473	0.690100	0.503900	0.209000
O871	O87	0.702100	0.961400	0.282270
O881	O88	0.699990	0.031120	0.283540
C4741	C474	0.498120	0.061390	0.464900
H3021	H302	0.517900	0.080900	0.462800
C4751	C475	0.495700	0.030000	0.437360
C4761	C476	0.529660	0.028300	0.407420
C4771	C477	0.548800	0.062820	0.393870
H3031	H303	0.539500	0.087900	0.401700
C4781	C478	0.581890	0.059780	0.368670
H3041	H304	0.594700	0.082900	0.359600
C4791	C479	0.595850	0.022200	0.357020
C4801	C480	0.576700	0.987750	0.370570
H3051	H305	0.586100	0.962600	0.362800
C4811	C481	0.543630	0.990790	0.395770
H3061	H306	0.530800	0.967700	0.404800
C4821	C482	0.632700	0.022200	0.331300
H3071	H307	0.642800	0.047400	0.324700
C4831	C483	0.651340	0.993400	0.317800
H3081	H308	0.641700	0.967900	0.323900
C4841	C484	0.690100	0.996100	0.291000
O891	O89	0.217730	0.797900	0.961400
O901	O90	0.216460	0.800010	0.031120
C4851	C485	0.035100	0.001880	0.061390
H3091	H309	0.037200	0.982100	0.080900
C4861	C486	0.062640	0.004300	0.030000
C4871	C487	0.092580	0.970340	0.028300
C4881	C488	0.106130	0.951200	0.062820
H3101	H310	0.098300	0.960500	0.087900
C4891	C489	0.131330	0.918110	0.059780
H3111	H311	0.140400	0.905300	0.082900
C4901	C490	0.142980	0.904150	0.022200
C4911	C491	0.129430	0.923300	0.987750
H3121	H312	0.137200	0.913900	0.962600
C4921	C492	0.104230	0.956370	0.990790
H3131	H313	0.095200	0.969200	0.967700
C4931	C493	0.168700	0.867300	0.022200
H3141	H314	0.175300	0.857200	0.047400
C4941	C494	0.182200	0.848660	0.993400
H3151	H315	0.176100	0.858300	0.967900
C4951	C495	0.209000	0.809900	0.996100
O911	O91	0.282270	0.797900	0.538600
O921	O92	0.283540	0.800010	0.468880
C4961	C496	0.464900	0.001880	0.438610
H3161	H316	0.462800	0.982100	0.419100
C4971	C497	0.437360	0.004300	0.470000
C4981	C498	0.407420	0.970340	0.471700
C4991	C499	0.393870	0.951200	0.437180
H3171	H317	0.401700	0.960500	0.412100
C5001	C500	0.368670	0.918110	0.440220
H3181	H318	0.359600	0.905300	0.417100
C5011	C501	0.357020	0.904150	0.477800
C5021	C502	0.370570	0.923300	0.512250
H3191	H319	0.362800	0.913900	0.537400
C5031	C503	0.395770	0.956370	0.509210
H3201	H320	0.404800	0.969200	0.532300
C5041	C504	0.331300	0.867300	0.477800
H3211	H321	0.324700	0.857200	0.452600
C5051	C505	0.317800	0.848660	0.506600
H3221	H322	0.323900	0.858300	0.532100
C5061	C506	0.291000	0.809900	0.503900
O931	O93	0.217730	0.702100	0.538600
O941	O94	0.216460	0.699990	0.468880
C5071	C507	0.035100	0.498120	0.438610
H3231	H323	0.037200	0.517900	0.419100
C5081	C508	0.062640	0.495700	0.470000
C5091	C509	0.092580	0.529660	0.471700
C5101	C510	0.106130	0.548800	0.437180
H3241	H324	0.098300	0.539500	0.412100
C5111	C511	0.131330	0.581890	0.440220
H3251	H325	0.140400	0.594700	0.417100
C5121	C512	0.142980	0.595850	0.477800
C5131	C513	0.129430	0.576700	0.512250
H3261	H326	0.137200	0.586100	0.537400
C5141	C514	0.104230	0.543630	0.509210
H3271	H327	0.095200	0.530800	0.532300
C5151	C515	0.168700	0.632700	0.477800
H3281	H328	0.175300	0.642800	0.452600
C5161	C516	0.182200	0.651340	0.506600
H3291	H329	0.176100	0.641700	0.532100
C5171	C517	0.209000	0.690100	0.503900
O951	O95	0.282270	0.702100	0.961400
O961	O96	0.283540	0.699990	0.031120
C5181	C518	0.464900	0.498120	0.061390
H3301	H330	0.462800	0.517900	0.080900
C5191	C519	0.437360	0.495700	0.030000
C5201	C520	0.407420	0.529660	0.028300
C5211	C521	0.393870	0.548800	0.062820
H3311	H331	0.401700	0.539500	0.087900
C5221	C522	0.368670	0.581890	0.059780
H3321	H332	0.359600	0.594700	0.082900
C5231	C523	0.357020	0.595850	0.022200
C5241	C524	0.370570	0.576700	0.987750
H3331	H333	0.362800	0.586100	0.962600
C5251	C525	0.395770	0.543630	0.990790
H3341	H334	0.404800	0.530800	0.967700
C5261	C526	0.331300	0.632700	0.022200
H3351	H335	0.324700	0.642800	0.047400
C5271	C527	0.317800	0.651340	0.993400
H3361	H336	0.323900	0.641700	0.967900
C5281	C528	0.291000	0.690100	0.996100
Cu131	Cu13	0.750000	0.040020	0.250000
Cu141	Cu14	0.750000	0.459980	0.250000
Cu151	Cu15	0.040020	0.250000	0.750000
Cu161	Cu16	0.459980	0.250000	0.750000
Cu171	Cu17	0.250000	0.750000	0.459980
Cu181	Cu18	0.250000	0.750000	0.040020
Cu191	Cu19	0.959980	0.250000	0.750000
Cu201	Cu20	0.540020	0.250000	0.750000
Cu211	Cu21	0.750000	0.959980	0.250000
Cu221	Cu22	0.750000	0.540020	0.250000
Cu231	Cu23	0.250000	0.750000	0.959980
Cu241	Cu24	0.250000	0.750000	0.540020
