data_LAVZUG_freeONLY_PM
_symmetry_space_group_name_H-M	'P1'
_cell_length_a	14.800800
_cell_length_b	12.254300
_cell_length_c	30.224300
_cell_angle_alpha	90.000000
_cell_angle_beta	90.991000
_cell_angle_gamma	90.000000
_symmetry_Int_Tables_number 1

loop_
_symmetry_equiv_pos_as_xyz
'x,y,z'

loop_
_atom_site_label
_atom_site_type_symbol
_atom_site_fract_x
_atom_site_fract_y
_atom_site_fract_z
U11	U1	0.454950	0.671330	0.234760
U21	U2	0.533190	0.359560	0.076350
U31	U3	0.748410	0.426950	0.242920
P11	P1	0.980000	0.895600	0.302500
P21	P2	0.976400	0.448400	0.291640
P31	P3	0.694800	0.684300	0.195990
P41	P4	0.475200	0.635900	0.047560
O11	O1	0.423100	0.680400	0.177800
O21	O2	0.481600	0.663900	0.291600
O31	O3	0.604700	0.677100	0.218500
O41	O4	0.309800	0.583400	0.249500
O51	O5	0.312000	0.761600	0.254100
O61	O6	0.811900	0.359300	0.201800
O71	O7	0.686800	0.495900	0.283900
O81	O8	0.745900	0.575600	0.197800
O91	O9	0.753400	0.775100	0.213700
O101	O10	0.834000	0.920000	0.066300
O111	O11	0.728000	0.936000	0.011500
O121	O12	0.488700	0.641000	0.998700
O131	O13	0.393400	0.709000	0.059600
O141	O14	0.460600	0.524800	0.066200
O151	O15	0.634900	0.432100	0.070500
O161	O16	0.433900	0.290000	0.080500
O171	O17	0.645100	0.254000	0.127200
O181	O18	0.601000	0.185000	0.047800
O191	O19	0.019500	0.987000	0.276100
O201	O20	0.990800	0.914300	0.352100
O211	O21	0.880500	0.873500	0.291500
O221	O22	0.878200	0.474100	0.280600
O231	O23	0.983100	0.417000	0.341000
O241	O24	0.021400	0.360800	0.264900
C11	C1	0.269800	0.670900	0.257100
C21	C2	0.172800	0.672600	0.270200
C31	C3	0.129300	0.770900	0.277800
H11	H1	0.160300	0.836400	0.274900
C41	C4	0.039400	0.770800	0.289600
C51	C5	0.993300	0.671600	0.292800
H21	H2	0.932400	0.671000	0.299900
C61	C6	0.038600	0.573300	0.285400
C71	C7	0.127500	0.573800	0.274200
H31	H3	0.157700	0.508400	0.269300
C81	C8	0.760000	0.899000	0.048900
C91	C9	0.698300	0.817400	0.072500
C101	C10	0.722600	0.792500	0.116500
H41	H4	0.772000	0.826200	0.130200
C111	C11	0.670500	0.715500	0.139500
C121	C12	0.598000	0.668700	0.117200
H51	H5	0.563500	0.617600	0.132200
C131	C13	0.573300	0.693700	0.073400
C141	C14	0.624600	0.767400	0.051100
H61	H6	0.610600	0.784300	0.021700
U41	U4	0.045050	0.171330	0.265240
U51	U5	0.966810	0.859560	0.423650
U61	U6	0.751590	0.926950	0.257080
P51	P5	0.520000	0.395600	0.197500
P61	P6	0.523600	0.948400	0.208360
P71	P7	0.805200	0.184300	0.304010
P81	P8	0.024800	0.135900	0.452440
O251	O25	0.076900	0.180400	0.322200
O261	O26	0.018400	0.163900	0.208400
O271	O27	0.895300	0.177100	0.281500
O281	O28	0.190200	0.083400	0.250500
O291	O29	0.188000	0.261600	0.245900
O301	O30	0.688100	0.859300	0.298200
O311	O31	0.813200	0.995900	0.216100
O321	O32	0.754100	0.075600	0.302200
O331	O33	0.746600	0.275100	0.286300
O341	O34	0.666000	0.420000	0.433700
O351	O35	0.772000	0.436000	0.488500
O361	O36	0.011300	0.141000	0.501300
O371	O37	0.106600	0.209000	0.440400
O381	O38	0.039400	0.024800	0.433800
O391	O39	0.865100	0.932100	0.429500
O401	O40	0.066100	0.790000	0.419500
O411	O41	0.854900	0.754000	0.372800
O421	O42	0.899000	0.685000	0.452200
O431	O43	0.480500	0.487000	0.223900
O441	O44	0.509200	0.414300	0.147900
O451	O45	0.619500	0.373500	0.208500
O461	O46	0.621800	0.974100	0.219400
O471	O47	0.516900	0.917000	0.159000
O481	O48	0.478600	0.860800	0.235100
C151	C15	0.230200	0.170900	0.242900
C161	C16	0.327200	0.172600	0.229800
C171	C17	0.370700	0.270900	0.222200
H71	H7	0.339700	0.336400	0.225100
C181	C18	0.460600	0.270800	0.210400
C191	C19	0.506700	0.171600	0.207200
H81	H8	0.567600	0.171000	0.200100
C201	C20	0.461400	0.073300	0.214600
C211	C21	0.372500	0.073800	0.225800
H91	H9	0.342300	0.008400	0.230700
C221	C22	0.740000	0.399000	0.451100
C231	C23	0.801700	0.317400	0.427500
C241	C24	0.777400	0.292500	0.383500
H101	H10	0.728000	0.326200	0.369800
C251	C25	0.829500	0.215500	0.360500
C261	C26	0.902000	0.168700	0.382800
H111	H11	0.936500	0.117600	0.367800
C271	C27	0.926700	0.193700	0.426600
C281	C28	0.875400	0.267400	0.448900
H121	H12	0.889400	0.284300	0.478300
U71	U7	0.545050	0.328670	0.765240
U81	U8	0.466810	0.640440	0.923650
U91	U9	0.251590	0.573050	0.757080
P91	P9	0.020000	0.104400	0.697500
P101	P10	0.023600	0.551600	0.708360
P111	P11	0.305200	0.315700	0.804010
P121	P12	0.524800	0.364100	0.952440
O491	O49	0.576900	0.319600	0.822200
O501	O50	0.518400	0.336100	0.708400
O511	O51	0.395300	0.322900	0.781500
O521	O52	0.690200	0.416600	0.750500
O531	O53	0.688000	0.238400	0.745900
O541	O54	0.188100	0.640700	0.798200
O551	O55	0.313200	0.504100	0.716100
O561	O56	0.254100	0.424400	0.802200
O571	O57	0.246600	0.224900	0.786300
O581	O58	0.166000	0.080000	0.933700
O591	O59	0.272000	0.064000	0.988500
O601	O60	0.511300	0.359000	0.001300
O611	O61	0.606600	0.291000	0.940400
O621	O62	0.539400	0.475200	0.933800
O631	O63	0.365100	0.567900	0.929500
O641	O64	0.566100	0.710000	0.919500
O651	O65	0.354900	0.746000	0.872800
O661	O66	0.399000	0.815000	0.952200
O671	O67	0.980500	0.013000	0.723900
O681	O68	0.009200	0.085700	0.647900
O691	O69	0.119500	0.126500	0.708500
O701	O70	0.121800	0.525900	0.719400
O711	O71	0.016900	0.583000	0.659000
O721	O72	0.978600	0.639200	0.735100
C291	C29	0.730200	0.329100	0.742900
C301	C30	0.827200	0.327400	0.729800
C311	C31	0.870700	0.229100	0.722200
H131	H13	0.839700	0.163600	0.725100
C321	C32	0.960600	0.229200	0.710400
C331	C33	0.006700	0.328400	0.707200
H141	H14	0.067600	0.329000	0.700100
C341	C34	0.961400	0.426700	0.714600
C351	C35	0.872500	0.426200	0.725800
H151	H15	0.842300	0.491600	0.730700
C361	C36	0.240000	0.101000	0.951100
C371	C37	0.301700	0.182600	0.927500
C381	C38	0.277400	0.207500	0.883500
H161	H16	0.228000	0.173800	0.869800
C391	C39	0.329500	0.284500	0.860500
C401	C40	0.402000	0.331300	0.882800
H171	H17	0.436500	0.382400	0.867800
C411	C41	0.426700	0.306300	0.926600
C421	C42	0.375400	0.232600	0.948900
H181	H18	0.389400	0.215700	0.978300
U101	U10	0.954950	0.828670	0.734760
U111	U11	0.033190	0.140440	0.576350
U121	U12	0.248410	0.073050	0.742910
P131	P13	0.480000	0.604400	0.802500
P141	P14	0.476400	0.051600	0.791640
P151	P15	0.194800	0.815700	0.695990
P161	P16	0.975200	0.864100	0.547560
O731	O73	0.923100	0.819600	0.677800
O741	O74	0.981600	0.836100	0.791600
O751	O75	0.104700	0.822900	0.718500
O761	O76	0.809800	0.916600	0.749500
O771	O77	0.812000	0.738400	0.754100
O781	O78	0.311900	0.140700	0.701800
O791	O79	0.186800	0.004100	0.783900
O801	O80	0.245900	0.924400	0.697800
O811	O81	0.253400	0.724900	0.713700
O821	O82	0.334000	0.580000	0.566300
O831	O83	0.228000	0.564000	0.511500
O841	O84	0.988700	0.859000	0.498700
O851	O85	0.893400	0.791000	0.559600
O861	O86	0.960600	0.975200	0.566200
O871	O87	0.134900	0.067900	0.570500
O881	O88	0.933900	0.210000	0.580500
O891	O89	0.145100	0.246000	0.627200
O901	O90	0.101000	0.315000	0.547800
O911	O91	0.519500	0.513000	0.776100
O921	O92	0.490800	0.585700	0.852100
O931	O93	0.380500	0.626500	0.791500
O941	O94	0.378200	0.025900	0.780600
O951	O95	0.483100	0.083000	0.841000
O961	O96	0.521400	0.139200	0.764900
C431	C43	0.769800	0.829100	0.757100
C441	C44	0.672800	0.827400	0.770200
C451	C45	0.629300	0.729100	0.777800
H191	H19	0.660300	0.663600	0.774900
C461	C46	0.539400	0.729200	0.789600
C471	C47	0.493300	0.828400	0.792800
H201	H20	0.432400	0.829000	0.799900
C481	C48	0.538600	0.926700	0.785400
C491	C49	0.627500	0.926200	0.774200
H211	H21	0.657700	0.991600	0.769300
C501	C50	0.260000	0.601000	0.548900
C511	C51	0.198300	0.682600	0.572500
C521	C52	0.222600	0.707500	0.616500
H221	H22	0.272000	0.673800	0.630200
C531	C53	0.170500	0.784500	0.639500
C541	C54	0.098000	0.831300	0.617200
H231	H23	0.063500	0.882400	0.632200
C551	C55	0.073300	0.806300	0.573400
C561	C56	0.124600	0.732600	0.551100
H241	H24	0.110600	0.715700	0.521700
