data_LAWFUN_freeONLY_PM
_symmetry_space_group_name_H-M	'P1'
_cell_length_a	17.029800
_cell_length_b	18.890400
_cell_length_c	16.761100
_cell_angle_alpha	90.000000
_cell_angle_beta	112.447000
_cell_angle_gamma	90.000000
_symmetry_Int_Tables_number 1

loop_
_symmetry_equiv_pos_as_xyz
'x,y,z'

loop_
_atom_site_label
_atom_site_type_symbol
_atom_site_fract_x
_atom_site_fract_y
_atom_site_fract_z
Zn11	Zn1	0.248280	0.371680	0.419390
Li11	Li1	0.082100	0.383300	0.247000
N11	N1	0.341650	0.364920	0.539790
C11	C1	0.387430	0.306520	0.571970
H11	H1	0.376600	0.265400	0.536700
C21	C2	0.449370	0.303420	0.653820
H21	H2	0.480200	0.260900	0.674400
C31	C3	0.466400	0.363240	0.706050
C41	C4	0.418590	0.423550	0.672770
H31	H3	0.428000	0.465400	0.706600
C51	C5	0.357330	0.422390	0.590300
H41	H4	0.324900	0.464000	0.568400
O11	O1	0.257170	0.282800	0.369140
O21	O2	0.143480	0.299640	0.247820
O31	O3	0.344270	0.961400	0.226160
O41	O4	0.218460	0.960510	0.117490
C61	C6	0.205410	0.263630	0.294220
C71	C7	0.222920	0.193150	0.264070
C81	C8	0.175420	0.169970	0.181000
C91	C9	0.190200	0.102970	0.153800
C101	C10	0.254060	0.059900	0.210110
C111	C11	0.300690	0.084200	0.293010
H51	H5	0.344000	0.055100	0.331700
C121	C12	0.285440	0.149410	0.320050
H61	H6	0.317700	0.164800	0.377200
C131	C13	0.274660	0.989390	0.183940
N21	N2	0.123900	0.212300	0.114400
H71	H7	0.119400	0.257800	0.123100
H81	H8	0.095600	0.193700	0.063200
O51	O5	0.154920	0.394470	0.453990
O61	O6	0.032910	0.382260	0.340540
C141	C14	0.076650	0.406770	0.413750
C151	C15	0.036460	0.454060	0.458680
C161	C16	0.952530	0.444000	0.450420
C171	C17	0.916050	0.489510	0.491230
N31	N3	0.901500	0.392200	0.405600
H91	H9	0.849300	0.389200	0.403900
H101	H10	0.919900	0.361100	0.377800
N41	N4	0.837700	0.468100	0.488500
H111	H11	0.815100	0.428400	0.462300
H121	H12	0.810300	0.494100	0.513000
N51	N5	0.131900	0.082300	0.072900
H131	H13	0.133800	0.039200	0.053900
H141	H14	0.093300	0.112500	0.041000
Zn21	Zn2	0.748280	0.871680	0.419390
Li21	Li2	0.582100	0.883300	0.247000
N61	N6	0.841650	0.864920	0.539790
C181	C18	0.887430	0.806520	0.571970
H151	H15	0.876600	0.765400	0.536700
C191	C19	0.949370	0.803420	0.653820
H161	H16	0.980200	0.760900	0.674400
C201	C20	0.966400	0.863240	0.706050
C211	C21	0.918590	0.923550	0.672770
H171	H17	0.928000	0.965400	0.706600
C221	C22	0.857330	0.922390	0.590300
H181	H18	0.824900	0.964000	0.568400
O71	O7	0.757170	0.782800	0.369140
O81	O8	0.643480	0.799640	0.247820
O91	O9	0.844270	0.461400	0.226160
O101	O10	0.718460	0.460510	0.117490
C231	C23	0.705410	0.763630	0.294220
C241	C24	0.722920	0.693150	0.264070
C251	C25	0.675420	0.669970	0.181000
C261	C26	0.690200	0.602970	0.153800
C271	C27	0.754060	0.559900	0.210110
C281	C28	0.800690	0.584200	0.293010
H191	H19	0.844000	0.555100	0.331700
C291	C29	0.785440	0.649410	0.320050
H201	H20	0.817700	0.664800	0.377200
C301	C30	0.774660	0.489390	0.183940
N71	N7	0.623900	0.712300	0.114400
H211	H21	0.619400	0.757800	0.123100
H221	H22	0.595600	0.693700	0.063200
O111	O11	0.654920	0.894470	0.453990
O121	O12	0.532910	0.882260	0.340540
C311	C31	0.576650	0.906770	0.413750
C321	C32	0.536460	0.954060	0.458680
C331	C33	0.452530	0.944000	0.450420
C341	C34	0.416050	0.989510	0.491230
N81	N8	0.401500	0.892200	0.405600
H231	H23	0.349300	0.889200	0.403900
H241	H24	0.419900	0.861100	0.377800
N91	N9	0.337700	0.968100	0.488500
H251	H25	0.315100	0.928400	0.462300
H261	H26	0.310300	0.994100	0.513000
N101	N10	0.631900	0.582300	0.072900
H271	H27	0.633800	0.539200	0.053900
H281	H28	0.593300	0.612500	0.041000
Zn31	Zn3	0.751720	0.371680	0.080610
Li31	Li3	0.917900	0.383300	0.253000
N111	N11	0.658350	0.364920	0.960210
C351	C35	0.612570	0.306520	0.928030
H291	H29	0.623400	0.265400	0.963300
C361	C36	0.550630	0.303420	0.846180
H301	H30	0.519800	0.260900	0.825600
C371	C37	0.533600	0.363240	0.793950
C381	C38	0.581410	0.423550	0.827230
H311	H31	0.572000	0.465400	0.793400
C391	C39	0.642670	0.422390	0.909700
H321	H32	0.675100	0.464000	0.931600
O131	O13	0.742830	0.282800	0.130860
O141	O14	0.856520	0.299640	0.252180
O151	O15	0.655730	0.961400	0.273840
O161	O16	0.781540	0.960510	0.382510
C401	C40	0.794590	0.263630	0.205780
C411	C41	0.777080	0.193150	0.235930
C421	C42	0.824580	0.169970	0.319000
C431	C43	0.809800	0.102970	0.346200
C441	C44	0.745940	0.059900	0.289890
C451	C45	0.699310	0.084200	0.206990
H331	H33	0.656000	0.055100	0.168300
C461	C46	0.714560	0.149410	0.179950
H341	H34	0.682300	0.164800	0.122800
C471	C47	0.725340	0.989390	0.316060
N121	N12	0.876100	0.212300	0.385600
H351	H35	0.880600	0.257800	0.376900
H361	H36	0.904400	0.193700	0.436800
O171	O17	0.845080	0.394470	0.046010
O181	O18	0.967090	0.382260	0.159460
C481	C48	0.923350	0.406770	0.086250
C491	C49	0.963540	0.454060	0.041320
C501	C50	0.047470	0.444000	0.049580
C511	C51	0.083950	0.489510	0.008770
N131	N13	0.098500	0.392200	0.094400
H371	H37	0.150700	0.389200	0.096100
H381	H38	0.080100	0.361100	0.122200
N141	N14	0.162300	0.468100	0.011500
H391	H39	0.184900	0.428400	0.037700
H401	H40	0.189700	0.494100	0.987000
N151	N15	0.868100	0.082300	0.427100
H411	H41	0.866200	0.039200	0.446100
H421	H42	0.906700	0.112500	0.459000
Zn41	Zn4	0.251720	0.871680	0.080610
Li41	Li4	0.417900	0.883300	0.253000
N161	N16	0.158350	0.864920	0.960210
C521	C52	0.112570	0.806520	0.928030
H431	H43	0.123400	0.765400	0.963300
C531	C53	0.050630	0.803420	0.846180
H441	H44	0.019800	0.760900	0.825600
C541	C54	0.033600	0.863240	0.793950
C551	C55	0.081410	0.923550	0.827230
H451	H45	0.072000	0.965400	0.793400
C561	C56	0.142670	0.922390	0.909700
H461	H46	0.175100	0.964000	0.931600
O191	O19	0.242830	0.782800	0.130860
O201	O20	0.356520	0.799640	0.252180
O211	O21	0.155730	0.461400	0.273840
O221	O22	0.281540	0.460510	0.382510
C571	C57	0.294590	0.763630	0.205780
C581	C58	0.277080	0.693150	0.235930
C591	C59	0.324580	0.669970	0.319000
C601	C60	0.309800	0.602970	0.346200
C611	C61	0.245940	0.559900	0.289890
C621	C62	0.199310	0.584200	0.206990
H471	H47	0.156000	0.555100	0.168300
C631	C63	0.214560	0.649410	0.179950
H481	H48	0.182300	0.664800	0.122800
C641	C64	0.225340	0.489390	0.316060
N171	N17	0.376100	0.712300	0.385600
H491	H49	0.380600	0.757800	0.376900
H501	H50	0.404400	0.693700	0.436800
O231	O23	0.345080	0.894470	0.046010
O241	O24	0.467090	0.882260	0.159460
C651	C65	0.423350	0.906770	0.086250
C661	C66	0.463540	0.954060	0.041320
C671	C67	0.547470	0.944000	0.049580
C681	C68	0.583950	0.989510	0.008770
N181	N18	0.598500	0.892200	0.094400
H511	H51	0.650700	0.889200	0.096100
H521	H52	0.580100	0.861100	0.122200
N191	N19	0.662300	0.968100	0.011500
H531	H53	0.684900	0.928400	0.037700
H541	H54	0.689700	0.994100	0.987000
N201	N20	0.368100	0.582300	0.427100
H551	H55	0.366200	0.539200	0.446100
H561	H56	0.406700	0.612500	0.459000
Zn51	Zn5	0.751720	0.628320	0.580610
Li51	Li5	0.917900	0.616700	0.753000
N211	N21	0.658350	0.635080	0.460210
C691	C69	0.612570	0.693480	0.428030
H571	H57	0.623400	0.734600	0.463300
C701	C70	0.550630	0.696580	0.346180
H581	H58	0.519800	0.739100	0.325600
C711	C71	0.533600	0.636760	0.293950
C721	C72	0.581410	0.576450	0.327230
H591	H59	0.572000	0.534600	0.293400
C731	C73	0.642670	0.577610	0.409700
H601	H60	0.675100	0.536000	0.431600
O251	O25	0.742830	0.717200	0.630860
O261	O26	0.856520	0.700360	0.752180
O271	O27	0.655730	0.038600	0.773840
O281	O28	0.781540	0.039490	0.882510
C741	C74	0.794590	0.736370	0.705780
C751	C75	0.777080	0.806850	0.735930
C761	C76	0.824580	0.830030	0.819000
C771	C77	0.809800	0.897030	0.846200
C781	C78	0.745940	0.940100	0.789890
C791	C79	0.699310	0.915800	0.706990
H611	H61	0.656000	0.944900	0.668300
C801	C80	0.714560	0.850590	0.679950
H621	H62	0.682300	0.835200	0.622800
C811	C81	0.725340	0.010610	0.816060
N221	N22	0.876100	0.787700	0.885600
H631	H63	0.880600	0.742200	0.876900
H641	H64	0.904400	0.806300	0.936800
O291	O29	0.845080	0.605530	0.546010
O301	O30	0.967090	0.617740	0.659460
C821	C82	0.923350	0.593230	0.586250
C831	C83	0.963540	0.545940	0.541320
C841	C84	0.047470	0.556000	0.549580
C851	C85	0.083950	0.510490	0.508770
N231	N23	0.098500	0.607800	0.594400
H651	H65	0.150700	0.610800	0.596100
H661	H66	0.080100	0.638900	0.622200
N241	N24	0.162300	0.531900	0.511500
H671	H67	0.184900	0.571600	0.537700
H681	H68	0.189700	0.505900	0.487000
N251	N25	0.868100	0.917700	0.927100
H691	H69	0.866200	0.960800	0.946100
H701	H70	0.906700	0.887500	0.959000
Zn61	Zn6	0.251720	0.128320	0.580610
Li61	Li6	0.417900	0.116700	0.753000
N261	N26	0.158350	0.135080	0.460210
C861	C86	0.112570	0.193480	0.428030
H711	H71	0.123400	0.234600	0.463300
C871	C87	0.050630	0.196580	0.346180
H721	H72	0.019800	0.239100	0.325600
C881	C88	0.033600	0.136760	0.293950
C891	C89	0.081410	0.076450	0.327230
H731	H73	0.072000	0.034600	0.293400
C901	C90	0.142670	0.077610	0.409700
H741	H74	0.175100	0.036000	0.431600
O311	O31	0.242830	0.217200	0.630860
O321	O32	0.356520	0.200360	0.752180
O331	O33	0.155730	0.538600	0.773840
O341	O34	0.281540	0.539490	0.882510
C911	C91	0.294590	0.236370	0.705780
C921	C92	0.277080	0.306850	0.735930
C931	C93	0.324580	0.330030	0.819000
C941	C94	0.309800	0.397030	0.846200
C951	C95	0.245940	0.440100	0.789890
C961	C96	0.199310	0.415800	0.706990
H751	H75	0.156000	0.444900	0.668300
C971	C97	0.214560	0.350590	0.679950
H761	H76	0.182300	0.335200	0.622800
C981	C98	0.225340	0.510610	0.816060
N271	N27	0.376100	0.287700	0.885600
H771	H77	0.380600	0.242200	0.876900
H781	H78	0.404400	0.306300	0.936800
O351	O35	0.345080	0.105530	0.546010
O361	O36	0.467090	0.117740	0.659460
C991	C99	0.423350	0.093230	0.586250
C1001	C100	0.463540	0.045940	0.541320
C1011	C101	0.547470	0.056000	0.549580
C1021	C102	0.583950	0.010490	0.508770
N281	N28	0.598500	0.107800	0.594400
H791	H79	0.650700	0.110800	0.596100
H801	H80	0.580100	0.138900	0.622200
N291	N29	0.662300	0.031900	0.511500
H811	H81	0.684900	0.071600	0.537700
H821	H82	0.689700	0.005900	0.487000
N301	N30	0.368100	0.417700	0.927100
H831	H83	0.366200	0.460800	0.946100
H841	H84	0.406700	0.387500	0.959000
Zn71	Zn7	0.248280	0.628320	0.919390
Li71	Li7	0.082100	0.616700	0.747000
N311	N31	0.341650	0.635080	0.039790
C1031	C103	0.387430	0.693480	0.071970
H851	H85	0.376600	0.734600	0.036700
C1041	C104	0.449370	0.696580	0.153820
H861	H86	0.480200	0.739100	0.174400
C1051	C105	0.466400	0.636760	0.206050
C1061	C106	0.418590	0.576450	0.172770
H871	H87	0.428000	0.534600	0.206600
C1071	C107	0.357330	0.577610	0.090300
H881	H88	0.324900	0.536000	0.068400
O371	O37	0.257170	0.717200	0.869140
O381	O38	0.143480	0.700360	0.747820
O391	O39	0.344270	0.038600	0.726160
O401	O40	0.218460	0.039490	0.617490
C1081	C108	0.205410	0.736370	0.794220
C1091	C109	0.222920	0.806850	0.764070
C1101	C110	0.175420	0.830030	0.681000
C1111	C111	0.190200	0.897030	0.653800
C1121	C112	0.254060	0.940100	0.710110
C1131	C113	0.300690	0.915800	0.793010
H891	H89	0.344000	0.944900	0.831700
C1141	C114	0.285440	0.850590	0.820050
H901	H90	0.317700	0.835200	0.877200
C1151	C115	0.274660	0.010610	0.683940
N321	N32	0.123900	0.787700	0.614400
H911	H91	0.119400	0.742200	0.623100
H921	H92	0.095600	0.806300	0.563200
O411	O41	0.154920	0.605530	0.953990
O421	O42	0.032910	0.617740	0.840540
C1161	C116	0.076650	0.593230	0.913750
C1171	C117	0.036460	0.545940	0.958680
C1181	C118	0.952530	0.556000	0.950420
C1191	C119	0.916050	0.510490	0.991230
N331	N33	0.901500	0.607800	0.905600
H931	H93	0.849300	0.610800	0.903900
H941	H94	0.919900	0.638900	0.877800
N341	N34	0.837700	0.531900	0.988500
H951	H95	0.815100	0.571600	0.962300
H961	H96	0.810300	0.505900	0.013000
N351	N35	0.131900	0.917700	0.572900
H971	H97	0.133800	0.960800	0.553900
H981	H98	0.093300	0.887500	0.541000
Zn81	Zn8	0.748280	0.128320	0.919390
Li81	Li8	0.582100	0.116700	0.747000
N361	N36	0.841650	0.135080	0.039790
C1201	C120	0.887430	0.193480	0.071970
H991	H99	0.876600	0.234600	0.036700
C1211	C121	0.949370	0.196580	0.153820
H1001	H100	0.980200	0.239100	0.174400
C1221	C122	0.966400	0.136760	0.206050
C1231	C123	0.918590	0.076450	0.172770
H1011	H101	0.928000	0.034600	0.206600
C1241	C124	0.857330	0.077610	0.090300
H1021	H102	0.824900	0.036000	0.068400
O431	O43	0.757170	0.217200	0.869140
O441	O44	0.643480	0.200360	0.747820
O451	O45	0.844270	0.538600	0.726160
O461	O46	0.718460	0.539490	0.617490
C1251	C125	0.705410	0.236370	0.794220
C1261	C126	0.722920	0.306850	0.764070
C1271	C127	0.675420	0.330030	0.681000
C1281	C128	0.690200	0.397030	0.653800
C1291	C129	0.754060	0.440100	0.710110
C1301	C130	0.800690	0.415800	0.793010
H1031	H103	0.844000	0.444900	0.831700
C1311	C131	0.785440	0.350590	0.820050
H1041	H104	0.817700	0.335200	0.877200
C1321	C132	0.774660	0.510610	0.683940
N371	N37	0.623900	0.287700	0.614400
H1051	H105	0.619400	0.242200	0.623100
H1061	H106	0.595600	0.306300	0.563200
O471	O47	0.654920	0.105530	0.953990
O481	O48	0.532910	0.117740	0.840540
C1331	C133	0.576650	0.093230	0.913750
C1341	C134	0.536460	0.045940	0.958680
C1351	C135	0.452530	0.056000	0.950420
C1361	C136	0.416050	0.010490	0.991230
N381	N38	0.401500	0.107800	0.905600
H1071	H107	0.349300	0.110800	0.903900
H1081	H108	0.419900	0.138900	0.877800
N391	N39	0.337700	0.031900	0.988500
H1091	H109	0.315100	0.071600	0.962300
H1101	H110	0.310300	0.005900	0.013000
N401	N40	0.631900	0.417700	0.572900
H1111	H111	0.633800	0.460800	0.553900
H1121	H112	0.593300	0.387500	0.541000
