data_LAWGIA_freeONLY_PM
_symmetry_space_group_name_H-M	'P1'
_cell_length_a	18.294300
_cell_length_b	18.294300
_cell_length_c	18.294300
_cell_angle_alpha	60.000000
_cell_angle_beta	60.000000
_cell_angle_gamma	60.000000
_symmetry_Int_Tables_number 1

loop_
_symmetry_equiv_pos_as_xyz
'x,y,z'

loop_
_atom_site_label
_atom_site_type_symbol
_atom_site_fract_x
_atom_site_fract_y
_atom_site_fract_z
Zn11	Zn1	0.206600	0.380200	0.206600
Zn21	Zn2	0.380200	0.206600	0.206600
Zn31	Zn3	0.206600	0.206600	0.206600
Zn41	Zn4	0.206600	0.206600	0.380200
Zn51	Zn5	0.619800	0.793400	0.793400
Zn61	Zn6	0.793400	0.619800	0.793400
Zn71	Zn7	0.793400	0.793400	0.793400
Zn81	Zn8	0.793400	0.793400	0.619800
H11	H1	0.045100	0.565500	0.045100
H21	H2	0.565500	0.045100	0.344300
H31	H3	0.045100	0.344300	0.045100
H41	H4	0.344300	0.045100	0.565500
H51	H5	0.045100	0.045100	0.344300
H61	H6	0.565500	0.344300	0.045100
H71	H7	0.045100	0.045100	0.565500
H81	H8	0.344300	0.565500	0.045100
H91	H9	0.045100	0.344300	0.565500
H101	H10	0.565500	0.045100	0.045100
H111	H11	0.045100	0.565500	0.344300
H121	H12	0.344300	0.045100	0.045100
H131	H13	0.434500	0.954900	0.954900
H141	H14	0.954900	0.434500	0.655700
H151	H15	0.655700	0.954900	0.954900
H161	H16	0.954900	0.655700	0.434500
H171	H17	0.954900	0.954900	0.655700
H181	H18	0.655700	0.434500	0.954900
H191	H19	0.954900	0.954900	0.434500
H201	H20	0.434500	0.655700	0.954900
H211	H21	0.655700	0.954900	0.434500
H221	H22	0.954900	0.434500	0.954900
H231	H23	0.434500	0.954900	0.655700
H241	H24	0.954900	0.655700	0.954900
C11	C1	0.026750	0.538890	0.026750
C21	C2	0.538890	0.026750	0.407610
C31	C3	0.026750	0.407610	0.026750
C41	C4	0.407610	0.026750	0.538890
C51	C5	0.026750	0.026750	0.407610
C61	C6	0.538890	0.407610	0.026750
C71	C7	0.026750	0.026750	0.538890
C81	C8	0.407610	0.538890	0.026750
C91	C9	0.026750	0.407610	0.538890
C101	C10	0.538890	0.026750	0.026750
C111	C11	0.026750	0.538890	0.407610
C121	C12	0.407610	0.026750	0.026750
C131	C13	0.461110	0.973250	0.973250
C141	C14	0.973250	0.461110	0.592390
C151	C15	0.592390	0.973250	0.973250
C161	C16	0.973250	0.592390	0.461110
C171	C17	0.973250	0.973250	0.592390
C181	C18	0.592390	0.461110	0.973250
C191	C19	0.973250	0.973250	0.461110
C201	C20	0.461110	0.592390	0.973250
C211	C21	0.592390	0.973250	0.461110
C221	C22	0.973250	0.461110	0.973250
C231	C23	0.461110	0.973250	0.592390
C241	C24	0.973250	0.592390	0.973250
C251	C25	0.111470	0.388530	0.111470
C261	C26	0.053740	0.446260	0.053740
C271	C27	0.388530	0.111470	0.388530
C281	C28	0.446260	0.053740	0.446260
C291	C29	0.111470	0.111470	0.388530
C301	C30	0.053740	0.053740	0.446260
C311	C31	0.388530	0.388530	0.111470
C321	C32	0.446260	0.446260	0.053740
C331	C33	0.111470	0.388530	0.388530
C341	C34	0.053740	0.446260	0.446260
C351	C35	0.388530	0.111470	0.111470
C361	C36	0.446260	0.053740	0.053740
C371	C37	0.611470	0.888530	0.888530
C381	C38	0.553740	0.946260	0.946260
C391	C39	0.888530	0.611470	0.611470
C401	C40	0.946260	0.553740	0.553740
C411	C41	0.888530	0.888530	0.611470
C421	C42	0.946260	0.946260	0.553740
C431	C43	0.611470	0.611470	0.888530
C441	C44	0.553740	0.553740	0.946260
C451	C45	0.611470	0.888530	0.611470
C461	C46	0.553740	0.946260	0.553740
C471	C47	0.888530	0.611470	0.888530
C481	C48	0.946260	0.553740	0.946260
O11	O1	0.250000	0.250000	0.250000
O21	O2	0.750000	0.750000	0.750000
O31	O3	0.133720	0.427640	0.133720
O41	O4	0.427640	0.133720	0.304920
O51	O5	0.133720	0.304920	0.133720
O61	O6	0.304920	0.133720	0.427640
O71	O7	0.133720	0.133720	0.304920
O81	O8	0.427640	0.304920	0.133720
O91	O9	0.133720	0.133720	0.427640
O101	O10	0.304920	0.427640	0.133720
O111	O11	0.133720	0.304920	0.427640
O121	O12	0.427640	0.133720	0.133720
O131	O13	0.133720	0.427640	0.304920
O141	O14	0.304920	0.133720	0.133720
O151	O15	0.572360	0.866280	0.866280
O161	O16	0.866280	0.572360	0.695080
O171	O17	0.695080	0.866280	0.866280
O181	O18	0.866280	0.695080	0.572360
O191	O19	0.866280	0.866280	0.695080
O201	O20	0.695080	0.572360	0.866280
O211	O21	0.866280	0.866280	0.572360
O221	O22	0.572360	0.695080	0.866280
O231	O23	0.695080	0.866280	0.572360
O241	O24	0.866280	0.572360	0.866280
O251	O25	0.572360	0.866280	0.695080
O261	O26	0.866280	0.695080	0.866280
