data_LAWGOG_freeONLY_PM
_symmetry_space_group_name_H-M	'P1'
_cell_length_a	18.306300
_cell_length_b	18.306300
_cell_length_c	18.306300
_cell_angle_alpha	60.000000
_cell_angle_beta	60.000000
_cell_angle_gamma	60.000000
_symmetry_Int_Tables_number 1

loop_
_symmetry_equiv_pos_as_xyz
'x,y,z'

loop_
_atom_site_label
_atom_site_type_symbol
_atom_site_fract_x
_atom_site_fract_y
_atom_site_fract_z
Zn11	Zn1	0.206640	0.380060	0.206650
Zn21	Zn2	0.380050	0.206650	0.206650
Zn31	Zn3	0.206640	0.206650	0.206650
Zn41	Zn4	0.206640	0.206650	0.380060
Zn51	Zn5	0.619950	0.793350	0.793350
Zn61	Zn6	0.793360	0.619940	0.793350
Zn71	Zn7	0.793360	0.793350	0.793350
Zn81	Zn8	0.793360	0.793350	0.619940
H11	H1	0.045200	0.565600	0.045200
H21	H2	0.565600	0.045200	0.344000
H31	H3	0.045200	0.344000	0.045200
H41	H4	0.344000	0.045200	0.565600
H51	H5	0.045200	0.045200	0.344000
H61	H6	0.565600	0.344000	0.045200
H71	H7	0.045200	0.045200	0.565600
H81	H8	0.344000	0.565600	0.045200
H91	H9	0.045200	0.344000	0.565600
H101	H10	0.565600	0.045200	0.045200
H111	H11	0.045200	0.565600	0.344000
H121	H12	0.344000	0.045200	0.045200
H131	H13	0.434400	0.954800	0.954800
H141	H14	0.954800	0.434400	0.656000
H151	H15	0.656000	0.954800	0.954800
H161	H16	0.954800	0.656000	0.434400
H171	H17	0.954800	0.954800	0.656000
H181	H18	0.656000	0.434400	0.954800
H191	H19	0.954800	0.954800	0.434400
H201	H20	0.434400	0.656000	0.954800
H211	H21	0.656000	0.954800	0.434400
H221	H22	0.954800	0.434400	0.954800
H231	H23	0.434400	0.954800	0.656000
H241	H24	0.954800	0.656000	0.954800
C11	C1	0.026830	0.539050	0.026830
C21	C2	0.539050	0.026830	0.407290
C31	C3	0.026830	0.407290	0.026830
C41	C4	0.407290	0.026830	0.539050
C51	C5	0.026830	0.026830	0.407290
C61	C6	0.539050	0.407290	0.026830
C71	C7	0.026830	0.026830	0.539050
C81	C8	0.407290	0.539050	0.026830
C91	C9	0.026830	0.407290	0.539050
C101	C10	0.539050	0.026830	0.026830
C111	C11	0.026830	0.539050	0.407290
C121	C12	0.407290	0.026830	0.026830
C131	C13	0.460950	0.973170	0.973170
C141	C14	0.973170	0.460950	0.592710
C151	C15	0.592710	0.973170	0.973170
C161	C16	0.973170	0.592710	0.460950
C171	C17	0.973170	0.973170	0.592710
C181	C18	0.592710	0.460950	0.973170
C191	C19	0.973170	0.973170	0.460950
C201	C20	0.460950	0.592710	0.973170
C211	C21	0.592710	0.973170	0.460950
C221	C22	0.973170	0.460950	0.973170
C231	C23	0.460950	0.973170	0.592710
C241	C24	0.973170	0.592710	0.973170
C251	C25	0.111440	0.388560	0.111440
C261	C26	0.053810	0.446190	0.053810
C271	C27	0.388560	0.111440	0.388560
C281	C28	0.446190	0.053810	0.446190
C291	C29	0.111440	0.111440	0.388560
C301	C30	0.053810	0.053810	0.446190
C311	C31	0.388560	0.388560	0.111440
C321	C32	0.446190	0.446190	0.053810
C331	C33	0.111440	0.388560	0.388560
C341	C34	0.053810	0.446190	0.446190
C351	C35	0.388560	0.111440	0.111440
C361	C36	0.446190	0.053810	0.053810
C371	C37	0.611440	0.888560	0.888560
C381	C38	0.553810	0.946190	0.946190
C391	C39	0.888560	0.611440	0.611440
C401	C40	0.946190	0.553810	0.553810
C411	C41	0.888560	0.888560	0.611440
C421	C42	0.946190	0.946190	0.553810
C431	C43	0.611440	0.611440	0.888560
C441	C44	0.553810	0.553810	0.946190
C451	C45	0.611440	0.888560	0.611440
C461	C46	0.553810	0.946190	0.553810
C471	C47	0.888560	0.611440	0.888560
C481	C48	0.946190	0.553810	0.946190
O11	O1	0.250000	0.250000	0.250000
O21	O2	0.750000	0.750000	0.750000
O31	O3	0.133680	0.427680	0.133680
O41	O4	0.427680	0.133680	0.304960
O51	O5	0.133680	0.304960	0.133680
O61	O6	0.304960	0.133680	0.427680
O71	O7	0.133680	0.133680	0.304960
O81	O8	0.427680	0.304960	0.133680
O91	O9	0.133680	0.133680	0.427680
O101	O10	0.304960	0.427680	0.133680
O111	O11	0.133680	0.304960	0.427680
O121	O12	0.427680	0.133680	0.133680
O131	O13	0.133680	0.427680	0.304960
O141	O14	0.304960	0.133680	0.133680
O151	O15	0.572320	0.866320	0.866320
O161	O16	0.866320	0.572320	0.695040
O171	O17	0.695040	0.866320	0.866320
O181	O18	0.866320	0.695040	0.572320
O191	O19	0.866320	0.866320	0.695040
O201	O20	0.695040	0.572320	0.866320
O211	O21	0.866320	0.866320	0.572320
O221	O22	0.572320	0.695040	0.866320
O231	O23	0.695040	0.866320	0.572320
O241	O24	0.866320	0.572320	0.866320
O251	O25	0.572320	0.866320	0.695040
O261	O26	0.866320	0.695040	0.866320
