data_LAWGUM_freeONLY_PM
_symmetry_space_group_name_H-M	'P1'
_cell_length_a	18.312700
_cell_length_b	18.312700
_cell_length_c	18.312700
_cell_angle_alpha	60.000000
_cell_angle_beta	60.000000
_cell_angle_gamma	60.000000
_symmetry_Int_Tables_number 1

loop_
_symmetry_equiv_pos_as_xyz
'x,y,z'

loop_
_atom_site_label
_atom_site_type_symbol
_atom_site_fract_x
_atom_site_fract_y
_atom_site_fract_z
Zn11	Zn1	0.206660	0.380010	0.206660
Zn21	Zn2	0.380010	0.206660	0.206660
Zn31	Zn3	0.206670	0.206660	0.206660
Zn41	Zn4	0.206670	0.206660	0.380010
Zn51	Zn5	0.619990	0.793340	0.793340
Zn61	Zn6	0.793340	0.619990	0.793330
Zn71	Zn7	0.793340	0.793330	0.793340
Zn81	Zn8	0.793340	0.793330	0.619990
H11	H1	0.045200	0.565800	0.045200
H21	H2	0.565800	0.045200	0.343800
H31	H3	0.045200	0.343800	0.045200
H41	H4	0.343800	0.045200	0.565800
H51	H5	0.045200	0.045200	0.343800
H61	H6	0.565800	0.343800	0.045200
H71	H7	0.045200	0.045200	0.565800
H81	H8	0.343800	0.565800	0.045200
H91	H9	0.045200	0.343800	0.565800
H101	H10	0.565800	0.045200	0.045200
H111	H11	0.045200	0.565800	0.343800
H121	H12	0.343800	0.045200	0.045200
H131	H13	0.434200	0.954800	0.954800
H141	H14	0.954800	0.434200	0.656200
H151	H15	0.656200	0.954800	0.954800
H161	H16	0.954800	0.656200	0.434200
H171	H17	0.954800	0.954800	0.656200
H181	H18	0.656200	0.434200	0.954800
H191	H19	0.954800	0.954800	0.434200
H201	H20	0.434200	0.656200	0.954800
H211	H21	0.656200	0.954800	0.434200
H221	H22	0.954800	0.434200	0.954800
H231	H23	0.434200	0.954800	0.656200
H241	H24	0.954800	0.656200	0.954800
C11	C1	0.026880	0.539300	0.026880
C21	C2	0.539300	0.026880	0.406940
C31	C3	0.026880	0.406940	0.026880
C41	C4	0.406940	0.026880	0.539300
C51	C5	0.026880	0.026880	0.406940
C61	C6	0.539300	0.406940	0.026880
C71	C7	0.026880	0.026880	0.539300
C81	C8	0.406940	0.539300	0.026880
C91	C9	0.026880	0.406940	0.539300
C101	C10	0.539300	0.026880	0.026880
C111	C11	0.026880	0.539300	0.406940
C121	C12	0.406940	0.026880	0.026880
C131	C13	0.460700	0.973120	0.973120
C141	C14	0.973120	0.460700	0.593060
C151	C15	0.593060	0.973120	0.973120
C161	C16	0.973120	0.593060	0.460700
C171	C17	0.973120	0.973120	0.593060
C181	C18	0.593060	0.460700	0.973120
C191	C19	0.973120	0.973120	0.460700
C201	C20	0.460700	0.593060	0.973120
C211	C21	0.593060	0.973120	0.460700
C221	C22	0.973120	0.460700	0.973120
C231	C23	0.460700	0.973120	0.593060
C241	C24	0.973120	0.593060	0.973120
C251	C25	0.111420	0.388580	0.111420
C261	C26	0.053810	0.446190	0.053810
C271	C27	0.388580	0.111420	0.388580
C281	C28	0.446190	0.053810	0.446190
C291	C29	0.111420	0.111420	0.388580
C301	C30	0.053810	0.053810	0.446190
C311	C31	0.388580	0.388580	0.111420
C321	C32	0.446190	0.446190	0.053810
C331	C33	0.111420	0.388580	0.388580
C341	C34	0.053810	0.446190	0.446190
C351	C35	0.388580	0.111420	0.111420
C361	C36	0.446190	0.053810	0.053810
C371	C37	0.611420	0.888580	0.888580
C381	C38	0.553810	0.946190	0.946190
C391	C39	0.888580	0.611420	0.611420
C401	C40	0.946190	0.553810	0.553810
C411	C41	0.888580	0.888580	0.611420
C421	C42	0.946190	0.946190	0.553810
C431	C43	0.611420	0.611420	0.888580
C441	C44	0.553810	0.553810	0.946190
C451	C45	0.611420	0.888580	0.611420
C461	C46	0.553810	0.946190	0.553810
C471	C47	0.888580	0.611420	0.888580
C481	C48	0.946190	0.553810	0.946190
O11	O1	0.250000	0.250000	0.250000
O21	O2	0.750000	0.750000	0.750000
O31	O3	0.133690	0.427730	0.133690
O41	O4	0.427730	0.133690	0.304890
O51	O5	0.133690	0.304890	0.133690
O61	O6	0.304890	0.133690	0.427730
O71	O7	0.133690	0.133690	0.304890
O81	O8	0.427730	0.304890	0.133690
O91	O9	0.133690	0.133690	0.427730
O101	O10	0.304890	0.427730	0.133690
O111	O11	0.133690	0.304890	0.427730
O121	O12	0.427730	0.133690	0.133690
O131	O13	0.133690	0.427730	0.304890
O141	O14	0.304890	0.133690	0.133690
O151	O15	0.572270	0.866310	0.866310
O161	O16	0.866310	0.572270	0.695110
O171	O17	0.695110	0.866310	0.866310
O181	O18	0.866310	0.695110	0.572270
O191	O19	0.866310	0.866310	0.695110
O201	O20	0.695110	0.572270	0.866310
O211	O21	0.866310	0.866310	0.572270
O221	O22	0.572270	0.695110	0.866310
O231	O23	0.695110	0.866310	0.572270
O241	O24	0.866310	0.572270	0.866310
O251	O25	0.572270	0.866310	0.695110
O261	O26	0.866310	0.695110	0.866310
