data_LAYGAV_freeONLY_PM
_symmetry_space_group_name_H-M	'P1'
_cell_length_a	13.959000
_cell_length_b	23.453100
_cell_length_c	25.581900
_cell_angle_alpha	64.370600
_cell_angle_beta	74.167300
_cell_angle_gamma	72.686800
_symmetry_Int_Tables_number 1

loop_
_symmetry_equiv_pos_as_xyz
'x,y,z'

loop_
_atom_site_label
_atom_site_type_symbol
_atom_site_fract_x
_atom_site_fract_y
_atom_site_fract_z
Co11	Co1	0.622960	0.495180	0.758540
Co21	Co2	0.549770	0.599110	0.834730
Co31	Co3	0.684390	0.398600	0.690480
Co41	Co4	0.123320	0.995180	0.258540
Co51	Co5	0.016390	0.099110	0.334730
Co61	Co6	0.226530	0.898600	0.190480
H11	H1	0.856300	0.465000	0.785600
H21	H2	0.030000	0.428900	0.776300
H31	H3	0.056100	0.585000	0.790800
H41	H4	0.882100	0.620700	0.800300
H51	H5	0.213200	0.567200	0.746200
H61	H6	0.389300	0.529200	0.729400
H71	H7	0.349800	0.348700	0.791100
H81	H8	0.174600	0.388200	0.802200
H91	H9	0.426200	0.762200	0.693800
H101	H10	0.352300	0.840500	0.614100
H111	H11	0.380800	0.709700	0.550900
H121	H12	0.460500	0.630700	0.627500
H131	H13	0.220000	0.892000	0.565000
H141	H14	0.139600	0.968800	0.486400
H151	H15	0.311500	0.874300	0.383500
H161	H16	0.389800	0.795400	0.462600
H171	H17	0.519000	0.733800	0.849200
H181	H18	0.392000	0.737800	0.023800
H191	H19	0.286600	0.911300	0.056700
H201	H20	0.391100	0.767200	0.192800
H211	H21	0.459100	0.735700	0.107900
H221	H22	0.385600	0.927100	0.963300
H231	H23	0.418200	0.929000	0.866400
H241	H24	0.417400	0.841200	0.851200
H251	H25	0.328700	0.668300	0.996300
H261	H26	0.384400	0.589500	0.951900
H271	H27	0.841000	0.229500	0.817900
H281	H28	0.903400	0.148500	0.898900
H291	H29	0.858900	0.275900	0.971900
H301	H30	0.787700	0.358900	0.891100
H311	H31	0.027000	0.098300	0.953500
H321	H32	0.848600	0.188300	0.057300
H331	H33	0.093300	0.016500	0.034100
H341	H34	0.936500	0.113700	0.132700
H351	H35	0.893100	0.965000	0.285600
H361	H36	0.764800	0.928900	0.276300
H371	H37	0.568100	0.085000	0.290800
H381	H38	0.696900	0.120700	0.300300
H391	H39	0.473400	0.067200	0.246200
H401	H40	0.352100	0.029200	0.229400
H411	H41	0.510400	0.848700	0.291100
H421	H42	0.635000	0.888200	0.302200
H431	H43	0.117800	0.262200	0.193800
H441	H44	0.193100	0.340500	0.114100
H451	H45	0.358600	0.209700	0.050900
H461	H46	0.281300	0.130700	0.127500
H471	H47	0.323000	0.392000	0.065000
H481	H48	0.405200	0.468800	0.986400
H491	H49	0.430700	0.374300	0.883500
H501	H50	0.352200	0.295400	0.962600
H511	H51	0.898000	0.233800	0.349200
H521	H52	0.846400	0.237800	0.523800
H531	H53	0.745400	0.411300	0.556700
H541	H54	0.648900	0.267200	0.692800
H551	H55	0.697300	0.235700	0.607900
H561	H56	0.724000	0.427100	0.463300
H571	H57	0.786400	0.429000	0.366400
H581	H58	0.890200	0.341200	0.351200
H591	H59	0.006700	0.168300	0.496300
H601	H60	0.074200	0.089500	0.451900
H611	H61	0.111600	0.729500	0.317900
H621	H62	0.049200	0.648500	0.398900
H631	H63	0.893300	0.775900	0.471900
H641	H64	0.962300	0.858900	0.391100
H651	H65	0.921200	0.598300	0.453500
H661	H66	0.905800	0.688300	0.557300
H671	H67	0.856100	0.516500	0.534100
H681	H68	0.817100	0.613700	0.632700
C11	C1	0.737570	0.563460	0.807000
C21	C2	0.850620	0.543160	0.796200
C31	C3	0.896000	0.489500	0.787500
C41	C4	0.000600	0.467700	0.781100
C51	C5	0.061500	0.505300	0.781700
C61	C6	0.016300	0.560200	0.789600
C71	C7	0.911780	0.581540	0.796100
C81	C8	0.174420	0.480360	0.774600
C91	C9	0.239700	0.523500	0.753700
C101	C10	0.346400	0.500100	0.744300
C111	C11	0.387490	0.436420	0.756400
C121	C12	0.497720	0.414060	0.741900
C131	C13	0.323600	0.392800	0.780200
C141	C14	0.217300	0.417500	0.787500
C151	C15	0.499900	0.636500	0.719500
C161	C16	0.451160	0.689080	0.668400
C171	C17	0.418700	0.751000	0.664600
C181	C18	0.373900	0.798100	0.616500
C191	C19	0.361100	0.783400	0.573000
C201	C20	0.391500	0.721100	0.579100
C211	C21	0.438300	0.673000	0.625600
C221	C22	0.310900	0.835600	0.522400
C231	C23	0.237700	0.887700	0.528900
C241	C24	0.189900	0.934100	0.481700
C251	C25	0.218290	0.928020	0.427600
C261	C26	0.165790	0.977020	0.376800
C271	C27	0.292300	0.877500	0.420100
C281	C28	0.339900	0.830000	0.467600
C291	C29	0.478860	0.707480	0.880400
C301	C30	0.412930	0.779240	0.936300
C311	C31	0.398230	0.776640	0.992100
C321	C32	0.392900	0.829000	0.001600
C331	C33	0.320580	0.871740	0.080500
C341	C34	0.378200	0.792800	0.154800
C351	C35	0.416100	0.774600	0.108200
C361	C36	0.394300	0.890100	0.956300
C371	C37	0.410200	0.890800	0.898600
C381	C38	0.414000	0.838300	0.889100
C391	C39	0.374000	0.672000	0.961400
C401	C40	0.404900	0.628700	0.936700
C411	C41	0.756460	0.354580	0.795300
C421	C42	0.805390	0.300520	0.846500
C431	C43	0.842300	0.239100	0.849300
C441	C44	0.881600	0.190700	0.897100
C451	C45	0.888500	0.205700	0.943100
C461	C46	0.854200	0.266600	0.941000
C471	C47	0.811220	0.316860	0.892500
C481	C48	0.932700	0.151800	0.995400
C491	C49	0.005000	0.101500	0.990100
C501	C50	0.901900	0.155600	0.051000
C511	C51	0.077200	0.010100	0.141500
C521	C52	0.026500	0.058700	0.090500
C531	C53	0.048300	0.053300	0.038300
C541	C54	0.953400	0.109400	0.096600
C551	C55	0.891970	0.063460	0.307000
C561	C56	0.810020	0.043160	0.296200
C571	C57	0.827000	0.989500	0.287500
C581	C58	0.750600	0.967700	0.281100
C591	C59	0.651500	0.005300	0.281700
C601	C60	0.633900	0.060200	0.289600
C611	C61	0.710580	0.081540	0.296100
C621	C62	0.570620	0.980360	0.274600
C631	C63	0.483100	0.023500	0.253700
C641	C64	0.409200	0.000100	0.244300
C651	C65	0.419690	0.936420	0.256400
C661	C66	0.346320	0.914060	0.241900
C671	C67	0.503400	0.892800	0.280200
C681	C68	0.577700	0.917500	0.287500
C691	C69	0.144100	0.136500	0.219500
C701	C70	0.191360	0.189080	0.168400
C711	C71	0.165700	0.251000	0.164600
C721	C72	0.211500	0.298100	0.116500
C731	C73	0.282500	0.283400	0.073000
C741	C74	0.308300	0.221100	0.079100
C751	C75	0.263100	0.173000	0.125600
C761	C76	0.331100	0.335600	0.022400
C771	C77	0.345700	0.387700	0.028900
C781	C78	0.394300	0.434100	0.981700
C791	C79	0.426090	0.428020	0.927600
C801	C80	0.480390	0.477020	0.876800
C811	C81	0.410100	0.377500	0.920100
C821	C82	0.362500	0.330000	0.967600
C831	C83	0.933260	0.207480	0.380400
C841	C84	0.871530	0.279240	0.436300
C851	C85	0.833030	0.276640	0.492100
C861	C86	0.776500	0.329000	0.501600
C871	C87	0.727180	0.371740	0.580500
C881	C88	0.674200	0.292800	0.654800
C891	C89	0.701100	0.274600	0.608200
C901	C90	0.759300	0.390100	0.456300
C911	C91	0.800400	0.390800	0.398600
C921	C92	0.858600	0.338300	0.389100
C931	C93	0.992600	0.172000	0.461400
C941	C94	0.029700	0.128700	0.436700
C951	C95	0.093660	0.854580	0.295300
C961	C96	0.047590	0.800520	0.346500
C971	C97	0.069300	0.739100	0.349300
C981	C98	0.030600	0.690700	0.397100
C991	C99	0.962700	0.705700	0.443100
C1001	C100	0.938200	0.766600	0.441000
C1011	C101	0.979420	0.816860	0.392500
C1021	C102	0.920100	0.651800	0.495400
C1031	C103	0.903400	0.601500	0.490100
C1041	C104	0.891500	0.655600	0.551000
C1051	C105	0.771200	0.510100	0.641500
C1061	C106	0.824300	0.558700	0.590500
C1071	C107	0.860100	0.553300	0.538300
C1081	C108	0.840600	0.609400	0.596600
N11	N1	0.471770	0.650660	0.885000
N21	N2	0.420830	0.723440	0.926300
N31	N3	0.377130	0.826140	0.061200
N41	N4	0.317900	0.854400	0.138600
N51	N5	0.992570	0.150660	0.385000
N61	N6	0.929430	0.223440	0.426300
N71	N7	0.735530	0.326140	0.561200
N81	N8	0.689100	0.354400	0.638600
O11	O1	0.682040	0.534920	0.799600
O21	O2	0.696910	0.607080	0.827300
O31	O3	0.558310	0.454050	0.716730
O41	O4	0.533310	0.356080	0.751500
O51	O5	0.504160	0.653760	0.759120
O61	O6	0.530600	0.581900	0.718700
O71	O7	0.187280	0.967740	0.330700
O81	O8	0.103320	0.023940	0.385420
O91	O9	0.715390	0.406810	0.797410
O101	O10	0.763820	0.337530	0.752830
O111	O11	0.059660	0.021180	0.185700
O121	O12	0.141120	0.963660	0.131900
O131	O13	0.983440	0.034920	0.299600
O141	O14	0.868710	0.107080	0.327300
O151	O15	0.270910	0.954050	0.216730
O161	O16	0.359110	0.856080	0.251500
O171	O17	0.082960	0.153760	0.259120
O181	O18	0.168800	0.081900	0.218700
O191	O19	0.514280	0.467740	0.830700
O201	O20	0.487320	0.523940	0.885420
O211	O21	0.080390	0.906810	0.297410
O221	O22	0.145820	0.837530	0.252830
O231	O23	0.733460	0.521180	0.685700
O241	O24	0.763320	0.463660	0.631900
Co71	Co7	0.876680	0.004820	0.741460
Co81	Co8	0.983610	0.900890	0.665270
Co91	Co9	0.773470	0.101400	0.809520
Co101	Co10	0.377040	0.504820	0.241460
Co111	Co11	0.450230	0.400890	0.165270
Co121	Co12	0.315610	0.601400	0.309520
H691	H69	0.106900	0.035000	0.714400
H701	H70	0.235200	0.071100	0.723700
H711	H71	0.431900	0.915000	0.709200
H721	H72	0.303100	0.879300	0.699700
H731	H73	0.526600	0.932800	0.753800
H741	H74	0.647900	0.970800	0.770600
H751	H75	0.489600	0.151300	0.708900
H761	H76	0.365000	0.111800	0.697800
H771	H77	0.882200	0.737800	0.806200
H781	H78	0.806900	0.659500	0.885900
H791	H79	0.641400	0.790300	0.949100
H801	H80	0.718700	0.869300	0.872500
H811	H81	0.677000	0.608000	0.935000
H821	H82	0.594800	0.531200	0.013600
H831	H83	0.569300	0.625700	0.116500
H841	H84	0.647800	0.704600	0.037400
H851	H85	0.102000	0.766200	0.650800
H861	H86	0.153600	0.762200	0.476200
H871	H87	0.254600	0.588700	0.443300
H881	H88	0.351100	0.732800	0.307200
H891	H89	0.302700	0.764300	0.392100
H901	H90	0.276000	0.572900	0.536700
H911	H91	0.213600	0.571000	0.633600
H921	H92	0.109800	0.658800	0.648800
H931	H93	0.993300	0.831700	0.503700
H941	H94	0.925800	0.910500	0.548100
H951	H95	0.888400	0.270500	0.682100
H961	H96	0.950800	0.351500	0.601100
H971	H97	0.106700	0.224100	0.528100
H981	H98	0.037700	0.141100	0.608900
H991	H99	0.078800	0.401700	0.546500
H1001	H100	0.094200	0.311700	0.442700
H1011	H101	0.143900	0.483500	0.465900
H1021	H102	0.182900	0.386300	0.367300
H1031	H103	0.143700	0.535000	0.214400
H1041	H104	0.970000	0.571100	0.223700
H1051	H105	0.943900	0.415000	0.209200
H1061	H106	0.117900	0.379300	0.199700
H1071	H107	0.786800	0.432800	0.253800
H1081	H108	0.610700	0.470800	0.270600
H1091	H109	0.650200	0.651300	0.208900
H1101	H110	0.825400	0.611800	0.197800
H1111	H111	0.573800	0.237800	0.306200
H1121	H112	0.647700	0.159500	0.385900
H1131	H113	0.619200	0.290300	0.449100
H1141	H114	0.539500	0.369300	0.372500
H1151	H115	0.780000	0.108000	0.435000
H1161	H116	0.860400	0.031200	0.513600
H1171	H117	0.688500	0.125700	0.616500
H1181	H118	0.610200	0.204600	0.537400
H1191	H119	0.481000	0.266200	0.150800
H1201	H120	0.608000	0.262200	0.976200
H1211	H121	0.713400	0.088700	0.943300
H1221	H122	0.608900	0.232800	0.807200
H1231	H123	0.540900	0.264300	0.892100
H1241	H124	0.614400	0.072900	0.036700
H1251	H125	0.581800	0.071000	0.133600
H1261	H126	0.582600	0.158800	0.148800
H1271	H127	0.671300	0.331700	0.003700
H1281	H128	0.615600	0.410500	0.048100
H1291	H129	0.159000	0.770500	0.182100
H1301	H130	0.096600	0.851500	0.101100
H1311	H131	0.141100	0.724100	0.028100
H1321	H132	0.212300	0.641100	0.108900
H1331	H133	0.973000	0.901700	0.046500
H1341	H134	0.151400	0.811700	0.942700
H1351	H135	0.906700	0.983500	0.965900
H1361	H136	0.063500	0.886300	0.867300
C1091	C109	0.108030	0.936540	0.693000
C1101	C110	0.189980	0.956840	0.703800
C1111	C111	0.173000	0.010500	0.712500
C1121	C112	0.249400	0.032300	0.718900
C1131	C113	0.348500	0.994700	0.718300
C1141	C114	0.366100	0.939800	0.710400
C1151	C115	0.289420	0.918460	0.703900
C1161	C116	0.429380	0.019640	0.725400
C1171	C117	0.516900	0.976500	0.746300
C1181	C118	0.590800	0.999900	0.755700
C1191	C119	0.580310	0.063580	0.743600
C1201	C120	0.653680	0.085940	0.758100
C1211	C121	0.496600	0.107200	0.719800
C1221	C122	0.422300	0.082500	0.712500
C1231	C123	0.855900	0.863500	0.780500
C1241	C124	0.808640	0.810920	0.831600
C1251	C125	0.834300	0.749000	0.835400
C1261	C126	0.788500	0.701900	0.883500
C1271	C127	0.717500	0.716600	0.927000
C1281	C128	0.691700	0.778900	0.920900
C1291	C129	0.736900	0.827000	0.874400
C1301	C130	0.668900	0.664400	0.977600
C1311	C131	0.654300	0.612300	0.971100
C1321	C132	0.605700	0.565900	0.018300
C1331	C133	0.573910	0.571980	0.072400
C1341	C134	0.519610	0.522980	0.123200
C1351	C135	0.589900	0.622500	0.079900
C1361	C136	0.637500	0.670000	0.032400
C1371	C137	0.066740	0.792520	0.619600
C1381	C138	0.128470	0.720760	0.563700
C1391	C139	0.166970	0.723360	0.507900
C1401	C140	0.223500	0.671000	0.498400
C1411	C141	0.272820	0.628260	0.419500
C1421	C142	0.325800	0.707200	0.345200
C1431	C143	0.298900	0.725400	0.391800
C1441	C144	0.240700	0.609900	0.543700
C1451	C145	0.199600	0.609200	0.601400
C1461	C146	0.141400	0.661700	0.610900
C1471	C147	0.007400	0.828000	0.538600
C1481	C148	0.970300	0.871300	0.563300
C1491	C149	0.906340	0.145420	0.704700
C1501	C150	0.952410	0.199480	0.653500
C1511	C151	0.930700	0.260900	0.650700
C1521	C152	0.969400	0.309300	0.602900
C1531	C153	0.037300	0.294300	0.556900
C1541	C154	0.061800	0.233400	0.559000
C1551	C155	0.020580	0.183140	0.607500
C1561	C156	0.079900	0.348200	0.504600
C1571	C157	0.096600	0.398500	0.509900
C1581	C158	0.108500	0.344400	0.449000
C1591	C159	0.228800	0.489900	0.358500
C1601	C160	0.175700	0.441300	0.409500
C1611	C161	0.139900	0.446700	0.461700
C1621	C162	0.159400	0.390600	0.403400
C1631	C163	0.262430	0.436540	0.193000
C1641	C164	0.149380	0.456840	0.203800
C1651	C165	0.104000	0.510500	0.212500
C1661	C166	0.999400	0.532300	0.218900
C1671	C167	0.938500	0.494700	0.218300
C1681	C168	0.983700	0.439800	0.210400
C1691	C169	0.088220	0.418460	0.203900
C1701	C170	0.825580	0.519640	0.225400
C1711	C171	0.760300	0.476500	0.246300
C1721	C172	0.653600	0.499900	0.255700
C1731	C173	0.612510	0.563580	0.243600
C1741	C174	0.502280	0.585940	0.258100
C1751	C175	0.676400	0.607200	0.219800
C1761	C176	0.782700	0.582500	0.212500
C1771	C177	0.500100	0.363500	0.280500
C1781	C178	0.548840	0.310920	0.331600
C1791	C179	0.581300	0.249000	0.335400
C1801	C180	0.626100	0.201900	0.383500
C1811	C181	0.638900	0.216600	0.427000
C1821	C182	0.608500	0.278900	0.420900
C1831	C183	0.561700	0.327000	0.374400
C1841	C184	0.689100	0.164400	0.477600
C1851	C185	0.762300	0.112300	0.471100
C1861	C186	0.810100	0.065900	0.518300
C1871	C187	0.781710	0.071980	0.572400
C1881	C188	0.834210	0.022980	0.623200
C1891	C189	0.707700	0.122500	0.579900
C1901	C190	0.660100	0.170000	0.532400
C1911	C191	0.521140	0.292520	0.119600
C1921	C192	0.587070	0.220760	0.063700
C1931	C193	0.601770	0.223360	0.007900
C1941	C194	0.607100	0.171000	0.998400
C1951	C195	0.679420	0.128260	0.919500
C1961	C196	0.621800	0.207200	0.845200
C1971	C197	0.583900	0.225400	0.891800
C1981	C198	0.605700	0.109900	0.043700
C1991	C199	0.589800	0.109200	0.101400
C2001	C200	0.586000	0.161700	0.110900
C2011	C201	0.626000	0.328000	0.038600
C2021	C202	0.595100	0.371300	0.063300
C2031	C203	0.243540	0.645420	0.204700
C2041	C204	0.194610	0.699480	0.153500
C2051	C205	0.157700	0.760900	0.150700
C2061	C206	0.118400	0.809300	0.102900
C2071	C207	0.111500	0.794300	0.056900
C2081	C208	0.145800	0.733400	0.059000
C2091	C209	0.188780	0.683140	0.107500
C2101	C210	0.067300	0.848200	0.004600
C2111	C211	0.995000	0.898500	0.009900
C2121	C212	0.098100	0.844400	0.949000
C2131	C213	0.922800	0.989900	0.858500
C2141	C214	0.973500	0.941300	0.909500
C2151	C215	0.951700	0.946700	0.961700
C2161	C216	0.046600	0.890600	0.903400
N91	N9	0.007430	0.849340	0.615000
N101	N10	0.070570	0.776560	0.573700
N111	N11	0.264470	0.673860	0.438800
N121	N12	0.310900	0.645600	0.361400
N131	N13	0.528230	0.349340	0.115000
N141	N14	0.579170	0.276560	0.073700
N151	N15	0.622870	0.173860	0.938800
N161	N16	0.682100	0.145600	0.861400
O251	O25	0.016560	0.965080	0.700400
O261	O26	0.131290	0.892920	0.672700
O271	O27	0.729090	0.045950	0.783270
O281	O28	0.640890	0.143920	0.748500
O291	O29	0.917040	0.846240	0.740880
O301	O30	0.831200	0.918100	0.781300
O311	O31	0.485720	0.532260	0.169300
O321	O32	0.512680	0.476060	0.114580
O331	O33	0.919610	0.093190	0.702590
O341	O34	0.854180	0.162470	0.747170
O351	O35	0.266540	0.478820	0.314300
O361	O36	0.236680	0.536340	0.368100
O371	O37	0.317960	0.465080	0.200400
O381	O38	0.303090	0.392920	0.172700
O391	O39	0.441690	0.545950	0.283270
O401	O40	0.466690	0.643920	0.248500
O411	O41	0.495840	0.346240	0.240880
O421	O42	0.469400	0.418100	0.281300
O431	O43	0.812720	0.032260	0.669300
O441	O44	0.896680	0.976060	0.614580
O451	O45	0.284610	0.593190	0.202590
O461	O46	0.236180	0.662470	0.247170
O471	O47	0.940340	0.978820	0.814300
O481	O48	0.858880	0.036340	0.868100
