data_LAZHUR_freeONLY_PM
_symmetry_space_group_name_H-M	'P1'
_cell_length_a	9.313700
_cell_length_b	10.406300
_cell_length_c	23.889000
_cell_angle_alpha	91.603000
_cell_angle_beta	90.000000
_cell_angle_gamma	90.000000
_symmetry_Int_Tables_number 1

loop_
_symmetry_equiv_pos_as_xyz
'x,y,z'

loop_
_atom_site_label
_atom_site_type_symbol
_atom_site_fract_x
_atom_site_fract_y
_atom_site_fract_z
Co11	Co1	0.140720	0.000000	0.750000
Co21	Co2	0.859280	0.000000	0.250000
Co31	Co3	0.500000	0.500000	0.500000
Co41	Co4	0.500000	0.500000	0.000000
H11	H1	0.869400	0.812100	0.627900
H21	H2	0.292100	0.400900	0.301200
H31	H3	0.188100	0.308600	0.267200
H41	H4	0.924800	0.635700	0.382300
H51	H5	0.515900	0.908500	0.544200
H61	H6	0.746500	0.649200	0.446900
H71	H7	0.733900	0.177100	0.631900
H81	H8	0.568400	0.342400	0.160800
H91	H9	0.818900	0.267600	0.355300
H101	H10	0.409100	0.218100	0.304800
H111	H11	0.539300	0.118600	0.576400
H121	H12	0.639900	0.295000	0.419100
H131	H13	0.606000	0.090400	0.311800
H141	H14	0.764000	0.214700	0.173900
H151	H15	0.123600	0.570100	0.330700
H161	H16	0.999100	0.609900	0.290200
H171	H17	0.869400	0.187900	0.872100
H181	H18	0.292100	0.599100	0.198800
H191	H19	0.188100	0.691400	0.232800
H201	H20	0.924800	0.364300	0.117700
H211	H21	0.515900	0.091500	0.955800
H221	H22	0.746500	0.350800	0.053100
H231	H23	0.733900	0.822900	0.868100
H241	H24	0.568400	0.657600	0.339200
H251	H25	0.818900	0.732400	0.144700
H261	H26	0.409100	0.781900	0.195200
H271	H27	0.539300	0.881400	0.923600
H281	H28	0.639900	0.705000	0.080900
H291	H29	0.606000	0.909600	0.188200
H301	H30	0.764000	0.785300	0.326100
H311	H31	0.123600	0.429900	0.169300
H321	H32	0.999100	0.390100	0.209800
H331	H33	0.130600	0.187900	0.372100
H341	H34	0.707900	0.599100	0.698800
H351	H35	0.811900	0.691400	0.732800
H361	H36	0.075200	0.364300	0.617700
H371	H37	0.484100	0.091500	0.455800
H381	H38	0.253500	0.350800	0.553100
H391	H39	0.266100	0.822900	0.368100
H401	H40	0.431600	0.657600	0.839200
H411	H41	0.181100	0.732400	0.644700
H421	H42	0.590900	0.781900	0.695200
H431	H43	0.460700	0.881400	0.423600
H441	H44	0.360100	0.705000	0.580900
H451	H45	0.394000	0.909600	0.688200
H461	H46	0.236000	0.785300	0.826100
H471	H47	0.876400	0.429900	0.669300
H481	H48	0.000900	0.390100	0.709800
H491	H49	0.130600	0.812100	0.127900
H501	H50	0.707900	0.400900	0.801200
H511	H51	0.811900	0.308600	0.767200
H521	H52	0.075200	0.635700	0.882300
H531	H53	0.484100	0.908500	0.044200
H541	H54	0.253500	0.649200	0.946900
H551	H55	0.266100	0.177100	0.131900
H561	H56	0.431600	0.342400	0.660800
H571	H57	0.181100	0.267600	0.855300
H581	H58	0.590900	0.218100	0.804800
H591	H59	0.460700	0.118600	0.076400
H601	H60	0.360100	0.295000	0.919100
H611	H61	0.394000	0.090400	0.811800
H621	H62	0.236000	0.214700	0.673900
H631	H63	0.876400	0.570100	0.830700
H641	H64	0.000900	0.609900	0.790200
C11	C1	0.803800	0.874100	0.617200
C21	C2	0.246500	0.385500	0.265180
C31	C3	0.866200	0.565000	0.388290
C41	C4	0.592000	0.931300	0.567650
C51	C5	0.822300	0.001200	0.635190
C61	C6	0.688500	0.839100	0.583400
C71	C7	0.946300	0.039000	0.670940
C81	C8	0.886100	0.451000	0.357980
C91	C9	0.464900	0.294100	0.231520
C101	C10	0.758700	0.571600	0.427180
C111	C11	0.669200	0.699800	0.565850
C121	C12	0.722900	0.092000	0.619730
C131	C13	0.574100	0.292000	0.192240
C141	C14	0.803300	0.348100	0.372100
C151	C15	0.479300	0.218200	0.277110
C161	C16	0.606800	0.057300	0.586260
C171	C17	0.697400	0.365400	0.411200
C181	C18	0.598400	0.143000	0.281130
C191	C19	0.691000	0.214500	0.200410
C201	C20	0.062700	0.540300	0.300090
C211	C21	0.803800	0.125900	0.882800
C221	C22	0.246500	0.614500	0.234820
C231	C23	0.866200	0.435000	0.111710
C241	C24	0.592000	0.068700	0.932350
C251	C25	0.822300	0.998800	0.864810
C261	C26	0.688500	0.160900	0.916600
C271	C27	0.946300	0.961000	0.829060
C281	C28	0.886100	0.549000	0.142020
C291	C29	0.464900	0.705900	0.268480
C301	C30	0.758700	0.428400	0.072820
C311	C31	0.669200	0.300200	0.934150
C321	C32	0.722900	0.908000	0.880270
C331	C33	0.574100	0.708000	0.307760
C341	C34	0.803300	0.651900	0.127900
C351	C35	0.479300	0.781800	0.222890
C361	C36	0.606800	0.942700	0.913740
C371	C37	0.697400	0.634600	0.088800
C381	C38	0.598400	0.857000	0.218870
C391	C39	0.691000	0.785500	0.299590
C401	C40	0.062700	0.459700	0.199910
C411	C41	0.196200	0.125900	0.382800
C421	C42	0.753500	0.614500	0.734820
C431	C43	0.133800	0.435000	0.611710
C441	C44	0.408000	0.068700	0.432350
C451	C45	0.177700	0.998800	0.364810
C461	C46	0.311500	0.160900	0.416600
C471	C47	0.053700	0.961000	0.329060
C481	C48	0.113900	0.549000	0.642020
C491	C49	0.535100	0.705900	0.768480
C501	C50	0.241300	0.428400	0.572820
C511	C51	0.330800	0.300200	0.434150
C521	C52	0.277100	0.908000	0.380270
C531	C53	0.425900	0.708000	0.807760
C541	C54	0.196700	0.651900	0.627900
C551	C55	0.520700	0.781800	0.722890
C561	C56	0.393200	0.942700	0.413740
C571	C57	0.302600	0.634600	0.588800
C581	C58	0.401600	0.857000	0.718870
C591	C59	0.309000	0.785500	0.799590
C601	C60	0.937300	0.459700	0.699910
C611	C61	0.196200	0.874100	0.117200
C621	C62	0.753500	0.385500	0.765180
C631	C63	0.133800	0.565000	0.888290
C641	C64	0.408000	0.931300	0.067650
C651	C65	0.177700	0.001200	0.135190
C661	C66	0.311500	0.839100	0.083400
C671	C67	0.053700	0.039000	0.170940
C681	C68	0.113900	0.451000	0.857980
C691	C69	0.535100	0.294100	0.731520
C701	C70	0.241300	0.571600	0.927180
C711	C71	0.330800	0.699800	0.065850
C721	C72	0.277100	0.092000	0.119730
C731	C73	0.425900	0.292000	0.692240
C741	C74	0.196700	0.348100	0.872100
C751	C75	0.520700	0.218200	0.777110
C761	C76	0.393200	0.057300	0.086260
C771	C77	0.302600	0.365400	0.911200
C781	C78	0.401600	0.143000	0.781130
C791	C79	0.309000	0.214500	0.700410
C801	C80	0.937300	0.540300	0.800090
C811	C81	0.154200	0.500000	0.250000
C821	C82	0.845800	0.500000	0.750000
N11	N1	0.705900	0.140000	0.243430
N21	N2	0.670300	0.475800	0.439070
N31	N3	0.705900	0.860000	0.256570
N41	N4	0.670300	0.524200	0.060930
N51	N5	0.294100	0.860000	0.756570
N61	N6	0.329700	0.524200	0.560930
N71	N7	0.294100	0.140000	0.743430
N81	N8	0.329700	0.475800	0.939070
O11	O1	0.735800	0.618300	0.592170
O21	O2	0.580800	0.675900	0.527100
O31	O3	0.036700	0.952300	0.682100
O41	O4	0.958200	0.148900	0.689960
O51	O5	0.981000	0.432100	0.316570
O61	O6	0.353200	0.370300	0.221870
O71	O7	0.628100	0.399700	0.559860
O81	O8	0.735800	0.381700	0.907830
O91	O9	0.580800	0.324100	0.972900
O101	O10	0.036700	0.047700	0.817900
O111	O11	0.958200	0.851100	0.810040
O121	O12	0.981000	0.567900	0.183430
O131	O13	0.353200	0.629700	0.278130
O141	O14	0.628100	0.600300	0.940140
O151	O15	0.264200	0.381700	0.407830
O161	O16	0.419200	0.324100	0.472900
O171	O17	0.963300	0.047700	0.317900
O181	O18	0.041800	0.851100	0.310040
O191	O19	0.019000	0.567900	0.683430
O201	O20	0.646800	0.629700	0.778130
O211	O21	0.371900	0.600300	0.440140
O221	O22	0.264200	0.618300	0.092170
O231	O23	0.419200	0.675900	0.027100
O241	O24	0.963300	0.952300	0.182100
O251	O25	0.041800	0.148900	0.189960
O261	O26	0.019000	0.432100	0.816570
O271	O27	0.646800	0.370300	0.721870
O281	O28	0.371900	0.399700	0.059860
