data_LAZKUU_freeONLY_PM
_symmetry_space_group_name_H-M	'P1'
_cell_length_a	12.798000
_cell_length_b	20.613000
_cell_length_c	18.890100
_cell_angle_alpha	104.450000
_cell_angle_beta	90.000000
_cell_angle_gamma	90.000000
_symmetry_Int_Tables_number 1

loop_
_symmetry_equiv_pos_as_xyz
'x,y,z'

loop_
_atom_site_label
_atom_site_type_symbol
_atom_site_fract_x
_atom_site_fract_y
_atom_site_fract_z
Cd11	Cd1	0.503430	0.700960	0.077870
Cd21	Cd2	0.996570	0.700960	0.577870
H11	H1	0.063300	0.345200	0.245200
H21	H2	0.151100	0.441200	0.300500
H31	H3	0.103200	0.512100	0.124600
H41	H4	0.022600	0.414700	0.067100
H51	H5	0.900200	0.029600	0.074600
H61	H6	0.864100	0.918200	0.021800
H71	H7	0.778400	0.968300	0.841400
H81	H8	0.826700	0.077900	0.892700
H91	H9	0.335500	0.724000	0.207700
H101	H10	0.224200	0.675100	0.273500
H111	H11	0.316000	0.499600	0.150500
H121	H12	0.423800	0.552700	0.089800
H131	H13	0.215100	0.669000	0.481900
H141	H14	0.283200	0.618400	0.371000
H151	H15	0.996700	0.552200	0.309600
H161	H16	0.941600	0.598600	0.424700
H171	H17	0.037100	0.827600	0.722200
H181	H18	0.967600	0.884000	0.830700
H191	H19	0.714600	0.769600	0.785400
H201	H20	0.788700	0.719500	0.677100
H211	H21	0.550500	0.844300	0.050600
H221	H22	0.638800	0.903300	0.983000
H231	H23	0.803600	0.736700	0.897100
H241	H24	0.705200	0.684800	0.967100
H251	H25	0.436700	0.345200	0.745200
H261	H26	0.348900	0.441200	0.800500
H271	H27	0.396800	0.512100	0.624600
H281	H28	0.477400	0.414700	0.567100
H291	H29	0.599800	0.029600	0.574600
H301	H30	0.635900	0.918200	0.521800
H311	H31	0.721600	0.968300	0.341400
H321	H32	0.673300	0.077900	0.392700
H331	H33	0.164500	0.724000	0.707700
H341	H34	0.275800	0.675100	0.773500
H351	H35	0.184000	0.499600	0.650500
H361	H36	0.076200	0.552700	0.589800
H371	H37	0.284900	0.669000	0.981900
H381	H38	0.216800	0.618400	0.871000
H391	H39	0.503300	0.552200	0.809600
H401	H40	0.558400	0.598600	0.924700
H411	H41	0.462900	0.827600	0.222200
H421	H42	0.532400	0.884000	0.330700
H431	H43	0.785400	0.769600	0.285400
H441	H44	0.711300	0.719500	0.177100
H451	H45	0.949500	0.844300	0.550600
H461	H46	0.861200	0.903300	0.483000
H471	H47	0.696400	0.736700	0.397100
H481	H48	0.794800	0.684800	0.467100
C11	C1	0.985800	0.306700	0.114800
C21	C2	0.952000	0.254000	0.087900
C31	C3	0.917200	0.189100	0.055600
C41	C4	0.891200	0.133500	0.025800
C51	C5	0.034100	0.368700	0.150100
C61	C6	0.072500	0.378500	0.220300
C71	C7	0.123800	0.436000	0.253800
C81	C8	0.135000	0.487100	0.217600
C91	C9	0.096200	0.478100	0.148600
C101	C10	0.047400	0.420200	0.114500
C111	C11	0.863000	0.065700	0.992400
C121	C12	0.875700	0.017700	0.026800
C131	C13	0.854500	0.950100	0.995300
C141	C14	0.820700	0.932500	0.927100
C151	C15	0.805600	0.980400	0.888500
C161	C16	0.831000	0.046300	0.920200
C171	C17	0.331900	0.677500	0.195900
C181	C18	0.263800	0.648900	0.235800
C191	C19	0.256300	0.581000	0.218100
C201	C20	0.318400	0.546200	0.163300
C211	C21	0.383100	0.578200	0.127400
C221	C22	0.170500	0.644200	0.446400
C231	C23	0.212200	0.614800	0.379800
C241	C24	0.147500	0.580200	0.326400
C251	C25	0.043700	0.575200	0.344400
C261	C26	0.011100	0.604200	0.413000
C271	C27	0.970900	0.815700	0.734900
C281	C28	0.929900	0.849100	0.801000
C291	C29	0.834800	0.832300	0.824500
C301	C30	0.781100	0.782400	0.774400
C311	C31	0.826600	0.752600	0.709300
C321	C32	0.601200	0.822200	0.018300
C331	C33	0.655700	0.858600	0.978800
C341	C34	0.736800	0.828400	0.932200
C351	C35	0.752600	0.760700	0.927900
C361	C36	0.691600	0.729700	0.969900
C371	C37	0.514200	0.306700	0.614800
C381	C38	0.548000	0.254000	0.587900
C391	C39	0.582800	0.189100	0.555600
C401	C40	0.608800	0.133500	0.525800
C411	C41	0.465900	0.368700	0.650100
C421	C42	0.427500	0.378500	0.720300
C431	C43	0.376200	0.436000	0.753800
C441	C44	0.365000	0.487100	0.717600
C451	C45	0.403800	0.478100	0.648600
C461	C46	0.452600	0.420200	0.614500
C471	C47	0.637000	0.065700	0.492400
C481	C48	0.624300	0.017700	0.526800
C491	C49	0.645500	0.950100	0.495300
C501	C50	0.679300	0.932500	0.427100
C511	C51	0.694400	0.980400	0.388500
C521	C52	0.669000	0.046300	0.420200
C531	C53	0.168100	0.677500	0.695900
C541	C54	0.236200	0.648900	0.735800
C551	C55	0.243700	0.581000	0.718100
C561	C56	0.181600	0.546200	0.663300
C571	C57	0.116900	0.578200	0.627400
C581	C58	0.329500	0.644200	0.946400
C591	C59	0.287800	0.614800	0.879800
C601	C60	0.352500	0.580200	0.826400
C611	C61	0.456300	0.575200	0.844400
C621	C62	0.488900	0.604200	0.913000
C631	C63	0.529100	0.815700	0.234900
C641	C64	0.570100	0.849100	0.301000
C651	C65	0.665200	0.832300	0.324500
C661	C66	0.718900	0.782400	0.274400
C671	C67	0.673400	0.752600	0.209300
C681	C68	0.898800	0.822200	0.518300
C691	C69	0.844300	0.858600	0.478800
C701	C70	0.763200	0.828400	0.432200
C711	C71	0.747400	0.760700	0.427900
C721	C72	0.808400	0.729700	0.469900
N11	N1	0.185900	0.548400	0.255400
N21	N2	0.392000	0.644700	0.142800
N31	N3	0.072100	0.640000	0.464400
N41	N4	0.794600	0.864100	0.893300
N51	N5	0.920400	0.767000	0.688200
N61	N6	0.616000	0.758300	0.013300
N71	N7	0.314100	0.548400	0.755400
N81	N8	0.108000	0.644700	0.642800
N91	N9	0.427900	0.640000	0.964400
N101	N10	0.705400	0.864100	0.393300
N111	N11	0.579600	0.767000	0.188200
N121	N12	0.884000	0.758300	0.513300
Cl11	Cl1	0.357900	0.792670	0.086600
Cl21	Cl2	0.641300	0.606140	0.065360
Cl31	Cl3	0.142100	0.792670	0.586600
Cl41	Cl4	0.858700	0.606140	0.565360
Cd31	Cd3	0.003430	0.299040	0.422130
Cd41	Cd4	0.496570	0.299040	0.922130
H491	H49	0.563300	0.654800	0.254800
H501	H50	0.651100	0.558800	0.199500
H511	H51	0.603200	0.487900	0.375400
H521	H52	0.522600	0.585300	0.432900
H531	H53	0.400200	0.970400	0.425400
H541	H54	0.364100	0.081800	0.478200
H551	H55	0.278400	0.031700	0.658600
H561	H56	0.326700	0.922100	0.607300
H571	H57	0.835500	0.276000	0.292300
H581	H58	0.724200	0.324900	0.226500
H591	H59	0.816000	0.500400	0.349500
H601	H60	0.923800	0.447300	0.410200
H611	H61	0.715100	0.331000	0.018100
H621	H62	0.783200	0.381600	0.129000
H631	H63	0.496700	0.447800	0.190400
H641	H64	0.441600	0.401400	0.075300
H651	H65	0.537100	0.172400	0.777800
H661	H66	0.467600	0.116000	0.669300
H671	H67	0.214600	0.230400	0.714600
H681	H68	0.288700	0.280500	0.822900
H691	H69	0.050500	0.155700	0.449400
H701	H70	0.138800	0.096700	0.517000
H711	H71	0.303600	0.263300	0.602900
H721	H72	0.205200	0.315200	0.532900
H731	H73	0.936700	0.654800	0.754800
H741	H74	0.848900	0.558800	0.699500
H751	H75	0.896800	0.487900	0.875400
H761	H76	0.977400	0.585300	0.932900
H771	H77	0.099800	0.970400	0.925400
H781	H78	0.135900	0.081800	0.978200
H791	H79	0.221600	0.031700	0.158600
H801	H80	0.173300	0.922100	0.107300
H811	H81	0.664500	0.276000	0.792300
H821	H82	0.775800	0.324900	0.726500
H831	H83	0.684000	0.500400	0.849500
H841	H84	0.576200	0.447300	0.910200
H851	H85	0.784900	0.331000	0.518100
H861	H86	0.716800	0.381600	0.629000
H871	H87	0.003300	0.447800	0.690400
H881	H88	0.058400	0.401400	0.575300
H891	H89	0.962900	0.172400	0.277800
H901	H90	0.032400	0.116000	0.169300
H911	H91	0.285400	0.230400	0.214600
H921	H92	0.211300	0.280500	0.322900
H931	H93	0.449500	0.155700	0.949400
H941	H94	0.361200	0.096700	0.017000
H951	H95	0.196400	0.263300	0.102900
H961	H96	0.294800	0.315200	0.032900
C731	C73	0.485800	0.693300	0.385200
C741	C74	0.452000	0.746000	0.412100
C751	C75	0.417200	0.810900	0.444400
C761	C76	0.391200	0.866500	0.474200
C771	C77	0.534100	0.631300	0.349900
C781	C78	0.572500	0.621500	0.279700
C791	C79	0.623800	0.564000	0.246200
C801	C80	0.635000	0.512900	0.282400
C811	C81	0.596200	0.521900	0.351400
C821	C82	0.547400	0.579800	0.385500
C831	C83	0.363000	0.934300	0.507600
C841	C84	0.375700	0.982300	0.473200
C851	C85	0.354500	0.049900	0.504700
C861	C86	0.320700	0.067500	0.572900
C871	C87	0.305600	0.019600	0.611500
C881	C88	0.331000	0.953700	0.579800
C891	C89	0.831900	0.322500	0.304100
C901	C90	0.763800	0.351100	0.264200
C911	C91	0.756300	0.419000	0.281900
C921	C92	0.818400	0.453800	0.336700
C931	C93	0.883100	0.421800	0.372600
C941	C94	0.670500	0.355800	0.053600
C951	C95	0.712200	0.385200	0.120200
C961	C96	0.647500	0.419800	0.173600
C971	C97	0.543700	0.424800	0.155600
C981	C98	0.511100	0.395800	0.087000
C991	C99	0.470900	0.184300	0.765100
C1001	C100	0.429900	0.150900	0.699000
C1011	C101	0.334800	0.167700	0.675500
C1021	C102	0.281100	0.217600	0.725600
C1031	C103	0.326600	0.247400	0.790700
C1041	C104	0.101200	0.177800	0.481700
C1051	C105	0.155700	0.141400	0.521200
C1061	C106	0.236800	0.171600	0.567800
C1071	C107	0.252600	0.239300	0.572100
C1081	C108	0.191600	0.270300	0.530100
C1091	C109	0.014200	0.693300	0.885200
C1101	C110	0.048000	0.746000	0.912100
C1111	C111	0.082800	0.810900	0.944400
C1121	C112	0.108800	0.866500	0.974200
C1131	C113	0.965900	0.631300	0.849900
C1141	C114	0.927500	0.621500	0.779700
C1151	C115	0.876200	0.564000	0.746200
C1161	C116	0.865000	0.512900	0.782400
C1171	C117	0.903800	0.521900	0.851400
C1181	C118	0.952600	0.579800	0.885500
C1191	C119	0.137000	0.934300	0.007600
C1201	C120	0.124300	0.982300	0.973200
C1211	C121	0.145500	0.049900	0.004700
C1221	C122	0.179300	0.067500	0.072900
C1231	C123	0.194400	0.019600	0.111500
C1241	C124	0.169000	0.953700	0.079800
C1251	C125	0.668100	0.322500	0.804100
C1261	C126	0.736200	0.351100	0.764200
C1271	C127	0.743700	0.419000	0.781900
C1281	C128	0.681600	0.453800	0.836700
C1291	C129	0.616900	0.421800	0.872600
C1301	C130	0.829500	0.355800	0.553600
C1311	C131	0.787800	0.385200	0.620200
C1321	C132	0.852500	0.419800	0.673600
C1331	C133	0.956300	0.424800	0.655600
C1341	C134	0.988900	0.395800	0.587000
C1351	C135	0.029100	0.184300	0.265100
C1361	C136	0.070100	0.150900	0.199000
C1371	C137	0.165200	0.167700	0.175500
C1381	C138	0.218900	0.217600	0.225600
C1391	C139	0.173400	0.247400	0.290700
C1401	C140	0.398800	0.177800	0.981700
C1411	C141	0.344300	0.141400	0.021200
C1421	C142	0.263200	0.171600	0.067800
C1431	C143	0.247400	0.239300	0.072100
C1441	C144	0.308400	0.270300	0.030100
N131	N13	0.685900	0.451600	0.244600
N141	N14	0.892000	0.355300	0.357200
N151	N15	0.572100	0.360000	0.035600
N161	N16	0.294600	0.135900	0.606700
N171	N17	0.420400	0.233000	0.811800
N181	N18	0.116000	0.241700	0.486700
N191	N19	0.814100	0.451600	0.744600
N201	N20	0.608000	0.355300	0.857200
N211	N21	0.927900	0.360000	0.535600
N221	N22	0.205400	0.135900	0.106700
N231	N23	0.079600	0.233000	0.311800
N241	N24	0.384000	0.241700	0.986700
Cl51	Cl5	0.857900	0.207330	0.413400
Cl61	Cl6	0.141300	0.393860	0.434640
Cl71	Cl7	0.642100	0.207330	0.913400
Cl81	Cl8	0.358700	0.393860	0.934640
