data_LAZLEF_freeONLY_PM
_symmetry_space_group_name_H-M	'P1'
_cell_length_a	10.109300
_cell_length_b	13.057000
_cell_length_c	24.359000
_cell_angle_alpha	85.542000
_cell_angle_beta	85.314000
_cell_angle_gamma	80.749000
_symmetry_Int_Tables_number 1

loop_
_symmetry_equiv_pos_as_xyz
'x,y,z'

loop_
_atom_site_label
_atom_site_type_symbol
_atom_site_fract_x
_atom_site_fract_y
_atom_site_fract_z
Cd11	Cd1	0.363660	0.544590	0.583100
Cd21	Cd2	0.073430	0.407450	0.577770
Cd31	Cd3	0.851580	0.678690	0.607290
Cd41	Cd4	0.636340	0.455410	0.416900
Cd51	Cd5	0.926570	0.592550	0.422230
Cd61	Cd6	0.148420	0.321310	0.392710
H11	H1	0.141700	0.026200	0.801000
H21	H2	0.208300	0.039300	0.890100
H31	H3	0.581900	0.920700	0.841400
H41	H4	0.517700	0.917900	0.753200
H51	H5	0.424100	0.770300	0.573100
H61	H6	0.387200	0.927400	0.611800
H71	H7	0.263400	0.781100	0.753600
H81	H8	0.305400	0.628500	0.709700
H91	H9	0.202900	0.311300	0.687800
H101	H10	0.287800	0.161800	0.736200
H111	H11	0.153600	0.005100	0.622000
H121	H12	0.085000	0.159600	0.575800
H131	H13	0.866400	0.101000	0.866400
H141	H14	0.762900	0.050000	0.793700
H151	H15	0.860300	0.296700	0.700100
H161	H16	0.963200	0.348900	0.772200
H171	H17	0.417100	0.364500	0.992000
H181	H18	0.526000	0.420400	0.063900
H191	H19	0.168200	0.488800	0.146800
H201	H20	0.063100	0.434900	0.075000
H211	H21	0.396700	0.403400	0.694000
H221	H22	0.523000	0.258300	0.734800
H231	H23	0.742000	0.222400	0.592000
H241	H24	0.613100	0.368800	0.555500
H251	H25	0.653400	0.897200	0.593700
H261	H26	0.606900	0.058800	0.625900
H271	H27	0.936100	0.990400	0.710000
H281	H28	0.976000	0.830300	0.673500
H291	H29	0.286500	0.232600	0.274100
H301	H30	0.360000	0.294400	0.188700
H311	H31	0.395100	0.558400	0.254800
H321	H32	0.321800	0.489000	0.337400
H331	H33	0.482800	0.802000	0.111900
H341	H34	0.369000	0.665700	0.107300
H351	H35	0.649000	0.494700	0.198000
H361	H36	0.755800	0.638000	0.195600
H371	H37	0.858300	0.973800	0.199000
H381	H38	0.791700	0.960700	0.109900
H391	H39	0.418100	0.079300	0.158600
H401	H40	0.482300	0.082100	0.246800
H411	H41	0.575900	0.229700	0.426900
H421	H42	0.612800	0.072600	0.388200
H431	H43	0.736600	0.218900	0.246400
H441	H44	0.694600	0.371500	0.290300
H451	H45	0.797100	0.688700	0.312200
H461	H46	0.712200	0.838200	0.263800
H471	H47	0.846400	0.994900	0.378000
H481	H48	0.915000	0.840400	0.424200
H491	H49	0.133600	0.899000	0.133600
H501	H50	0.237100	0.950000	0.206300
H511	H51	0.139700	0.703300	0.299900
H521	H52	0.036800	0.651100	0.227800
H531	H53	0.582900	0.635500	0.008000
H541	H54	0.474000	0.579600	0.936100
H551	H55	0.831800	0.511200	0.853200
H561	H56	0.936900	0.565100	0.925000
H571	H57	0.603300	0.596600	0.306000
H581	H58	0.477000	0.741700	0.265200
H591	H59	0.258000	0.777600	0.408000
H601	H60	0.386900	0.631200	0.444500
H611	H61	0.346600	0.102800	0.406300
H621	H62	0.393100	0.941200	0.374100
H631	H63	0.063900	0.009600	0.290000
H641	H64	0.024000	0.169700	0.326500
H651	H65	0.713500	0.767400	0.725900
H661	H66	0.640000	0.705600	0.811300
H671	H67	0.604900	0.441600	0.745200
H681	H68	0.678200	0.511000	0.662600
H691	H69	0.517200	0.198000	0.888100
H701	H70	0.631000	0.334300	0.892700
H711	H71	0.351000	0.505300	0.802000
H721	H72	0.244200	0.362000	0.804400
C11	C1	0.444500	0.987400	0.928600
C21	C2	0.478700	0.994900	0.972900
C31	C3	0.324000	0.971000	0.767900
C41	C4	0.231300	0.006400	0.808600
C51	C5	0.271300	0.013200	0.862600
C61	C6	0.402400	0.981400	0.874200
C71	C7	0.493100	0.944200	0.833700
C81	C8	0.453500	0.941200	0.780800
C91	C9	0.390800	0.773000	0.609800
C101	C10	0.368300	0.868100	0.632700
C111	C11	0.316600	0.874500	0.687600
C121	C12	0.295000	0.781500	0.716700
C131	C13	0.321100	0.689700	0.689900
C141	C14	0.196500	0.248200	0.673700
C151	C15	0.247200	0.158400	0.703700
C161	C16	0.236800	0.062800	0.684400
C171	C17	0.169000	0.066400	0.635700
C181	C18	0.126000	0.159800	0.608600
C191	C19	0.985900	0.264300	0.872100
C201	C20	0.041900	0.294400	0.907000
C211	C21	0.106200	0.331000	0.947200
C221	C22	0.163200	0.361700	0.982200
C231	C23	0.922800	0.232600	0.826900
C241	C24	0.863900	0.140800	0.833000
C251	C25	0.802700	0.109800	0.789600
C261	C26	0.801500	0.169100	0.740000
C271	C27	0.861300	0.257900	0.733700
C281	C28	0.922500	0.289500	0.777000
C291	C29	0.228600	0.397600	0.025400
C301	C30	0.366500	0.390500	0.023000
C311	C31	0.433400	0.421800	0.066600
C321	C32	0.355900	0.454100	0.112700
C331	C33	0.218900	0.462800	0.115900
C341	C34	0.155900	0.432000	0.072200
C351	C35	0.467900	0.367000	0.673300
C361	C36	0.543700	0.279900	0.698300
C371	C37	0.648600	0.226900	0.668200
C381	C38	0.673400	0.259000	0.613800
C391	C39	0.594600	0.346400	0.592100
C401	C40	0.711700	0.916300	0.617300
C411	C41	0.682200	0.013600	0.637000
C421	C42	0.763500	0.044500	0.673000
C431	C43	0.876600	0.973200	0.686300
C441	C44	0.900100	0.876700	0.664200
C451	C45	0.307200	0.299800	0.270100
C461	C46	0.351200	0.336200	0.218500
C471	C47	0.382300	0.436000	0.211400
C481	C48	0.372000	0.492000	0.257400
C491	C49	0.327700	0.449300	0.307000
C501	C50	0.517800	0.738300	0.128900
C511	C51	0.446300	0.657400	0.126500
C521	C52	0.494100	0.563500	0.153700
C531	C53	0.612600	0.556700	0.179700
C541	C54	0.676500	0.643700	0.178000
C551	C55	0.555500	0.012600	0.071400
C561	C56	0.521300	0.005100	0.027100
C571	C57	0.676000	0.029000	0.232100
C581	C58	0.768700	0.993600	0.191400
C591	C59	0.728700	0.986800	0.137400
C601	C60	0.597600	0.018600	0.125800
C611	C61	0.506900	0.055800	0.166300
C621	C62	0.546500	0.058800	0.219200
C631	C63	0.609200	0.227000	0.390200
C641	C64	0.631700	0.131900	0.367300
C651	C65	0.683400	0.125500	0.312400
C661	C66	0.705000	0.218500	0.283300
C671	C67	0.678900	0.310300	0.310100
C681	C68	0.803500	0.751800	0.326300
C691	C69	0.752800	0.841600	0.296300
C701	C70	0.763200	0.937200	0.315600
C711	C71	0.831000	0.933600	0.364300
C721	C72	0.874000	0.840200	0.391400
C731	C73	0.014100	0.735700	0.127900
C741	C74	0.958100	0.705600	0.093000
C751	C75	0.893800	0.669000	0.052800
C761	C76	0.836800	0.638300	0.017800
C771	C77	0.077200	0.767400	0.173100
C781	C78	0.136100	0.859200	0.167000
C791	C79	0.197300	0.890200	0.210400
C801	C80	0.198500	0.830900	0.260000
C811	C81	0.138700	0.742100	0.266300
C821	C82	0.077500	0.710500	0.223000
C831	C83	0.771400	0.602400	0.974600
C841	C84	0.633500	0.609500	0.977000
C851	C85	0.566600	0.578200	0.933400
C861	C86	0.644100	0.545900	0.887300
C871	C87	0.781100	0.537200	0.884100
C881	C88	0.844100	0.568000	0.927800
C891	C89	0.532100	0.633000	0.326700
C901	C90	0.456300	0.720100	0.301700
C911	C91	0.351400	0.773100	0.331800
C921	C92	0.326600	0.741000	0.386200
C931	C93	0.405400	0.653600	0.407900
C941	C94	0.288300	0.083700	0.382700
C951	C95	0.317800	0.986400	0.363000
C961	C96	0.236500	0.955500	0.327000
C971	C97	0.123400	0.026800	0.313700
C981	C98	0.099900	0.123300	0.335800
C991	C99	0.692800	0.700200	0.729900
C1001	C100	0.648800	0.663800	0.781500
C1011	C101	0.617700	0.564000	0.788600
C1021	C102	0.628000	0.508000	0.742600
C1031	C103	0.672300	0.550700	0.693000
C1041	C104	0.482200	0.261700	0.871100
C1051	C105	0.553700	0.342600	0.873500
C1061	C106	0.505900	0.436500	0.846300
C1071	C107	0.387400	0.443300	0.820300
C1081	C108	0.323500	0.356300	0.822000
S11	S1	0.066300	0.529940	0.679100
S21	S2	0.085780	0.665660	0.517930
S31	S3	0.335640	0.377930	0.480130
S41	S4	0.933700	0.470060	0.320900
S51	S5	0.914220	0.334340	0.482070
S61	S6	0.664360	0.622070	0.519870
N11	N1	0.286700	0.969900	0.712800
N21	N2	0.367600	0.684900	0.637200
N31	N3	0.139300	0.251700	0.626400
N41	N4	0.735300	0.141500	0.694600
N51	N5	0.493200	0.400100	0.621200
N61	N6	0.818700	0.847500	0.630100
N71	N7	0.419600	0.477500	0.158600
N81	N8	0.292300	0.355200	0.315300
N91	N9	0.630000	0.734000	0.152700
N101	N10	0.713300	0.030100	0.287200
N111	N11	0.632400	0.315100	0.362800
N121	N12	0.860700	0.748300	0.373600
N131	N13	0.264700	0.858500	0.305400
N141	N14	0.506800	0.599900	0.378800
N151	N15	0.181300	0.152500	0.369900
N161	N16	0.580400	0.522500	0.841400
N171	N17	0.707700	0.644800	0.684700
N181	N18	0.370000	0.266000	0.847300
O11	O1	0.194600	0.496600	0.645980
O21	O2	0.965200	0.473300	0.658710
O31	O3	0.022700	0.641900	0.668900
O41	O4	0.086200	0.503600	0.736900
O51	O5	0.226700	0.656400	0.529240
O61	O6	0.020400	0.579600	0.545900
O71	O7	0.009800	0.761100	0.537900
O81	O8	0.076500	0.665400	0.458070
O91	O9	0.273900	0.419700	0.532710
O101	O10	0.264100	0.434600	0.433500
O111	O11	0.320600	0.272000	0.478000
O121	O12	0.471900	0.397100	0.474300
O131	O13	0.805400	0.503400	0.354020
O141	O14	0.034800	0.526700	0.341290
O151	O15	0.977300	0.358100	0.331100
O161	O16	0.913800	0.496400	0.263100
O171	O17	0.773300	0.343600	0.470760
O181	O18	0.979600	0.420400	0.454100
O191	O19	0.990200	0.238900	0.462100
O201	O20	0.923500	0.334600	0.541930
O211	O21	0.726100	0.580300	0.467290
O221	O22	0.735900	0.565400	0.566500
O231	O23	0.679400	0.728000	0.522000
O241	O24	0.528100	0.602900	0.525700
