data_LEDWUN_freeONLY_PM
_symmetry_space_group_name_H-M	'P1'
_cell_length_a	7.581700
_cell_length_b	10.478700
_cell_length_c	21.663000
_cell_angle_alpha	90.000000
_cell_angle_beta	90.000000
_cell_angle_gamma	90.000000
_symmetry_Int_Tables_number 1

loop_
_symmetry_equiv_pos_as_xyz
'x,y,z'

loop_
_atom_site_label
_atom_site_type_symbol
_atom_site_fract_x
_atom_site_fract_y
_atom_site_fract_z
Ag11	Ag1	0.726800	0.770450	0.131000
N11	N1	0.848600	0.972090	0.128490
N21	N2	0.163400	0.178300	0.277960
H11	H1	0.243800	0.196900	0.247400
H21	H2	0.167600	0.091400	0.283700
N31	N3	0.847100	0.663540	0.046310
N41	N4	0.929100	0.754910	0.845820
H31	H3	0.895700	0.835000	0.858700
H41	H4	0.917400	0.753000	0.803600
C11	C1	0.934500	0.019700	0.079640
H51	H5	0.927000	0.975100	0.041600
C21	C2	0.033000	0.130100	0.081770
H61	H6	0.089400	0.161800	0.045700
C31	C3	0.863900	0.036700	0.182270
H71	H7	0.803600	0.004600	0.217400
C41	C4	0.048500	0.194600	0.137980
H81	H8	0.117200	0.270200	0.140900
C51	C5	0.962500	0.146900	0.189010
C61	C6	0.802700	0.661900	0.872100
H91	H9	0.797800	0.585300	0.845400
H101	H10	0.683500	0.700300	0.873200
C71	C7	0.856800	0.623100	0.936770
C81	C8	0.963900	0.518000	0.946760
H111	H11	0.004600	0.468200	0.913000
C91	C9	0.011200	0.486600	0.007090
H121	H12	0.083800	0.414700	0.015200
C101	C10	0.987800	0.206800	0.252110
H131	H13	0.973100	0.300400	0.248800
H141	H14	0.895900	0.174200	0.280500
C111	C11	0.950000	0.562400	0.054960
H151	H15	0.983200	0.541000	0.096000
C121	C12	0.803000	0.692900	0.987550
H161	H16	0.730800	0.765600	0.980800
Ag21	Ag2	0.773200	0.229550	0.631000
N51	N5	0.651400	0.027910	0.628490
N61	N6	0.336600	0.821700	0.777960
H171	H17	0.256200	0.803100	0.747400
H181	H18	0.332400	0.908600	0.783700
N71	N7	0.652900	0.336460	0.546310
N81	N8	0.570900	0.245090	0.345820
H191	H19	0.604300	0.165000	0.358700
H201	H20	0.582600	0.247000	0.303600
C131	C13	0.565500	0.980300	0.579640
H211	H21	0.573000	0.024900	0.541600
C141	C14	0.467000	0.869900	0.581770
H221	H22	0.410600	0.838200	0.545700
C151	C15	0.636100	0.963300	0.682270
H231	H23	0.696400	0.995400	0.717400
C161	C16	0.451500	0.805400	0.637980
H241	H24	0.382800	0.729800	0.640900
C171	C17	0.537500	0.853100	0.689010
C181	C18	0.697300	0.338100	0.372100
H251	H25	0.702200	0.414700	0.345400
H261	H26	0.816500	0.299700	0.373200
C191	C19	0.643200	0.376900	0.436770
C201	C20	0.536100	0.482000	0.446760
H271	H27	0.495400	0.531800	0.413000
C211	C21	0.488800	0.513400	0.507090
H281	H28	0.416200	0.585300	0.515200
C221	C22	0.512200	0.793200	0.752110
H291	H29	0.526900	0.699600	0.748800
H301	H30	0.604100	0.825800	0.780500
C231	C23	0.550000	0.437600	0.554960
H311	H31	0.516800	0.459000	0.596000
C241	C24	0.697000	0.307100	0.487550
H321	H32	0.769200	0.234400	0.480800
Ag31	Ag3	0.273200	0.270450	0.369000
N91	N9	0.151400	0.472090	0.371510
N101	N10	0.836600	0.678300	0.222040
H331	H33	0.756200	0.696900	0.252600
H341	H34	0.832400	0.591400	0.216300
N111	N11	0.152900	0.163540	0.453690
N121	N12	0.070900	0.254910	0.654180
H351	H35	0.104300	0.335000	0.641300
H361	H36	0.082600	0.253000	0.696400
C251	C25	0.065500	0.519700	0.420360
H371	H37	0.073000	0.475100	0.458400
C261	C26	0.967000	0.630100	0.418230
H381	H38	0.910600	0.661800	0.454300
C271	C27	0.136100	0.536700	0.317730
H391	H39	0.196400	0.504600	0.282600
C281	C28	0.951500	0.694600	0.362020
H401	H40	0.882800	0.770200	0.359100
C291	C29	0.037500	0.646900	0.310990
C301	C30	0.197300	0.161900	0.627900
H411	H41	0.202200	0.085300	0.654600
H421	H42	0.316500	0.200300	0.626800
C311	C31	0.143200	0.123100	0.563230
C321	C32	0.036100	0.018000	0.553240
H431	H43	0.995400	0.968200	0.587000
C331	C33	0.988800	0.986600	0.492910
H441	H44	0.916200	0.914700	0.484800
C341	C34	0.012200	0.706800	0.247890
H451	H45	0.026900	0.800400	0.251200
H461	H46	0.104100	0.674200	0.219500
C351	C35	0.050000	0.062400	0.445040
H471	H47	0.016800	0.041000	0.404000
C361	C36	0.197000	0.192900	0.512450
H481	H48	0.269200	0.265600	0.519200
Ag41	Ag4	0.226800	0.729550	0.869000
N131	N13	0.348600	0.527910	0.871510
N141	N14	0.663400	0.321700	0.722040
H491	H49	0.743800	0.303100	0.752600
H501	H50	0.667600	0.408600	0.716300
N151	N15	0.347100	0.836460	0.953690
N161	N16	0.429100	0.745090	0.154180
H511	H51	0.395700	0.665000	0.141300
H521	H52	0.417400	0.747000	0.196400
C371	C37	0.434500	0.480300	0.920360
H531	H53	0.427000	0.524900	0.958400
C381	C38	0.533000	0.369900	0.918230
H541	H54	0.589400	0.338200	0.954300
C391	C39	0.363900	0.463300	0.817730
H551	H55	0.303600	0.495400	0.782600
C401	C40	0.548500	0.305400	0.862020
H561	H56	0.617200	0.229800	0.859100
C411	C41	0.462500	0.353100	0.810990
C421	C42	0.302700	0.838100	0.127900
H571	H57	0.297800	0.914700	0.154600
H581	H58	0.183500	0.799700	0.126800
C431	C43	0.356800	0.876900	0.063230
C441	C44	0.463900	0.982000	0.053240
H591	H59	0.504600	0.031800	0.087000
C451	C45	0.511200	0.013400	0.992910
H601	H60	0.583800	0.085300	0.984800
C461	C46	0.487800	0.293200	0.747890
H611	H61	0.473100	0.199600	0.751200
H621	H62	0.395900	0.325800	0.719500
C471	C47	0.450000	0.937600	0.945040
H631	H63	0.483200	0.959000	0.904000
C481	C48	0.303000	0.807100	0.012450
H641	H64	0.230800	0.734400	0.019200
