data_LEHXUT_freeONLY_PM
_symmetry_space_group_name_H-M	'P1'
_cell_length_a	37.163400
_cell_length_b	37.163400
_cell_length_c	37.163400
_cell_angle_alpha	60.000000
_cell_angle_beta	60.000000
_cell_angle_gamma	60.000000
_symmetry_Int_Tables_number 1

loop_
_symmetry_equiv_pos_as_xyz
'x,y,z'

loop_
_atom_site_label
_atom_site_type_symbol
_atom_site_fract_x
_atom_site_fract_y
_atom_site_fract_z
Cu11	Cu1	0.784920	0.215080	0.000000
Cu21	Cu2	0.713800	0.286200	0.000000
Cu31	Cu3	0.215080	0.784920	0.000000
Cu41	Cu4	0.286200	0.713800	0.000000
Cu51	Cu5	0.000000	0.000000	0.784920
Cu61	Cu6	0.000000	0.000000	0.713800
Cu71	Cu7	0.000000	0.000000	0.215080
Cu81	Cu8	0.000000	0.000000	0.286200
Cu91	Cu9	0.784920	0.000000	0.000000
Cu101	Cu10	0.713800	0.000000	0.000000
Cu111	Cu11	0.215080	0.000000	0.000000
Cu121	Cu12	0.286200	0.000000	0.000000
Cu131	Cu13	0.000000	0.784920	0.215080
Cu141	Cu14	0.000000	0.713800	0.286200
Cu151	Cu15	0.000000	0.215080	0.784920
Cu161	Cu16	0.000000	0.286200	0.713800
Cu171	Cu17	0.784920	0.000000	0.215080
Cu181	Cu18	0.713800	0.000000	0.286200
Cu191	Cu19	0.215080	0.000000	0.784920
Cu201	Cu20	0.286200	0.000000	0.713800
Cu211	Cu21	0.000000	0.215080	0.000000
Cu221	Cu22	0.000000	0.286200	0.000000
Cu231	Cu23	0.000000	0.784920	0.000000
Cu241	Cu24	0.000000	0.713800	0.000000
H11	H1	0.754200	0.360400	0.861000
H21	H2	0.787100	0.479100	0.690300
H31	H3	0.746800	0.546600	0.648400
H41	H4	0.360400	0.754200	0.024400
H51	H5	0.479100	0.787100	0.043500
H61	H6	0.546600	0.746800	0.058200
H71	H7	0.861000	0.024400	0.754200
H81	H8	0.690300	0.043500	0.787100
H91	H9	0.648400	0.058200	0.746800
H101	H10	0.024400	0.861000	0.360400
H111	H11	0.043500	0.690300	0.479100
H121	H12	0.058200	0.648400	0.546600
H131	H13	0.754200	0.861000	0.024400
H141	H14	0.787100	0.690300	0.043500
H151	H15	0.746800	0.648400	0.058200
H161	H16	0.360400	0.024400	0.861000
H171	H17	0.479100	0.043500	0.690300
H181	H18	0.546600	0.058200	0.648400
H191	H19	0.861000	0.754200	0.360400
H201	H20	0.690300	0.787100	0.479100
H211	H21	0.648400	0.746800	0.546600
H221	H22	0.024400	0.360400	0.754200
H231	H23	0.043500	0.479100	0.787100
H241	H24	0.058200	0.546600	0.746800
H251	H25	0.754200	0.024400	0.360400
H261	H26	0.787100	0.043500	0.479100
H271	H27	0.746800	0.058200	0.546600
H281	H28	0.360400	0.861000	0.754200
H291	H29	0.479100	0.690300	0.787100
H301	H30	0.546600	0.648400	0.746800
H311	H31	0.861000	0.360400	0.024400
H321	H32	0.690300	0.479100	0.043500
H331	H33	0.648400	0.546600	0.058200
H341	H34	0.024400	0.754200	0.861000
H351	H35	0.043500	0.787100	0.690300
H361	H36	0.058200	0.746800	0.648400
H371	H37	0.639600	0.245800	0.139000
H381	H38	0.520900	0.212900	0.309700
H391	H39	0.453400	0.253200	0.351600
H401	H40	0.245800	0.639600	0.975600
H411	H41	0.212900	0.520900	0.956500
H421	H42	0.253200	0.453400	0.941800
H431	H43	0.975600	0.139000	0.245800
H441	H44	0.956500	0.309700	0.212900
H451	H45	0.941800	0.351600	0.253200
H461	H46	0.139000	0.975600	0.639600
H471	H47	0.309700	0.956500	0.520900
H481	H48	0.351600	0.941800	0.453400
H491	H49	0.139000	0.245800	0.975600
H501	H50	0.309700	0.212900	0.956500
H511	H51	0.351600	0.253200	0.941800
H521	H52	0.975600	0.639600	0.139000
H531	H53	0.956500	0.520900	0.309700
H541	H54	0.941800	0.453400	0.351600
H551	H55	0.245800	0.139000	0.639600
H561	H56	0.212900	0.309700	0.520900
H571	H57	0.253200	0.351600	0.453400
H581	H58	0.639600	0.975600	0.245800
H591	H59	0.520900	0.956500	0.212900
H601	H60	0.453400	0.941800	0.253200
H611	H61	0.975600	0.245800	0.639600
H621	H62	0.956500	0.212900	0.520900
H631	H63	0.941800	0.253200	0.453400
H641	H64	0.139000	0.639600	0.245800
H651	H65	0.309700	0.520900	0.212900
H661	H66	0.351600	0.453400	0.253200
H671	H67	0.639600	0.139000	0.975600
H681	H68	0.520900	0.309700	0.956500
H691	H69	0.453400	0.351600	0.941800
H701	H70	0.245800	0.975600	0.139000
H711	H71	0.212900	0.956500	0.309700
H721	H72	0.253200	0.941800	0.351600
H731	H73	0.245800	0.639600	0.139000
H741	H74	0.212900	0.520900	0.309700
H751	H75	0.253200	0.453400	0.351600
H761	H76	0.639600	0.245800	0.975600
H771	H77	0.520900	0.212900	0.956500
H781	H78	0.453400	0.253200	0.941800
H791	H79	0.139000	0.975600	0.245800
H801	H80	0.309700	0.956500	0.212900
H811	H81	0.351600	0.941800	0.253200
H821	H82	0.975600	0.139000	0.639600
H831	H83	0.956500	0.309700	0.520900
H841	H84	0.941800	0.351600	0.453400
H851	H85	0.245800	0.139000	0.975600
H861	H86	0.212900	0.309700	0.956500
H871	H87	0.253200	0.351600	0.941800
H881	H88	0.639600	0.975600	0.139000
H891	H89	0.520900	0.956500	0.309700
H901	H90	0.453400	0.941800	0.351600
H911	H91	0.139000	0.245800	0.639600
H921	H92	0.309700	0.212900	0.520900
H931	H93	0.351600	0.253200	0.453400
H941	H94	0.975600	0.639600	0.245800
H951	H95	0.956500	0.520900	0.212900
H961	H96	0.941800	0.453400	0.253200
H971	H97	0.245800	0.975600	0.639600
H981	H98	0.212900	0.956500	0.520900
H991	H99	0.253200	0.941800	0.453400
H1001	H100	0.639600	0.139000	0.245800
H1011	H101	0.520900	0.309700	0.212900
H1021	H102	0.453400	0.351600	0.253200
H1031	H103	0.139000	0.639600	0.975600
H1041	H104	0.309700	0.520900	0.956500
H1051	H105	0.351600	0.453400	0.941800
H1061	H106	0.975600	0.245800	0.139000
H1071	H107	0.956500	0.212900	0.309700
H1081	H108	0.941800	0.253200	0.351600
H1091	H109	0.360400	0.754200	0.861000
H1101	H110	0.479100	0.787100	0.690300
H1111	H111	0.546600	0.746800	0.648400
H1121	H112	0.754200	0.360400	0.024400
H1131	H113	0.787100	0.479100	0.043500
H1141	H114	0.746800	0.546600	0.058200
H1151	H115	0.024400	0.861000	0.754200
H1161	H116	0.043500	0.690300	0.787100
H1171	H117	0.058200	0.648400	0.746800
H1181	H118	0.861000	0.024400	0.360400
H1191	H119	0.690300	0.043500	0.479100
H1201	H120	0.648400	0.058200	0.546600
H1211	H121	0.861000	0.754200	0.024400
H1221	H122	0.690300	0.787100	0.043500
H1231	H123	0.648400	0.746800	0.058200
H1241	H124	0.024400	0.360400	0.861000
H1251	H125	0.043500	0.479100	0.690300
H1261	H126	0.058200	0.546600	0.648400
H1271	H127	0.754200	0.861000	0.360400
H1281	H128	0.787100	0.690300	0.479100
H1291	H129	0.746800	0.648400	0.546600
H1301	H130	0.360400	0.024400	0.754200
H1311	H131	0.479100	0.043500	0.787100
H1321	H132	0.546600	0.058200	0.746800
H1331	H133	0.024400	0.754200	0.360400
H1341	H134	0.043500	0.787100	0.479100
H1351	H135	0.058200	0.746800	0.546600
H1361	H136	0.861000	0.360400	0.754200
H1371	H137	0.690300	0.479100	0.787100
H1381	H138	0.648400	0.546600	0.746800
H1391	H139	0.360400	0.861000	0.024400
H1401	H140	0.479100	0.690300	0.043500
H1411	H141	0.546600	0.648400	0.058200
H1421	H142	0.754200	0.024400	0.861000
H1431	H143	0.787100	0.043500	0.690300
H1441	H144	0.746800	0.058200	0.648400
H1451	H145	0.863700	0.256300	0.863700
H1461	H146	0.763900	0.412100	0.763900
H1471	H147	0.256300	0.863700	0.016300
H1481	H148	0.412100	0.763900	0.060100
H1491	H149	0.863700	0.016300	0.863700
H1501	H150	0.763900	0.060100	0.763900
H1511	H151	0.016300	0.863700	0.256300
H1521	H152	0.060100	0.763900	0.412100
H1531	H153	0.863700	0.863700	0.016300
H1541	H154	0.763900	0.763900	0.060100
H1551	H155	0.256300	0.016300	0.863700
H1561	H156	0.412100	0.060100	0.763900
H1571	H157	0.863700	0.863700	0.256300
H1581	H158	0.763900	0.763900	0.412100
H1591	H159	0.016300	0.256300	0.863700
H1601	H160	0.060100	0.412100	0.763900
H1611	H161	0.863700	0.016300	0.256300
H1621	H162	0.763900	0.060100	0.412100
H1631	H163	0.256300	0.863700	0.863700
H1641	H164	0.412100	0.763900	0.763900
H1651	H165	0.863700	0.256300	0.016300
H1661	H166	0.763900	0.412100	0.060100
H1671	H167	0.016300	0.863700	0.863700
H1681	H168	0.060100	0.763900	0.763900
H1691	H169	0.743700	0.136300	0.136300
H1701	H170	0.587900	0.236100	0.236100
H1711	H171	0.136300	0.743700	0.983700
H1721	H172	0.236100	0.587900	0.939900
H1731	H173	0.983700	0.136300	0.136300
H1741	H174	0.939900	0.236100	0.236100
H1751	H175	0.136300	0.983700	0.743700
H1761	H176	0.236100	0.939900	0.587900
H1771	H177	0.136300	0.136300	0.983700
H1781	H178	0.236100	0.236100	0.939900
H1791	H179	0.983700	0.743700	0.136300
H1801	H180	0.939900	0.587900	0.236100
H1811	H181	0.136300	0.136300	0.743700
H1821	H182	0.236100	0.236100	0.587900
H1831	H183	0.743700	0.983700	0.136300
H1841	H184	0.587900	0.939900	0.236100
H1851	H185	0.983700	0.136300	0.743700
H1861	H186	0.939900	0.236100	0.587900
H1871	H187	0.136300	0.743700	0.136300
H1881	H188	0.236100	0.587900	0.236100
H1891	H189	0.743700	0.136300	0.983700
H1901	H190	0.587900	0.236100	0.939900
H1911	H191	0.136300	0.983700	0.136300
H1921	H192	0.236100	0.939900	0.236100
H1931	H193	0.726000	0.618200	0.618200
H1941	H194	0.618200	0.726000	0.037600
H1951	H195	0.618200	0.037600	0.726000
H1961	H196	0.037600	0.618200	0.618200
H1971	H197	0.726000	0.618200	0.037600
H1981	H198	0.618200	0.037600	0.618200
H1991	H199	0.618200	0.726000	0.618200
H2001	H200	0.037600	0.618200	0.726000
H2011	H201	0.726000	0.037600	0.618200
H2021	H202	0.618200	0.618200	0.726000
H2031	H203	0.618200	0.618200	0.037600
H2041	H204	0.037600	0.726000	0.618200
H2051	H205	0.381800	0.274000	0.381800
H2061	H206	0.274000	0.381800	0.962400
H2071	H207	0.962400	0.381800	0.274000
H2081	H208	0.381800	0.962400	0.381800
H2091	H209	0.381800	0.274000	0.962400
H2101	H210	0.962400	0.381800	0.381800
H2111	H211	0.274000	0.381800	0.381800
H2121	H212	0.381800	0.962400	0.274000
H2131	H213	0.962400	0.274000	0.381800
H2141	H214	0.381800	0.381800	0.274000
H2151	H215	0.381800	0.381800	0.962400
H2161	H216	0.274000	0.962400	0.381800
C11	C1	0.783590	0.285350	0.918870
C21	C2	0.805840	0.306320	0.870820
C31	C3	0.783640	0.346800	0.846860
C41	C4	0.761760	0.498920	0.704940
C51	C5	0.738290	0.538950	0.679650
C61	C6	0.285350	0.783590	0.012190
C71	C7	0.306320	0.805840	0.017020
C81	C8	0.346800	0.783640	0.022700
C91	C9	0.498920	0.761760	0.034380
C101	C10	0.538950	0.738290	0.043110
C111	C11	0.918870	0.012190	0.783590
C121	C12	0.870820	0.017020	0.805840
C131	C13	0.846860	0.022700	0.783640
C141	C14	0.704940	0.034380	0.761760
C151	C15	0.679650	0.043110	0.738290
C161	C16	0.012190	0.918870	0.285350
C171	C17	0.017020	0.870820	0.306320
C181	C18	0.022700	0.846860	0.346800
C191	C19	0.034380	0.704940	0.498920
C201	C20	0.043110	0.679650	0.538950
C211	C21	0.783590	0.918870	0.012190
C221	C22	0.805840	0.870820	0.017020
C231	C23	0.783640	0.846860	0.022700
C241	C24	0.761760	0.704940	0.034380
C251	C25	0.738290	0.679650	0.043110
C261	C26	0.285350	0.012190	0.918870
C271	C27	0.306320	0.017020	0.870820
C281	C28	0.346800	0.022700	0.846860
C291	C29	0.498920	0.034380	0.704940
C301	C30	0.538950	0.043110	0.679650
C311	C31	0.918870	0.783590	0.285350
C321	C32	0.870820	0.805840	0.306320
C331	C33	0.846860	0.783640	0.346800
C341	C34	0.704940	0.761760	0.498920
C351	C35	0.679650	0.738290	0.538950
C361	C36	0.012190	0.285350	0.783590
C371	C37	0.017020	0.306320	0.805840
C381	C38	0.022700	0.346800	0.783640
C391	C39	0.034380	0.498920	0.761760
C401	C40	0.043110	0.538950	0.738290
C411	C41	0.783590	0.012190	0.285350
C421	C42	0.805840	0.017020	0.306320
C431	C43	0.783640	0.022700	0.346800
C441	C44	0.761760	0.034380	0.498920
C451	C45	0.738290	0.043110	0.538950
C461	C46	0.285350	0.918870	0.783590
C471	C47	0.306320	0.870820	0.805840
C481	C48	0.346800	0.846860	0.783640
C491	C49	0.498920	0.704940	0.761760
C501	C50	0.538950	0.679650	0.738290
C511	C51	0.918870	0.285350	0.012190
C521	C52	0.870820	0.306320	0.017020
C531	C53	0.846860	0.346800	0.022700
C541	C54	0.704940	0.498920	0.034380
C551	C55	0.679650	0.538950	0.043110
C561	C56	0.012190	0.783590	0.918870
C571	C57	0.017020	0.805840	0.870820
C581	C58	0.022700	0.783640	0.846860
C591	C59	0.034380	0.761760	0.704940
C601	C60	0.043110	0.738290	0.679650
C611	C61	0.714650	0.216410	0.081130
C621	C62	0.693680	0.194160	0.129180
C631	C63	0.653200	0.216360	0.153140
C641	C64	0.501080	0.238240	0.295060
C651	C65	0.461050	0.261710	0.320350
C661	C66	0.216410	0.714650	0.987810
C671	C67	0.194160	0.693680	0.982980
C681	C68	0.216360	0.653200	0.977300
C691	C69	0.238240	0.501080	0.965620
C701	C70	0.261710	0.461050	0.956890
C711	C71	0.987810	0.081130	0.216410
C721	C72	0.982980	0.129180	0.194160
C731	C73	0.977300	0.153140	0.216360
C741	C74	0.965620	0.295060	0.238240
C751	C75	0.956890	0.320350	0.261710
C761	C76	0.081130	0.987810	0.714650
C771	C77	0.129180	0.982980	0.693680
C781	C78	0.153140	0.977300	0.653200
C791	C79	0.295060	0.965620	0.501080
C801	C80	0.320350	0.956890	0.461050
C811	C81	0.081130	0.216410	0.987810
C821	C82	0.129180	0.194160	0.982980
C831	C83	0.153140	0.216360	0.977300
C841	C84	0.295060	0.238240	0.965620
C851	C85	0.320350	0.261710	0.956890
C861	C86	0.987810	0.714650	0.081130
C871	C87	0.982980	0.693680	0.129180
C881	C88	0.977300	0.653200	0.153140
C891	C89	0.965620	0.501080	0.295060
C901	C90	0.956890	0.461050	0.320350
C911	C91	0.216410	0.081130	0.714650
C921	C92	0.194160	0.129180	0.693680
C931	C93	0.216360	0.153140	0.653200
C941	C94	0.238240	0.295060	0.501080
C951	C95	0.261710	0.320350	0.461050
C961	C96	0.714650	0.987810	0.216410
C971	C97	0.693680	0.982980	0.194160
C981	C98	0.653200	0.977300	0.216360
C991	C99	0.501080	0.965620	0.238240
C1001	C100	0.461050	0.956890	0.261710
C1011	C101	0.987810	0.216410	0.714650
C1021	C102	0.982980	0.194160	0.693680
C1031	C103	0.977300	0.216360	0.653200
C1041	C104	0.965620	0.238240	0.501080
C1051	C105	0.956890	0.261710	0.461050
C1061	C106	0.081130	0.714650	0.216410
C1071	C107	0.129180	0.693680	0.194160
C1081	C108	0.153140	0.653200	0.216360
C1091	C109	0.295060	0.501080	0.238240
C1101	C110	0.320350	0.461050	0.261710
C1111	C111	0.714650	0.081130	0.987810
C1121	C112	0.693680	0.129180	0.982980
C1131	C113	0.653200	0.153140	0.977300
C1141	C114	0.501080	0.295060	0.965620
C1151	C115	0.461050	0.320350	0.956890
C1161	C116	0.216410	0.987810	0.081130
C1171	C117	0.194160	0.982980	0.129180
C1181	C118	0.216360	0.977300	0.153140
C1191	C119	0.238240	0.965620	0.295060
C1201	C120	0.261710	0.956890	0.320350
C1211	C121	0.216410	0.714650	0.081130
C1221	C122	0.194160	0.693680	0.129180
C1231	C123	0.216360	0.653200	0.153140
C1241	C124	0.238240	0.501080	0.295060
C1251	C125	0.261710	0.461050	0.320350
C1261	C126	0.714650	0.216410	0.987810
C1271	C127	0.693680	0.194160	0.982980
C1281	C128	0.653200	0.216360	0.977300
C1291	C129	0.501080	0.238240	0.965620
C1301	C130	0.461050	0.261710	0.956890
C1311	C131	0.081130	0.987810	0.216410
C1321	C132	0.129180	0.982980	0.194160
C1331	C133	0.153140	0.977300	0.216360
C1341	C134	0.295060	0.965620	0.238240
C1351	C135	0.320350	0.956890	0.261710
C1361	C136	0.987810	0.081130	0.714650
C1371	C137	0.982980	0.129180	0.693680
C1381	C138	0.977300	0.153140	0.653200
C1391	C139	0.965620	0.295060	0.501080
C1401	C140	0.956890	0.320350	0.461050
C1411	C141	0.216410	0.081130	0.987810
C1421	C142	0.194160	0.129180	0.982980
C1431	C143	0.216360	0.153140	0.977300
C1441	C144	0.238240	0.295060	0.965620
C1451	C145	0.261710	0.320350	0.956890
C1461	C146	0.714650	0.987810	0.081130
C1471	C147	0.693680	0.982980	0.129180
C1481	C148	0.653200	0.977300	0.153140
C1491	C149	0.501080	0.965620	0.295060
C1501	C150	0.461050	0.956890	0.320350
C1511	C151	0.081130	0.216410	0.714650
C1521	C152	0.129180	0.194160	0.693680
C1531	C153	0.153140	0.216360	0.653200
C1541	C154	0.295060	0.238240	0.501080
C1551	C155	0.320350	0.261710	0.461050
C1561	C156	0.987810	0.714650	0.216410
C1571	C157	0.982980	0.693680	0.194160
C1581	C158	0.977300	0.653200	0.216360
C1591	C159	0.965620	0.501080	0.238240
C1601	C160	0.956890	0.461050	0.261710
C1611	C161	0.216410	0.987810	0.714650
C1621	C162	0.194160	0.982980	0.693680
C1631	C163	0.216360	0.977300	0.653200
C1641	C164	0.238240	0.965620	0.501080
C1651	C165	0.261710	0.956890	0.461050
C1661	C166	0.714650	0.081130	0.216410
C1671	C167	0.693680	0.129180	0.194160
C1681	C168	0.653200	0.153140	0.216360
C1691	C169	0.501080	0.295060	0.238240
C1701	C170	0.461050	0.320350	0.261710
C1711	C171	0.081130	0.714650	0.987810
C1721	C172	0.129180	0.693680	0.982980
C1731	C173	0.153140	0.653200	0.977300
C1741	C174	0.295060	0.501080	0.965620
C1751	C175	0.320350	0.461050	0.956890
C1761	C176	0.987810	0.216410	0.081130
C1771	C177	0.982980	0.194160	0.129180
C1781	C178	0.977300	0.216360	0.153140
C1791	C179	0.965620	0.238240	0.295060
C1801	C180	0.956890	0.261710	0.320350
C1811	C181	0.285350	0.783590	0.918870
C1821	C182	0.306320	0.805840	0.870820
C1831	C183	0.346800	0.783640	0.846860
C1841	C184	0.498920	0.761760	0.704940
C1851	C185	0.538950	0.738290	0.679650
C1861	C186	0.783590	0.285350	0.012190
C1871	C187	0.805840	0.306320	0.017020
C1881	C188	0.783640	0.346800	0.022700
C1891	C189	0.761760	0.498920	0.034380
C1901	C190	0.738290	0.538950	0.043110
C1911	C191	0.012190	0.918870	0.783590
C1921	C192	0.017020	0.870820	0.805840
C1931	C193	0.022700	0.846860	0.783640
C1941	C194	0.034380	0.704940	0.761760
C1951	C195	0.043110	0.679650	0.738290
C1961	C196	0.918870	0.012190	0.285350
C1971	C197	0.870820	0.017020	0.306320
C1981	C198	0.846860	0.022700	0.346800
C1991	C199	0.704940	0.034380	0.498920
C2001	C200	0.679650	0.043110	0.538950
C2011	C201	0.918870	0.783590	0.012190
C2021	C202	0.870820	0.805840	0.017020
C2031	C203	0.846860	0.783640	0.022700
C2041	C204	0.704940	0.761760	0.034380
C2051	C205	0.679650	0.738290	0.043110
C2061	C206	0.012190	0.285350	0.918870
C2071	C207	0.017020	0.306320	0.870820
C2081	C208	0.022700	0.346800	0.846860
C2091	C209	0.034380	0.498920	0.704940
C2101	C210	0.043110	0.538950	0.679650
C2111	C211	0.783590	0.918870	0.285350
C2121	C212	0.805840	0.870820	0.306320
C2131	C213	0.783640	0.846860	0.346800
C2141	C214	0.761760	0.704940	0.498920
C2151	C215	0.738290	0.679650	0.538950
C2161	C216	0.285350	0.012190	0.783590
C2171	C217	0.306320	0.017020	0.805840
C2181	C218	0.346800	0.022700	0.783640
C2191	C219	0.498920	0.034380	0.761760
C2201	C220	0.538950	0.043110	0.738290
C2211	C221	0.012190	0.783590	0.285350
C2221	C222	0.017020	0.805840	0.306320
C2231	C223	0.022700	0.783640	0.346800
C2241	C224	0.034380	0.761760	0.498920
C2251	C225	0.043110	0.738290	0.538950
C2261	C226	0.918870	0.285350	0.783590
C2271	C227	0.870820	0.306320	0.805840
C2281	C228	0.846860	0.346800	0.783640
C2291	C229	0.704940	0.498920	0.761760
C2301	C230	0.679650	0.538950	0.738290
C2311	C231	0.285350	0.918870	0.012190
C2321	C232	0.306320	0.870820	0.017020
C2331	C233	0.346800	0.846860	0.022700
C2341	C234	0.498920	0.704940	0.034380
C2351	C235	0.538950	0.679650	0.043110
C2361	C236	0.783590	0.012190	0.918870
C2371	C237	0.805840	0.017020	0.870820
C2381	C238	0.783640	0.022700	0.846860
C2391	C239	0.761760	0.034380	0.704940
C2401	C240	0.738290	0.043110	0.679650
C2411	C241	0.849090	0.285110	0.849090
C2421	C242	0.802890	0.368350	0.802890
C2431	C243	0.776100	0.447740	0.776100
C2441	C244	0.749370	0.488470	0.749370
C2451	C245	0.701680	0.568360	0.701680
C2461	C246	0.676780	0.613660	0.676780
C2471	C247	0.285110	0.849090	0.016710
C2481	C248	0.368350	0.802890	0.025870
C2491	C249	0.447740	0.776100	0.000060
C2501	C250	0.488470	0.749370	0.012790
C2511	C251	0.568360	0.701680	0.028280
C2521	C252	0.613660	0.676780	0.032780
C2531	C253	0.849090	0.016710	0.849090
C2541	C254	0.802890	0.025870	0.802890
C2551	C255	0.776100	0.000060	0.776100
C2561	C256	0.749370	0.012790	0.749370
C2571	C257	0.701680	0.028280	0.701680
C2581	C258	0.676780	0.032780	0.676780
C2591	C259	0.016710	0.849090	0.285110
C2601	C260	0.025870	0.802890	0.368350
C2611	C261	0.000060	0.776100	0.447740
C2621	C262	0.012790	0.749370	0.488470
C2631	C263	0.028280	0.701680	0.568360
C2641	C264	0.032780	0.676780	0.613660
C2651	C265	0.849090	0.849090	0.016710
C2661	C266	0.802890	0.802890	0.025870
C2671	C267	0.776100	0.776100	0.000060
C2681	C268	0.749370	0.749370	0.012790
C2691	C269	0.701680	0.701680	0.028280
C2701	C270	0.676780	0.676780	0.032780
C2711	C271	0.285110	0.016710	0.849090
C2721	C272	0.368350	0.025870	0.802890
C2731	C273	0.447740	0.000060	0.776100
C2741	C274	0.488470	0.012790	0.749370
C2751	C275	0.568360	0.028280	0.701680
C2761	C276	0.613660	0.032780	0.676780
C2771	C277	0.849090	0.849090	0.285110
C2781	C278	0.802890	0.802890	0.368350
C2791	C279	0.776100	0.776100	0.447740
C2801	C280	0.749370	0.749370	0.488470
C2811	C281	0.701680	0.701680	0.568360
C2821	C282	0.676780	0.676780	0.613660
C2831	C283	0.016710	0.285110	0.849090
C2841	C284	0.025870	0.368350	0.802890
C2851	C285	0.000060	0.447740	0.776100
C2861	C286	0.012790	0.488470	0.749370
C2871	C287	0.028280	0.568360	0.701680
C2881	C288	0.032780	0.613660	0.676780
C2891	C289	0.849090	0.016710	0.285110
C2901	C290	0.802890	0.025870	0.368350
C2911	C291	0.776100	0.000060	0.447740
C2921	C292	0.749370	0.012790	0.488470
C2931	C293	0.701680	0.028280	0.568360
C2941	C294	0.676780	0.032780	0.613660
C2951	C295	0.285110	0.849090	0.849090
C2961	C296	0.368350	0.802890	0.802890
C2971	C297	0.447740	0.776100	0.776100
C2981	C298	0.488470	0.749370	0.749370
C2991	C299	0.568360	0.701680	0.701680
C3001	C300	0.613660	0.676780	0.676780
C3011	C301	0.849090	0.285110	0.016710
C3021	C302	0.802890	0.368350	0.025870
C3031	C303	0.776100	0.447740	0.000060
C3041	C304	0.749370	0.488470	0.012790
C3051	C305	0.701680	0.568360	0.028280
C3061	C306	0.676780	0.613660	0.032780
C3071	C307	0.016710	0.849090	0.849090
C3081	C308	0.025870	0.802890	0.802890
C3091	C309	0.000060	0.776100	0.776100
C3101	C310	0.012790	0.749370	0.749370
C3111	C311	0.028280	0.701680	0.701680
C3121	C312	0.032780	0.676780	0.676780
C3131	C313	0.714890	0.150910	0.150910
C3141	C314	0.631650	0.197110	0.197110
C3151	C315	0.552260	0.223900	0.223900
C3161	C316	0.511530	0.250630	0.250630
C3171	C317	0.431640	0.298320	0.298320
C3181	C318	0.386340	0.323220	0.323220
C3191	C319	0.150910	0.714890	0.983290
C3201	C320	0.197110	0.631650	0.974130
C3211	C321	0.223900	0.552260	0.999940
C3221	C322	0.250630	0.511530	0.987210
C3231	C323	0.298320	0.431640	0.971720
C3241	C324	0.323220	0.386340	0.967220
C3251	C325	0.983290	0.150910	0.150910
C3261	C326	0.974130	0.197110	0.197110
C3271	C327	0.999940	0.223900	0.223900
C3281	C328	0.987210	0.250630	0.250630
C3291	C329	0.971720	0.298320	0.298320
C3301	C330	0.967220	0.323220	0.323220
C3311	C331	0.150910	0.983290	0.714890
C3321	C332	0.197110	0.974130	0.631650
C3331	C333	0.223900	0.999940	0.552260
C3341	C334	0.250630	0.987210	0.511530
C3351	C335	0.298320	0.971720	0.431640
C3361	C336	0.323220	0.967220	0.386340
C3371	C337	0.150910	0.150910	0.983290
C3381	C338	0.197110	0.197110	0.974130
C3391	C339	0.223900	0.223900	0.999940
C3401	C340	0.250630	0.250630	0.987210
C3411	C341	0.298320	0.298320	0.971720
C3421	C342	0.323220	0.323220	0.967220
C3431	C343	0.983290	0.714890	0.150910
C3441	C344	0.974130	0.631650	0.197110
C3451	C345	0.999940	0.552260	0.223900
C3461	C346	0.987210	0.511530	0.250630
C3471	C347	0.971720	0.431640	0.298320
C3481	C348	0.967220	0.386340	0.323220
C3491	C349	0.150910	0.150910	0.714890
C3501	C350	0.197110	0.197110	0.631650
C3511	C351	0.223900	0.223900	0.552260
C3521	C352	0.250630	0.250630	0.511530
C3531	C353	0.298320	0.298320	0.431640
C3541	C354	0.323220	0.323220	0.386340
C3551	C355	0.714890	0.983290	0.150910
C3561	C356	0.631650	0.974130	0.197110
C3571	C357	0.552260	0.999940	0.223900
C3581	C358	0.511530	0.987210	0.250630
C3591	C359	0.431640	0.971720	0.298320
C3601	C360	0.386340	0.967220	0.323220
C3611	C361	0.983290	0.150910	0.714890
C3621	C362	0.974130	0.197110	0.631650
C3631	C363	0.999940	0.223900	0.552260
C3641	C364	0.987210	0.250630	0.511530
C3651	C365	0.971720	0.298320	0.431640
C3661	C366	0.967220	0.323220	0.386340
C3671	C367	0.150910	0.714890	0.150910
C3681	C368	0.197110	0.631650	0.197110
C3691	C369	0.223900	0.552260	0.223900
C3701	C370	0.250630	0.511530	0.250630
C3711	C371	0.298320	0.431640	0.298320
C3721	C372	0.323220	0.386340	0.323220
C3731	C373	0.714890	0.150910	0.983290
C3741	C374	0.631650	0.197110	0.974130
C3751	C375	0.552260	0.223900	0.999940
C3761	C376	0.511530	0.250630	0.987210
C3771	C377	0.431640	0.298320	0.971720
C3781	C378	0.386340	0.323220	0.967220
C3791	C379	0.150910	0.983290	0.150910
C3801	C380	0.197110	0.974130	0.197110
C3811	C381	0.223900	0.999940	0.223900
C3821	C382	0.250630	0.987210	0.250630
C3831	C383	0.298320	0.971720	0.298320
C3841	C384	0.323220	0.967220	0.323220
C3851	C385	0.698090	0.633510	0.633510
C3861	C386	0.633510	0.698090	0.034890
C3871	C387	0.633510	0.034890	0.698090
C3881	C388	0.034890	0.633510	0.633510
C3891	C389	0.698090	0.633510	0.034890
C3901	C390	0.633510	0.034890	0.633510
C3911	C391	0.633510	0.698090	0.633510
C3921	C392	0.034890	0.633510	0.698090
C3931	C393	0.698090	0.034890	0.633510
C3941	C394	0.633510	0.633510	0.698090
C3951	C395	0.633510	0.633510	0.034890
C3961	C396	0.034890	0.698090	0.633510
C3971	C397	0.366490	0.301910	0.366490
C3981	C398	0.301910	0.366490	0.965110
C3991	C399	0.965110	0.366490	0.301910
C4001	C400	0.366490	0.965110	0.366490
C4011	C401	0.366490	0.301910	0.965110
C4021	C402	0.965110	0.366490	0.366490
C4031	C403	0.301910	0.366490	0.366490
C4041	C404	0.366490	0.965110	0.301910
C4051	C405	0.965110	0.301910	0.366490
C4061	C406	0.366490	0.366490	0.301910
C4071	C407	0.366490	0.366490	0.965110
C4081	C408	0.301910	0.965110	0.366490
N11	N1	0.777570	0.411230	0.777570
N21	N2	0.411230	0.777570	0.033630
N31	N3	0.777570	0.033630	0.777570
N41	N4	0.033630	0.777570	0.411230
N51	N5	0.777570	0.777570	0.033630
N61	N6	0.411230	0.033630	0.777570
N71	N7	0.777570	0.777570	0.411230
N81	N8	0.033630	0.411230	0.777570
N91	N9	0.777570	0.033630	0.411230
N101	N10	0.411230	0.777570	0.777570
N111	N11	0.777570	0.411230	0.033630
N121	N12	0.033630	0.777570	0.777570
N131	N13	0.588770	0.222430	0.222430
N141	N14	0.222430	0.588770	0.966370
N151	N15	0.966370	0.222430	0.222430
N161	N16	0.222430	0.966370	0.588770
N171	N17	0.222430	0.222430	0.966370
N181	N18	0.966370	0.588770	0.222430
N191	N19	0.222430	0.222430	0.588770
N201	N20	0.588770	0.966370	0.222430
N211	N21	0.966370	0.222430	0.588770
N221	N22	0.222430	0.588770	0.222430
N231	N23	0.588770	0.222430	0.966370
N241	N24	0.222430	0.966370	0.222430
O11	O1	0.806140	0.246290	0.937090
O21	O2	0.745540	0.306910	0.937470
O31	O3	0.246300	0.806130	0.010480
O41	O4	0.306910	0.745540	0.010080
O51	O5	0.937100	0.010480	0.806130
O61	O6	0.937480	0.010080	0.745530
O71	O7	0.010490	0.937090	0.246290
O81	O8	0.010080	0.937480	0.306910
O91	O9	0.806140	0.937090	0.010480
O101	O10	0.745540	0.937470	0.010080
O111	O11	0.246300	0.010480	0.937090
O121	O12	0.306920	0.010080	0.937470
O131	O13	0.937100	0.806130	0.246290
O141	O14	0.937470	0.745540	0.306910
O151	O15	0.010490	0.246290	0.806130
O161	O16	0.010090	0.306910	0.745530
O171	O17	0.806140	0.010480	0.246290
O181	O18	0.745540	0.010080	0.306910
O191	O19	0.246300	0.937090	0.806130
O201	O20	0.306910	0.937480	0.745530
O211	O21	0.937100	0.246290	0.010480
O221	O22	0.937470	0.306910	0.010080
O231	O23	0.010490	0.806130	0.937090
O241	O24	0.010080	0.745540	0.937470
O251	O25	0.753700	0.193870	0.062910
O261	O26	0.693080	0.254470	0.062530
O271	O27	0.193860	0.753710	0.989520
O281	O28	0.254460	0.693090	0.989920
O291	O29	0.989510	0.062910	0.193870
O301	O30	0.989920	0.062530	0.254460
O311	O31	0.062900	0.989520	0.753710
O321	O32	0.062530	0.989920	0.693090
O331	O33	0.062900	0.193870	0.989520
O341	O34	0.062520	0.254470	0.989920
O351	O35	0.989510	0.753710	0.062910
O361	O36	0.989910	0.693090	0.062530
O371	O37	0.193860	0.062910	0.753710
O381	O38	0.254460	0.062530	0.693090
O391	O39	0.753700	0.989520	0.193870
O401	O40	0.693090	0.989920	0.254460
O411	O41	0.989510	0.193870	0.753710
O421	O42	0.989910	0.254470	0.693090
O431	O43	0.062900	0.753710	0.193870
O441	O44	0.062530	0.693090	0.254460
O451	O45	0.753700	0.062910	0.989520
O461	O46	0.693090	0.062530	0.989920
O471	O47	0.193860	0.989520	0.062910
O481	O48	0.254470	0.989920	0.062520
O491	O49	0.193860	0.753710	0.062910
O501	O50	0.254460	0.693090	0.062530
O511	O51	0.753700	0.193870	0.989520
O521	O52	0.693080	0.254470	0.989920
O531	O53	0.062900	0.989520	0.193870
O541	O54	0.062530	0.989920	0.254460
O551	O55	0.989510	0.062910	0.753710
O561	O56	0.989910	0.062530	0.693090
O571	O57	0.193860	0.062910	0.989520
O581	O58	0.254460	0.062530	0.989920
O591	O59	0.753700	0.989520	0.062910
O601	O60	0.693080	0.989920	0.062530
O611	O61	0.062900	0.193870	0.753710
O621	O62	0.062520	0.254470	0.693090
O631	O63	0.989510	0.753710	0.193870
O641	O64	0.989910	0.693090	0.254470
O651	O65	0.193860	0.989520	0.753710
O661	O66	0.254460	0.989920	0.693090
O671	O67	0.753700	0.062910	0.193870
O681	O68	0.693090	0.062530	0.254460
O691	O69	0.062900	0.753710	0.989520
O701	O70	0.062530	0.693090	0.989920
O711	O71	0.989510	0.193870	0.062910
O721	O72	0.989910	0.254470	0.062530
O731	O73	0.246300	0.806130	0.937090
O741	O74	0.306910	0.745540	0.937470
O751	O75	0.806140	0.246290	0.010480
O761	O76	0.745540	0.306910	0.010080
O771	O77	0.010490	0.937090	0.806130
O781	O78	0.010080	0.937480	0.745530
O791	O79	0.937100	0.010480	0.246290
O801	O80	0.937480	0.010080	0.306910
O811	O81	0.937100	0.806130	0.010480
O821	O82	0.937470	0.745540	0.010080
O831	O83	0.010490	0.246290	0.937090
O841	O84	0.010090	0.306910	0.937470
O851	O85	0.806140	0.937090	0.246290
O861	O86	0.745540	0.937470	0.306910
O871	O87	0.246300	0.010480	0.806130
O881	O88	0.306920	0.010080	0.745530
O891	O89	0.010490	0.806130	0.246290
O901	O90	0.010080	0.745540	0.306910
O911	O91	0.937100	0.246290	0.806130
O921	O92	0.937480	0.306910	0.745530
O931	O93	0.246300	0.937090	0.010480
O941	O94	0.306920	0.937470	0.010080
O951	O95	0.806140	0.010480	0.937090
O961	O96	0.745540	0.010080	0.937470
O971	O97	0.794490	0.452030	0.794490
O981	O98	0.452030	0.794490	0.958990
O991	O99	0.794490	0.958990	0.794490
O1001	O100	0.958990	0.794490	0.452030
O1011	O101	0.794490	0.794490	0.958990
O1021	O102	0.452030	0.958990	0.794490
O1031	O103	0.794490	0.794490	0.452030
O1041	O104	0.958990	0.452030	0.794490
O1051	O105	0.794490	0.958990	0.452030
O1061	O106	0.452030	0.794490	0.794490
O1071	O107	0.794490	0.452030	0.958990
O1081	O108	0.958990	0.794490	0.794490
O1091	O109	0.547970	0.205510	0.205510
O1101	O110	0.205510	0.547970	0.041010
O1111	O111	0.041010	0.205510	0.205510
O1121	O112	0.205510	0.041010	0.547970
O1131	O113	0.205510	0.205510	0.041010
O1141	O114	0.041010	0.547970	0.205510
O1151	O115	0.205510	0.205510	0.547970
O1161	O116	0.547970	0.041010	0.205510
O1171	O117	0.041010	0.205510	0.547970
O1181	O118	0.205510	0.547970	0.205510
O1191	O119	0.547970	0.205510	0.041010
O1201	O120	0.205510	0.041010	0.205510
O1211	O121	0.656900	0.343100	0.000000
O1221	O122	0.842240	0.157760	0.000000
O1231	O123	0.343100	0.656900	0.000000
O1241	O124	0.157760	0.842240	0.000000
O1251	O125	0.000000	0.000000	0.656900
O1261	O126	0.000000	0.000000	0.842240
O1271	O127	0.000000	0.000000	0.343100
O1281	O128	0.000000	0.000000	0.157760
O1291	O129	0.656900	0.000000	0.000000
O1301	O130	0.842240	0.000000	0.000000
O1311	O131	0.343100	0.000000	0.000000
O1321	O132	0.157760	0.000000	0.000000
O1331	O133	0.000000	0.656900	0.343100
O1341	O134	0.000000	0.842240	0.157760
O1351	O135	0.000000	0.343100	0.656900
O1361	O136	0.000000	0.157760	0.842240
O1371	O137	0.656900	0.000000	0.343100
O1381	O138	0.842240	0.000000	0.157760
O1391	O139	0.343100	0.000000	0.656900
O1401	O140	0.157760	0.000000	0.842240
O1411	O141	0.000000	0.343100	0.000000
O1421	O142	0.000000	0.157760	0.000000
O1431	O143	0.000000	0.656900	0.000000
O1441	O144	0.000000	0.842240	0.000000
