data_LELROL_freeONLY_PM
_symmetry_space_group_name_H-M	'P1'
_cell_length_a	17.404700
_cell_length_b	17.989200
_cell_length_c	26.943000
_cell_angle_alpha	90.000000
_cell_angle_beta	90.000000
_cell_angle_gamma	106.941000
_symmetry_Int_Tables_number 1

loop_
_symmetry_equiv_pos_as_xyz
'x,y,z'

loop_
_atom_site_label
_atom_site_type_symbol
_atom_site_fract_x
_atom_site_fract_y
_atom_site_fract_z
Mn11	Mn1	0.326380	0.052750	0.121170
Mn21	Mn2	0.112450	0.029080	0.129490
Mn31	Mn3	0.673620	0.447250	0.621170
Mn41	Mn4	0.887550	0.470920	0.629490
Mn51	Mn5	0.673620	0.947250	0.878830
Mn61	Mn6	0.887550	0.970920	0.870510
Mn71	Mn7	0.326380	0.552750	0.378830
Mn81	Mn8	0.112450	0.529080	0.370510
Mn91	Mn9	0.000000	0.000000	0.000000
Mn101	Mn10	0.000000	0.500000	0.500000
H11	H1	0.362800	0.159100	0.762100
H21	H2	0.373000	0.073400	0.762400
H31	H3	0.303600	0.159200	0.632700
H41	H4	0.319600	0.212500	0.681400
H51	H5	0.181300	0.041400	0.628100
H61	H6	0.121800	0.019100	0.674600
H71	H7	0.252400	0.957100	0.756500
H81	H8	0.164400	0.967500	0.752000
H91	H9	0.322100	0.026700	0.634600
H101	H10	0.348900	0.993200	0.684700
H111	H11	0.224300	0.177000	0.754300
H121	H12	0.146900	0.102700	0.751100
H131	H13	0.122000	0.019300	0.819500
H141	H14	0.103000	0.006400	0.903800
H151	H15	0.340900	0.108500	0.924900
H161	H16	0.359300	0.120300	0.840400
H171	H17	0.462900	0.062800	0.640300
H181	H18	0.597100	0.128700	0.624100
H191	H19	0.573300	0.316800	0.697400
H201	H20	0.440700	0.250300	0.714300
H211	H21	0.131200	0.218100	0.725700
H221	H22	0.074700	0.307800	0.691100
H231	H23	0.114100	0.235900	0.555300
H241	H24	0.179800	0.153700	0.589400
H251	H25	0.160300	0.852100	0.729500
H261	H26	0.096000	0.730000	0.697100
H271	H27	0.153600	0.816100	0.558700
H281	H28	0.220200	0.936500	0.591600
H291	H29	0.312000	0.044700	0.229600
H301	H30	0.334400	0.933800	0.333700
H311	H31	0.322800	0.018000	0.325900
H321	H32	0.260900	0.943400	0.301300
H331	H33	0.403100	0.880100	0.283000
H341	H34	0.358100	0.871100	0.230500
H351	H35	0.449700	0.923200	0.235000
H361	H36	0.425800	0.100500	0.021700
H371	H37	0.537100	0.245100	0.961800
H381	H38	0.600300	0.198400	0.974000
H391	H39	0.510800	0.152300	0.957400
H401	H40	0.548700	0.239700	0.095400
H411	H41	0.623800	0.230500	0.064400
H421	H42	0.584100	0.297500	0.050300
H431	H43	0.637200	0.340900	0.262100
H441	H44	0.627000	0.426600	0.262400
H451	H45	0.696400	0.340800	0.132700
H461	H46	0.680400	0.287500	0.181400
H471	H47	0.818700	0.458600	0.128100
H481	H48	0.878200	0.480900	0.174600
H491	H49	0.747600	0.542900	0.256500
H501	H50	0.835600	0.532500	0.252000
H511	H51	0.677900	0.473300	0.134600
H521	H52	0.651100	0.506800	0.184700
H531	H53	0.775700	0.323000	0.254300
H541	H54	0.853100	0.397300	0.251100
H551	H55	0.878000	0.480700	0.319500
H561	H56	0.897000	0.493600	0.403800
H571	H57	0.659100	0.391500	0.424900
H581	H58	0.640700	0.379700	0.340400
H591	H59	0.537100	0.437200	0.140300
H601	H60	0.402900	0.371300	0.124100
H611	H61	0.426700	0.183200	0.197400
H621	H62	0.559300	0.249700	0.214300
H631	H63	0.868800	0.281900	0.225700
H641	H64	0.925300	0.192200	0.191100
H651	H65	0.885900	0.264100	0.055300
H661	H66	0.820200	0.346300	0.089400
H671	H67	0.839700	0.647900	0.229500
H681	H68	0.904000	0.770000	0.197100
H691	H69	0.846400	0.683900	0.058700
H701	H70	0.779800	0.563500	0.091600
H711	H71	0.688000	0.455300	0.729600
H721	H72	0.665600	0.566200	0.833700
H731	H73	0.677200	0.482000	0.825900
H741	H74	0.739100	0.556600	0.801300
H751	H75	0.596900	0.619900	0.783000
H761	H76	0.641900	0.628900	0.730500
H771	H77	0.550300	0.576800	0.735000
H781	H78	0.574200	0.399500	0.521700
H791	H79	0.462900	0.254900	0.461800
H801	H80	0.399700	0.301600	0.474000
H811	H81	0.489200	0.347700	0.457400
H821	H82	0.451300	0.260300	0.595400
H831	H83	0.376200	0.269500	0.564400
H841	H84	0.415900	0.202500	0.550300
H851	H85	0.637200	0.840900	0.237900
H861	H86	0.627000	0.926600	0.237600
H871	H87	0.696400	0.840800	0.367300
H881	H88	0.680400	0.787500	0.318600
H891	H89	0.818700	0.958600	0.371900
H901	H90	0.878200	0.980900	0.325400
H911	H91	0.747600	0.042900	0.243500
H921	H92	0.835600	0.032500	0.248000
H931	H93	0.677900	0.973300	0.365400
H941	H94	0.651100	0.006800	0.315300
H951	H95	0.775700	0.823000	0.245700
H961	H96	0.853100	0.897300	0.248900
H971	H97	0.878000	0.980700	0.180500
H981	H98	0.897000	0.993600	0.096200
H991	H99	0.659100	0.891500	0.075100
H1001	H100	0.640700	0.879700	0.159600
H1011	H101	0.537100	0.937200	0.359700
H1021	H102	0.402900	0.871300	0.375900
H1031	H103	0.426700	0.683200	0.302600
H1041	H104	0.559300	0.749700	0.285700
H1051	H105	0.868800	0.781900	0.274300
H1061	H106	0.925300	0.692200	0.308900
H1071	H107	0.885900	0.764100	0.444700
H1081	H108	0.820200	0.846300	0.410600
H1091	H109	0.839700	0.147900	0.270500
H1101	H110	0.904000	0.270000	0.302900
H1111	H111	0.846400	0.183900	0.441300
H1121	H112	0.779800	0.063500	0.408400
H1131	H113	0.688000	0.955300	0.770400
H1141	H114	0.665600	0.066200	0.666300
H1151	H115	0.677200	0.982000	0.674100
H1161	H116	0.739100	0.056600	0.698700
H1171	H117	0.596900	0.119900	0.717000
H1181	H118	0.641900	0.128900	0.769500
H1191	H119	0.550300	0.076800	0.765000
H1201	H120	0.574200	0.899500	0.978300
H1211	H121	0.462900	0.754900	0.038200
H1221	H122	0.399700	0.801600	0.026000
H1231	H123	0.489200	0.847700	0.042600
H1241	H124	0.451300	0.760300	0.904600
H1251	H125	0.376200	0.769500	0.935600
H1261	H126	0.415900	0.702500	0.949700
H1271	H127	0.362800	0.659100	0.737900
H1281	H128	0.373000	0.573400	0.737600
H1291	H129	0.303600	0.659200	0.867300
H1301	H130	0.319600	0.712500	0.818600
H1311	H131	0.181300	0.541400	0.871900
H1321	H132	0.121800	0.519100	0.825400
H1331	H133	0.252400	0.457100	0.743500
H1341	H134	0.164400	0.467500	0.748000
H1351	H135	0.322100	0.526700	0.865400
H1361	H136	0.348900	0.493200	0.815300
H1371	H137	0.224300	0.677000	0.745700
H1381	H138	0.146900	0.602700	0.748900
H1391	H139	0.122000	0.519300	0.680500
H1401	H140	0.103000	0.506400	0.596200
H1411	H141	0.340900	0.608500	0.575100
H1421	H142	0.359300	0.620300	0.659600
H1431	H143	0.462900	0.562800	0.859700
H1441	H144	0.597100	0.628700	0.875900
H1451	H145	0.573300	0.816800	0.802600
H1461	H146	0.440700	0.750300	0.785700
H1471	H147	0.131200	0.718100	0.774300
H1481	H148	0.074700	0.807800	0.808900
H1491	H149	0.114100	0.735900	0.944700
H1501	H150	0.179800	0.653700	0.910600
H1511	H151	0.160300	0.352100	0.770500
H1521	H152	0.096000	0.230000	0.802900
H1531	H153	0.153600	0.316100	0.941300
H1541	H154	0.220200	0.436500	0.908400
H1551	H155	0.312000	0.544700	0.270400
H1561	H156	0.334400	0.433800	0.166300
H1571	H157	0.322800	0.518000	0.174100
H1581	H158	0.260900	0.443400	0.198700
H1591	H159	0.403100	0.380100	0.217000
H1601	H160	0.358100	0.371100	0.269500
H1611	H161	0.449700	0.423200	0.265000
H1621	H162	0.425800	0.600500	0.478300
H1631	H163	0.537100	0.745100	0.538200
H1641	H164	0.600300	0.698400	0.526000
H1651	H165	0.510800	0.652300	0.542600
H1661	H166	0.548700	0.739700	0.404600
H1671	H167	0.623800	0.730500	0.435600
H1681	H168	0.584100	0.797500	0.449700
C11	C1	0.252800	0.072500	0.764000
C21	C2	0.341100	0.106000	0.748500
C31	C3	0.349400	0.108800	0.691500
C41	C4	0.298600	0.158400	0.669300
C51	C5	0.209100	0.126000	0.683700
C61	C6	0.178700	0.041600	0.664800
C71	C7	0.228200	0.990700	0.685600
C81	C8	0.221300	0.990200	0.742400
C91	C9	0.316900	0.025900	0.671200
C101	C10	0.203800	0.123500	0.741100
C111	C11	0.242800	0.069700	0.820100
C121	C12	0.167000	0.037100	0.840900
C131	C13	0.155300	0.030200	0.891100
C141	C14	0.219900	0.057700	0.924200
C151	C15	0.295900	0.090400	0.903500
C161	C16	0.307000	0.096900	0.853100
C171	C17	0.211600	0.048300	0.978100
C181	C18	0.436500	0.148300	0.678200
C191	C19	0.484700	0.114400	0.652200
C201	C20	0.565400	0.153800	0.642500
C211	C21	0.599100	0.228000	0.659200
C221	C22	0.551200	0.265000	0.686000
C231	C23	0.472300	0.225500	0.695600
C241	C24	0.684600	0.269500	0.654000
C251	C25	0.163100	0.177100	0.661800
C261	C26	0.129500	0.222400	0.690600
C271	C27	0.093300	0.274300	0.670000
C281	C28	0.083900	0.277900	0.619600
C291	C29	0.117800	0.232900	0.590300
C301	C30	0.156900	0.183600	0.610700
C311	C31	0.041500	0.332000	0.600500
C321	C32	0.192700	0.908100	0.664500
C331	C33	0.157800	0.845200	0.694500
C341	C34	0.119200	0.772200	0.675400
C351	C35	0.114600	0.761200	0.623700
C361	C36	0.153800	0.823300	0.593600
C371	C37	0.193000	0.895400	0.613100
C381	C38	0.067500	0.685300	0.605500
C391	C39	0.356100	0.024600	0.224100
C401	C40	0.317000	0.967000	0.310300
C411	C41	0.398000	0.907000	0.252000
C421	C42	0.455200	0.137700	0.044900
C431	C43	0.543700	0.197200	0.976000
C441	C44	0.573300	0.244000	0.062400
C451	C45	0.085400	0.230500	0.275100
C461	C46	0.101000	0.300000	0.249200
C471	C47	0.090000	0.363000	0.210000
C481	C48	0.093000	0.381000	0.163000
C491	C49	0.060000	0.157000	0.252500
C501	C50	0.063100	0.085300	0.226800
C511	C51	0.064000	0.000000	0.303200
C521	C52	0.061000	0.143000	0.314000
C531	C53	0.747200	0.427500	0.264000
C541	C54	0.658900	0.394000	0.248500
C551	C55	0.650600	0.391200	0.191500
C561	C56	0.701400	0.341600	0.169300
C571	C57	0.790900	0.374000	0.183700
C581	C58	0.821300	0.458400	0.164800
C591	C59	0.771800	0.509300	0.185600
C601	C60	0.778700	0.509800	0.242400
C611	C61	0.683100	0.474100	0.171200
C621	C62	0.796200	0.376500	0.241100
C631	C63	0.757200	0.430300	0.320100
C641	C64	0.833000	0.462900	0.340900
C651	C65	0.844700	0.469800	0.391100
C661	C66	0.780100	0.442300	0.424200
C671	C67	0.704100	0.409600	0.403500
C681	C68	0.693000	0.403100	0.353100
C691	C69	0.788400	0.451700	0.478100
C701	C70	0.563500	0.351700	0.178200
C711	C71	0.515300	0.385600	0.152200
C721	C72	0.434600	0.346200	0.142500
C731	C73	0.400900	0.272000	0.159200
C741	C74	0.448800	0.235000	0.186000
C751	C75	0.527700	0.274500	0.195600
C761	C76	0.315400	0.230500	0.154000
C771	C77	0.836900	0.322900	0.161800
C781	C78	0.870500	0.277600	0.190600
C791	C79	0.906700	0.225700	0.170000
C801	C80	0.916100	0.222100	0.119600
C811	C81	0.882200	0.267100	0.090300
C821	C82	0.843100	0.316400	0.110700
C831	C83	0.958500	0.168000	0.100500
C841	C84	0.807300	0.591900	0.164500
C851	C85	0.842200	0.654800	0.194500
C861	C86	0.880800	0.727800	0.175400
C871	C87	0.885400	0.738800	0.123700
C881	C88	0.846200	0.676700	0.093600
C891	C89	0.807000	0.604600	0.113100
C901	C90	0.932500	0.814700	0.105500
C911	C91	0.643900	0.475400	0.724100
C921	C92	0.683000	0.533000	0.810300
C931	C93	0.602000	0.593000	0.752000
C941	C94	0.544800	0.362300	0.544900
C951	C95	0.456300	0.302800	0.476000
C961	C96	0.426700	0.256000	0.562400
C971	C97	0.914600	0.269500	0.775100
C981	C98	0.899000	0.200000	0.749200
C991	C99	0.910000	0.137000	0.710000
C1001	C100	0.907000	0.119000	0.663000
C1011	C101	0.940000	0.343000	0.752500
C1021	C102	0.936900	0.414700	0.726800
C1031	C103	0.936000	0.500000	0.803200
C1041	C104	0.939000	0.357000	0.814000
C1051	C105	0.747200	0.927500	0.236000
C1061	C106	0.658900	0.894000	0.251500
C1071	C107	0.650600	0.891200	0.308500
C1081	C108	0.701400	0.841600	0.330700
C1091	C109	0.790900	0.874000	0.316300
C1101	C110	0.821300	0.958400	0.335200
C1111	C111	0.771800	0.009300	0.314400
C1121	C112	0.778700	0.009800	0.257600
C1131	C113	0.683100	0.974100	0.328800
C1141	C114	0.796200	0.876500	0.258900
C1151	C115	0.757200	0.930300	0.179900
C1161	C116	0.833000	0.962900	0.159100
C1171	C117	0.844700	0.969800	0.108900
C1181	C118	0.780100	0.942300	0.075800
C1191	C119	0.704100	0.909600	0.096500
C1201	C120	0.693000	0.903100	0.146900
C1211	C121	0.788400	0.951700	0.021900
C1221	C122	0.563500	0.851700	0.321800
C1231	C123	0.515300	0.885600	0.347800
C1241	C124	0.434600	0.846200	0.357500
C1251	C125	0.400900	0.772000	0.340800
C1261	C126	0.448800	0.735000	0.314000
C1271	C127	0.527700	0.774500	0.304400
C1281	C128	0.315400	0.730500	0.346000
C1291	C129	0.836900	0.822900	0.338200
C1301	C130	0.870500	0.777600	0.309400
C1311	C131	0.906700	0.725700	0.330000
C1321	C132	0.916100	0.722100	0.380400
C1331	C133	0.882200	0.767100	0.409700
C1341	C134	0.843100	0.816400	0.389300
C1351	C135	0.958500	0.668000	0.399500
C1361	C136	0.807300	0.091900	0.335500
C1371	C137	0.842200	0.154800	0.305500
C1381	C138	0.880800	0.227800	0.324600
C1391	C139	0.885400	0.238800	0.376300
C1401	C140	0.846200	0.176700	0.406400
C1411	C141	0.807000	0.104600	0.386900
C1421	C142	0.932500	0.314700	0.394500
C1431	C143	0.643900	0.975400	0.775900
C1441	C144	0.683000	0.033000	0.689700
C1451	C145	0.602000	0.093000	0.748000
C1461	C146	0.544800	0.862300	0.955100
C1471	C147	0.456300	0.802800	0.024000
C1481	C148	0.426700	0.756000	0.937600
C1491	C149	0.914600	0.769500	0.724900
C1501	C150	0.899000	0.700000	0.750800
C1511	C151	0.910000	0.637000	0.790000
C1521	C152	0.907000	0.619000	0.837000
C1531	C153	0.940000	0.843000	0.747500
C1541	C154	0.936900	0.914700	0.773200
C1551	C155	0.936000	0.000000	0.696800
C1561	C156	0.939000	0.857000	0.686000
C1571	C157	0.252800	0.572500	0.736000
C1581	C158	0.341100	0.606000	0.751500
C1591	C159	0.349400	0.608800	0.808500
C1601	C160	0.298600	0.658400	0.830700
C1611	C161	0.209100	0.626000	0.816300
C1621	C162	0.178700	0.541600	0.835200
C1631	C163	0.228200	0.490700	0.814400
C1641	C164	0.221300	0.490200	0.757600
C1651	C165	0.316900	0.525900	0.828800
C1661	C166	0.203800	0.623500	0.758900
C1671	C167	0.242800	0.569700	0.679900
C1681	C168	0.167000	0.537100	0.659100
C1691	C169	0.155300	0.530200	0.608900
C1701	C170	0.219900	0.557700	0.575800
C1711	C171	0.295900	0.590400	0.596500
C1721	C172	0.307000	0.596900	0.646900
C1731	C173	0.211600	0.548300	0.521900
C1741	C174	0.436500	0.648300	0.821800
C1751	C175	0.484700	0.614400	0.847800
C1761	C176	0.565400	0.653800	0.857500
C1771	C177	0.599100	0.728000	0.840800
C1781	C178	0.551200	0.765000	0.814000
C1791	C179	0.472300	0.725500	0.804400
C1801	C180	0.684600	0.769500	0.846000
C1811	C181	0.163100	0.677100	0.838200
C1821	C182	0.129500	0.722400	0.809400
C1831	C183	0.093300	0.774300	0.830000
C1841	C184	0.083900	0.777900	0.880400
C1851	C185	0.117800	0.732900	0.909700
C1861	C186	0.156900	0.683600	0.889300
C1871	C187	0.041500	0.832000	0.899500
C1881	C188	0.192700	0.408100	0.835500
C1891	C189	0.157800	0.345200	0.805500
C1901	C190	0.119200	0.272200	0.824600
C1911	C191	0.114600	0.261200	0.876300
C1921	C192	0.153800	0.323300	0.906400
C1931	C193	0.193000	0.395400	0.886900
C1941	C194	0.067500	0.185300	0.894500
C1951	C195	0.356100	0.524600	0.275900
C1961	C196	0.317000	0.467000	0.189700
C1971	C197	0.398000	0.407000	0.248000
C1981	C198	0.455200	0.637700	0.455100
C1991	C199	0.543700	0.697200	0.524000
C2001	C200	0.573300	0.744000	0.437600
C2011	C201	0.085400	0.730500	0.224900
C2021	C202	0.101000	0.800000	0.250800
C2031	C203	0.090000	0.863000	0.290000
C2041	C204	0.093000	0.881000	0.337000
C2051	C205	0.060000	0.657000	0.247500
C2061	C206	0.063100	0.585300	0.273200
C2071	C207	0.064000	0.500000	0.196800
C2081	C208	0.061000	0.643000	0.186000
N11	N1	0.143700	0.032400	0.005740
N21	N2	0.169500	0.032600	0.052610
N31	N3	0.248200	0.048900	0.053000
N41	N4	0.276500	0.059700	0.007260
N51	N5	0.715900	0.345000	0.646600
N61	N6	0.796100	0.358800	0.646900
N71	N7	0.811400	0.290300	0.652500
N81	N8	0.742600	0.235600	0.658300
N91	N9	0.994900	0.360300	0.629300
N101	N10	0.967400	0.405700	0.599300
N111	N11	0.996400	0.404800	0.555200
N121	N12	0.044800	0.358600	0.553500
N131	N13	0.070200	0.658300	0.559300
N141	N14	0.013700	0.588800	0.559900
N151	N15	0.979700	0.576600	0.604200
N161	N16	0.012000	0.636200	0.633600
N171	N17	0.369300	0.978700	0.263800
N181	N18	0.518300	0.190700	0.028000
N191	N19	0.052400	0.074200	0.278400
N201	N20	0.856300	0.467600	0.505740
N211	N21	0.830500	0.467400	0.552610
N221	N22	0.751800	0.451100	0.553000
N231	N23	0.723500	0.440300	0.507260
N241	N24	0.284100	0.155000	0.146600
N251	N25	0.203900	0.141200	0.146900
N261	N26	0.188600	0.209700	0.152500
N271	N27	0.257400	0.264400	0.158300
N281	N28	0.005100	0.139700	0.129300
N291	N29	0.032600	0.094300	0.099300
N301	N30	0.003600	0.095200	0.055200
N311	N31	0.955200	0.141400	0.053500
N321	N32	0.929800	0.841700	0.059300
N331	N33	0.986300	0.911200	0.059900
N341	N34	0.020300	0.923400	0.104200
N351	N35	0.988000	0.863800	0.133600
N361	N36	0.630700	0.521300	0.763800
N371	N37	0.481700	0.309300	0.528000
N381	N38	0.947600	0.425800	0.778400
N391	N39	0.856300	0.967600	0.994260
N401	N40	0.830500	0.967400	0.947390
N411	N41	0.751800	0.951100	0.947000
N421	N42	0.723500	0.940300	0.992740
N431	N43	0.284100	0.655000	0.353400
N441	N44	0.203900	0.641200	0.353100
N451	N45	0.188600	0.709700	0.347500
N461	N46	0.257400	0.764400	0.341700
N471	N47	0.005100	0.639700	0.370700
N481	N48	0.032600	0.594300	0.400700
N491	N49	0.003600	0.595200	0.444800
N501	N50	0.955200	0.641400	0.446500
N511	N51	0.929800	0.341700	0.440700
N521	N52	0.986300	0.411200	0.440100
N531	N53	0.020300	0.423400	0.395800
N541	N54	0.988000	0.363800	0.366400
N551	N55	0.630700	0.021300	0.736200
N561	N56	0.481700	0.809300	0.972000
N571	N57	0.947600	0.925800	0.721600
N581	N58	0.143700	0.532400	0.494260
N591	N59	0.169500	0.532600	0.447390
N601	N60	0.248200	0.548900	0.447000
N611	N61	0.276500	0.559700	0.492740
N621	N62	0.715900	0.845000	0.853400
N631	N63	0.796100	0.858800	0.853100
N641	N64	0.811400	0.790300	0.847500
N651	N65	0.742600	0.735600	0.841700
N661	N66	0.994900	0.860300	0.870700
N671	N67	0.967400	0.905700	0.900700
N681	N68	0.996400	0.904800	0.944800
N691	N69	0.044800	0.858600	0.946500
N701	N70	0.070200	0.158300	0.940700
N711	N71	0.013700	0.088800	0.940100
N721	N72	0.979700	0.076600	0.895800
N731	N73	0.012000	0.136200	0.866400
N741	N74	0.369300	0.478700	0.236200
N751	N75	0.518300	0.690700	0.472000
N761	N76	0.052400	0.574200	0.221600
Cl11	Cl1	0.205060	0.957000	0.156540
Cl21	Cl2	0.794940	0.543000	0.656540
Cl31	Cl3	0.794940	0.043000	0.843460
Cl41	Cl4	0.205060	0.457000	0.343460
O11	O1	0.383800	0.040900	0.190700
O21	O2	0.430200	0.131200	0.087720
O31	O3	0.369200	0.958200	0.090400
O41	O4	0.066600	0.031900	0.204200
O51	O5	0.616200	0.459100	0.690700
O61	O6	0.569800	0.368800	0.587720
O71	O7	0.630800	0.541800	0.590400
O81	O8	0.933400	0.468100	0.704200
O91	O9	0.616200	0.959100	0.809300
O101	O10	0.569800	0.868800	0.912280
O111	O11	0.630800	0.041800	0.909600
O121	O12	0.933400	0.968100	0.795800
O131	O13	0.383800	0.540900	0.309300
O141	O14	0.430200	0.631200	0.412280
O151	O15	0.369200	0.458200	0.409600
O161	O16	0.066600	0.531900	0.295800
