data_LEMHAM_freeONLY_PM
_symmetry_space_group_name_H-M	'P1'
_cell_length_a	14.719000
_cell_length_b	14.734000
_cell_length_c	17.891000
_cell_angle_alpha	90.000000
_cell_angle_beta	90.000000
_cell_angle_gamma	90.020000
_symmetry_Int_Tables_number 1

loop_
_symmetry_equiv_pos_as_xyz
'x,y,z'

loop_
_atom_site_label
_atom_site_type_symbol
_atom_site_fract_x
_atom_site_fract_y
_atom_site_fract_z
Co11	Co1	0.994800	0.118600	0.331300
Co21	Co2	0.013200	0.880400	0.172100
Co31	Co3	0.368500	0.254000	0.422300
Co41	Co4	0.870600	0.762400	0.418300
P11	P1	0.147900	0.246000	0.400100
P21	P2	0.003000	0.899200	0.352300
P31	P3	0.988500	0.102200	0.149900
P41	P4	0.850600	0.761200	0.102700
O11	O1	0.985800	0.999200	0.375900
O21	O2	0.904800	0.869100	0.356400
O31	O3	0.750000	0.768900	0.125100
O41	O4	0.112100	0.176200	0.342000
O51	O5	0.144900	0.199600	0.479400
O61	O6	0.056900	0.845400	0.413300
O71	O7	0.950200	0.101500	0.228100
O81	O8	0.901000	0.816100	0.160800
O91	O9	0.012200	0.002800	0.128000
O101	O10	0.247100	0.262100	0.377200
O111	O11	0.880000	0.659200	0.111900
O121	O12	0.869200	0.796300	0.026700
O131	O13	0.916500	0.133200	0.094300
O141	O14	0.095800	0.333400	0.401200
O151	O15	0.074300	0.158400	0.145700
O161	O16	0.047500	0.878800	0.274900
Co51	Co5	0.494800	0.618600	0.831300
Co61	Co6	0.513200	0.380400	0.672100
Co71	Co7	0.868500	0.754000	0.922300
Co81	Co8	0.370600	0.262400	0.918300
P51	P5	0.647900	0.746000	0.900100
P61	P6	0.503000	0.399200	0.852300
P71	P7	0.488500	0.602200	0.649900
P81	P8	0.350600	0.261200	0.602700
O171	O17	0.485800	0.499200	0.875900
O181	O18	0.404800	0.369100	0.856400
O191	O19	0.250000	0.268900	0.625100
O201	O20	0.612100	0.676200	0.842000
O211	O21	0.644900	0.699600	0.979400
O221	O22	0.556900	0.345400	0.913300
O231	O23	0.450200	0.601500	0.728100
O241	O24	0.401000	0.316100	0.660800
O251	O25	0.512200	0.502800	0.628000
O261	O26	0.747100	0.762100	0.877200
O271	O27	0.380000	0.159200	0.611900
O281	O28	0.369200	0.296300	0.526700
O291	O29	0.416500	0.633200	0.594300
O301	O30	0.595800	0.833400	0.901200
O311	O31	0.574300	0.658400	0.645700
O321	O32	0.547500	0.378800	0.774900
Co91	Co9	0.005200	0.381400	0.331300
Co101	Co10	0.986800	0.619600	0.172100
Co111	Co11	0.631500	0.246000	0.422300
Co121	Co12	0.129400	0.737600	0.418300
P91	P9	0.852100	0.254000	0.400100
P101	P10	0.997000	0.600800	0.352300
P111	P11	0.011500	0.397800	0.149900
P121	P12	0.149400	0.738800	0.102700
O331	O33	0.014200	0.500800	0.375900
O341	O34	0.095200	0.630900	0.356400
O351	O35	0.250000	0.731100	0.125100
O361	O36	0.887900	0.323800	0.342000
O371	O37	0.855100	0.300400	0.479400
O381	O38	0.943100	0.654600	0.413300
O391	O39	0.049800	0.398500	0.228100
O401	O40	0.099000	0.683900	0.160800
O411	O41	0.987800	0.497200	0.128000
O421	O42	0.752900	0.237900	0.377200
O431	O43	0.120000	0.840800	0.111900
O441	O44	0.130800	0.703700	0.026700
O451	O45	0.083500	0.366800	0.094300
O461	O46	0.904200	0.166600	0.401200
O471	O47	0.925700	0.341600	0.145700
O481	O48	0.952500	0.621200	0.274900
Co131	Co13	0.505200	0.881400	0.831300
Co141	Co14	0.486800	0.119600	0.672100
Co151	Co15	0.131500	0.746000	0.922300
Co161	Co16	0.629400	0.237600	0.918300
P131	P13	0.352100	0.754000	0.900100
P141	P14	0.497000	0.100800	0.852300
P151	P15	0.511500	0.897800	0.649900
P161	P16	0.649400	0.238800	0.602700
O491	O49	0.514200	0.000800	0.875900
O501	O50	0.595200	0.130900	0.856400
O511	O51	0.750000	0.231100	0.625100
O521	O52	0.387900	0.823800	0.842000
O531	O53	0.355100	0.800400	0.979400
O541	O54	0.443100	0.154600	0.913300
O551	O55	0.549800	0.898500	0.728100
O561	O56	0.599000	0.183900	0.660800
O571	O57	0.487800	0.997200	0.628000
O581	O58	0.252900	0.737900	0.877200
O591	O59	0.620000	0.340800	0.611900
O601	O60	0.630800	0.203700	0.526700
O611	O61	0.583500	0.866800	0.594300
O621	O62	0.404200	0.666600	0.901200
O631	O63	0.425700	0.841600	0.645700
O641	O64	0.452500	0.121200	0.774900
Co171	Co17	0.005200	0.881400	0.668700
Co181	Co18	0.986800	0.119600	0.827900
Co191	Co19	0.631500	0.746000	0.577700
Co201	Co20	0.129400	0.237600	0.581700
P171	P17	0.852100	0.754000	0.599900
P181	P18	0.997000	0.100800	0.647700
P191	P19	0.011500	0.897800	0.850100
P201	P20	0.149400	0.238800	0.897300
O651	O65	0.014200	0.000800	0.624100
O661	O66	0.095200	0.130900	0.643600
O671	O67	0.250000	0.231100	0.874900
O681	O68	0.887900	0.823800	0.658000
O691	O69	0.855100	0.800400	0.520600
O701	O70	0.943100	0.154600	0.586700
O711	O71	0.049800	0.898500	0.771900
O721	O72	0.099000	0.183900	0.839200
O731	O73	0.987800	0.997200	0.872000
O741	O74	0.752900	0.737900	0.622800
O751	O75	0.120000	0.340800	0.888100
O761	O76	0.130800	0.203700	0.973300
O771	O77	0.083500	0.866800	0.905700
O781	O78	0.904200	0.666600	0.598800
O791	O79	0.925700	0.841600	0.854300
O801	O80	0.952500	0.121200	0.725100
Co211	Co21	0.505200	0.381400	0.168700
Co221	Co22	0.486800	0.619600	0.327900
Co231	Co23	0.131500	0.246000	0.077700
Co241	Co24	0.629400	0.737600	0.081700
P211	P21	0.352100	0.254000	0.099900
P221	P22	0.497000	0.600800	0.147700
P231	P23	0.511500	0.397800	0.350100
P241	P24	0.649400	0.738800	0.397300
O811	O81	0.514200	0.500800	0.124100
O821	O82	0.595200	0.630900	0.143600
O831	O83	0.750000	0.731100	0.374900
O841	O84	0.387900	0.323800	0.158000
O851	O85	0.355100	0.300400	0.020600
O861	O86	0.443100	0.654600	0.086700
O871	O87	0.549800	0.398500	0.271900
O881	O88	0.599000	0.683900	0.339200
O891	O89	0.487800	0.497200	0.372000
O901	O90	0.252900	0.237900	0.122800
O911	O91	0.620000	0.840800	0.388100
O921	O92	0.630800	0.703700	0.473300
O931	O93	0.583500	0.366800	0.405700
O941	O94	0.404200	0.166600	0.098800
O951	O95	0.425700	0.341600	0.354300
O961	O96	0.452500	0.621200	0.225100
Co251	Co25	0.994800	0.618600	0.668700
Co261	Co26	0.013200	0.380400	0.827900
Co271	Co27	0.368500	0.754000	0.577700
Co281	Co28	0.870600	0.262400	0.581700
P251	P25	0.147900	0.746000	0.599900
P261	P26	0.003000	0.399200	0.647700
P271	P27	0.988500	0.602200	0.850100
P281	P28	0.850600	0.261200	0.897300
O971	O97	0.985800	0.499200	0.624100
O981	O98	0.904800	0.369100	0.643600
O991	O99	0.750000	0.268900	0.874900
O1001	O100	0.112100	0.676200	0.658000
O1011	O101	0.144900	0.699600	0.520600
O1021	O102	0.056900	0.345400	0.586700
O1031	O103	0.950200	0.601500	0.771900
O1041	O104	0.901000	0.316100	0.839200
O1051	O105	0.012200	0.502800	0.872000
O1061	O106	0.247100	0.762100	0.622800
O1071	O107	0.880000	0.159200	0.888100
O1081	O108	0.869200	0.296300	0.973300
O1091	O109	0.916500	0.633200	0.905700
O1101	O110	0.095800	0.833400	0.598800
O1111	O111	0.074300	0.658400	0.854300
O1121	O112	0.047500	0.378800	0.725100
Co291	Co29	0.494800	0.118600	0.168700
Co301	Co30	0.513200	0.880400	0.327900
Co311	Co31	0.868500	0.254000	0.077700
Co321	Co32	0.370600	0.762400	0.081700
P291	P29	0.647900	0.246000	0.099900
P301	P30	0.503000	0.899200	0.147700
P311	P31	0.488500	0.102200	0.350100
P321	P32	0.350600	0.761200	0.397300
O1131	O113	0.485800	0.999200	0.124100
O1141	O114	0.404800	0.869100	0.143600
O1151	O115	0.250000	0.768900	0.374900
O1161	O116	0.612100	0.176200	0.158000
O1171	O117	0.644900	0.199600	0.020600
O1181	O118	0.556900	0.845400	0.086700
O1191	O119	0.450200	0.101500	0.271900
O1201	O120	0.401000	0.816100	0.339200
O1211	O121	0.512200	0.002800	0.372000
O1221	O122	0.747100	0.262100	0.122800
O1231	O123	0.380000	0.659200	0.388100
O1241	O124	0.369200	0.796300	0.473300
O1251	O125	0.416500	0.133200	0.405700
O1261	O126	0.595800	0.333400	0.098800
O1271	O127	0.574300	0.158400	0.354300
O1281	O128	0.547500	0.878800	0.225100
