data_LEMMAS_freeONLY_PM
_symmetry_space_group_name_H-M	'P1'
_cell_length_a	11.924200
_cell_length_b	17.587000
_cell_length_c	15.436000
_cell_angle_alpha	90.000000
_cell_angle_beta	101.754000
_cell_angle_gamma	90.000000
_symmetry_Int_Tables_number 1

loop_
_symmetry_equiv_pos_as_xyz
'x,y,z'

loop_
_atom_site_label
_atom_site_type_symbol
_atom_site_fract_x
_atom_site_fract_y
_atom_site_fract_z
S11	S1	0.059260	0.079700	0.125070
S21	S2	0.116600	0.124920	0.021670
N11	N1	0.680400	0.022790	0.031890
N21	N2	0.036950	0.379190	0.011810
C11	C1	0.741400	0.003990	0.111850
C21	C2	0.855400	0.020170	0.139500
C31	C3	0.912400	0.059200	0.082780
C41	C4	0.851000	0.077530	0.999300
C51	C5	0.737200	0.058040	0.976630
C61	C6	0.078000	0.342720	0.949220
C71	C7	0.101800	0.266190	0.951900
C81	C8	0.082700	0.223650	0.022390
C91	C9	0.039700	0.260170	0.087200
C101	C10	0.018500	0.337130	0.079900
F11	F1	0.493500	0.003180	0.137170
F21	F2	0.399260	0.936040	0.236930
F31	F3	0.399350	0.070680	0.237670
H11	H1	0.702000	0.978400	0.148000
H21	H2	0.894000	0.005900	0.196000
H31	H3	0.883000	0.105800	0.962000
H41	H4	0.698000	0.066700	0.920000
H51	H5	0.090000	0.371000	0.905000
H61	H6	0.134000	0.248900	0.909000
H71	H7	0.019000	0.235000	0.132000
H81	H8	0.991000	0.362200	0.120000
S31	S3	0.559260	0.579700	0.125070
S41	S4	0.616600	0.624920	0.021670
N31	N3	0.180400	0.522790	0.031890
N41	N4	0.536950	0.879190	0.011810
C111	C11	0.241400	0.503990	0.111850
C121	C12	0.355400	0.520170	0.139500
C131	C13	0.412400	0.559200	0.082780
C141	C14	0.351000	0.577530	0.999300
C151	C15	0.237200	0.558040	0.976630
C161	C16	0.578000	0.842720	0.949220
C171	C17	0.601800	0.766190	0.951900
C181	C18	0.582700	0.723650	0.022390
C191	C19	0.539700	0.760170	0.087200
C201	C20	0.518500	0.837130	0.079900
F41	F4	0.993500	0.503180	0.137170
F51	F5	0.899260	0.436040	0.236930
F61	F6	0.899350	0.570680	0.237670
H91	H9	0.202000	0.478400	0.148000
H101	H10	0.394000	0.505900	0.196000
H111	H11	0.383000	0.605800	0.962000
H121	H12	0.198000	0.566700	0.920000
H131	H13	0.590000	0.871000	0.905000
H141	H14	0.634000	0.748900	0.909000
H151	H15	0.519000	0.735000	0.132000
H161	H16	0.491000	0.862200	0.120000
S51	S5	0.940740	0.079700	0.374930
S61	S6	0.883400	0.124920	0.478330
N51	N5	0.319600	0.022790	0.468110
N61	N6	0.963050	0.379190	0.488190
C211	C21	0.258600	0.003990	0.388150
C221	C22	0.144600	0.020170	0.360500
C231	C23	0.087600	0.059200	0.417220
C241	C24	0.149000	0.077530	0.500700
C251	C25	0.262800	0.058040	0.523370
C261	C26	0.922000	0.342720	0.550780
C271	C27	0.898200	0.266190	0.548100
C281	C28	0.917300	0.223650	0.477610
C291	C29	0.960300	0.260170	0.412800
C301	C30	0.981500	0.337130	0.420100
F71	F7	0.506500	0.003180	0.362830
F81	F8	0.600740	0.936040	0.263070
F91	F9	0.600650	0.070680	0.262330
H171	H17	0.298000	0.978400	0.352000
H181	H18	0.106000	0.005900	0.304000
H191	H19	0.117000	0.105800	0.538000
H201	H20	0.302000	0.066700	0.580000
H211	H21	0.910000	0.371000	0.595000
H221	H22	0.866000	0.248900	0.591000
H231	H23	0.981000	0.235000	0.368000
H241	H24	0.009000	0.362200	0.380000
S71	S7	0.440740	0.579700	0.374930
S81	S8	0.383400	0.624920	0.478330
N71	N7	0.819600	0.522790	0.468110
N81	N8	0.463050	0.879190	0.488190
C311	C31	0.758600	0.503990	0.388150
C321	C32	0.644600	0.520170	0.360500
C331	C33	0.587600	0.559200	0.417220
C341	C34	0.649000	0.577530	0.500700
C351	C35	0.762800	0.558040	0.523370
C361	C36	0.422000	0.842720	0.550780
C371	C37	0.398200	0.766190	0.548100
C381	C38	0.417300	0.723650	0.477610
C391	C39	0.460300	0.760170	0.412800
C401	C40	0.481500	0.837130	0.420100
F101	F10	0.006500	0.503180	0.362830
F111	F11	0.100740	0.436040	0.263070
F121	F12	0.100650	0.570680	0.262330
H251	H25	0.798000	0.478400	0.352000
H261	H26	0.606000	0.505900	0.304000
H271	H27	0.617000	0.605800	0.538000
H281	H28	0.802000	0.566700	0.580000
H291	H29	0.410000	0.871000	0.595000
H301	H30	0.366000	0.748900	0.591000
H311	H31	0.481000	0.735000	0.368000
H321	H32	0.509000	0.862200	0.380000
S91	S9	0.940740	0.920300	0.874930
S101	S10	0.883400	0.875080	0.978330
N91	N9	0.319600	0.977210	0.968110
N101	N10	0.963050	0.620810	0.988190
C411	C41	0.258600	0.996010	0.888150
C421	C42	0.144600	0.979830	0.860500
C431	C43	0.087600	0.940800	0.917220
C441	C44	0.149000	0.922470	0.000700
C451	C45	0.262800	0.941960	0.023370
C461	C46	0.922000	0.657280	0.050780
C471	C47	0.898200	0.733810	0.048100
C481	C48	0.917300	0.776350	0.977610
C491	C49	0.960300	0.739830	0.912800
C501	C50	0.981500	0.662870	0.920100
F131	F13	0.506500	0.996820	0.862830
F141	F14	0.600740	0.063960	0.763070
F151	F15	0.600650	0.929320	0.762330
H331	H33	0.298000	0.021600	0.852000
H341	H34	0.106000	0.994100	0.804000
H351	H35	0.117000	0.894200	0.038000
H361	H36	0.302000	0.933300	0.080000
H371	H37	0.910000	0.629000	0.095000
H381	H38	0.866000	0.751100	0.091000
H391	H39	0.981000	0.765000	0.868000
H401	H40	0.009000	0.637800	0.880000
S111	S11	0.440740	0.420300	0.874930
S121	S12	0.383400	0.375080	0.978330
N111	N11	0.819600	0.477210	0.968110
N121	N12	0.463050	0.120810	0.988190
C511	C51	0.758600	0.496010	0.888150
C521	C52	0.644600	0.479830	0.860500
C531	C53	0.587600	0.440800	0.917220
C541	C54	0.649000	0.422470	0.000700
C551	C55	0.762800	0.441960	0.023370
C561	C56	0.422000	0.157280	0.050780
C571	C57	0.398200	0.233810	0.048100
C581	C58	0.417300	0.276350	0.977610
C591	C59	0.460300	0.239830	0.912800
C601	C60	0.481500	0.162870	0.920100
F161	F16	0.006500	0.496820	0.862830
F171	F17	0.100740	0.563960	0.763070
F181	F18	0.100650	0.429320	0.762330
H411	H41	0.798000	0.521600	0.852000
H421	H42	0.606000	0.494100	0.804000
H431	H43	0.617000	0.394200	0.038000
H441	H44	0.802000	0.433300	0.080000
H451	H45	0.410000	0.129000	0.095000
H461	H46	0.366000	0.251100	0.091000
H471	H47	0.481000	0.265000	0.868000
H481	H48	0.509000	0.137800	0.880000
S131	S13	0.059260	0.920300	0.625070
S141	S14	0.116600	0.875080	0.521670
N131	N13	0.680400	0.977210	0.531890
N141	N14	0.036950	0.620810	0.511810
C611	C61	0.741400	0.996010	0.611850
C621	C62	0.855400	0.979830	0.639500
C631	C63	0.912400	0.940800	0.582780
C641	C64	0.851000	0.922470	0.499300
C651	C65	0.737200	0.941960	0.476630
C661	C66	0.078000	0.657280	0.449220
C671	C67	0.101800	0.733810	0.451900
C681	C68	0.082700	0.776350	0.522390
C691	C69	0.039700	0.739830	0.587200
C701	C70	0.018500	0.662870	0.579900
F191	F19	0.493500	0.996820	0.637170
F201	F20	0.399260	0.063960	0.736930
F211	F21	0.399350	0.929320	0.737670
H491	H49	0.702000	0.021600	0.648000
H501	H50	0.894000	0.994100	0.696000
H511	H51	0.883000	0.894200	0.462000
H521	H52	0.698000	0.933300	0.420000
H531	H53	0.090000	0.629000	0.405000
H541	H54	0.134000	0.751100	0.409000
H551	H55	0.019000	0.765000	0.632000
H561	H56	0.991000	0.637800	0.620000
S151	S15	0.559260	0.420300	0.625070
S161	S16	0.616600	0.375080	0.521670
N151	N15	0.180400	0.477210	0.531890
N161	N16	0.536950	0.120810	0.511810
C711	C71	0.241400	0.496010	0.611850
C721	C72	0.355400	0.479830	0.639500
C731	C73	0.412400	0.440800	0.582780
C741	C74	0.351000	0.422470	0.499300
C751	C75	0.237200	0.441960	0.476630
C761	C76	0.578000	0.157280	0.449220
C771	C77	0.601800	0.233810	0.451900
C781	C78	0.582700	0.276350	0.522390
C791	C79	0.539700	0.239830	0.587200
C801	C80	0.518500	0.162870	0.579900
F221	F22	0.993500	0.496820	0.637170
F231	F23	0.899260	0.563960	0.736930
F241	F24	0.899350	0.429320	0.737670
H571	H57	0.202000	0.521600	0.648000
H581	H58	0.394000	0.494100	0.696000
H591	H59	0.383000	0.394200	0.462000
H601	H60	0.198000	0.433300	0.420000
H611	H61	0.590000	0.129000	0.405000
H621	H62	0.634000	0.251100	0.409000
H631	H63	0.519000	0.265000	0.632000
H641	H64	0.491000	0.137800	0.620000
Zn11	Zn1	0.500000	0.000000	0.000000
Zn21	Zn2	0.000000	0.500000	0.000000
Zn31	Zn3	0.500000	0.000000	0.500000
Zn41	Zn4	0.000000	0.500000	0.500000
Si11	Si1	0.500000	0.003540	0.250000
Si21	Si2	0.000000	0.503540	0.250000
Si31	Si3	0.500000	0.996460	0.750000
Si41	Si4	0.000000	0.496460	0.750000
