data_LEQVUZ_freeONLY_PM
_symmetry_space_group_name_H-M	'P1'
_cell_length_a	23.162000
_cell_length_b	23.162000
_cell_length_c	23.162000
_cell_angle_alpha	90.000000
_cell_angle_beta	90.000000
_cell_angle_gamma	90.000000
_symmetry_Int_Tables_number 1

loop_
_symmetry_equiv_pos_as_xyz
'x,y,z'

loop_
_atom_site_label
_atom_site_type_symbol
_atom_site_fract_x
_atom_site_fract_y
_atom_site_fract_z
N11	N1	0.323000	0.349170	0.220390
O11	O1	0.323560	0.290860	0.223600
C11	C1	0.288100	0.375700	0.183300
H11	H1	0.264000	0.355000	0.158800
C21	C2	0.289200	0.436820	0.182600
H21	H2	0.262800	0.456300	0.159500
C31	C3	0.327900	0.468530	0.214800
C41	C4	0.365540	0.435550	0.250800
H31	H3	0.392900	0.454600	0.273100
C51	C5	0.362470	0.378420	0.253090
H41	H4	0.387400	0.358100	0.277200
N21	N2	0.823000	0.849170	0.720390
O21	O2	0.823560	0.790860	0.723600
C61	C6	0.788100	0.875700	0.683300
H51	H5	0.764000	0.855000	0.658800
C71	C7	0.789200	0.936820	0.682600
H61	H6	0.762800	0.956300	0.659500
C81	C8	0.827900	0.968530	0.714800
C91	C9	0.865540	0.935550	0.750800
H71	H7	0.892900	0.954600	0.773100
C101	C10	0.862470	0.878420	0.753090
H81	H8	0.887400	0.858100	0.777200
N31	N3	0.677000	0.650830	0.220390
O31	O3	0.676440	0.709140	0.223600
C111	C11	0.711900	0.624300	0.183300
H91	H9	0.736000	0.645000	0.158800
C121	C12	0.710800	0.563180	0.182600
H101	H10	0.737200	0.543700	0.159500
C131	C13	0.672100	0.531470	0.214800
C141	C14	0.634460	0.564450	0.250800
H111	H11	0.607100	0.545400	0.273100
C151	C15	0.637530	0.621580	0.253090
H121	H12	0.612600	0.641900	0.277200
N41	N4	0.177000	0.150830	0.720390
O41	O4	0.176440	0.209140	0.723600
C161	C16	0.211900	0.124300	0.683300
H131	H13	0.236000	0.145000	0.658800
C171	C17	0.210800	0.063180	0.682600
H141	H14	0.237200	0.043700	0.659500
C181	C18	0.172100	0.031470	0.714800
C191	C19	0.134460	0.064450	0.750800
H151	H15	0.107100	0.045400	0.773100
C201	C20	0.137530	0.121580	0.753090
H161	H16	0.112600	0.141900	0.777200
N51	N5	0.677000	0.349170	0.779610
O51	O5	0.676440	0.290860	0.776400
C211	C21	0.711900	0.375700	0.816700
H171	H17	0.736000	0.355000	0.841200
C221	C22	0.710800	0.436820	0.817400
H181	H18	0.737200	0.456300	0.840500
C231	C23	0.672100	0.468530	0.785200
C241	C24	0.634460	0.435550	0.749200
H191	H19	0.607100	0.454600	0.726900
C251	C25	0.637530	0.378420	0.746910
H201	H20	0.612600	0.358100	0.722800
N61	N6	0.177000	0.849170	0.279610
O61	O6	0.176440	0.790860	0.276400
C261	C26	0.211900	0.875700	0.316700
H211	H21	0.236000	0.855000	0.341200
C271	C27	0.210800	0.936820	0.317400
H221	H22	0.237200	0.956300	0.340500
C281	C28	0.172100	0.968530	0.285200
C291	C29	0.134460	0.935550	0.249200
H231	H23	0.107100	0.954600	0.226900
C301	C30	0.137530	0.878420	0.246910
H241	H24	0.112600	0.858100	0.222800
N71	N7	0.323000	0.650830	0.779610
O71	O7	0.323560	0.709140	0.776400
C311	C31	0.288100	0.624300	0.816700
H251	H25	0.264000	0.645000	0.841200
C321	C32	0.289200	0.563180	0.817400
H261	H26	0.262800	0.543700	0.840500
C331	C33	0.327900	0.531470	0.785200
C341	C34	0.365540	0.564450	0.749200
H271	H27	0.392900	0.545400	0.726900
C351	C35	0.362470	0.621580	0.746910
H281	H28	0.387400	0.641900	0.722800
N81	N8	0.823000	0.150830	0.279610
O81	O8	0.823560	0.209140	0.276400
C361	C36	0.788100	0.124300	0.316700
H291	H29	0.764000	0.145000	0.341200
C371	C37	0.789200	0.063180	0.317400
H301	H30	0.762800	0.043700	0.340500
C381	C38	0.827900	0.031470	0.285200
C391	C39	0.865540	0.064450	0.249200
H311	H31	0.892900	0.045400	0.226900
C401	C40	0.862470	0.121580	0.246910
H321	H32	0.887400	0.141900	0.222800
N91	N9	0.220390	0.323000	0.349170
O91	O9	0.223600	0.323560	0.290860
C411	C41	0.183300	0.288100	0.375700
H331	H33	0.158800	0.264000	0.355000
C421	C42	0.182600	0.289200	0.436820
H341	H34	0.159500	0.262800	0.456300
C431	C43	0.214800	0.327900	0.468530
C441	C44	0.250800	0.365540	0.435550
H351	H35	0.273100	0.392900	0.454600
C451	C45	0.253090	0.362470	0.378420
H361	H36	0.277200	0.387400	0.358100
N101	N10	0.720390	0.823000	0.849170
O101	O10	0.723600	0.823560	0.790860
C461	C46	0.683300	0.788100	0.875700
H371	H37	0.658800	0.764000	0.855000
C471	C47	0.682600	0.789200	0.936820
H381	H38	0.659500	0.762800	0.956300
C481	C48	0.714800	0.827900	0.968530
C491	C49	0.750800	0.865540	0.935550
H391	H39	0.773100	0.892900	0.954600
C501	C50	0.753090	0.862470	0.878420
H401	H40	0.777200	0.887400	0.858100
N111	N11	0.220390	0.677000	0.650830
O111	O11	0.223600	0.676440	0.709140
C511	C51	0.183300	0.711900	0.624300
H411	H41	0.158800	0.736000	0.645000
C521	C52	0.182600	0.710800	0.563180
H421	H42	0.159500	0.737200	0.543700
C531	C53	0.214800	0.672100	0.531470
C541	C54	0.250800	0.634460	0.564450
H431	H43	0.273100	0.607100	0.545400
C551	C55	0.253090	0.637530	0.621580
H441	H44	0.277200	0.612600	0.641900
N121	N12	0.720390	0.177000	0.150830
O121	O12	0.723600	0.176440	0.209140
C561	C56	0.683300	0.211900	0.124300
H451	H45	0.658800	0.236000	0.145000
C571	C57	0.682600	0.210800	0.063180
H461	H46	0.659500	0.237200	0.043700
C581	C58	0.714800	0.172100	0.031470
C591	C59	0.750800	0.134460	0.064450
H471	H47	0.773100	0.107100	0.045400
C601	C60	0.753090	0.137530	0.121580
H481	H48	0.777200	0.112600	0.141900
N131	N13	0.779610	0.677000	0.349170
O131	O13	0.776400	0.676440	0.290860
C611	C61	0.816700	0.711900	0.375700
H491	H49	0.841200	0.736000	0.355000
C621	C62	0.817400	0.710800	0.436820
H501	H50	0.840500	0.737200	0.456300
C631	C63	0.785200	0.672100	0.468530
C641	C64	0.749200	0.634460	0.435550
H511	H51	0.726900	0.607100	0.454600
C651	C65	0.746910	0.637530	0.378420
H521	H52	0.722800	0.612600	0.358100
N141	N14	0.279610	0.177000	0.849170
O141	O14	0.276400	0.176440	0.790860
C661	C66	0.316700	0.211900	0.875700
H531	H53	0.341200	0.236000	0.855000
C671	C67	0.317400	0.210800	0.936820
H541	H54	0.340500	0.237200	0.956300
C681	C68	0.285200	0.172100	0.968530
C691	C69	0.249200	0.134460	0.935550
H551	H55	0.226900	0.107100	0.954600
C701	C70	0.246910	0.137530	0.878420
H561	H56	0.222800	0.112600	0.858100
N151	N15	0.779610	0.323000	0.650830
O151	O15	0.776400	0.323560	0.709140
C711	C71	0.816700	0.288100	0.624300
H571	H57	0.841200	0.264000	0.645000
C721	C72	0.817400	0.289200	0.563180
H581	H58	0.840500	0.262800	0.543700
C731	C73	0.785200	0.327900	0.531470
C741	C74	0.749200	0.365540	0.564450
H591	H59	0.726900	0.392900	0.545400
C751	C75	0.746910	0.362470	0.621580
H601	H60	0.722800	0.387400	0.641900
N161	N16	0.279610	0.823000	0.150830
O161	O16	0.276400	0.823560	0.209140
C761	C76	0.316700	0.788100	0.124300
H611	H61	0.341200	0.764000	0.145000
C771	C77	0.317400	0.789200	0.063180
H621	H62	0.340500	0.762800	0.043700
C781	C78	0.285200	0.827900	0.031470
C791	C79	0.249200	0.865540	0.064450
H631	H63	0.226900	0.892900	0.045400
C801	C80	0.246910	0.862470	0.121580
H641	H64	0.222800	0.887400	0.141900
N171	N17	0.349170	0.220390	0.323000
O171	O17	0.290860	0.223600	0.323560
C811	C81	0.375700	0.183300	0.288100
H651	H65	0.355000	0.158800	0.264000
C821	C82	0.436820	0.182600	0.289200
H661	H66	0.456300	0.159500	0.262800
C831	C83	0.468530	0.214800	0.327900
C841	C84	0.435550	0.250800	0.365540
H671	H67	0.454600	0.273100	0.392900
C851	C85	0.378420	0.253090	0.362470
H681	H68	0.358100	0.277200	0.387400
N181	N18	0.849170	0.720390	0.823000
O181	O18	0.790860	0.723600	0.823560
C861	C86	0.875700	0.683300	0.788100
H691	H69	0.855000	0.658800	0.764000
C871	C87	0.936820	0.682600	0.789200
H701	H70	0.956300	0.659500	0.762800
C881	C88	0.968530	0.714800	0.827900
C891	C89	0.935550	0.750800	0.865540
H711	H71	0.954600	0.773100	0.892900
C901	C90	0.878420	0.753090	0.862470
H721	H72	0.858100	0.777200	0.887400
N191	N19	0.650830	0.220390	0.677000
O191	O19	0.709140	0.223600	0.676440
C911	C91	0.624300	0.183300	0.711900
H731	H73	0.645000	0.158800	0.736000
C921	C92	0.563180	0.182600	0.710800
H741	H74	0.543700	0.159500	0.737200
C931	C93	0.531470	0.214800	0.672100
C941	C94	0.564450	0.250800	0.634460
H751	H75	0.545400	0.273100	0.607100
C951	C95	0.621580	0.253090	0.637530
H761	H76	0.641900	0.277200	0.612600
N201	N20	0.150830	0.720390	0.177000
O201	O20	0.209140	0.723600	0.176440
C961	C96	0.124300	0.683300	0.211900
H771	H77	0.145000	0.658800	0.236000
C971	C97	0.063180	0.682600	0.210800
H781	H78	0.043700	0.659500	0.237200
C981	C98	0.031470	0.714800	0.172100
C991	C99	0.064450	0.750800	0.134460
H791	H79	0.045400	0.773100	0.107100
C1001	C100	0.121580	0.753090	0.137530
H801	H80	0.141900	0.777200	0.112600
N211	N21	0.349170	0.779610	0.677000
O211	O21	0.290860	0.776400	0.676440
C1011	C101	0.375700	0.816700	0.711900
H811	H81	0.355000	0.841200	0.736000
C1021	C102	0.436820	0.817400	0.710800
H821	H82	0.456300	0.840500	0.737200
C1031	C103	0.468530	0.785200	0.672100
C1041	C104	0.435550	0.749200	0.634460
H831	H83	0.454600	0.726900	0.607100
C1051	C105	0.378420	0.746910	0.637530
H841	H84	0.358100	0.722800	0.612600
N221	N22	0.849170	0.279610	0.177000
O221	O22	0.790860	0.276400	0.176440
C1061	C106	0.875700	0.316700	0.211900
H851	H85	0.855000	0.341200	0.236000
C1071	C107	0.936820	0.317400	0.210800
H861	H86	0.956300	0.340500	0.237200
C1081	C108	0.968530	0.285200	0.172100
C1091	C109	0.935550	0.249200	0.134460
H871	H87	0.954600	0.226900	0.107100
C1101	C110	0.878420	0.246910	0.137530
H881	H88	0.858100	0.222800	0.112600
N231	N23	0.650830	0.779610	0.323000
O231	O23	0.709140	0.776400	0.323560
C1111	C111	0.624300	0.816700	0.288100
H891	H89	0.645000	0.841200	0.264000
C1121	C112	0.563180	0.817400	0.289200
H901	H90	0.543700	0.840500	0.262800
C1131	C113	0.531470	0.785200	0.327900
C1141	C114	0.564450	0.749200	0.365540
H911	H91	0.545400	0.726900	0.392900
C1151	C115	0.621580	0.746910	0.362470
H921	H92	0.641900	0.722800	0.387400
N241	N24	0.150830	0.279610	0.823000
O241	O24	0.209140	0.276400	0.823560
C1161	C116	0.124300	0.316700	0.788100
H931	H93	0.145000	0.341200	0.764000
C1171	C117	0.063180	0.317400	0.789200
H941	H94	0.043700	0.340500	0.762800
C1181	C118	0.031470	0.285200	0.827900
C1191	C119	0.064450	0.249200	0.865540
H951	H95	0.045400	0.226900	0.892900
C1201	C120	0.121580	0.246910	0.862470
H961	H96	0.141900	0.222800	0.887400
N251	N25	0.677000	0.650830	0.779610
O251	O25	0.676440	0.709140	0.776400
C1211	C121	0.711900	0.624300	0.816700
H971	H97	0.736000	0.645000	0.841200
C1221	C122	0.710800	0.563180	0.817400
H981	H98	0.737200	0.543700	0.840500
C1231	C123	0.672100	0.531470	0.785200
C1241	C124	0.634460	0.564450	0.749200
H991	H99	0.607100	0.545400	0.726900
C1251	C125	0.637530	0.621580	0.746910
H1001	H100	0.612600	0.641900	0.722800
N261	N26	0.177000	0.150830	0.279610
O261	O26	0.176440	0.209140	0.276400
C1261	C126	0.211900	0.124300	0.316700
H1011	H101	0.236000	0.145000	0.341200
C1271	C127	0.210800	0.063180	0.317400
H1021	H102	0.237200	0.043700	0.340500
C1281	C128	0.172100	0.031470	0.285200
C1291	C129	0.134460	0.064450	0.249200
H1031	H103	0.107100	0.045400	0.226900
C1301	C130	0.137530	0.121580	0.246910
H1041	H104	0.112600	0.141900	0.222800
N271	N27	0.323000	0.349170	0.779610
O271	O27	0.323560	0.290860	0.776400
C1311	C131	0.288100	0.375700	0.816700
H1051	H105	0.264000	0.355000	0.841200
C1321	C132	0.289200	0.436820	0.817400
H1061	H106	0.262800	0.456300	0.840500
C1331	C133	0.327900	0.468530	0.785200
C1341	C134	0.365540	0.435550	0.749200
H1071	H107	0.392900	0.454600	0.726900
C1351	C135	0.362470	0.378420	0.746910
H1081	H108	0.387400	0.358100	0.722800
N281	N28	0.823000	0.849170	0.279610
O281	O28	0.823560	0.790860	0.276400
C1361	C136	0.788100	0.875700	0.316700
H1091	H109	0.764000	0.855000	0.341200
C1371	C137	0.789200	0.936820	0.317400
H1101	H110	0.762800	0.956300	0.340500
C1381	C138	0.827900	0.968530	0.285200
C1391	C139	0.865540	0.935550	0.249200
H1111	H111	0.892900	0.954600	0.226900
C1401	C140	0.862470	0.878420	0.246910
H1121	H112	0.887400	0.858100	0.222800
N291	N29	0.323000	0.650830	0.220390
O291	O29	0.323560	0.709140	0.223600
C1411	C141	0.288100	0.624300	0.183300
H1131	H113	0.264000	0.645000	0.158800
C1421	C142	0.289200	0.563180	0.182600
H1141	H114	0.262800	0.543700	0.159500
C1431	C143	0.327900	0.531470	0.214800
C1441	C144	0.365540	0.564450	0.250800
H1151	H115	0.392900	0.545400	0.273100
C1451	C145	0.362470	0.621580	0.253090
H1161	H116	0.387400	0.641900	0.277200
N301	N30	0.823000	0.150830	0.720390
O301	O30	0.823560	0.209140	0.723600
C1461	C146	0.788100	0.124300	0.683300
H1171	H117	0.764000	0.145000	0.658800
C1471	C147	0.789200	0.063180	0.682600
H1181	H118	0.762800	0.043700	0.659500
C1481	C148	0.827900	0.031470	0.714800
C1491	C149	0.865540	0.064450	0.750800
H1191	H119	0.892900	0.045400	0.773100
C1501	C150	0.862470	0.121580	0.753090
H1201	H120	0.887400	0.141900	0.777200
N311	N31	0.677000	0.349170	0.220390
O311	O31	0.676440	0.290860	0.223600
C1511	C151	0.711900	0.375700	0.183300
H1211	H121	0.736000	0.355000	0.158800
C1521	C152	0.710800	0.436820	0.182600
H1221	H122	0.737200	0.456300	0.159500
C1531	C153	0.672100	0.468530	0.214800
C1541	C154	0.634460	0.435550	0.250800
H1231	H123	0.607100	0.454600	0.273100
C1551	C155	0.637530	0.378420	0.253090
H1241	H124	0.612600	0.358100	0.277200
N321	N32	0.177000	0.849170	0.720390
O321	O32	0.176440	0.790860	0.723600
C1561	C156	0.211900	0.875700	0.683300
H1251	H125	0.236000	0.855000	0.658800
C1571	C157	0.210800	0.936820	0.682600
H1261	H126	0.237200	0.956300	0.659500
C1581	C158	0.172100	0.968530	0.714800
C1591	C159	0.134460	0.935550	0.750800
H1271	H127	0.107100	0.954600	0.773100
C1601	C160	0.137530	0.878420	0.753090
H1281	H128	0.112600	0.858100	0.777200
N331	N33	0.779610	0.677000	0.650830
O331	O33	0.776400	0.676440	0.709140
C1611	C161	0.816700	0.711900	0.624300
H1291	H129	0.841200	0.736000	0.645000
C1621	C162	0.817400	0.710800	0.563180
H1301	H130	0.840500	0.737200	0.543700
C1631	C163	0.785200	0.672100	0.531470
C1641	C164	0.749200	0.634460	0.564450
H1311	H131	0.726900	0.607100	0.545400
C1651	C165	0.746910	0.637530	0.621580
H1321	H132	0.722800	0.612600	0.641900
N341	N34	0.279610	0.177000	0.150830
O341	O34	0.276400	0.176440	0.209140
C1661	C166	0.316700	0.211900	0.124300
H1331	H133	0.341200	0.236000	0.145000
C1671	C167	0.317400	0.210800	0.063180
H1341	H134	0.340500	0.237200	0.043700
C1681	C168	0.285200	0.172100	0.031470
C1691	C169	0.249200	0.134460	0.064450
H1351	H135	0.226900	0.107100	0.045400
C1701	C170	0.246910	0.137530	0.121580
H1361	H136	0.222800	0.112600	0.141900
N351	N35	0.779610	0.323000	0.349170
O351	O35	0.776400	0.323560	0.290860
C1711	C171	0.816700	0.288100	0.375700
H1371	H137	0.841200	0.264000	0.355000
C1721	C172	0.817400	0.289200	0.436820
H1381	H138	0.840500	0.262800	0.456300
C1731	C173	0.785200	0.327900	0.468530
C1741	C174	0.749200	0.365540	0.435550
H1391	H139	0.726900	0.392900	0.454600
C1751	C175	0.746910	0.362470	0.378420
H1401	H140	0.722800	0.387400	0.358100
N361	N36	0.279610	0.823000	0.849170
O361	O36	0.276400	0.823560	0.790860
C1761	C176	0.316700	0.788100	0.875700
H1411	H141	0.341200	0.764000	0.855000
C1771	C177	0.317400	0.789200	0.936820
H1421	H142	0.340500	0.762800	0.956300
C1781	C178	0.285200	0.827900	0.968530
C1791	C179	0.249200	0.865540	0.935550
H1431	H143	0.226900	0.892900	0.954600
C1801	C180	0.246910	0.862470	0.878420
H1441	H144	0.222800	0.887400	0.858100
N371	N37	0.220390	0.323000	0.650830
O371	O37	0.223600	0.323560	0.709140
C1811	C181	0.183300	0.288100	0.624300
H1451	H145	0.158800	0.264000	0.645000
C1821	C182	0.182600	0.289200	0.563180
H1461	H146	0.159500	0.262800	0.543700
C1831	C183	0.214800	0.327900	0.531470
C1841	C184	0.250800	0.365540	0.564450
H1471	H147	0.273100	0.392900	0.545400
C1851	C185	0.253090	0.362470	0.621580
H1481	H148	0.277200	0.387400	0.641900
N381	N38	0.720390	0.823000	0.150830
O381	O38	0.723600	0.823560	0.209140
C1861	C186	0.683300	0.788100	0.124300
H1491	H149	0.658800	0.764000	0.145000
C1871	C187	0.682600	0.789200	0.063180
H1501	H150	0.659500	0.762800	0.043700
C1881	C188	0.714800	0.827900	0.031470
C1891	C189	0.750800	0.865540	0.064450
H1511	H151	0.773100	0.892900	0.045400
C1901	C190	0.753090	0.862470	0.121580
H1521	H152	0.777200	0.887400	0.141900
N391	N39	0.220390	0.677000	0.349170
O391	O39	0.223600	0.676440	0.290860
C1911	C191	0.183300	0.711900	0.375700
H1531	H153	0.158800	0.736000	0.355000
C1921	C192	0.182600	0.710800	0.436820
H1541	H154	0.159500	0.737200	0.456300
C1931	C193	0.214800	0.672100	0.468530
C1941	C194	0.250800	0.634460	0.435550
H1551	H155	0.273100	0.607100	0.454600
C1951	C195	0.253090	0.637530	0.378420
H1561	H156	0.277200	0.612600	0.358100
N401	N40	0.720390	0.177000	0.849170
O401	O40	0.723600	0.176440	0.790860
C1961	C196	0.683300	0.211900	0.875700
H1571	H157	0.658800	0.236000	0.855000
C1971	C197	0.682600	0.210800	0.936820
H1581	H158	0.659500	0.237200	0.956300
C1981	C198	0.714800	0.172100	0.968530
C1991	C199	0.750800	0.134460	0.935550
H1591	H159	0.773100	0.107100	0.954600
C2001	C200	0.753090	0.137530	0.878420
H1601	H160	0.777200	0.112600	0.858100
N411	N41	0.650830	0.779610	0.677000
O411	O41	0.709140	0.776400	0.676440
C2011	C201	0.624300	0.816700	0.711900
H1611	H161	0.645000	0.841200	0.736000
C2021	C202	0.563180	0.817400	0.710800
H1621	H162	0.543700	0.840500	0.737200
C2031	C203	0.531470	0.785200	0.672100
C2041	C204	0.564450	0.749200	0.634460
H1631	H163	0.545400	0.726900	0.607100
C2051	C205	0.621580	0.746910	0.637530
H1641	H164	0.641900	0.722800	0.612600
N421	N42	0.150830	0.279610	0.177000
O421	O42	0.209140	0.276400	0.176440
C2061	C206	0.124300	0.316700	0.211900
H1651	H165	0.145000	0.341200	0.236000
C2071	C207	0.063180	0.317400	0.210800
H1661	H166	0.043700	0.340500	0.237200
C2081	C208	0.031470	0.285200	0.172100
C2091	C209	0.064450	0.249200	0.134460
H1671	H167	0.045400	0.226900	0.107100
C2101	C210	0.121580	0.246910	0.137530
H1681	H168	0.141900	0.222800	0.112600
N431	N43	0.349170	0.779610	0.323000
O431	O43	0.290860	0.776400	0.323560
C2111	C211	0.375700	0.816700	0.288100
H1691	H169	0.355000	0.841200	0.264000
C2121	C212	0.436820	0.817400	0.289200
H1701	H170	0.456300	0.840500	0.262800
C2131	C213	0.468530	0.785200	0.327900
C2141	C214	0.435550	0.749200	0.365540
H1711	H171	0.454600	0.726900	0.392900
C2151	C215	0.378420	0.746910	0.362470
H1721	H172	0.358100	0.722800	0.387400
N441	N44	0.849170	0.279610	0.823000
O441	O44	0.790860	0.276400	0.823560
C2161	C216	0.875700	0.316700	0.788100
H1731	H173	0.855000	0.341200	0.764000
C2171	C217	0.936820	0.317400	0.789200
H1741	H174	0.956300	0.340500	0.762800
C2181	C218	0.968530	0.285200	0.827900
C2191	C219	0.935550	0.249200	0.865540
H1751	H175	0.954600	0.226900	0.892900
C2201	C220	0.878420	0.246910	0.862470
H1761	H176	0.858100	0.222800	0.887400
N451	N45	0.650830	0.220390	0.323000
O451	O45	0.709140	0.223600	0.323560
C2211	C221	0.624300	0.183300	0.288100
H1771	H177	0.645000	0.158800	0.264000
C2221	C222	0.563180	0.182600	0.289200
H1781	H178	0.543700	0.159500	0.262800
C2231	C223	0.531470	0.214800	0.327900
C2241	C224	0.564450	0.250800	0.365540
H1791	H179	0.545400	0.273100	0.392900
C2251	C225	0.621580	0.253090	0.362470
H1801	H180	0.641900	0.277200	0.387400
N461	N46	0.150830	0.720390	0.823000
O461	O46	0.209140	0.723600	0.823560
C2261	C226	0.124300	0.683300	0.788100
H1811	H181	0.145000	0.658800	0.764000
C2271	C227	0.063180	0.682600	0.789200
H1821	H182	0.043700	0.659500	0.762800
C2281	C228	0.031470	0.714800	0.827900
C2291	C229	0.064450	0.750800	0.865540
H1831	H183	0.045400	0.773100	0.892900
C2301	C230	0.121580	0.753090	0.862470
H1841	H184	0.141900	0.777200	0.887400
N471	N47	0.349170	0.220390	0.677000
O471	O47	0.290860	0.223600	0.676440
C2311	C231	0.375700	0.183300	0.711900
H1851	H185	0.355000	0.158800	0.736000
C2321	C232	0.436820	0.182600	0.710800
H1861	H186	0.456300	0.159500	0.737200
C2331	C233	0.468530	0.214800	0.672100
C2341	C234	0.435550	0.250800	0.634460
H1871	H187	0.454600	0.273100	0.607100
C2351	C235	0.378420	0.253090	0.637530
H1881	H188	0.358100	0.277200	0.612600
N481	N48	0.849170	0.720390	0.177000
O481	O48	0.790860	0.723600	0.176440
C2361	C236	0.875700	0.683300	0.211900
H1891	H189	0.855000	0.658800	0.236000
C2371	C237	0.936820	0.682600	0.210800
H1901	H190	0.956300	0.659500	0.237200
C2381	C238	0.968530	0.714800	0.172100
C2391	C239	0.935550	0.750800	0.134460
H1911	H191	0.954600	0.773100	0.107100
C2401	C240	0.878420	0.753090	0.137530
H1921	H192	0.858100	0.777200	0.112600
Co11	Co1	0.250000	0.250000	0.250000
Co21	Co2	0.750000	0.750000	0.250000
Co31	Co3	0.750000	0.250000	0.750000
Co41	Co4	0.250000	0.750000	0.750000
Co51	Co5	0.750000	0.750000	0.750000
Co61	Co6	0.250000	0.250000	0.750000
Co71	Co7	0.250000	0.750000	0.250000
Co81	Co8	0.750000	0.250000	0.250000
