data_LERNEC_freeONLY_PM
_symmetry_space_group_name_H-M	'P1'
_cell_length_a	10.104000
_cell_length_b	12.828200
_cell_length_c	13.041500
_cell_angle_alpha	71.198300
_cell_angle_beta	67.208400
_cell_angle_gamma	66.807600
_symmetry_Int_Tables_number 1

loop_
_symmetry_equiv_pos_as_xyz
'x,y,z'

loop_
_atom_site_label
_atom_site_type_symbol
_atom_site_fract_x
_atom_site_fract_y
_atom_site_fract_z
Co11	Co1	0.967560	0.614810	0.897250
Co21	Co2	0.249100	0.166620	0.265260
Co31	Co3	0.479620	0.885190	0.602750
Co41	Co4	0.680980	0.333380	0.234740
Co51	Co5	0.032440	0.385190	0.102750
Co61	Co6	0.750900	0.833380	0.734740
Co71	Co7	0.520380	0.114810	0.397250
Co81	Co8	0.319020	0.666620	0.765260
H11	H1	0.851800	0.882500	0.159700
H21	H2	0.995200	0.746000	0.050400
H31	H3	0.637900	0.737900	0.010700
H41	H4	0.486800	0.876100	0.116100
H51	H5	0.137000	0.956900	0.737700
H61	H6	0.138800	0.912300	0.538700
H71	H7	0.020600	0.015900	0.595100
H81	H8	0.894000	0.617500	0.340300
H91	H9	0.791600	0.754000	0.449600
H101	H10	0.386500	0.762100	0.489300
H111	H11	0.479000	0.623900	0.383900
H121	H12	0.831600	0.543100	0.762300
H131	H13	0.589800	0.587700	0.961300
H141	H14	0.631600	0.484100	0.904900
H151	H15	0.148200	0.117500	0.840300
H161	H16	0.004800	0.254000	0.949600
H171	H17	0.362100	0.262100	0.989300
H181	H18	0.513200	0.123900	0.883900
H191	H19	0.863000	0.043100	0.262300
H201	H20	0.861200	0.087700	0.461300
H211	H21	0.979400	0.984100	0.404900
H221	H22	0.106000	0.382500	0.659700
H231	H23	0.208400	0.246000	0.550400
H241	H24	0.613500	0.237900	0.510700
H251	H25	0.521000	0.376100	0.616100
H261	H26	0.168400	0.456900	0.237700
H271	H27	0.410200	0.412300	0.038700
H281	H28	0.368400	0.515900	0.095100
C11	C1	0.552200	0.986900	0.221900
C21	C2	0.653100	0.895300	0.150500
C31	C3	0.805600	0.854800	0.129400
C41	C4	0.891400	0.772500	0.063300
C51	C5	0.682300	0.768400	0.039800
C61	C6	0.590400	0.850600	0.104000
C71	C7	0.034200	0.838000	0.752400
C81	C8	0.152800	0.902400	0.692800
C91	C9	0.125500	0.968200	0.580000
C101	C10	0.221100	0.045300	0.502300
C111	C11	0.761000	0.513100	0.278100
C121	C12	0.698900	0.604700	0.349500
C131	C13	0.789800	0.645200	0.370600
C141	C14	0.727200	0.727500	0.436700
C151	C15	0.490500	0.731600	0.460200
C161	C16	0.545000	0.649400	0.396000
C171	C17	0.624600	0.662000	0.747600
C181	C18	0.748000	0.597600	0.807200
C191	C19	0.673700	0.531800	0.920000
C201	C20	0.768700	0.454700	0.997700
C211	C21	0.447800	0.013100	0.778100
C221	C22	0.346900	0.104700	0.849500
C231	C23	0.194400	0.145200	0.870600
C241	C24	0.108600	0.227500	0.936700
C251	C25	0.317700	0.231600	0.960200
C261	C26	0.409600	0.149400	0.896000
C271	C27	0.965800	0.162000	0.247600
C281	C28	0.847200	0.097600	0.307200
C291	C29	0.874500	0.031800	0.420000
C301	C30	0.778900	0.954700	0.497700
C311	C31	0.239000	0.486900	0.721900
C321	C32	0.301100	0.395300	0.650500
C331	C33	0.210200	0.354800	0.629400
C341	C34	0.272800	0.272500	0.563300
C351	C35	0.509500	0.268400	0.539800
C361	C36	0.455000	0.350600	0.604000
C371	C37	0.375400	0.338000	0.252400
C381	C38	0.252000	0.402400	0.192800
C391	C39	0.326300	0.468200	0.080000
C401	C40	0.231300	0.545300	0.002300
N11	N1	0.832800	0.729200	0.016600
N21	N2	0.578600	0.770800	0.483400
N31	N3	0.167200	0.270800	0.983400
N41	N4	0.421400	0.229200	0.516600
O11	O1	0.609950	0.006900	0.279600
O21	O2	0.420400	0.032100	0.215900
O31	O3	0.082400	0.734300	0.796300
O41	O4	0.899300	0.892000	0.758800
O51	O5	0.301400	0.823400	0.677400
O61	O6	0.358230	0.022440	0.498700
O71	O7	0.160300	0.121400	0.433000
O81	O8	0.896450	0.493100	0.220400
O91	O9	0.668400	0.467900	0.284100
O101	O10	0.613000	0.765700	0.703700
O111	O11	0.550100	0.608000	0.741200
O121	O12	0.802200	0.676600	0.822600
O131	O13	0.879370	0.477560	0.001300
O141	O14	0.714700	0.378600	0.067000
O151	O15	0.390050	0.993100	0.720400
O161	O16	0.579600	0.967900	0.784100
O171	O17	0.917600	0.265700	0.203700
O181	O18	0.100700	0.108000	0.241200
O191	O19	0.698600	0.176600	0.322600
O201	O20	0.641770	0.977560	0.501300
O211	O21	0.839700	0.878600	0.567000
O221	O22	0.103550	0.506900	0.779600
O231	O23	0.331600	0.532100	0.715900
O241	O24	0.387000	0.234300	0.296300
O251	O25	0.449900	0.392000	0.258800
O261	O26	0.197800	0.323400	0.177400
O271	O27	0.120630	0.522440	0.998700
O281	O28	0.285300	0.621400	0.933000
