data_LERNAY02_freeONLY_PM
_symmetry_space_group_name_H-M	'P1'
_cell_length_a	10.106900
_cell_length_b	12.664900
_cell_length_c	13.042700
_cell_angle_alpha	70.773500
_cell_angle_beta	67.203800
_cell_angle_gamma	66.483500
_symmetry_Int_Tables_number 1

loop_
_symmetry_equiv_pos_as_xyz
'x,y,z'

loop_
_atom_site_label
_atom_site_type_symbol
_atom_site_fract_x
_atom_site_fract_y
_atom_site_fract_z
Co11	Co1	0.977730	0.601220	0.884580
Co21	Co2	0.185950	0.238560	0.330880
Co31	Co3	0.463530	0.898780	0.615420
Co41	Co4	0.755390	0.261440	0.169120
Co51	Co5	0.022270	0.398780	0.115420
Co61	Co6	0.814050	0.761440	0.669120
Co71	Co7	0.536470	0.101220	0.384580
Co81	Co8	0.244610	0.738560	0.830880
H11	H1	0.401100	0.349400	0.608400
H21	H2	0.294500	0.460600	0.745600
H31	H3	0.887300	0.470600	0.777000
H41	H4	0.980200	0.369300	0.632700
H51	H5	0.328000	0.759400	0.548000
H61	H6	0.126000	0.904300	0.485700
H71	H7	0.086100	0.970200	0.584200
H81	H8	0.358900	0.150600	0.891600
H91	H9	0.500700	0.039400	0.754400
H101	H10	0.134900	0.029400	0.723000
H111	H11	0.982200	0.130700	0.867300
H121	H12	0.635400	0.740600	0.952000
H131	H13	0.516000	0.595700	0.014300
H141	H14	0.640500	0.529800	0.915800
H151	H15	0.598900	0.650600	0.391600
H161	H16	0.705500	0.539400	0.254400
H171	H17	0.112700	0.529400	0.223000
H181	H18	0.019800	0.630700	0.367300
H191	H19	0.672000	0.240600	0.452000
H201	H20	0.874000	0.095700	0.514300
H211	H21	0.913900	0.029800	0.415800
H221	H22	0.641100	0.849400	0.108400
H231	H23	0.499300	0.960600	0.245600
H241	H24	0.865100	0.970600	0.277000
H251	H25	0.017800	0.869300	0.132700
H261	H26	0.364600	0.259400	0.048000
H271	H27	0.484000	0.404300	0.985700
H281	H28	0.359500	0.470200	0.084200
C11	C1	0.266100	0.281000	0.509400
C21	C2	0.203000	0.348800	0.602400
C31	C3	0.294400	0.375900	0.639900
C41	C4	0.230000	0.440700	0.723100
C51	C5	0.993000	0.447900	0.740300
C61	C6	0.047300	0.386300	0.655100
C71	C7	0.116800	0.749700	0.663700
C81	C8	0.242100	0.809400	0.599800
C91	C9	0.170400	0.922100	0.531300
C101	C10	0.273000	0.997000	0.450200
C111	C11	0.056500	0.219000	0.990600
C121	C12	0.154200	0.151200	0.897600
C131	C13	0.310200	0.124100	0.860100
C141	C14	0.393800	0.059300	0.776900
C151	C15	0.181200	0.052100	0.759700
C161	C16	0.088700	0.113700	0.844900
C171	C17	0.530200	0.750300	0.836300
C181	C18	0.651300	0.690600	0.900200
C191	C19	0.623800	0.577900	0.968700
C201	C20	0.720200	0.503000	0.049800
C211	C21	0.733900	0.719000	0.490600
C221	C22	0.797000	0.651200	0.397600
C231	C23	0.705600	0.624100	0.360100
C241	C24	0.770000	0.559300	0.276900
C251	C25	0.007000	0.552100	0.259700
C261	C26	0.952700	0.613700	0.344900
C271	C27	0.883200	0.250300	0.336300
C281	C28	0.757900	0.190600	0.400200
C291	C29	0.829600	0.077900	0.468700
C301	C30	0.727000	0.003000	0.549800
C311	C31	0.943500	0.781000	0.009400
C321	C32	0.845800	0.848800	0.102400
C331	C33	0.689800	0.875900	0.139900
C341	C34	0.606200	0.940700	0.223100
C351	C35	0.818800	0.947900	0.240300
C361	C36	0.911300	0.886300	0.155100
C371	C37	0.469800	0.249700	0.163700
C381	C38	0.348700	0.309400	0.099800
C391	C39	0.376200	0.422100	0.031300
C401	C40	0.279800	0.497000	0.950200
N11	N1	0.080000	0.477700	0.774300
N21	N2	0.332000	0.022300	0.725700
N31	N3	0.920000	0.522300	0.225700
N41	N4	0.668000	0.977700	0.274300
O11	O1	0.404210	0.226080	0.485300
O21	O2	0.171200	0.285200	0.466000
O31	O3	0.105240	0.707520	0.766000
O41	O4	0.044600	0.737900	0.611300
O51	O5	0.295380	0.827440	0.676600
O61	O6	0.223600	0.064100	0.369700
O71	O7	0.378610	0.004280	0.477300
O81	O8	0.115590	0.273920	0.014700
O91	O9	0.922400	0.214800	0.034000
O101	O10	0.578760	0.792480	0.734000
O111	O11	0.393800	0.762100	0.888700
O121	O12	0.799420	0.672560	0.823400
O131	O13	0.657400	0.435900	0.130300
O141	O14	0.860190	0.495720	0.022700
O151	O15	0.595790	0.773920	0.514700
O161	O16	0.828800	0.714800	0.534000
O171	O17	0.894760	0.292480	0.234000
O181	O18	0.955400	0.262100	0.388700
O191	O19	0.704620	0.172560	0.323400
O201	O20	0.776400	0.935900	0.630300
O211	O21	0.621390	0.995720	0.522700
O221	O22	0.884410	0.726080	0.985300
O231	O23	0.077600	0.785200	0.966000
O241	O24	0.421240	0.207520	0.266000
O251	O25	0.606200	0.237900	0.111300
O261	O26	0.200580	0.327440	0.176600
O271	O27	0.342600	0.564100	0.869700
O281	O28	0.139810	0.504280	0.977300
