data_LERNAY01_freeONLY_PM
_symmetry_space_group_name_H-M	'P1'
_cell_length_a	10.081600
_cell_length_b	12.808600
_cell_length_c	12.999600
_cell_angle_alpha	70.947600
_cell_angle_beta	67.184500
_cell_angle_gamma	66.824600
_symmetry_Int_Tables_number 1

loop_
_symmetry_equiv_pos_as_xyz
'x,y,z'

loop_
_atom_site_label
_atom_site_type_symbol
_atom_site_fract_x
_atom_site_fract_y
_atom_site_fract_z
Co11	Co1	0.966610	0.614810	0.897030
Co21	Co2	0.317520	0.666980	0.763720
Co31	Co3	0.478450	0.885190	0.602970
Co41	Co4	0.748220	0.833020	0.736280
Co51	Co5	0.033390	0.385190	0.102970
Co61	Co6	0.682480	0.333020	0.236280
Co71	Co7	0.521550	0.114810	0.397030
Co81	Co8	0.251780	0.166980	0.263720
H11	H1	0.102400	0.390800	0.650400
H21	H2	0.208300	0.255600	0.538400
H31	H3	0.612000	0.230100	0.519500
H41	H4	0.518400	0.370000	0.624600
H51	H5	0.135000	0.957200	0.739000
H61	H6	0.139400	0.913200	0.538000
H71	H7	0.019600	0.016600	0.594200
H81	H8	0.143600	0.109200	0.849600
H91	H9	0.002300	0.244400	0.961600
H101	H10	0.361600	0.269900	0.980500
H111	H11	0.513000	0.130000	0.875400
H121	H12	0.831200	0.542800	0.761000
H131	H13	0.590600	0.586800	0.962000
H141	H14	0.630400	0.483400	0.905800
H151	H15	0.897600	0.609200	0.349600
H161	H16	0.791700	0.744400	0.461600
H171	H17	0.388000	0.769900	0.480500
H181	H18	0.481600	0.630000	0.375400
H191	H19	0.865000	0.042800	0.261000
H201	H20	0.860600	0.086800	0.462000
H211	H21	0.980400	0.983400	0.405800
H221	H22	0.856400	0.890800	0.150400
H231	H23	0.997700	0.755600	0.038400
H241	H24	0.638400	0.730100	0.019500
H251	H25	0.487000	0.870000	0.124600
H261	H26	0.168800	0.457200	0.239000
H271	H27	0.409400	0.413200	0.038000
H281	H28	0.369600	0.516600	0.094200
C11	C1	0.236600	0.487400	0.721400
C21	C2	0.299200	0.396600	0.649800
C31	C3	0.206800	0.360800	0.622800
C41	C4	0.272100	0.278700	0.556100
C51	C5	0.508000	0.263700	0.545300
C61	C6	0.452400	0.347100	0.609300
C71	C7	0.032200	0.839600	0.750000
C81	C8	0.150800	0.903300	0.693300
C91	C9	0.124700	0.969300	0.579700
C101	C10	0.221300	0.048200	0.501600
C111	C11	0.445400	0.012600	0.778600
C121	C12	0.345600	0.103400	0.850200
C131	C13	0.190400	0.139200	0.877200
C141	C14	0.106900	0.221300	0.943900
C151	C15	0.317000	0.236300	0.954700
C161	C16	0.408800	0.152900	0.890700
C171	C17	0.621800	0.660400	0.750000
C181	C18	0.747400	0.596700	0.806700
C191	C19	0.673700	0.530700	0.920300
C201	C20	0.771100	0.451800	0.998400
C211	C21	0.763400	0.512600	0.278600
C221	C22	0.700800	0.603400	0.350200
C231	C23	0.793200	0.639200	0.377200
C241	C24	0.727900	0.721300	0.443900
C251	C25	0.492000	0.736300	0.454700
C261	C26	0.547600	0.652900	0.390700
C271	C27	0.967800	0.160400	0.250000
C281	C28	0.849200	0.096700	0.306700
C291	C29	0.875300	0.030700	0.420300
C301	C30	0.778700	0.951800	0.498400
C311	C31	0.554600	0.987400	0.221400
C321	C32	0.654400	0.896600	0.149800
C331	C33	0.809600	0.860800	0.122800
C341	C34	0.893100	0.778700	0.056100
C351	C35	0.683000	0.763700	0.045300
C361	C36	0.591200	0.847100	0.109300
C371	C37	0.378200	0.339600	0.250000
C381	C38	0.252600	0.403300	0.193300
C391	C39	0.326300	0.469300	0.079700
C401	C40	0.228900	0.548200	0.001600
N11	N1	0.420370	0.229760	0.515700
N21	N2	0.165830	0.270240	0.984300
N31	N3	0.579630	0.770240	0.484300
N41	N4	0.834170	0.729760	0.015700
O11	O1	0.330660	0.530580	0.717500
O21	O2	0.100850	0.507900	0.779000
O31	O3	0.080800	0.734800	0.793800
O41	O4	0.897260	0.892880	0.758400
O51	O5	0.299800	0.824200	0.676200
O61	O6	0.358520	0.023560	0.497000
O71	O7	0.158700	0.127500	0.433100
O81	O8	0.578740	0.969420	0.782500
O91	O9	0.387750	0.992100	0.721000
O101	O10	0.609400	0.765200	0.706200
O111	O11	0.548540	0.607120	0.741600
O121	O12	0.800200	0.675800	0.823800
O131	O13	0.879080	0.476440	0.003000
O141	O14	0.719300	0.372500	0.066900
O151	O15	0.669340	0.469420	0.282500
O161	O16	0.899150	0.492100	0.221000
O171	O17	0.919200	0.265200	0.206200
O181	O18	0.102740	0.107120	0.241600
O191	O19	0.700200	0.175800	0.323800
O201	O20	0.641480	0.976440	0.503000
O211	O21	0.841300	0.872500	0.566900
O221	O22	0.421260	0.030580	0.217500
O231	O23	0.612250	0.007900	0.279000
O241	O24	0.390600	0.234800	0.293800
O251	O25	0.451460	0.392880	0.258400
O261	O26	0.199800	0.324200	0.176200
O271	O27	0.120920	0.523560	0.997000
O281	O28	0.280700	0.627500	0.933100
