data_LETDEU_freeONLY_PM
_symmetry_space_group_name_H-M	'P1'
_cell_length_a	28.678200
_cell_length_b	28.678200
_cell_length_c	6.527000
_cell_angle_alpha	90.000000
_cell_angle_beta	90.000000
_cell_angle_gamma	90.000000
_symmetry_Int_Tables_number 1

loop_
_symmetry_equiv_pos_as_xyz
'x,y,z'

loop_
_atom_site_label
_atom_site_type_symbol
_atom_site_fract_x
_atom_site_fract_y
_atom_site_fract_z
Cu11	Cu1	0.052800	0.318450	0.367330
N11	N1	0.009400	0.367330	0.341100
N21	N2	0.960950	0.361110	0.348400
N31	N3	0.975340	0.436020	0.297900
C11	C1	0.014700	0.411700	0.311300
H11	H1	0.044600	0.425800	0.299800
C21	C2	0.942500	0.401900	0.321500
H21	H2	0.909900	0.407500	0.318500
Cu21	Cu2	0.552800	0.818450	0.867330
N41	N4	0.509400	0.867330	0.841100
N51	N5	0.460950	0.861110	0.848400
N61	N6	0.475340	0.936020	0.797900
C31	C3	0.514700	0.911700	0.811300
H31	H3	0.544600	0.925800	0.799800
C41	C4	0.442500	0.901900	0.821500
H41	H4	0.409900	0.907500	0.818500
Cu31	Cu3	0.447200	0.681550	0.867330
N71	N7	0.490600	0.632670	0.841100
N81	N8	0.539050	0.638890	0.848400
N91	N9	0.524660	0.563980	0.797900
C51	C5	0.485300	0.588300	0.811300
H51	H5	0.455400	0.574200	0.799800
C61	C6	0.557500	0.598100	0.821500
H61	H6	0.590100	0.592500	0.818500
Cu41	Cu4	0.947200	0.181550	0.367330
N101	N10	0.990600	0.132670	0.341100
N111	N11	0.039050	0.138890	0.348400
N121	N12	0.024660	0.063980	0.297900
C71	C7	0.985300	0.088300	0.311300
H71	H7	0.955400	0.074200	0.299800
C81	C8	0.057500	0.098100	0.321500
H81	H8	0.090100	0.092500	0.318500
Cu51	Cu5	0.447200	0.318450	0.632670
N131	N13	0.490600	0.367330	0.658900
N141	N14	0.539050	0.361110	0.651600
N151	N15	0.524660	0.436020	0.702100
C91	C9	0.485300	0.411700	0.688700
H91	H9	0.455400	0.425800	0.700200
C101	C10	0.557500	0.401900	0.678500
H101	H10	0.590100	0.407500	0.681500
Cu61	Cu6	0.947200	0.818450	0.132670
N161	N16	0.990600	0.867330	0.158900
N171	N17	0.039050	0.861110	0.151600
N181	N18	0.024660	0.936020	0.202100
C111	C11	0.985300	0.911700	0.188700
H111	H11	0.955400	0.925800	0.200200
C121	C12	0.057500	0.901900	0.178500
H121	H12	0.090100	0.907500	0.181500
Cu71	Cu7	0.052800	0.681550	0.132670
N191	N19	0.009400	0.632670	0.158900
N201	N20	0.960950	0.638890	0.151600
N211	N21	0.975340	0.563980	0.202100
C131	C13	0.014700	0.588300	0.188700
H131	H13	0.044600	0.574200	0.200200
C141	C14	0.942500	0.598100	0.178500
H141	H14	0.909900	0.592500	0.181500
Cu81	Cu8	0.552800	0.181550	0.632670
N221	N22	0.509400	0.132670	0.658900
N231	N23	0.460950	0.138890	0.651600
N241	N24	0.475340	0.063980	0.702100
C151	C15	0.514700	0.088300	0.688700
H151	H15	0.544600	0.074200	0.700200
C161	C16	0.442500	0.098100	0.678500
H161	H16	0.409900	0.092500	0.681500
Cu91	Cu9	0.068450	0.197200	0.382670
N251	N25	0.117330	0.240600	0.408900
N261	N26	0.111110	0.289050	0.401600
N271	N27	0.186020	0.274660	0.452100
C171	C17	0.161700	0.235300	0.438700
H171	H17	0.175800	0.205400	0.450200
C181	C18	0.151900	0.307500	0.428500
H181	H18	0.157500	0.340100	0.431500
Cu101	Cu10	0.568450	0.697200	0.882670
N281	N28	0.617330	0.740600	0.908900
N291	N29	0.611110	0.789050	0.901600
N301	N30	0.686020	0.774660	0.952100
C191	C19	0.661700	0.735300	0.938700
H191	H19	0.675800	0.705400	0.950200
C201	C20	0.651900	0.807500	0.928500
H201	H20	0.657500	0.840100	0.931500
Cu111	Cu11	0.431550	0.802800	0.882670
N311	N31	0.382670	0.759400	0.908900
N321	N32	0.388890	0.710950	0.901600
N331	N33	0.313980	0.725340	0.952100
C211	C21	0.338300	0.764700	0.938700
H211	H21	0.324200	0.794600	0.950200
C221	C22	0.348100	0.692500	0.928500
H221	H22	0.342500	0.659900	0.931500
Cu121	Cu12	0.931550	0.302800	0.382670
N341	N34	0.882670	0.259400	0.408900
N351	N35	0.888890	0.210950	0.401600
N361	N36	0.813980	0.225340	0.452100
C231	C23	0.838300	0.264700	0.438700
H231	H23	0.824200	0.294600	0.450200
C241	C24	0.848100	0.192500	0.428500
H241	H24	0.842500	0.159900	0.431500
Cu131	Cu13	0.431550	0.197200	0.617330
N371	N37	0.382670	0.240600	0.591100
N381	N38	0.388890	0.289050	0.598400
N391	N39	0.313980	0.274660	0.547900
C251	C25	0.338300	0.235300	0.561300
H251	H25	0.324200	0.205400	0.549800
C261	C26	0.348100	0.307500	0.571500
H261	H26	0.342500	0.340100	0.568500
Cu141	Cu14	0.931550	0.697200	0.117330
N401	N40	0.882670	0.740600	0.091100
N411	N41	0.888890	0.789050	0.098400
N421	N42	0.813980	0.774660	0.047900
C271	C27	0.838300	0.735300	0.061300
H271	H27	0.824200	0.705400	0.049800
C281	C28	0.848100	0.807500	0.071500
H281	H28	0.842500	0.840100	0.068500
Cu151	Cu15	0.068450	0.802800	0.117330
N431	N43	0.117330	0.759400	0.091100
N441	N44	0.111110	0.710950	0.098400
N451	N45	0.186020	0.725340	0.047900
C291	C29	0.161700	0.764700	0.061300
H291	H29	0.175800	0.794600	0.049800
C301	C30	0.151900	0.692500	0.071500
H301	H30	0.157500	0.659900	0.068500
Cu161	Cu16	0.568450	0.302800	0.617330
N461	N46	0.617330	0.259400	0.591100
N471	N47	0.611110	0.210950	0.598400
N481	N48	0.686020	0.225340	0.547900
C311	C31	0.661700	0.264700	0.561300
H311	H31	0.675800	0.294600	0.549800
C321	C32	0.651900	0.192500	0.571500
H321	H32	0.657500	0.159900	0.568500
Cu171	Cu17	0.968840	0.500000	0.250000
Cu181	Cu18	0.468840	0.000000	0.750000
Cu191	Cu19	0.531160	0.500000	0.750000
Cu201	Cu20	0.031160	0.000000	0.250000
Cu211	Cu21	0.250000	0.281160	0.500000
Cu221	Cu22	0.750000	0.781160	0.000000
Cu231	Cu23	0.250000	0.718840	0.000000
Cu241	Cu24	0.750000	0.218840	0.500000
Cu251	Cu25	0.931550	0.802800	0.617330
N491	N49	0.882670	0.759400	0.591100
N501	N50	0.888890	0.710950	0.598400
N511	N51	0.813980	0.725340	0.547900
C331	C33	0.838300	0.764700	0.561300
H331	H33	0.824200	0.794600	0.549800
C341	C34	0.848100	0.692500	0.571500
H341	H34	0.842500	0.659900	0.568500
Cu261	Cu26	0.431550	0.302800	0.117330
N521	N52	0.382670	0.259400	0.091100
N531	N53	0.388890	0.210950	0.098400
N541	N54	0.313980	0.225340	0.047900
C351	C35	0.338300	0.264700	0.061300
H351	H35	0.324200	0.294600	0.049800
C361	C36	0.348100	0.192500	0.071500
H361	H36	0.342500	0.159900	0.068500
Cu271	Cu27	0.568450	0.197200	0.117330
N551	N55	0.617330	0.240600	0.091100
N561	N56	0.611110	0.289050	0.098400
N571	N57	0.686020	0.274660	0.047900
C371	C37	0.661700	0.235300	0.061300
H371	H37	0.675800	0.205400	0.049800
C381	C38	0.651900	0.307500	0.071500
H381	H38	0.657500	0.340100	0.068500
Cu281	Cu28	0.068450	0.697200	0.617330
N581	N58	0.117330	0.740600	0.591100
N591	N59	0.111110	0.789050	0.598400
N601	N60	0.186020	0.774660	0.547900
C391	C39	0.161700	0.735300	0.561300
H391	H39	0.175800	0.705400	0.549800
C401	C40	0.151900	0.807500	0.571500
H401	H40	0.157500	0.840100	0.568500
Cu291	Cu29	0.568450	0.802800	0.382670
N611	N61	0.617330	0.759400	0.408900
N621	N62	0.611110	0.710950	0.401600
N631	N63	0.686020	0.725340	0.452100
C411	C41	0.661700	0.764700	0.438700
H411	H41	0.675800	0.794600	0.450200
C421	C42	0.651900	0.692500	0.428500
H421	H42	0.657500	0.659900	0.431500
Cu301	Cu30	0.068450	0.302800	0.882670
N641	N64	0.117330	0.259400	0.908900
N651	N65	0.111110	0.210950	0.901600
N661	N66	0.186020	0.225340	0.952100
C431	C43	0.161700	0.264700	0.938700
H431	H43	0.175800	0.294600	0.950200
C441	C44	0.151900	0.192500	0.928500
H441	H44	0.157500	0.159900	0.931500
Cu311	Cu31	0.931550	0.197200	0.882670
N671	N67	0.882670	0.240600	0.908900
N681	N68	0.888890	0.289050	0.901600
N691	N69	0.813980	0.274660	0.952100
C451	C45	0.838300	0.235300	0.938700
H451	H45	0.824200	0.205400	0.950200
C461	C46	0.848100	0.307500	0.928500
H461	H46	0.842500	0.340100	0.931500
Cu321	Cu32	0.431550	0.697200	0.382670
N701	N70	0.382670	0.740600	0.408900
N711	N71	0.388890	0.789050	0.401600
N721	N72	0.313980	0.774660	0.452100
C471	C47	0.338300	0.735300	0.438700
H471	H47	0.324200	0.705400	0.450200
C481	C48	0.348100	0.807500	0.428500
H481	H48	0.342500	0.840100	0.431500
Cu331	Cu33	0.947200	0.681550	0.632670
N731	N73	0.990600	0.632670	0.658900
N741	N74	0.039050	0.638890	0.651600
N751	N75	0.024660	0.563980	0.702100
C491	C49	0.985300	0.588300	0.688700
H491	H49	0.955400	0.574200	0.700200
C501	C50	0.057500	0.598100	0.678500
H501	H50	0.090100	0.592500	0.681500
Cu341	Cu34	0.447200	0.181550	0.132670
N761	N76	0.490600	0.132670	0.158900
N771	N77	0.539050	0.138890	0.151600
N781	N78	0.524660	0.063980	0.202100
C511	C51	0.485300	0.088300	0.188700
H511	H51	0.455400	0.074200	0.200200
C521	C52	0.557500	0.098100	0.178500
H521	H52	0.590100	0.092500	0.181500
Cu351	Cu35	0.552800	0.318450	0.132670
N791	N79	0.509400	0.367330	0.158900
N801	N80	0.460950	0.361110	0.151600
N811	N81	0.475340	0.436020	0.202100
C531	C53	0.514700	0.411700	0.188700
H531	H53	0.544600	0.425800	0.200200
C541	C54	0.442500	0.401900	0.178500
H541	H54	0.409900	0.407500	0.181500
Cu361	Cu36	0.052800	0.818450	0.632670
N821	N82	0.009400	0.867330	0.658900
N831	N83	0.960950	0.861110	0.651600
N841	N84	0.975340	0.936020	0.702100
C551	C55	0.014700	0.911700	0.688700
H551	H55	0.044600	0.925800	0.700200
C561	C56	0.942500	0.901900	0.678500
H561	H56	0.909900	0.907500	0.681500
Cu371	Cu37	0.552800	0.681550	0.367330
N851	N85	0.509400	0.632670	0.341100
N861	N86	0.460950	0.638890	0.348400
N871	N87	0.475340	0.563980	0.297900
C571	C57	0.514700	0.588300	0.311300
H571	H57	0.544600	0.574200	0.299800
C581	C58	0.442500	0.598100	0.321500
H581	H58	0.409900	0.592500	0.318500
Cu381	Cu38	0.052800	0.181550	0.867330
N881	N88	0.009400	0.132670	0.841100
N891	N89	0.960950	0.138890	0.848400
N901	N90	0.975340	0.063980	0.797900
C591	C59	0.014700	0.088300	0.811300
H591	H59	0.044600	0.074200	0.799800
C601	C60	0.942500	0.098100	0.821500
H601	H60	0.909900	0.092500	0.818500
Cu391	Cu39	0.947200	0.318450	0.867330
N911	N91	0.990600	0.367330	0.841100
N921	N92	0.039050	0.361110	0.848400
N931	N93	0.024660	0.436020	0.797900
C611	C61	0.985300	0.411700	0.811300
H611	H61	0.955400	0.425800	0.799800
C621	C62	0.057500	0.401900	0.821500
H621	H62	0.090100	0.407500	0.818500
Cu401	Cu40	0.447200	0.818450	0.367330
N941	N94	0.490600	0.867330	0.341100
N951	N95	0.539050	0.861110	0.348400
N961	N96	0.524660	0.936020	0.297900
C631	C63	0.485300	0.911700	0.311300
H631	H63	0.455400	0.925800	0.299800
C641	C64	0.557500	0.901900	0.321500
H641	H64	0.590100	0.907500	0.318500
Cu411	Cu41	0.750000	0.718840	0.500000
Cu421	Cu42	0.250000	0.218840	0.000000
Cu431	Cu43	0.750000	0.281160	0.000000
Cu441	Cu44	0.250000	0.781160	0.500000
Cu451	Cu45	0.031160	0.500000	0.750000
Cu461	Cu46	0.531160	0.000000	0.250000
Cu471	Cu47	0.468840	0.500000	0.250000
Cu481	Cu48	0.968840	0.000000	0.750000
