data_LETPUX01_freeONLY_PM
_symmetry_space_group_name_H-M	'P1'
_cell_length_a	48.393100
_cell_length_b	48.393100
_cell_length_c	9.999800
_cell_angle_alpha	90.000000
_cell_angle_beta	90.000000
_cell_angle_gamma	90.000000
_symmetry_Int_Tables_number 1

loop_
_symmetry_equiv_pos_as_xyz
'x,y,z'

loop_
_atom_site_label
_atom_site_type_symbol
_atom_site_fract_x
_atom_site_fract_y
_atom_site_fract_z
Zn11	Zn1	0.374910	0.482060	0.327510
Zn21	Zn2	0.438700	0.522120	0.170140
P11	P1	0.310860	0.484330	0.281880
P21	P2	0.400390	0.539130	0.398990
P31	P3	0.415950	0.537550	0.890330
O11	O1	0.288320	0.462710	0.298300
O21	O2	0.315350	0.493290	0.136300
O31	O3	0.336960	0.473370	0.344100
O41	O4	0.429740	0.534560	0.349400
O51	O5	0.379410	0.522210	0.321400
O61	O6	0.399280	0.535490	0.547800
O71	O7	0.475140	0.535220	0.126500
O81	O8	0.386970	0.531560	0.844800
O91	O9	0.415890	0.539490	0.039700
O101	O10	0.437870	0.518280	0.833200
O111	O11	0.467130	0.528970	0.555200
H11	H1	0.299900	0.509600	0.373200
H21	H2	0.391900	0.567900	0.374700
H31	H3	0.421300	0.561100	0.821300
Zn31	Zn3	0.874910	0.982060	0.827510
Zn41	Zn4	0.938700	0.022120	0.670140
P41	P4	0.810860	0.984330	0.781880
P51	P5	0.900390	0.039130	0.898990
P61	P6	0.915950	0.037550	0.390330
O121	O12	0.788320	0.962710	0.798300
O131	O13	0.815350	0.993290	0.636300
O141	O14	0.836960	0.973370	0.844100
O151	O15	0.929740	0.034560	0.849400
O161	O16	0.879410	0.022210	0.821400
O171	O17	0.899280	0.035490	0.047800
O181	O18	0.975140	0.035220	0.626500
O191	O19	0.886970	0.031560	0.344800
O201	O20	0.915890	0.039490	0.539700
O211	O21	0.937870	0.018280	0.333200
O221	O22	0.967130	0.028970	0.055200
H41	H4	0.799900	0.009600	0.873200
H51	H5	0.891900	0.067900	0.874700
H61	H6	0.921300	0.061100	0.321300
Zn51	Zn5	0.125090	0.517940	0.827510
Zn61	Zn6	0.061300	0.477880	0.670140
P71	P7	0.189140	0.515670	0.781880
P81	P8	0.099610	0.460870	0.898990
P91	P9	0.084050	0.462450	0.390330
O231	O23	0.211680	0.537290	0.798300
O241	O24	0.184650	0.506710	0.636300
O251	O25	0.163040	0.526630	0.844100
O261	O26	0.070260	0.465440	0.849400
O271	O27	0.120590	0.477790	0.821400
O281	O28	0.100720	0.464510	0.047800
O291	O29	0.024860	0.464780	0.626500
O301	O30	0.113030	0.468440	0.344800
O311	O31	0.084110	0.460510	0.539700
O321	O32	0.062130	0.481720	0.333200
O331	O33	0.032870	0.471030	0.055200
H71	H7	0.200100	0.490400	0.873200
H81	H8	0.108100	0.432100	0.874700
H91	H9	0.078700	0.438900	0.321300
Zn71	Zn7	0.625090	0.017940	0.327510
Zn81	Zn8	0.561300	0.977880	0.170140
P101	P10	0.689140	0.015670	0.281880
P111	P11	0.599610	0.960870	0.398990
P121	P12	0.584050	0.962450	0.890330
O341	O34	0.711680	0.037290	0.298300
O351	O35	0.684650	0.006710	0.136300
O361	O36	0.663040	0.026630	0.344100
O371	O37	0.570260	0.965440	0.349400
O381	O38	0.620590	0.977790	0.321400
O391	O39	0.600720	0.964510	0.547800
O401	O40	0.524860	0.964780	0.126500
O411	O41	0.613030	0.968440	0.844800
O421	O42	0.584110	0.960510	0.039700
O431	O43	0.562130	0.981720	0.833200
O441	O44	0.532870	0.971030	0.555200
H101	H10	0.700100	0.990400	0.373200
H111	H11	0.608100	0.932100	0.374700
H121	H12	0.578700	0.938900	0.821300
Zn91	Zn9	0.767940	0.124910	0.577510
Zn101	Zn10	0.727880	0.188700	0.420140
P131	P13	0.765670	0.060860	0.531880
P141	P14	0.710870	0.150390	0.648990
P151	P15	0.712450	0.165950	0.140330
O451	O45	0.787290	0.038320	0.548300
O461	O46	0.756710	0.065350	0.386300
O471	O47	0.776630	0.086960	0.594100
O481	O48	0.715440	0.179740	0.599400
O491	O49	0.727790	0.129410	0.571400
O501	O50	0.714510	0.149280	0.797800
O511	O51	0.714780	0.225140	0.376500
O521	O52	0.718440	0.136970	0.094800
O531	O53	0.710510	0.165890	0.289700
O541	O54	0.731720	0.187870	0.083200
O551	O55	0.721030	0.217130	0.805200
H131	H13	0.740400	0.049900	0.623200
H141	H14	0.682100	0.141900	0.624700
H151	H15	0.688900	0.171300	0.071300
Zn111	Zn11	0.267940	0.624910	0.077510
Zn121	Zn12	0.227880	0.688700	0.920140
P161	P16	0.265670	0.560860	0.031880
P171	P17	0.210870	0.650390	0.148990
P181	P18	0.212450	0.665950	0.640330
O561	O56	0.287290	0.538320	0.048300
O571	O57	0.256710	0.565350	0.886300
O581	O58	0.276630	0.586960	0.094100
O591	O59	0.215440	0.679740	0.099400
O601	O60	0.227790	0.629410	0.071400
O611	O61	0.214510	0.649280	0.297800
O621	O62	0.214780	0.725140	0.876500
O631	O63	0.218440	0.636970	0.594800
O641	O64	0.210510	0.665890	0.789700
O651	O65	0.231720	0.687870	0.583200
O661	O66	0.221030	0.717130	0.305200
H161	H16	0.240400	0.549900	0.123200
H171	H17	0.182100	0.641900	0.124700
H181	H18	0.188900	0.671300	0.571300
Zn131	Zn13	0.732060	0.875090	0.077510
Zn141	Zn14	0.772120	0.811300	0.920140
P191	P19	0.734330	0.939140	0.031880
P201	P20	0.789130	0.849610	0.148990
P211	P21	0.787550	0.834050	0.640330
O671	O67	0.712710	0.961680	0.048300
O681	O68	0.743290	0.934650	0.886300
O691	O69	0.723370	0.913040	0.094100
O701	O70	0.784560	0.820260	0.099400
O711	O71	0.772210	0.870590	0.071400
O721	O72	0.785490	0.850720	0.297800
O731	O73	0.785220	0.774860	0.876500
O741	O74	0.781560	0.863030	0.594800
O751	O75	0.789490	0.834110	0.789700
O761	O76	0.768280	0.812130	0.583200
O771	O77	0.778970	0.782870	0.305200
H191	H19	0.759600	0.950100	0.123200
H201	H20	0.817900	0.858100	0.124700
H211	H21	0.811100	0.828700	0.571300
Zn151	Zn15	0.232060	0.375090	0.577510
Zn161	Zn16	0.272120	0.311300	0.420140
P221	P22	0.234330	0.439140	0.531880
P231	P23	0.289130	0.349610	0.648990
P241	P24	0.287550	0.334050	0.140330
O781	O78	0.212710	0.461680	0.548300
O791	O79	0.243290	0.434650	0.386300
O801	O80	0.223370	0.413040	0.594100
O811	O81	0.284560	0.320260	0.599400
O821	O82	0.272210	0.370590	0.571400
O831	O83	0.285490	0.350720	0.797800
O841	O84	0.285220	0.274860	0.376500
O851	O85	0.281560	0.363030	0.094800
O861	O86	0.289490	0.334110	0.289700
O871	O87	0.268280	0.312130	0.083200
O881	O88	0.278970	0.282870	0.805200
H221	H22	0.259600	0.450100	0.623200
H231	H23	0.317900	0.358100	0.624700
H241	H24	0.311100	0.328700	0.071300
Zn171	Zn17	0.125090	0.482060	0.172490
Zn181	Zn18	0.061300	0.522120	0.329860
P251	P25	0.189140	0.484330	0.218120
P261	P26	0.099610	0.539130	0.101010
P271	P27	0.084050	0.537550	0.609670
O891	O89	0.211680	0.462710	0.201700
O901	O90	0.184650	0.493290	0.363700
O911	O91	0.163040	0.473370	0.155900
O921	O92	0.070260	0.534560	0.150600
O931	O93	0.120590	0.522210	0.178600
O941	O94	0.100720	0.535490	0.952200
O951	O95	0.024860	0.535220	0.373500
O961	O96	0.113030	0.531560	0.655200
O971	O97	0.084110	0.539490	0.460300
O981	O98	0.062130	0.518280	0.666800
O991	O99	0.032870	0.528970	0.944800
H251	H25	0.200100	0.509600	0.126800
H261	H26	0.108100	0.567900	0.125300
H271	H27	0.078700	0.561100	0.678700
Zn191	Zn19	0.625090	0.982060	0.672490
Zn201	Zn20	0.561300	0.022120	0.829860
P281	P28	0.689140	0.984330	0.718120
P291	P29	0.599610	0.039130	0.601010
P301	P30	0.584050	0.037550	0.109670
O1001	O100	0.711680	0.962710	0.701700
O1011	O101	0.684650	0.993290	0.863700
O1021	O102	0.663040	0.973370	0.655900
O1031	O103	0.570260	0.034560	0.650600
O1041	O104	0.620590	0.022210	0.678600
O1051	O105	0.600720	0.035490	0.452200
O1061	O106	0.524860	0.035220	0.873500
O1071	O107	0.613030	0.031560	0.155200
O1081	O108	0.584110	0.039490	0.960300
O1091	O109	0.562130	0.018280	0.166800
O1101	O110	0.532870	0.028970	0.444800
H281	H28	0.700100	0.009600	0.626800
H291	H29	0.608100	0.067900	0.625300
H301	H30	0.578700	0.061100	0.178700
Zn211	Zn21	0.374910	0.517940	0.672490
Zn221	Zn22	0.438700	0.477880	0.829860
P311	P31	0.310860	0.515670	0.718120
P321	P32	0.400390	0.460870	0.601010
P331	P33	0.415950	0.462450	0.109670
O1111	O111	0.288320	0.537290	0.701700
O1121	O112	0.315350	0.506710	0.863700
O1131	O113	0.336960	0.526630	0.655900
O1141	O114	0.429740	0.465440	0.650600
O1151	O115	0.379410	0.477790	0.678600
O1161	O116	0.399280	0.464510	0.452200
O1171	O117	0.475140	0.464780	0.873500
O1181	O118	0.386970	0.468440	0.155200
O1191	O119	0.415890	0.460510	0.960300
O1201	O120	0.437870	0.481720	0.166800
O1211	O121	0.467130	0.471030	0.444800
H311	H31	0.299900	0.490400	0.626800
H321	H32	0.391900	0.432100	0.625300
H331	H33	0.421300	0.438900	0.178700
Zn231	Zn23	0.874910	0.017940	0.172490
Zn241	Zn24	0.938700	0.977880	0.329860
P341	P34	0.810860	0.015670	0.218120
P351	P35	0.900390	0.960870	0.101010
P361	P36	0.915950	0.962450	0.609670
O1221	O122	0.788320	0.037290	0.201700
O1231	O123	0.815350	0.006710	0.363700
O1241	O124	0.836960	0.026630	0.155900
O1251	O125	0.929740	0.965440	0.150600
O1261	O126	0.879410	0.977790	0.178600
O1271	O127	0.899280	0.964510	0.952200
O1281	O128	0.975140	0.964780	0.373500
O1291	O129	0.886970	0.968440	0.655200
O1301	O130	0.915890	0.960510	0.460300
O1311	O131	0.937870	0.981720	0.666800
O1321	O132	0.967130	0.971030	0.944800
H341	H34	0.799900	0.990400	0.126800
H351	H35	0.891900	0.932100	0.125300
H361	H36	0.921300	0.938900	0.678700
Zn251	Zn25	0.732060	0.124910	0.922490
Zn261	Zn26	0.772120	0.188700	0.079860
P371	P37	0.734330	0.060860	0.968120
P381	P38	0.789130	0.150390	0.851010
P391	P39	0.787550	0.165950	0.359670
O1331	O133	0.712710	0.038320	0.951700
O1341	O134	0.743290	0.065350	0.113700
O1351	O135	0.723370	0.086960	0.905900
O1361	O136	0.784560	0.179740	0.900600
O1371	O137	0.772210	0.129410	0.928600
O1381	O138	0.785490	0.149280	0.702200
O1391	O139	0.785220	0.225140	0.123500
O1401	O140	0.781560	0.136970	0.405200
O1411	O141	0.789490	0.165890	0.210300
O1421	O142	0.768280	0.187870	0.416800
O1431	O143	0.778970	0.217130	0.694800
H371	H37	0.759600	0.049900	0.876800
H381	H38	0.817900	0.141900	0.875300
H391	H39	0.811100	0.171300	0.428700
Zn271	Zn27	0.232060	0.624910	0.422490
Zn281	Zn28	0.272120	0.688700	0.579860
P401	P40	0.234330	0.560860	0.468120
P411	P41	0.289130	0.650390	0.351010
P421	P42	0.287550	0.665950	0.859670
O1441	O144	0.212710	0.538320	0.451700
O1451	O145	0.243290	0.565350	0.613700
O1461	O146	0.223370	0.586960	0.405900
O1471	O147	0.284560	0.679740	0.400600
O1481	O148	0.272210	0.629410	0.428600
O1491	O149	0.285490	0.649280	0.202200
O1501	O150	0.285220	0.725140	0.623500
O1511	O151	0.281560	0.636970	0.905200
O1521	O152	0.289490	0.665890	0.710300
O1531	O153	0.268280	0.687870	0.916800
O1541	O154	0.278970	0.717130	0.194800
H401	H40	0.259600	0.549900	0.376800
H411	H41	0.317900	0.641900	0.375300
H421	H42	0.311100	0.671300	0.928700
Zn291	Zn29	0.767940	0.875090	0.422490
Zn301	Zn30	0.727880	0.811300	0.579860
P431	P43	0.765670	0.939140	0.468120
P441	P44	0.710870	0.849610	0.351010
P451	P45	0.712450	0.834050	0.859670
O1551	O155	0.787290	0.961680	0.451700
O1561	O156	0.756710	0.934650	0.613700
O1571	O157	0.776630	0.913040	0.405900
O1581	O158	0.715440	0.820260	0.400600
O1591	O159	0.727790	0.870590	0.428600
O1601	O160	0.714510	0.850720	0.202200
O1611	O161	0.714780	0.774860	0.623500
O1621	O162	0.718440	0.863030	0.905200
O1631	O163	0.710510	0.834110	0.710300
O1641	O164	0.731720	0.812130	0.916800
O1651	O165	0.721030	0.782870	0.194800
H431	H43	0.740400	0.950100	0.376800
H441	H44	0.682100	0.858100	0.375300
H451	H45	0.688900	0.828700	0.928700
Zn311	Zn31	0.267940	0.375090	0.922490
Zn321	Zn32	0.227880	0.311300	0.079860
P461	P46	0.265670	0.439140	0.968120
P471	P47	0.210870	0.349610	0.851010
P481	P48	0.212450	0.334050	0.359670
O1661	O166	0.287290	0.461680	0.951700
O1671	O167	0.256710	0.434650	0.113700
O1681	O168	0.276630	0.413040	0.905900
O1691	O169	0.215440	0.320260	0.900600
O1701	O170	0.227790	0.370590	0.928600
O1711	O171	0.214510	0.350720	0.702200
O1721	O172	0.214780	0.274860	0.123500
O1731	O173	0.218440	0.363030	0.405200
O1741	O174	0.210510	0.334110	0.210300
O1751	O175	0.231720	0.312130	0.416800
O1761	O176	0.221030	0.282870	0.694800
H461	H46	0.240400	0.450100	0.876800
H471	H47	0.182100	0.358100	0.875300
H481	H48	0.188900	0.328700	0.428700
Zn331	Zn33	0.625090	0.517940	0.672490
Zn341	Zn34	0.561300	0.477880	0.829860
P491	P49	0.689140	0.515670	0.718120
P501	P50	0.599610	0.460870	0.601010
P511	P51	0.584050	0.462450	0.109670
O1771	O177	0.711680	0.537290	0.701700
O1781	O178	0.684650	0.506710	0.863700
O1791	O179	0.663040	0.526630	0.655900
O1801	O180	0.570260	0.465440	0.650600
O1811	O181	0.620590	0.477790	0.678600
O1821	O182	0.600720	0.464510	0.452200
O1831	O183	0.524860	0.464780	0.873500
O1841	O184	0.613030	0.468440	0.155200
O1851	O185	0.584110	0.460510	0.960300
O1861	O186	0.562130	0.481720	0.166800
O1871	O187	0.532870	0.471030	0.444800
H491	H49	0.700100	0.490400	0.626800
H501	H50	0.608100	0.432100	0.625300
H511	H51	0.578700	0.438900	0.178700
Zn351	Zn35	0.125090	0.017940	0.172490
Zn361	Zn36	0.061300	0.977880	0.329860
P521	P52	0.189140	0.015670	0.218120
P531	P53	0.099610	0.960870	0.101010
P541	P54	0.084050	0.962450	0.609670
O1881	O188	0.211680	0.037290	0.201700
O1891	O189	0.184650	0.006710	0.363700
O1901	O190	0.163040	0.026630	0.155900
O1911	O191	0.070260	0.965440	0.150600
O1921	O192	0.120590	0.977790	0.178600
O1931	O193	0.100720	0.964510	0.952200
O1941	O194	0.024860	0.964780	0.373500
O1951	O195	0.113030	0.968440	0.655200
O1961	O196	0.084110	0.960510	0.460300
O1971	O197	0.062130	0.981720	0.666800
O1981	O198	0.032870	0.971030	0.944800
H521	H52	0.200100	0.990400	0.126800
H531	H53	0.108100	0.932100	0.125300
H541	H54	0.078700	0.938900	0.678700
Zn371	Zn37	0.874910	0.482060	0.172490
Zn381	Zn38	0.938700	0.522120	0.329860
P551	P55	0.810860	0.484330	0.218120
P561	P56	0.900390	0.539130	0.101010
P571	P57	0.915950	0.537550	0.609670
O1991	O199	0.788320	0.462710	0.201700
O2001	O200	0.815350	0.493290	0.363700
O2011	O201	0.836960	0.473370	0.155900
O2021	O202	0.929740	0.534560	0.150600
O2031	O203	0.879410	0.522210	0.178600
O2041	O204	0.899280	0.535490	0.952200
O2051	O205	0.975140	0.535220	0.373500
O2061	O206	0.886970	0.531560	0.655200
O2071	O207	0.915890	0.539490	0.460300
O2081	O208	0.937870	0.518280	0.666800
O2091	O209	0.967130	0.528970	0.944800
H551	H55	0.799900	0.509600	0.126800
H561	H56	0.891900	0.567900	0.125300
H571	H57	0.921300	0.561100	0.678700
Zn391	Zn39	0.374910	0.982060	0.672490
Zn401	Zn40	0.438700	0.022120	0.829860
P581	P58	0.310860	0.984330	0.718120
P591	P59	0.400390	0.039130	0.601010
P601	P60	0.415950	0.037550	0.109670
O2101	O210	0.288320	0.962710	0.701700
O2111	O211	0.315350	0.993290	0.863700
O2121	O212	0.336960	0.973370	0.655900
O2131	O213	0.429740	0.034560	0.650600
O2141	O214	0.379410	0.022210	0.678600
O2151	O215	0.399280	0.035490	0.452200
O2161	O216	0.475140	0.035220	0.873500
O2171	O217	0.386970	0.031560	0.155200
O2181	O218	0.415890	0.039490	0.960300
O2191	O219	0.437870	0.018280	0.166800
O2201	O220	0.467130	0.028970	0.444800
H581	H58	0.299900	0.009600	0.626800
H591	H59	0.391900	0.067900	0.625300
H601	H60	0.421300	0.061100	0.178700
Zn411	Zn41	0.232060	0.875090	0.422490
Zn421	Zn42	0.272120	0.811300	0.579860
P611	P61	0.234330	0.939140	0.468120
P621	P62	0.289130	0.849610	0.351010
P631	P63	0.287550	0.834050	0.859670
O2211	O221	0.212710	0.961680	0.451700
O2221	O222	0.243290	0.934650	0.613700
O2231	O223	0.223370	0.913040	0.405900
O2241	O224	0.284560	0.820260	0.400600
O2251	O225	0.272210	0.870590	0.428600
O2261	O226	0.285490	0.850720	0.202200
O2271	O227	0.285220	0.774860	0.623500
O2281	O228	0.281560	0.863030	0.905200
O2291	O229	0.289490	0.834110	0.710300
O2301	O230	0.268280	0.812130	0.916800
O2311	O231	0.278970	0.782870	0.194800
H611	H61	0.259600	0.950100	0.376800
H621	H62	0.317900	0.858100	0.375300
H631	H63	0.311100	0.828700	0.928700
Zn431	Zn43	0.732060	0.375090	0.922490
Zn441	Zn44	0.772120	0.311300	0.079860
P641	P64	0.734330	0.439140	0.968120
P651	P65	0.789130	0.349610	0.851010
P661	P66	0.787550	0.334050	0.359670
O2321	O232	0.712710	0.461680	0.951700
O2331	O233	0.743290	0.434650	0.113700
O2341	O234	0.723370	0.413040	0.905900
O2351	O235	0.784560	0.320260	0.900600
O2361	O236	0.772210	0.370590	0.928600
O2371	O237	0.785490	0.350720	0.702200
O2381	O238	0.785220	0.274860	0.123500
O2391	O239	0.781560	0.363030	0.405200
O2401	O240	0.789490	0.334110	0.210300
O2411	O241	0.768280	0.312130	0.416800
O2421	O242	0.778970	0.282870	0.694800
H641	H64	0.759600	0.450100	0.876800
H651	H65	0.817900	0.358100	0.875300
H661	H66	0.811100	0.328700	0.428700
Zn451	Zn45	0.267940	0.124910	0.922490
Zn461	Zn46	0.227880	0.188700	0.079860
P671	P67	0.265670	0.060860	0.968120
P681	P68	0.210870	0.150390	0.851010
P691	P69	0.212450	0.165950	0.359670
O2431	O243	0.287290	0.038320	0.951700
O2441	O244	0.256710	0.065350	0.113700
O2451	O245	0.276630	0.086960	0.905900
O2461	O246	0.215440	0.179740	0.900600
O2471	O247	0.227790	0.129410	0.928600
O2481	O248	0.214510	0.149280	0.702200
O2491	O249	0.214780	0.225140	0.123500
O2501	O250	0.218440	0.136970	0.405200
O2511	O251	0.210510	0.165890	0.210300
O2521	O252	0.231720	0.187870	0.416800
O2531	O253	0.221030	0.217130	0.694800
H671	H67	0.240400	0.049900	0.876800
H681	H68	0.182100	0.141900	0.875300
H691	H69	0.188900	0.171300	0.428700
Zn471	Zn47	0.767940	0.624910	0.422490
Zn481	Zn48	0.727880	0.688700	0.579860
P701	P70	0.765670	0.560860	0.468120
P711	P71	0.710870	0.650390	0.351010
P721	P72	0.712450	0.665950	0.859670
O2541	O254	0.787290	0.538320	0.451700
O2551	O255	0.756710	0.565350	0.613700
O2561	O256	0.776630	0.586960	0.405900
O2571	O257	0.715440	0.679740	0.400600
O2581	O258	0.727790	0.629410	0.428600
O2591	O259	0.714510	0.649280	0.202200
O2601	O260	0.714780	0.725140	0.623500
O2611	O261	0.718440	0.636970	0.905200
O2621	O262	0.710510	0.665890	0.710300
O2631	O263	0.731720	0.687870	0.916800
O2641	O264	0.721030	0.717130	0.194800
H701	H70	0.740400	0.549900	0.376800
H711	H71	0.682100	0.641900	0.375300
H721	H72	0.688900	0.671300	0.928700
Zn491	Zn49	0.874910	0.517940	0.827510
Zn501	Zn50	0.938700	0.477880	0.670140
P731	P73	0.810860	0.515670	0.781880
P741	P74	0.900390	0.460870	0.898990
P751	P75	0.915950	0.462450	0.390330
O2651	O265	0.788320	0.537290	0.798300
O2661	O266	0.815350	0.506710	0.636300
O2671	O267	0.836960	0.526630	0.844100
O2681	O268	0.929740	0.465440	0.849400
O2691	O269	0.879410	0.477790	0.821400
O2701	O270	0.899280	0.464510	0.047800
O2711	O271	0.975140	0.464780	0.626500
O2721	O272	0.886970	0.468440	0.344800
O2731	O273	0.915890	0.460510	0.539700
O2741	O274	0.937870	0.481720	0.333200
O2751	O275	0.967130	0.471030	0.055200
H731	H73	0.799900	0.490400	0.873200
H741	H74	0.891900	0.432100	0.874700
H751	H75	0.921300	0.438900	0.321300
Zn511	Zn51	0.374910	0.017940	0.327510
Zn521	Zn52	0.438700	0.977880	0.170140
P761	P76	0.310860	0.015670	0.281880
P771	P77	0.400390	0.960870	0.398990
P781	P78	0.415950	0.962450	0.890330
O2761	O276	0.288320	0.037290	0.298300
O2771	O277	0.315350	0.006710	0.136300
O2781	O278	0.336960	0.026630	0.344100
O2791	O279	0.429740	0.965440	0.349400
O2801	O280	0.379410	0.977790	0.321400
O2811	O281	0.399280	0.964510	0.547800
O2821	O282	0.475140	0.964780	0.126500
O2831	O283	0.386970	0.968440	0.844800
O2841	O284	0.415890	0.960510	0.039700
O2851	O285	0.437870	0.981720	0.833200
O2861	O286	0.467130	0.971030	0.555200
H761	H76	0.299900	0.990400	0.373200
H771	H77	0.391900	0.932100	0.374700
H781	H78	0.421300	0.938900	0.821300
Zn531	Zn53	0.625090	0.482060	0.327510
Zn541	Zn54	0.561300	0.522120	0.170140
P791	P79	0.689140	0.484330	0.281880
P801	P80	0.599610	0.539130	0.398990
P811	P81	0.584050	0.537550	0.890330
O2871	O287	0.711680	0.462710	0.298300
O2881	O288	0.684650	0.493290	0.136300
O2891	O289	0.663040	0.473370	0.344100
O2901	O290	0.570260	0.534560	0.349400
O2911	O291	0.620590	0.522210	0.321400
O2921	O292	0.600720	0.535490	0.547800
O2931	O293	0.524860	0.535220	0.126500
O2941	O294	0.613030	0.531560	0.844800
O2951	O295	0.584110	0.539490	0.039700
O2961	O296	0.562130	0.518280	0.833200
O2971	O297	0.532870	0.528970	0.555200
H791	H79	0.700100	0.509600	0.373200
H801	H80	0.608100	0.567900	0.374700
H811	H81	0.578700	0.561100	0.821300
Zn551	Zn55	0.125090	0.982060	0.827510
Zn561	Zn56	0.061300	0.022120	0.670140
P821	P82	0.189140	0.984330	0.781880
P831	P83	0.099610	0.039130	0.898990
P841	P84	0.084050	0.037550	0.390330
O2981	O298	0.211680	0.962710	0.798300
O2991	O299	0.184650	0.993290	0.636300
O3001	O300	0.163040	0.973370	0.844100
O3011	O301	0.070260	0.034560	0.849400
O3021	O302	0.120590	0.022210	0.821400
O3031	O303	0.100720	0.035490	0.047800
O3041	O304	0.024860	0.035220	0.626500
O3051	O305	0.113030	0.031560	0.344800
O3061	O306	0.084110	0.039490	0.539700
O3071	O307	0.062130	0.018280	0.333200
O3081	O308	0.032870	0.028970	0.055200
H821	H82	0.200100	0.009600	0.873200
H831	H83	0.108100	0.067900	0.874700
H841	H84	0.078700	0.061100	0.321300
Zn571	Zn57	0.267940	0.875090	0.077510
Zn581	Zn58	0.227880	0.811300	0.920140
P851	P85	0.265670	0.939140	0.031880
P861	P86	0.210870	0.849610	0.148990
P871	P87	0.212450	0.834050	0.640330
O3091	O309	0.287290	0.961680	0.048300
O3101	O310	0.256710	0.934650	0.886300
O3111	O311	0.276630	0.913040	0.094100
O3121	O312	0.215440	0.820260	0.099400
O3131	O313	0.227790	0.870590	0.071400
O3141	O314	0.214510	0.850720	0.297800
O3151	O315	0.214780	0.774860	0.876500
O3161	O316	0.218440	0.863030	0.594800
O3171	O317	0.210510	0.834110	0.789700
O3181	O318	0.231720	0.812130	0.583200
O3191	O319	0.221030	0.782870	0.305200
H851	H85	0.240400	0.950100	0.123200
H861	H86	0.182100	0.858100	0.124700
H871	H87	0.188900	0.828700	0.571300
Zn591	Zn59	0.767940	0.375090	0.577510
Zn601	Zn60	0.727880	0.311300	0.420140
P881	P88	0.765670	0.439140	0.531880
P891	P89	0.710870	0.349610	0.648990
P901	P90	0.712450	0.334050	0.140330
O3201	O320	0.787290	0.461680	0.548300
O3211	O321	0.756710	0.434650	0.386300
O3221	O322	0.776630	0.413040	0.594100
O3231	O323	0.715440	0.320260	0.599400
O3241	O324	0.727790	0.370590	0.571400
O3251	O325	0.714510	0.350720	0.797800
O3261	O326	0.714780	0.274860	0.376500
O3271	O327	0.718440	0.363030	0.094800
O3281	O328	0.710510	0.334110	0.289700
O3291	O329	0.731720	0.312130	0.083200
O3301	O330	0.721030	0.282870	0.805200
H881	H88	0.740400	0.450100	0.623200
H891	H89	0.682100	0.358100	0.624700
H901	H90	0.688900	0.328700	0.071300
Zn611	Zn61	0.232060	0.124910	0.577510
Zn621	Zn62	0.272120	0.188700	0.420140
P911	P91	0.234330	0.060860	0.531880
P921	P92	0.289130	0.150390	0.648990
P931	P93	0.287550	0.165950	0.140330
O3311	O331	0.212710	0.038320	0.548300
O3321	O332	0.243290	0.065350	0.386300
O3331	O333	0.223370	0.086960	0.594100
O3341	O334	0.284560	0.179740	0.599400
O3351	O335	0.272210	0.129410	0.571400
O3361	O336	0.285490	0.149280	0.797800
O3371	O337	0.285220	0.225140	0.376500
O3381	O338	0.281560	0.136970	0.094800
O3391	O339	0.289490	0.165890	0.289700
O3401	O340	0.268280	0.187870	0.083200
O3411	O341	0.278970	0.217130	0.805200
H911	H91	0.259600	0.049900	0.623200
H921	H92	0.317900	0.141900	0.624700
H931	H93	0.311100	0.171300	0.071300
Zn631	Zn63	0.732060	0.624910	0.077510
Zn641	Zn64	0.772120	0.688700	0.920140
P941	P94	0.734330	0.560860	0.031880
P951	P95	0.789130	0.650390	0.148990
P961	P96	0.787550	0.665950	0.640330
O3421	O342	0.712710	0.538320	0.048300
O3431	O343	0.743290	0.565350	0.886300
O3441	O344	0.723370	0.586960	0.094100
O3451	O345	0.784560	0.679740	0.099400
O3461	O346	0.772210	0.629410	0.071400
O3471	O347	0.785490	0.649280	0.297800
O3481	O348	0.785220	0.725140	0.876500
O3491	O349	0.781560	0.636970	0.594800
O3501	O350	0.789490	0.665890	0.789700
O3511	O351	0.768280	0.687870	0.583200
O3521	O352	0.778970	0.717130	0.305200
H941	H94	0.759600	0.549900	0.123200
H951	H95	0.817900	0.641900	0.124700
H961	H96	0.811100	0.671300	0.571300
Ga11	Ga1	0.250000	0.462900	0.250000
Ga21	Ga2	0.750000	0.962900	0.750000
Ga31	Ga3	0.250000	0.537100	0.750000
Ga41	Ga4	0.750000	0.037100	0.250000
Ga51	Ga5	0.787100	0.000000	0.500000
Ga61	Ga6	0.287100	0.500000	0.000000
Ga71	Ga7	0.712900	0.000000	0.000000
Ga81	Ga8	0.212900	0.500000	0.500000
Ga91	Ga9	0.750000	0.537100	0.750000
Ga101	Ga10	0.250000	0.037100	0.250000
Ga111	Ga11	0.750000	0.462900	0.250000
Ga121	Ga12	0.250000	0.962900	0.750000
Ga131	Ga13	0.212900	0.000000	0.500000
Ga141	Ga14	0.712900	0.500000	0.000000
Ga151	Ga15	0.287100	0.000000	0.000000
Ga161	Ga16	0.787100	0.500000	0.500000
Zn651	Zn65	0.500000	0.500000	0.500000
Zn661	Zn66	0.000000	0.000000	0.000000
Zn671	Zn67	0.000000	0.500000	0.000000
Zn681	Zn68	0.500000	0.000000	0.500000
Zn691	Zn69	0.750000	0.250000	0.750000
Zn701	Zn70	0.750000	0.750000	0.250000
Zn711	Zn71	0.250000	0.750000	0.250000
Zn721	Zn72	0.250000	0.250000	0.750000
P971	P97	0.500000	0.534790	0.215150
O3531	O353	0.500000	0.510500	0.308400
H971	H97	0.500000	0.557700	0.288100
P981	P98	0.000000	0.034790	0.715150
O3541	O354	0.000000	0.010500	0.808400
H981	H98	0.000000	0.057700	0.788100
P991	P99	0.000000	0.465210	0.715150
O3551	O355	0.000000	0.489500	0.808400
H991	H99	0.000000	0.442300	0.788100
P1001	P100	0.500000	0.965210	0.215150
O3561	O356	0.500000	0.989500	0.308400
H1001	H100	0.500000	0.942300	0.288100
P1011	P101	0.715210	0.250000	0.465150
O3571	O357	0.739500	0.250000	0.558400
H1011	H101	0.692300	0.250000	0.538100
P1021	P102	0.784790	0.750000	0.965150
O3581	O358	0.760500	0.750000	0.058400
H1021	H102	0.807700	0.750000	0.038100
P1031	P103	0.000000	0.534790	0.284850
O3591	O359	0.000000	0.510500	0.191600
H1031	H103	0.000000	0.557700	0.211900
P1041	P104	0.500000	0.034790	0.784850
O3601	O360	0.500000	0.010500	0.691600
H1041	H104	0.500000	0.057700	0.711900
P1051	P105	0.500000	0.465210	0.784850
O3611	O361	0.500000	0.489500	0.691600
H1051	H105	0.500000	0.442300	0.711900
P1061	P106	0.000000	0.965210	0.284850
O3621	O362	0.000000	0.989500	0.191600
H1061	H106	0.000000	0.942300	0.211900
P1071	P107	0.784790	0.250000	0.034850
O3631	O363	0.760500	0.250000	0.941600
H1071	H107	0.807700	0.250000	0.961900
P1081	P108	0.715210	0.750000	0.534850
O3641	O364	0.739500	0.750000	0.441600
H1081	H108	0.692300	0.750000	0.461900
P1091	P109	0.284790	0.750000	0.534850
O3651	O365	0.260500	0.750000	0.441600
H1091	H109	0.307700	0.750000	0.461900
P1101	P110	0.215210	0.250000	0.034850
O3661	O366	0.239500	0.250000	0.941600
H1101	H110	0.192300	0.250000	0.961900
P1111	P111	0.215210	0.750000	0.965150
O3671	O367	0.239500	0.750000	0.058400
H1111	H111	0.192300	0.750000	0.038100
P1121	P112	0.284790	0.250000	0.465150
O3681	O368	0.260500	0.250000	0.558400
H1121	H112	0.307700	0.250000	0.538100
F11	F1	0.242630	0.492630	0.375000
F21	F2	0.257370	0.507370	0.875000
F31	F3	0.757370	0.992630	0.625000
F41	F4	0.742630	0.007370	0.125000
F51	F5	0.257370	0.492630	0.125000
F61	F6	0.242630	0.507370	0.625000
F71	F7	0.742630	0.992630	0.875000
F81	F8	0.757370	0.007370	0.375000
F91	F9	0.757370	0.507370	0.625000
F101	F10	0.742630	0.492630	0.125000
F111	F11	0.242630	0.992630	0.625000
F121	F12	0.242630	0.007370	0.375000
F131	F13	0.257370	0.992630	0.875000
F141	F14	0.742630	0.507370	0.875000
F151	F15	0.757370	0.492630	0.375000
F161	F16	0.257370	0.007370	0.125000
