data_LETVUB_freeONLY_PM
_symmetry_space_group_name_H-M	'P1'
_cell_length_a	12.325100
_cell_length_b	12.325100
_cell_length_c	6.981000
_cell_angle_alpha	90.000000
_cell_angle_beta	90.000000
_cell_angle_gamma	90.000000
_symmetry_Int_Tables_number 1

loop_
_symmetry_equiv_pos_as_xyz
'x,y,z'

loop_
_atom_site_label
_atom_site_type_symbol
_atom_site_fract_x
_atom_site_fract_y
_atom_site_fract_z
N11	N1	0.652700	0.342400	0.169500
C11	C1	0.594400	0.300700	0.302000
C21	C2	0.530000	0.357900	0.430000
C31	C3	0.533500	0.469100	0.432000
C41	C4	0.594400	0.513800	0.294000
C51	C5	0.655000	0.451200	0.171000
H11	H1	0.596000	0.214000	0.326000
H21	H2	0.475000	0.319000	0.529000
H31	H3	0.593000	0.601000	0.279000
H41	H4	0.706000	0.493000	0.069000
N21	N2	0.847300	0.157600	0.169500
C61	C6	0.905600	0.199300	0.302000
C71	C7	0.970000	0.142100	0.430000
C81	C8	0.966500	0.030900	0.432000
C91	C9	0.905600	0.986200	0.294000
C101	C10	0.845000	0.048800	0.171000
H51	H5	0.904000	0.286000	0.326000
H61	H6	0.025000	0.181000	0.529000
H71	H7	0.907000	0.899000	0.279000
H81	H8	0.794000	0.007000	0.069000
N31	N3	0.157600	0.652700	0.169500
C111	C11	0.199300	0.594400	0.302000
C121	C12	0.142100	0.530000	0.430000
C131	C13	0.030900	0.533500	0.432000
C141	C14	0.986200	0.594400	0.294000
C151	C15	0.048800	0.655000	0.171000
H91	H9	0.286000	0.596000	0.326000
H101	H10	0.181000	0.475000	0.529000
H111	H11	0.899000	0.593000	0.279000
H121	H12	0.007000	0.706000	0.069000
N41	N4	0.342400	0.847300	0.169500
C161	C16	0.300700	0.905600	0.302000
C171	C17	0.357900	0.970000	0.430000
C181	C18	0.469100	0.966500	0.432000
C191	C19	0.513800	0.905600	0.294000
C201	C20	0.451200	0.845000	0.171000
H131	H13	0.214000	0.904000	0.326000
H141	H14	0.319000	0.025000	0.529000
H151	H15	0.601000	0.907000	0.279000
H161	H16	0.493000	0.794000	0.069000
N51	N5	0.347300	0.657600	0.830500
C211	C21	0.405600	0.699300	0.698000
C221	C22	0.470000	0.642100	0.570000
C231	C23	0.466500	0.530900	0.568000
C241	C24	0.405600	0.486200	0.706000
C251	C25	0.345000	0.548800	0.829000
H171	H17	0.404000	0.786000	0.674000
H181	H18	0.525000	0.681000	0.471000
H191	H19	0.407000	0.399000	0.721000
H201	H20	0.294000	0.507000	0.931000
N61	N6	0.152700	0.842400	0.830500
C261	C26	0.094400	0.800700	0.698000
C271	C27	0.030000	0.857900	0.570000
C281	C28	0.033500	0.969100	0.568000
C291	C29	0.094400	0.013800	0.706000
C301	C30	0.155000	0.951200	0.829000
H211	H21	0.096000	0.714000	0.674000
H221	H22	0.975000	0.819000	0.471000
H231	H23	0.093000	0.101000	0.721000
H241	H24	0.206000	0.993000	0.931000
N71	N7	0.842400	0.347300	0.830500
C311	C31	0.800700	0.405600	0.698000
C321	C32	0.857900	0.470000	0.570000
C331	C33	0.969100	0.466500	0.568000
C341	C34	0.013800	0.405600	0.706000
C351	C35	0.951200	0.345000	0.829000
H251	H25	0.714000	0.404000	0.674000
H261	H26	0.819000	0.525000	0.471000
H271	H27	0.101000	0.407000	0.721000
H281	H28	0.993000	0.294000	0.931000
N81	N8	0.657600	0.152700	0.830500
C361	C36	0.699300	0.094400	0.698000
C371	C37	0.642100	0.030000	0.570000
C381	C38	0.530900	0.033500	0.568000
C391	C39	0.486200	0.094400	0.706000
C401	C40	0.548800	0.155000	0.829000
H291	H29	0.786000	0.096000	0.674000
H301	H30	0.681000	0.975000	0.471000
H311	H31	0.399000	0.093000	0.721000
H321	H32	0.507000	0.206000	0.931000
Cu11	Cu1	0.750000	0.250000	0.000000
Cu21	Cu2	0.250000	0.750000	0.000000
