data_LEVLEF_freeONLY_PM
_symmetry_space_group_name_H-M	'P1'
_cell_length_a	30.478700
_cell_length_b	30.478700
_cell_length_c	30.478700
_cell_angle_alpha	109.471000
_cell_angle_beta	109.471000
_cell_angle_gamma	109.471000
_symmetry_Int_Tables_number 1

loop_
_symmetry_equiv_pos_as_xyz
'x,y,z'

loop_
_atom_site_label
_atom_site_type_symbol
_atom_site_fract_x
_atom_site_fract_y
_atom_site_fract_z
Mg11	Mg1	0.769400	0.215400	0.215400
Mg21	Mg2	0.673500	0.243000	0.243000
Mg31	Mg3	0.000000	0.554000	0.784600
Mg41	Mg4	0.000000	0.430500	0.757000
Mg51	Mg5	0.000000	0.784600	0.554000
Mg61	Mg6	0.000000	0.757000	0.430500
Mg71	Mg7	0.230600	0.446000	0.446000
Mg81	Mg8	0.326500	0.569500	0.569500
Mg91	Mg9	0.554000	0.000000	0.784600
Mg101	Mg10	0.430500	0.000000	0.757000
Mg111	Mg11	0.446000	0.230600	0.446000
Mg121	Mg12	0.569500	0.326500	0.569500
Mg131	Mg13	0.215400	0.769400	0.215400
Mg141	Mg14	0.243000	0.673500	0.243000
Mg151	Mg15	0.784600	0.000000	0.554000
Mg161	Mg16	0.757000	0.000000	0.430500
Mg171	Mg17	0.554000	0.784600	0.000000
Mg181	Mg18	0.430500	0.757000	0.000000
Mg191	Mg19	0.215400	0.215400	0.769400
Mg201	Mg20	0.243000	0.243000	0.673500
Mg211	Mg21	0.446000	0.446000	0.230600
Mg221	Mg22	0.569500	0.569500	0.326500
Mg231	Mg23	0.784600	0.554000	0.000000
Mg241	Mg24	0.757000	0.430500	0.000000
Mg251	Mg25	0.784600	0.230600	0.784600
Mg261	Mg26	0.757000	0.326500	0.757000
Mg271	Mg27	0.446000	0.000000	0.215400
Mg281	Mg28	0.569500	0.000000	0.243000
Mg291	Mg29	0.215400	0.000000	0.446000
Mg301	Mg30	0.243000	0.000000	0.569500
Mg311	Mg31	0.554000	0.769400	0.554000
Mg321	Mg32	0.430500	0.673500	0.430500
Mg331	Mg33	0.000000	0.446000	0.215400
Mg341	Mg34	0.000000	0.569500	0.243000
Mg351	Mg35	0.769400	0.554000	0.554000
Mg361	Mg36	0.673500	0.430500	0.430500
Mg371	Mg37	0.230600	0.784600	0.784600
Mg381	Mg38	0.326500	0.757000	0.757000
Mg391	Mg39	0.000000	0.215400	0.446000
Mg401	Mg40	0.000000	0.243000	0.569500
Mg411	Mg41	0.215400	0.446000	0.000000
Mg421	Mg42	0.243000	0.569500	0.000000
Mg431	Mg43	0.784600	0.784600	0.230600
Mg441	Mg44	0.757000	0.757000	0.326500
Mg451	Mg45	0.554000	0.554000	0.769400
Mg461	Mg46	0.430500	0.430500	0.673500
Mg471	Mg47	0.446000	0.215400	0.000000
Mg481	Mg48	0.569500	0.243000	0.000000
H11	H1	0.673900	0.349100	0.272400
H21	H2	0.611300	0.311400	0.247500
H31	H3	0.758300	0.320200	0.374300
H41	H4	0.796500	0.272700	0.132600
H51	H5	0.076700	0.401500	0.727600
H61	H6	0.063900	0.363800	0.752500
H71	H7	0.945900	0.384000	0.625700
H81	H8	0.140100	0.663900	0.867400
H91	H9	0.923300	0.650900	0.324800
H101	H10	0.936100	0.688600	0.299900
H111	H11	0.054100	0.679800	0.438100
H121	H12	0.859900	0.727300	0.523800
H131	H13	0.326100	0.598500	0.675200
H141	H14	0.388700	0.636200	0.700100
H151	H15	0.241700	0.616000	0.561900
H161	H16	0.203500	0.336100	0.476200
H171	H17	0.324800	0.923300	0.650900
H181	H18	0.299900	0.936100	0.688600
H191	H19	0.438100	0.054100	0.679800
H201	H20	0.523800	0.859900	0.727300
H211	H21	0.675200	0.326100	0.598500
H221	H22	0.700100	0.388700	0.636200
H231	H23	0.561900	0.241700	0.616000
H241	H24	0.476200	0.203500	0.336100
H251	H25	0.272400	0.673900	0.349100
H261	H26	0.247500	0.611300	0.311400
H271	H27	0.374300	0.758300	0.320200
H281	H28	0.132600	0.796500	0.272700
H291	H29	0.727600	0.076700	0.401500
H301	H30	0.752500	0.063900	0.363800
H311	H31	0.625700	0.945900	0.384000
H321	H32	0.867400	0.140100	0.663900
H331	H33	0.401500	0.727600	0.076700
H341	H34	0.363800	0.752500	0.063900
H351	H35	0.384000	0.625700	0.945900
H361	H36	0.663900	0.867400	0.140100
H371	H37	0.349100	0.272400	0.673900
H381	H38	0.311400	0.247500	0.611300
H391	H39	0.320200	0.374300	0.758300
H401	H40	0.272700	0.132600	0.796500
H411	H41	0.598500	0.675200	0.326100
H421	H42	0.636200	0.700100	0.388700
H431	H43	0.616000	0.561900	0.241700
H441	H44	0.336100	0.476200	0.203500
H451	H45	0.650900	0.324800	0.923300
H461	H46	0.688600	0.299900	0.936100
H471	H47	0.679800	0.438100	0.054100
H481	H48	0.727300	0.523800	0.859900
H491	H49	0.650900	0.326100	0.727600
H501	H50	0.688600	0.388700	0.752500
H511	H51	0.679800	0.241700	0.625700
H521	H52	0.727300	0.203500	0.867400
H531	H53	0.598500	0.923300	0.272400
H541	H54	0.636200	0.936100	0.247500
H551	H55	0.616000	0.054100	0.374300
H561	H56	0.336100	0.859900	0.132600
H571	H57	0.349100	0.076700	0.675200
H581	H58	0.311400	0.063900	0.700100
H591	H59	0.320200	0.945900	0.561900
H601	H60	0.272700	0.140100	0.476200
H611	H61	0.401500	0.673900	0.324800
H621	H62	0.363800	0.611300	0.299900
H631	H63	0.384000	0.758300	0.438100
H641	H64	0.663900	0.796500	0.523800
H651	H65	0.076700	0.675200	0.349100
H661	H66	0.063900	0.700100	0.311400
H671	H67	0.945900	0.561900	0.320200
H681	H68	0.140100	0.476200	0.272700
H691	H69	0.673900	0.324800	0.401500
H701	H70	0.611300	0.299900	0.363800
H711	H71	0.758300	0.438100	0.384000
H721	H72	0.796500	0.523800	0.663900
H731	H73	0.326100	0.727600	0.650900
H741	H74	0.388700	0.752500	0.688600
H751	H75	0.241700	0.625700	0.679800
H761	H76	0.203500	0.867400	0.727300
H771	H77	0.923300	0.272400	0.598500
H781	H78	0.936100	0.247500	0.636200
H791	H79	0.054100	0.374300	0.616000
H801	H80	0.859900	0.132600	0.336100
H811	H81	0.272400	0.598500	0.923300
H821	H82	0.247500	0.636200	0.936100
H831	H83	0.374300	0.616000	0.054100
H841	H84	0.132600	0.336100	0.859900
H851	H85	0.727600	0.650900	0.326100
H861	H86	0.752500	0.688600	0.388700
H871	H87	0.625700	0.679800	0.241700
H881	H88	0.867400	0.727300	0.203500
H891	H89	0.324800	0.401500	0.673900
H901	H90	0.299900	0.363800	0.611300
H911	H91	0.438100	0.384000	0.758300
H921	H92	0.523800	0.663900	0.796500
H931	H93	0.675200	0.349100	0.076700
H941	H94	0.700100	0.311400	0.063900
H951	H95	0.561900	0.320200	0.945900
H961	H96	0.476200	0.272700	0.140100
H971	H97	0.326100	0.650900	0.727600
H981	H98	0.388700	0.688600	0.752500
H991	H99	0.241700	0.679800	0.625700
H1001	H100	0.203500	0.727300	0.867400
H1011	H101	0.923300	0.598500	0.272400
H1021	H102	0.936100	0.636200	0.247500
H1031	H103	0.054100	0.616000	0.374300
H1041	H104	0.859900	0.336100	0.132600
H1051	H105	0.076700	0.349100	0.675200
H1061	H106	0.063900	0.311400	0.700100
H1071	H107	0.945900	0.320200	0.561900
H1081	H108	0.140100	0.272700	0.476200
H1091	H109	0.673900	0.401500	0.324800
H1101	H110	0.611300	0.363800	0.299900
H1111	H111	0.758300	0.384000	0.438100
H1121	H112	0.796500	0.663900	0.523800
H1131	H113	0.675200	0.076700	0.349100
H1141	H114	0.700100	0.063900	0.311400
H1151	H115	0.561900	0.945900	0.320200
H1161	H116	0.476200	0.140100	0.272700
H1171	H117	0.324800	0.673900	0.401500
H1181	H118	0.299900	0.611300	0.363800
H1191	H119	0.438100	0.758300	0.384000
H1201	H120	0.523800	0.796500	0.663900
H1211	H121	0.727600	0.326100	0.650900
H1221	H122	0.752500	0.388700	0.688600
H1231	H123	0.625700	0.241700	0.679800
H1241	H124	0.867400	0.203500	0.727300
H1251	H125	0.272400	0.923300	0.598500
H1261	H126	0.247500	0.936100	0.636200
H1271	H127	0.374300	0.054100	0.616000
H1281	H128	0.132600	0.859900	0.336100
H1291	H129	0.598500	0.272400	0.923300
H1301	H130	0.636200	0.247500	0.936100
H1311	H131	0.616000	0.374300	0.054100
H1321	H132	0.336100	0.132600	0.859900
H1331	H133	0.650900	0.727600	0.326100
H1341	H134	0.688600	0.752500	0.388700
H1351	H135	0.679800	0.625700	0.241700
H1361	H136	0.727300	0.867400	0.203500
H1371	H137	0.401500	0.324800	0.673900
H1381	H138	0.363800	0.299900	0.611300
H1391	H139	0.384000	0.438100	0.758300
H1401	H140	0.663900	0.523800	0.796500
H1411	H141	0.349100	0.675200	0.076700
H1421	H142	0.311400	0.700100	0.063900
H1431	H143	0.320200	0.561900	0.945900
H1441	H144	0.272700	0.476200	0.140100
H1451	H145	0.349100	0.673900	0.272400
H1461	H146	0.311400	0.611300	0.247500
H1471	H147	0.320200	0.758300	0.374300
H1481	H148	0.272700	0.796500	0.132600
H1491	H149	0.401500	0.076700	0.727600
H1501	H150	0.363800	0.063900	0.752500
H1511	H151	0.384000	0.945900	0.625700
H1521	H152	0.663900	0.140100	0.867400
H1531	H153	0.650900	0.923300	0.324800
H1541	H154	0.688600	0.936100	0.299900
H1551	H155	0.679800	0.054100	0.438100
H1561	H156	0.727300	0.859900	0.523800
H1571	H157	0.598500	0.326100	0.675200
H1581	H158	0.636200	0.388700	0.700100
H1591	H159	0.616000	0.241700	0.561900
H1601	H160	0.336100	0.203500	0.476200
H1611	H161	0.923300	0.324800	0.650900
H1621	H162	0.936100	0.299900	0.688600
H1631	H163	0.054100	0.438100	0.679800
H1641	H164	0.859900	0.523800	0.727300
H1651	H165	0.326100	0.675200	0.598500
H1661	H166	0.388700	0.700100	0.636200
H1671	H167	0.241700	0.561900	0.616000
H1681	H168	0.203500	0.476200	0.336100
H1691	H169	0.673900	0.272400	0.349100
H1701	H170	0.611300	0.247500	0.311400
H1711	H171	0.758300	0.374300	0.320200
H1721	H172	0.796500	0.132600	0.272700
H1731	H173	0.076700	0.727600	0.401500
H1741	H174	0.063900	0.752500	0.363800
H1751	H175	0.945900	0.625700	0.384000
H1761	H176	0.140100	0.867400	0.663900
H1771	H177	0.727600	0.401500	0.076700
H1781	H178	0.752500	0.363800	0.063900
H1791	H179	0.625700	0.384000	0.945900
H1801	H180	0.867400	0.663900	0.140100
H1811	H181	0.272400	0.349100	0.673900
H1821	H182	0.247500	0.311400	0.611300
H1831	H183	0.374300	0.320200	0.758300
H1841	H184	0.132600	0.272700	0.796500
H1851	H185	0.675200	0.598500	0.326100
H1861	H186	0.700100	0.636200	0.388700
H1871	H187	0.561900	0.616000	0.241700
H1881	H188	0.476200	0.336100	0.203500
H1891	H189	0.324800	0.650900	0.923300
H1901	H190	0.299900	0.688600	0.936100
H1911	H191	0.438100	0.679800	0.054100
H1921	H192	0.523800	0.727300	0.859900
H1931	H193	0.856100	0.229300	0.373200
H1941	H194	0.856100	0.482900	0.626800
H1951	H195	0.143900	0.770700	0.626800
H1961	H196	0.143900	0.517100	0.373200
H1971	H197	0.626800	0.143900	0.770700
H1981	H198	0.373200	0.143900	0.517100
H1991	H199	0.373200	0.856100	0.229300
H2001	H200	0.626800	0.856100	0.482900
H2011	H201	0.482900	0.626800	0.856100
H2021	H202	0.229300	0.373200	0.856100
H2031	H203	0.517100	0.373200	0.143900
H2041	H204	0.770700	0.626800	0.143900
H2051	H205	0.770700	0.143900	0.626800
H2061	H206	0.517100	0.143900	0.373200
H2071	H207	0.229300	0.856100	0.373200
H2081	H208	0.482900	0.856100	0.626800
H2091	H209	0.856100	0.373200	0.229300
H2101	H210	0.856100	0.626800	0.482900
H2111	H211	0.143900	0.626800	0.770700
H2121	H212	0.143900	0.373200	0.517100
H2131	H213	0.373200	0.517100	0.143900
H2141	H214	0.626800	0.770700	0.143900
H2151	H215	0.626800	0.482900	0.856100
H2161	H216	0.373200	0.229300	0.856100
H2171	H217	0.632600	0.114200	0.000000
H2181	H218	0.114200	0.632600	0.000000
H2191	H219	0.885800	0.885800	0.518400
H2201	H220	0.367400	0.367400	0.481600
H2211	H221	0.518400	0.885800	0.885800
H2221	H222	0.481600	0.367400	0.367400
H2231	H223	0.000000	0.632600	0.114200
H2241	H224	0.000000	0.114200	0.632600
H2251	H225	0.632600	0.000000	0.114200
H2261	H226	0.114200	0.000000	0.632600
H2271	H227	0.367400	0.481600	0.367400
H2281	H228	0.885800	0.518400	0.885800
H2291	H229	0.885800	0.367400	0.000000
H2301	H230	0.367400	0.885800	0.000000
H2311	H231	0.114200	0.114200	0.481600
H2321	H232	0.632600	0.632600	0.518400
H2331	H233	0.114200	0.481600	0.114200
H2341	H234	0.632600	0.518400	0.632600
H2351	H235	0.367400	0.000000	0.885800
H2361	H236	0.885800	0.000000	0.367400
H2371	H237	0.000000	0.367400	0.885800
H2381	H238	0.000000	0.885800	0.367400
H2391	H239	0.518400	0.632600	0.632600
H2401	H240	0.481600	0.114200	0.114200
C11	C1	0.646700	0.330500	0.280400
C21	C2	0.781700	0.251800	0.324500
C31	C3	0.818100	0.272400	0.384100
C41	C4	0.815420	0.310600	0.423820
C51	C5	0.781550	0.332900	0.411050
C61	C6	0.708100	0.184160	0.097860
C71	C7	0.706970	0.181330	0.049020
C81	C8	0.745800	0.221800	0.050220
C91	C9	0.792680	0.268790	0.099090
C101	C10	0.050100	0.366300	0.719600
C111	C11	0.927300	0.457200	0.675500
C121	C12	0.888300	0.434000	0.615900
C131	C13	0.886780	0.391600	0.576180
C141	C14	0.921850	0.370500	0.588950
C151	C15	0.086300	0.610240	0.902140
C161	C16	0.132310	0.657950	0.950980
C171	C17	0.171580	0.695580	0.949780
C181	C18	0.169700	0.693590	0.900910
C191	C19	0.949900	0.669500	0.316200
C201	C20	0.072700	0.748200	0.529900
C211	C21	0.111700	0.727600	0.545700
C221	C22	0.113220	0.689400	0.504820
C231	C23	0.078150	0.667100	0.448650
C241	C24	0.913700	0.815840	0.523940
C251	C25	0.867690	0.818670	0.525640
C261	C26	0.828420	0.778200	0.524000
C271	C27	0.830300	0.731210	0.523890
C281	C28	0.353300	0.633700	0.683800
C291	C29	0.218300	0.542800	0.470100
C301	C30	0.181900	0.566000	0.454300
C311	C31	0.184580	0.608400	0.495180
C321	C32	0.218450	0.629500	0.551350
C331	C33	0.291900	0.389760	0.476060
C341	C34	0.293030	0.342050	0.474360
C351	C35	0.254200	0.304420	0.476000
C361	C36	0.207320	0.306410	0.476110
C371	C37	0.316200	0.949900	0.669500
C381	C38	0.529900	0.072700	0.748200
C391	C39	0.545700	0.111700	0.727600
C401	C40	0.504820	0.113220	0.689400
C411	C41	0.448650	0.078150	0.667100
C421	C42	0.523940	0.913700	0.815840
C431	C43	0.525640	0.867690	0.818670
C441	C44	0.524000	0.828420	0.778200
C451	C45	0.523890	0.830300	0.731210
C461	C46	0.683800	0.353300	0.633700
C471	C47	0.470100	0.218300	0.542800
C481	C48	0.454300	0.181900	0.566000
C491	C49	0.495180	0.184580	0.608400
C501	C50	0.551350	0.218450	0.629500
C511	C51	0.476060	0.291900	0.389760
C521	C52	0.474360	0.293030	0.342050
C531	C53	0.476000	0.254200	0.304420
C541	C54	0.476110	0.207320	0.306410
C551	C55	0.280400	0.646700	0.330500
C561	C56	0.324500	0.781700	0.251800
C571	C57	0.384100	0.818100	0.272400
C581	C58	0.423820	0.815420	0.310600
C591	C59	0.411050	0.781550	0.332900
C601	C60	0.097860	0.708100	0.184160
C611	C61	0.049020	0.706970	0.181330
C621	C62	0.050220	0.745800	0.221800
C631	C63	0.099090	0.792680	0.268790
C641	C64	0.719600	0.050100	0.366300
C651	C65	0.675500	0.927300	0.457200
C661	C66	0.615900	0.888300	0.434000
C671	C67	0.576180	0.886780	0.391600
C681	C68	0.588950	0.921850	0.370500
C691	C69	0.902140	0.086300	0.610240
C701	C70	0.950980	0.132310	0.657950
C711	C71	0.949780	0.171580	0.695580
C721	C72	0.900910	0.169700	0.693590
C731	C73	0.366300	0.719600	0.050100
C741	C74	0.457200	0.675500	0.927300
C751	C75	0.434000	0.615900	0.888300
C761	C76	0.391600	0.576180	0.886780
C771	C77	0.370500	0.588950	0.921850
C781	C78	0.610240	0.902140	0.086300
C791	C79	0.657950	0.950980	0.132310
C801	C80	0.695580	0.949780	0.171580
C811	C81	0.693590	0.900910	0.169700
C821	C82	0.330500	0.280400	0.646700
C831	C83	0.251800	0.324500	0.781700
C841	C84	0.272400	0.384100	0.818100
C851	C85	0.310600	0.423820	0.815420
C861	C86	0.332900	0.411050	0.781550
C871	C87	0.184160	0.097860	0.708100
C881	C88	0.181330	0.049020	0.706970
C891	C89	0.221800	0.050220	0.745800
C901	C90	0.268790	0.099090	0.792680
C911	C91	0.633700	0.683800	0.353300
C921	C92	0.542800	0.470100	0.218300
C931	C93	0.566000	0.454300	0.181900
C941	C94	0.608400	0.495180	0.184580
C951	C95	0.629500	0.551350	0.218450
C961	C96	0.389760	0.476060	0.291900
C971	C97	0.342050	0.474360	0.293030
C981	C98	0.304420	0.476000	0.254200
C991	C99	0.306410	0.476110	0.207320
C1001	C100	0.669500	0.316200	0.949900
C1011	C101	0.748200	0.529900	0.072700
C1021	C102	0.727600	0.545700	0.111700
C1031	C103	0.689400	0.504820	0.113220
C1041	C104	0.667100	0.448650	0.078150
C1051	C105	0.815840	0.523940	0.913700
C1061	C106	0.818670	0.525640	0.867690
C1071	C107	0.778200	0.524000	0.828420
C1081	C108	0.731210	0.523890	0.830300
C1091	C109	0.669500	0.353300	0.719600
C1101	C110	0.748200	0.218300	0.675500
C1111	C111	0.727600	0.181900	0.615900
C1121	C112	0.689400	0.184580	0.576180
C1131	C113	0.667100	0.218450	0.588950
C1141	C114	0.815840	0.291900	0.902140
C1151	C115	0.818670	0.293030	0.950980
C1161	C116	0.778200	0.254200	0.949780
C1171	C117	0.731210	0.207320	0.900910
C1181	C118	0.633700	0.949900	0.280400
C1191	C119	0.542800	0.072700	0.324500
C1201	C120	0.566000	0.111700	0.384100
C1211	C121	0.608400	0.113220	0.423820
C1221	C122	0.629500	0.078150	0.411050
C1231	C123	0.389760	0.913700	0.097860
C1241	C124	0.342050	0.867690	0.049020
C1251	C125	0.304420	0.828420	0.050220
C1261	C126	0.306410	0.830300	0.099090
C1271	C127	0.330500	0.050100	0.683800
C1281	C128	0.251800	0.927300	0.470100
C1291	C129	0.272400	0.888300	0.454300
C1301	C130	0.310600	0.886780	0.495180
C1311	C131	0.332900	0.921850	0.551350
C1321	C132	0.184160	0.086300	0.476060
C1331	C133	0.181330	0.132310	0.474360
C1341	C134	0.221800	0.171580	0.476000
C1351	C135	0.268790	0.169700	0.476110
C1361	C136	0.366300	0.646700	0.316200
C1371	C137	0.457200	0.781700	0.529900
C1381	C138	0.434000	0.818100	0.545700
C1391	C139	0.391600	0.815420	0.504820
C1401	C140	0.370500	0.781550	0.448650
C1411	C141	0.610240	0.708100	0.523940
C1421	C142	0.657950	0.706970	0.525640
C1431	C143	0.695580	0.745800	0.524000
C1441	C144	0.693590	0.792680	0.523890
C1451	C145	0.050100	0.683800	0.330500
C1461	C146	0.927300	0.470100	0.251800
C1471	C147	0.888300	0.454300	0.272400
C1481	C148	0.886780	0.495180	0.310600
C1491	C149	0.921850	0.551350	0.332900
C1501	C150	0.086300	0.476060	0.184160
C1511	C151	0.132310	0.474360	0.181330
C1521	C152	0.171580	0.476000	0.221800
C1531	C153	0.169700	0.476110	0.268790
C1541	C154	0.646700	0.316200	0.366300
C1551	C155	0.781700	0.529900	0.457200
C1561	C156	0.818100	0.545700	0.434000
C1571	C157	0.815420	0.504820	0.391600
C1581	C158	0.781550	0.448650	0.370500
C1591	C159	0.708100	0.523940	0.610240
C1601	C160	0.706970	0.525640	0.657950
C1611	C161	0.745800	0.524000	0.695580
C1621	C162	0.792680	0.523890	0.693590
C1631	C163	0.353300	0.719600	0.669500
C1641	C164	0.218300	0.675500	0.748200
C1651	C165	0.181900	0.615900	0.727600
C1661	C166	0.184580	0.576180	0.689400
C1671	C167	0.218450	0.588950	0.667100
C1681	C168	0.291900	0.902140	0.815840
C1691	C169	0.293030	0.950980	0.818670
C1701	C170	0.254200	0.949780	0.778200
C1711	C171	0.207320	0.900910	0.731210
C1721	C172	0.949900	0.280400	0.633700
C1731	C173	0.072700	0.324500	0.542800
C1741	C174	0.111700	0.384100	0.566000
C1751	C175	0.113220	0.423820	0.608400
C1761	C176	0.078150	0.411050	0.629500
C1771	C177	0.913700	0.097860	0.389760
C1781	C178	0.867690	0.049020	0.342050
C1791	C179	0.828420	0.050220	0.304420
C1801	C180	0.830300	0.099090	0.306410
C1811	C181	0.280400	0.633700	0.949900
C1821	C182	0.324500	0.542800	0.072700
C1831	C183	0.384100	0.566000	0.111700
C1841	C184	0.423820	0.608400	0.113220
C1851	C185	0.411050	0.629500	0.078150
C1861	C186	0.097860	0.389760	0.913700
C1871	C187	0.049020	0.342050	0.867690
C1881	C188	0.050220	0.304420	0.828420
C1891	C189	0.099090	0.306410	0.830300
C1901	C190	0.719600	0.669500	0.353300
C1911	C191	0.675500	0.748200	0.218300
C1921	C192	0.615900	0.727600	0.181900
C1931	C193	0.576180	0.689400	0.184580
C1941	C194	0.588950	0.667100	0.218450
C1951	C195	0.902140	0.815840	0.291900
C1961	C196	0.950980	0.818670	0.293030
C1971	C197	0.949780	0.778200	0.254200
C1981	C198	0.900910	0.731210	0.207320
C1991	C199	0.316200	0.366300	0.646700
C2001	C200	0.529900	0.457200	0.781700
C2011	C201	0.545700	0.434000	0.818100
C2021	C202	0.504820	0.391600	0.815420
C2031	C203	0.448650	0.370500	0.781550
C2041	C204	0.523940	0.610240	0.708100
C2051	C205	0.525640	0.657950	0.706970
C2061	C206	0.524000	0.695580	0.745800
C2071	C207	0.523890	0.693590	0.792680
C2081	C208	0.683800	0.330500	0.050100
C2091	C209	0.470100	0.251800	0.927300
C2101	C210	0.454300	0.272400	0.888300
C2111	C211	0.495180	0.310600	0.886780
C2121	C212	0.551350	0.332900	0.921850
C2131	C213	0.476060	0.184160	0.086300
C2141	C214	0.474360	0.181330	0.132310
C2151	C215	0.476000	0.221800	0.171580
C2161	C216	0.476110	0.268790	0.169700
C2171	C217	0.353300	0.669500	0.719600
C2181	C218	0.218300	0.748200	0.675500
C2191	C219	0.181900	0.727600	0.615900
C2201	C220	0.184580	0.689400	0.576180
C2211	C221	0.218450	0.667100	0.588950
C2221	C222	0.291900	0.815840	0.902140
C2231	C223	0.293030	0.818670	0.950980
C2241	C224	0.254200	0.778200	0.949780
C2251	C225	0.207320	0.731210	0.900910
C2261	C226	0.949900	0.633700	0.280400
C2271	C227	0.072700	0.542800	0.324500
C2281	C228	0.111700	0.566000	0.384100
C2291	C229	0.113220	0.608400	0.423820
C2301	C230	0.078150	0.629500	0.411050
C2311	C231	0.913700	0.389760	0.097860
C2321	C232	0.867690	0.342050	0.049020
C2331	C233	0.828420	0.304420	0.050220
C2341	C234	0.830300	0.306410	0.099090
C2351	C235	0.050100	0.330500	0.683800
C2361	C236	0.927300	0.251800	0.470100
C2371	C237	0.888300	0.272400	0.454300
C2381	C238	0.886780	0.310600	0.495180
C2391	C239	0.921850	0.332900	0.551350
C2401	C240	0.086300	0.184160	0.476060
C2411	C241	0.132310	0.181330	0.474360
C2421	C242	0.171580	0.221800	0.476000
C2431	C243	0.169700	0.268790	0.476110
C2441	C244	0.646700	0.366300	0.316200
C2451	C245	0.781700	0.457200	0.529900
C2461	C246	0.818100	0.434000	0.545700
C2471	C247	0.815420	0.391600	0.504820
C2481	C248	0.781550	0.370500	0.448650
C2491	C249	0.708100	0.610240	0.523940
C2501	C250	0.706970	0.657950	0.525640
C2511	C251	0.745800	0.695580	0.524000
C2521	C252	0.792680	0.693590	0.523890
C2531	C253	0.683800	0.050100	0.330500
C2541	C254	0.470100	0.927300	0.251800
C2551	C255	0.454300	0.888300	0.272400
C2561	C256	0.495180	0.886780	0.310600
C2571	C257	0.551350	0.921850	0.332900
C2581	C258	0.476060	0.086300	0.184160
C2591	C259	0.474360	0.132310	0.181330
C2601	C260	0.476000	0.171580	0.221800
C2611	C261	0.476110	0.169700	0.268790
C2621	C262	0.316200	0.646700	0.366300
C2631	C263	0.529900	0.781700	0.457200
C2641	C264	0.545700	0.818100	0.434000
C2651	C265	0.504820	0.815420	0.391600
C2661	C266	0.448650	0.781550	0.370500
C2671	C267	0.523940	0.708100	0.610240
C2681	C268	0.525640	0.706970	0.657950
C2691	C269	0.524000	0.745800	0.695580
C2701	C270	0.523890	0.792680	0.693590
C2711	C271	0.719600	0.353300	0.669500
C2721	C272	0.675500	0.218300	0.748200
C2731	C273	0.615900	0.181900	0.727600
C2741	C274	0.576180	0.184580	0.689400
C2751	C275	0.588950	0.218450	0.667100
C2761	C276	0.902140	0.291900	0.815840
C2771	C277	0.950980	0.293030	0.818670
C2781	C278	0.949780	0.254200	0.778200
C2791	C279	0.900910	0.207320	0.731210
C2801	C280	0.280400	0.949900	0.633700
C2811	C281	0.324500	0.072700	0.542800
C2821	C282	0.384100	0.111700	0.566000
C2831	C283	0.423820	0.113220	0.608400
C2841	C284	0.411050	0.078150	0.629500
C2851	C285	0.097860	0.913700	0.389760
C2861	C286	0.049020	0.867690	0.342050
C2871	C287	0.050220	0.828420	0.304420
C2881	C288	0.099090	0.830300	0.306410
C2891	C289	0.633700	0.280400	0.949900
C2901	C290	0.542800	0.324500	0.072700
C2911	C291	0.566000	0.384100	0.111700
C2921	C292	0.608400	0.423820	0.113220
C2931	C293	0.629500	0.411050	0.078150
C2941	C294	0.389760	0.097860	0.913700
C2951	C295	0.342050	0.049020	0.867690
C2961	C296	0.304420	0.050220	0.828420
C2971	C297	0.306410	0.099090	0.830300
C2981	C298	0.669500	0.719600	0.353300
C2991	C299	0.748200	0.675500	0.218300
C3001	C300	0.727600	0.615900	0.181900
C3011	C301	0.689400	0.576180	0.184580
C3021	C302	0.667100	0.588950	0.218450
C3031	C303	0.815840	0.902140	0.291900
C3041	C304	0.818670	0.950980	0.293030
C3051	C305	0.778200	0.949780	0.254200
C3061	C306	0.731210	0.900910	0.207320
C3071	C307	0.366300	0.316200	0.646700
C3081	C308	0.457200	0.529900	0.781700
C3091	C309	0.434000	0.545700	0.818100
C3101	C310	0.391600	0.504820	0.815420
C3111	C311	0.370500	0.448650	0.781550
C3121	C312	0.610240	0.523940	0.708100
C3131	C313	0.657950	0.525640	0.706970
C3141	C314	0.695580	0.524000	0.745800
C3151	C315	0.693590	0.523890	0.792680
C3161	C316	0.330500	0.683800	0.050100
C3171	C317	0.251800	0.470100	0.927300
C3181	C318	0.272400	0.454300	0.888300
C3191	C319	0.310600	0.495180	0.886780
C3201	C320	0.332900	0.551350	0.921850
C3211	C321	0.184160	0.476060	0.086300
C3221	C322	0.181330	0.474360	0.132310
C3231	C323	0.221800	0.476000	0.171580
C3241	C324	0.268790	0.476110	0.169700
C3251	C325	0.330500	0.646700	0.280400
C3261	C326	0.251800	0.781700	0.324500
C3271	C327	0.272400	0.818100	0.384100
C3281	C328	0.310600	0.815420	0.423820
C3291	C329	0.332900	0.781550	0.411050
C3301	C330	0.184160	0.708100	0.097860
C3311	C331	0.181330	0.706970	0.049020
C3321	C332	0.221800	0.745800	0.050220
C3331	C333	0.268790	0.792680	0.099090
C3341	C334	0.366300	0.050100	0.719600
C3351	C335	0.457200	0.927300	0.675500
C3361	C336	0.434000	0.888300	0.615900
C3371	C337	0.391600	0.886780	0.576180
C3381	C338	0.370500	0.921850	0.588950
C3391	C339	0.610240	0.086300	0.902140
C3401	C340	0.657950	0.132310	0.950980
C3411	C341	0.695580	0.171580	0.949780
C3421	C342	0.693590	0.169700	0.900910
C3431	C343	0.669500	0.949900	0.316200
C3441	C344	0.748200	0.072700	0.529900
C3451	C345	0.727600	0.111700	0.545700
C3461	C346	0.689400	0.113220	0.504820
C3471	C347	0.667100	0.078150	0.448650
C3481	C348	0.815840	0.913700	0.523940
C3491	C349	0.818670	0.867690	0.525640
C3501	C350	0.778200	0.828420	0.524000
C3511	C351	0.731210	0.830300	0.523890
C3521	C352	0.633700	0.353300	0.683800
C3531	C353	0.542800	0.218300	0.470100
C3541	C354	0.566000	0.181900	0.454300
C3551	C355	0.608400	0.184580	0.495180
C3561	C356	0.629500	0.218450	0.551350
C3571	C357	0.389760	0.291900	0.476060
C3581	C358	0.342050	0.293030	0.474360
C3591	C359	0.304420	0.254200	0.476000
C3601	C360	0.306410	0.207320	0.476110
C3611	C361	0.949900	0.316200	0.669500
C3621	C362	0.072700	0.529900	0.748200
C3631	C363	0.111700	0.545700	0.727600
C3641	C364	0.113220	0.504820	0.689400
C3651	C365	0.078150	0.448650	0.667100
C3661	C366	0.913700	0.523940	0.815840
C3671	C367	0.867690	0.525640	0.818670
C3681	C368	0.828420	0.524000	0.778200
C3691	C369	0.830300	0.523890	0.731210
C3701	C370	0.353300	0.683800	0.633700
C3711	C371	0.218300	0.470100	0.542800
C3721	C372	0.181900	0.454300	0.566000
C3731	C373	0.184580	0.495180	0.608400
C3741	C374	0.218450	0.551350	0.629500
C3751	C375	0.291900	0.476060	0.389760
C3761	C376	0.293030	0.474360	0.342050
C3771	C377	0.254200	0.476000	0.304420
C3781	C378	0.207320	0.476110	0.306410
C3791	C379	0.646700	0.280400	0.330500
C3801	C380	0.781700	0.324500	0.251800
C3811	C381	0.818100	0.384100	0.272400
C3821	C382	0.815420	0.423820	0.310600
C3831	C383	0.781550	0.411050	0.332900
C3841	C384	0.708100	0.097860	0.184160
C3851	C385	0.706970	0.049020	0.181330
C3861	C386	0.745800	0.050220	0.221800
C3871	C387	0.792680	0.099090	0.268790
C3881	C388	0.050100	0.719600	0.366300
C3891	C389	0.927300	0.675500	0.457200
C3901	C390	0.888300	0.615900	0.434000
C3911	C391	0.886780	0.576180	0.391600
C3921	C392	0.921850	0.588950	0.370500
C3931	C393	0.086300	0.902140	0.610240
C3941	C394	0.132310	0.950980	0.657950
C3951	C395	0.171580	0.949780	0.695580
C3961	C396	0.169700	0.900910	0.693590
C3971	C397	0.719600	0.366300	0.050100
C3981	C398	0.675500	0.457200	0.927300
C3991	C399	0.615900	0.434000	0.888300
C4001	C400	0.576180	0.391600	0.886780
C4011	C401	0.588950	0.370500	0.921850
C4021	C402	0.902140	0.610240	0.086300
C4031	C403	0.950980	0.657950	0.132310
C4041	C404	0.949780	0.695580	0.171580
C4051	C405	0.900910	0.693590	0.169700
C4061	C406	0.280400	0.330500	0.646700
C4071	C407	0.324500	0.251800	0.781700
C4081	C408	0.384100	0.272400	0.818100
C4091	C409	0.423820	0.310600	0.815420
C4101	C410	0.411050	0.332900	0.781550
C4111	C411	0.097860	0.184160	0.708100
C4121	C412	0.049020	0.181330	0.706970
C4131	C413	0.050220	0.221800	0.745800
C4141	C414	0.099090	0.268790	0.792680
C4151	C415	0.683800	0.633700	0.353300
C4161	C416	0.470100	0.542800	0.218300
C4171	C417	0.454300	0.566000	0.181900
C4181	C418	0.495180	0.608400	0.184580
C4191	C419	0.551350	0.629500	0.218450
C4201	C420	0.476060	0.389760	0.291900
C4211	C421	0.474360	0.342050	0.293030
C4221	C422	0.476000	0.304420	0.254200
C4231	C423	0.476110	0.306410	0.207320
C4241	C424	0.316200	0.669500	0.949900
C4251	C425	0.529900	0.748200	0.072700
C4261	C426	0.545700	0.727600	0.111700
C4271	C427	0.504820	0.689400	0.113220
C4281	C428	0.448650	0.667100	0.078150
C4291	C429	0.523940	0.815840	0.913700
C4301	C430	0.525640	0.818670	0.867690
C4311	C431	0.524000	0.778200	0.828420
C4321	C432	0.523890	0.731210	0.830300
C4331	C433	0.854400	0.254500	0.400100
C4341	C434	0.851400	0.331600	0.480200
C4351	C435	0.854400	0.454300	0.599900
C4361	C436	0.851400	0.371200	0.519800
C4371	C437	0.145600	0.745500	0.599900
C4381	C438	0.148600	0.668400	0.519800
C4391	C439	0.145600	0.545700	0.400100
C4401	C440	0.148600	0.628800	0.480200
C4411	C441	0.599900	0.145600	0.745500
C4421	C442	0.519800	0.148600	0.668400
C4431	C443	0.400100	0.145600	0.545700
C4441	C444	0.480200	0.148600	0.628800
C4451	C445	0.400100	0.854400	0.254500
C4461	C446	0.480200	0.851400	0.331600
C4471	C447	0.599900	0.854400	0.454300
C4481	C448	0.519800	0.851400	0.371200
C4491	C449	0.454300	0.599900	0.854400
C4501	C450	0.371200	0.519800	0.851400
C4511	C451	0.254500	0.400100	0.854400
C4521	C452	0.331600	0.480200	0.851400
C4531	C453	0.545700	0.400100	0.145600
C4541	C454	0.628800	0.480200	0.148600
C4551	C455	0.745500	0.599900	0.145600
C4561	C456	0.668400	0.519800	0.148600
C4571	C457	0.745500	0.145600	0.599900
C4581	C458	0.668400	0.148600	0.519800
C4591	C459	0.545700	0.145600	0.400100
C4601	C460	0.628800	0.148600	0.480200
C4611	C461	0.254500	0.854400	0.400100
C4621	C462	0.331600	0.851400	0.480200
C4631	C463	0.454300	0.854400	0.599900
C4641	C464	0.371200	0.851400	0.519800
C4651	C465	0.854400	0.400100	0.254500
C4661	C466	0.851400	0.480200	0.331600
C4671	C467	0.854400	0.599900	0.454300
C4681	C468	0.851400	0.519800	0.371200
C4691	C469	0.145600	0.599900	0.745500
C4701	C470	0.148600	0.519800	0.668400
C4711	C471	0.145600	0.400100	0.545700
C4721	C472	0.148600	0.480200	0.628800
C4731	C473	0.400100	0.545700	0.145600
C4741	C474	0.480200	0.628800	0.148600
C4751	C475	0.599900	0.745500	0.145600
C4761	C476	0.519800	0.668400	0.148600
C4771	C477	0.599900	0.454300	0.854400
C4781	C478	0.519800	0.371200	0.851400
C4791	C479	0.400100	0.254500	0.854400
C4801	C480	0.480200	0.331600	0.851400
C4811	C481	0.742560	0.215660	0.000000
C4821	C482	0.661600	0.139000	0.000000
C4831	C483	0.215660	0.742560	0.000000
C4841	C484	0.139000	0.661600	0.000000
C4851	C485	0.784340	0.784340	0.526900
C4861	C486	0.861000	0.861000	0.522600
C4871	C487	0.257440	0.257440	0.473100
C4881	C488	0.338400	0.338400	0.477400
C4891	C489	0.526900	0.784340	0.784340
C4901	C490	0.522600	0.861000	0.861000
C4911	C491	0.473100	0.257440	0.257440
C4921	C492	0.477400	0.338400	0.338400
C4931	C493	0.000000	0.742560	0.215660
C4941	C494	0.000000	0.661600	0.139000
C4951	C495	0.000000	0.215660	0.742560
C4961	C496	0.000000	0.139000	0.661600
C4971	C497	0.742560	0.000000	0.215660
C4981	C498	0.661600	0.000000	0.139000
C4991	C499	0.215660	0.000000	0.742560
C5001	C500	0.139000	0.000000	0.661600
C5011	C501	0.257440	0.473100	0.257440
C5021	C502	0.338400	0.477400	0.338400
C5031	C503	0.784340	0.526900	0.784340
C5041	C504	0.861000	0.522600	0.861000
C5051	C505	0.784340	0.257440	0.000000
C5061	C506	0.861000	0.338400	0.000000
C5071	C507	0.257440	0.784340	0.000000
C5081	C508	0.338400	0.861000	0.000000
C5091	C509	0.215660	0.215660	0.473100
C5101	C510	0.139000	0.139000	0.477400
C5111	C511	0.742560	0.742560	0.526900
C5121	C512	0.661600	0.661600	0.522600
C5131	C513	0.215660	0.473100	0.215660
C5141	C514	0.139000	0.477400	0.139000
C5151	C515	0.742560	0.526900	0.742560
C5161	C516	0.661600	0.522600	0.661600
C5171	C517	0.257440	0.000000	0.784340
C5181	C518	0.338400	0.000000	0.861000
C5191	C519	0.784340	0.000000	0.257440
C5201	C520	0.861000	0.000000	0.338400
C5211	C521	0.000000	0.257440	0.784340
C5221	C522	0.000000	0.338400	0.861000
C5231	C523	0.000000	0.784340	0.257440
C5241	C524	0.000000	0.861000	0.338400
C5251	C525	0.526900	0.742560	0.742560
C5261	C526	0.522600	0.661600	0.661600
C5271	C527	0.473100	0.215660	0.215660
C5281	C528	0.477400	0.139000	0.139000
O11	O1	0.615800	0.236500	0.175900
O21	O2	0.802430	0.238510	0.295640
O31	O3	0.734680	0.243020	0.308700
O41	O4	0.749600	0.196310	0.137350
O51	O5	0.660870	0.172040	0.097790
O61	O6	0.060600	0.439900	0.824100
O71	O7	0.942870	0.506790	0.704360
O81	O8	0.934320	0.425980	0.691300
O91	O9	0.058960	0.612250	0.862650
O101	O10	0.074250	0.563080	0.902210
O111	O11	0.939400	0.763500	0.379300
O121	O12	0.057130	0.761490	0.563920
O131	O13	0.065680	0.756980	0.491660
O141	O14	0.941040	0.803690	0.553290
O151	O15	0.925750	0.827960	0.488830
O161	O16	0.384200	0.560100	0.620700
O171	O17	0.197570	0.493210	0.436080
O181	O18	0.265320	0.574020	0.508340
O191	O19	0.250400	0.387750	0.446710
O201	O20	0.339130	0.436920	0.511170
O211	O21	0.379300	0.939400	0.763500
O221	O22	0.563920	0.057130	0.761490
O231	O23	0.491660	0.065680	0.756980
O241	O24	0.553290	0.941040	0.803690
O251	O25	0.488830	0.925750	0.827960
O261	O26	0.620700	0.384200	0.560100
O271	O27	0.436080	0.197570	0.493210
O281	O28	0.508340	0.265320	0.574020
O291	O29	0.446710	0.250400	0.387750
O301	O30	0.511170	0.339130	0.436920
O311	O31	0.175900	0.615800	0.236500
O321	O32	0.295640	0.802430	0.238510
O331	O33	0.308700	0.734680	0.243020
O341	O34	0.137350	0.749600	0.196310
O351	O35	0.097790	0.660870	0.172040
O361	O36	0.824100	0.060600	0.439900
O371	O37	0.704360	0.942870	0.506790
O381	O38	0.691300	0.934320	0.425980
O391	O39	0.862650	0.058960	0.612250
O401	O40	0.902210	0.074250	0.563080
O411	O41	0.439900	0.824100	0.060600
O421	O42	0.506790	0.704360	0.942870
O431	O43	0.425980	0.691300	0.934320
O441	O44	0.612250	0.862650	0.058960
O451	O45	0.563080	0.902210	0.074250
O461	O46	0.236500	0.175900	0.615800
O471	O47	0.238510	0.295640	0.802430
O481	O48	0.243020	0.308700	0.734680
O491	O49	0.196310	0.137350	0.749600
O501	O50	0.172040	0.097790	0.660870
O511	O51	0.560100	0.620700	0.384200
O521	O52	0.493210	0.436080	0.197570
O531	O53	0.574020	0.508340	0.265320
O541	O54	0.387750	0.446710	0.250400
O551	O55	0.436920	0.511170	0.339130
O561	O56	0.763500	0.379300	0.939400
O571	O57	0.761490	0.563920	0.057130
O581	O58	0.756980	0.491660	0.065680
O591	O59	0.803690	0.553290	0.941040
O601	O60	0.827960	0.488830	0.925750
O611	O61	0.763500	0.384200	0.824100
O621	O62	0.761490	0.197570	0.704360
O631	O63	0.756980	0.265320	0.691300
O641	O64	0.803690	0.250400	0.862650
O651	O65	0.827960	0.339130	0.902210
O661	O66	0.560100	0.939400	0.175900
O671	O67	0.493210	0.057130	0.295640
O681	O68	0.574020	0.065680	0.308700
O691	O69	0.387750	0.941040	0.137350
O701	O70	0.436920	0.925750	0.097790
O711	O71	0.236500	0.060600	0.620700
O721	O72	0.238510	0.942870	0.436080
O731	O73	0.243020	0.934320	0.508340
O741	O74	0.196310	0.058960	0.446710
O751	O75	0.172040	0.074250	0.511170
O761	O76	0.439900	0.615800	0.379300
O771	O77	0.506790	0.802430	0.563920
O781	O78	0.425980	0.734680	0.491660
O791	O79	0.612250	0.749600	0.553290
O801	O80	0.563080	0.660870	0.488830
O811	O81	0.060600	0.620700	0.236500
O821	O82	0.942870	0.436080	0.238510
O831	O83	0.934320	0.508340	0.243020
O841	O84	0.058960	0.446710	0.196310
O851	O85	0.074250	0.511170	0.172040
O861	O86	0.615800	0.379300	0.439900
O871	O87	0.802430	0.563920	0.506790
O881	O88	0.734680	0.491660	0.425980
O891	O89	0.749600	0.553290	0.612250
O901	O90	0.660870	0.488830	0.563080
O911	O91	0.384200	0.824100	0.763500
O921	O92	0.197570	0.704360	0.761490
O931	O93	0.265320	0.691300	0.756980
O941	O94	0.250400	0.862650	0.803690
O951	O95	0.339130	0.902210	0.827960
O961	O96	0.939400	0.175900	0.560100
O971	O97	0.057130	0.295640	0.493210
O981	O98	0.065680	0.308700	0.574020
O991	O99	0.941040	0.137350	0.387750
O1001	O100	0.925750	0.097790	0.436920
O1011	O101	0.175900	0.560100	0.939400
O1021	O102	0.295640	0.493210	0.057130
O1031	O103	0.308700	0.574020	0.065680
O1041	O104	0.137350	0.387750	0.941040
O1051	O105	0.097790	0.436920	0.925750
O1061	O106	0.824100	0.763500	0.384200
O1071	O107	0.704360	0.761490	0.197570
O1081	O108	0.691300	0.756980	0.265320
O1091	O109	0.862650	0.803690	0.250400
O1101	O110	0.902210	0.827960	0.339130
O1111	O111	0.379300	0.439900	0.615800
O1121	O112	0.563920	0.506790	0.802430
O1131	O113	0.491660	0.425980	0.734680
O1141	O114	0.553290	0.612250	0.749600
O1151	O115	0.488830	0.563080	0.660870
O1161	O116	0.620700	0.236500	0.060600
O1171	O117	0.436080	0.238510	0.942870
O1181	O118	0.508340	0.243020	0.934320
O1191	O119	0.446710	0.196310	0.058960
O1201	O120	0.511170	0.172040	0.074250
O1211	O121	0.384200	0.763500	0.824100
O1221	O122	0.197570	0.761490	0.704360
O1231	O123	0.265320	0.756980	0.691300
O1241	O124	0.250400	0.803690	0.862650
O1251	O125	0.339130	0.827960	0.902210
O1261	O126	0.939400	0.560100	0.175900
O1271	O127	0.057130	0.493210	0.295640
O1281	O128	0.065680	0.574020	0.308700
O1291	O129	0.941040	0.387750	0.137350
O1301	O130	0.925750	0.436920	0.097790
O1311	O131	0.060600	0.236500	0.620700
O1321	O132	0.942870	0.238510	0.436080
O1331	O133	0.934320	0.243020	0.508340
O1341	O134	0.058960	0.196310	0.446710
O1351	O135	0.074250	0.172040	0.511170
O1361	O136	0.615800	0.439900	0.379300
O1371	O137	0.802430	0.506790	0.563920
O1381	O138	0.734680	0.425980	0.491660
O1391	O139	0.749600	0.612250	0.553290
O1401	O140	0.660870	0.563080	0.488830
O1411	O141	0.620700	0.060600	0.236500
O1421	O142	0.436080	0.942870	0.238510
O1431	O143	0.508340	0.934320	0.243020
O1441	O144	0.446710	0.058960	0.196310
O1451	O145	0.511170	0.074250	0.172040
O1461	O146	0.379300	0.615800	0.439900
O1471	O147	0.563920	0.802430	0.506790
O1481	O148	0.491660	0.734680	0.425980
O1491	O149	0.553290	0.749600	0.612250
O1501	O150	0.488830	0.660870	0.563080
O1511	O151	0.824100	0.384200	0.763500
O1521	O152	0.704360	0.197570	0.761490
O1531	O153	0.691300	0.265320	0.756980
O1541	O154	0.862650	0.250400	0.803690
O1551	O155	0.902210	0.339130	0.827960
O1561	O156	0.175900	0.939400	0.560100
O1571	O157	0.295640	0.057130	0.493210
O1581	O158	0.308700	0.065680	0.574020
O1591	O159	0.137350	0.941040	0.387750
O1601	O160	0.097790	0.925750	0.436920
O1611	O161	0.560100	0.175900	0.939400
O1621	O162	0.493210	0.295640	0.057130
O1631	O163	0.574020	0.308700	0.065680
O1641	O164	0.387750	0.137350	0.941040
O1651	O165	0.436920	0.097790	0.925750
O1661	O166	0.763500	0.824100	0.384200
O1671	O167	0.761490	0.704360	0.197570
O1681	O168	0.756980	0.691300	0.265320
O1691	O169	0.803690	0.862650	0.250400
O1701	O170	0.827960	0.902210	0.339130
O1711	O171	0.439900	0.379300	0.615800
O1721	O172	0.506790	0.563920	0.802430
O1731	O173	0.425980	0.491660	0.734680
O1741	O174	0.612250	0.553290	0.749600
O1751	O175	0.563080	0.488830	0.660870
O1761	O176	0.236500	0.620700	0.060600
O1771	O177	0.238510	0.436080	0.942870
O1781	O178	0.243020	0.508340	0.934320
O1791	O179	0.196310	0.446710	0.058960
O1801	O180	0.172040	0.511170	0.074250
O1811	O181	0.236500	0.615800	0.175900
O1821	O182	0.238510	0.802430	0.295640
O1831	O183	0.243020	0.734680	0.308700
O1841	O184	0.196310	0.749600	0.137350
O1851	O185	0.172040	0.660870	0.097790
O1861	O186	0.439900	0.060600	0.824100
O1871	O187	0.506790	0.942870	0.704360
O1881	O188	0.425980	0.934320	0.691300
O1891	O189	0.612250	0.058960	0.862650
O1901	O190	0.563080	0.074250	0.902210
O1911	O191	0.763500	0.939400	0.379300
O1921	O192	0.761490	0.057130	0.563920
O1931	O193	0.756980	0.065680	0.491660
O1941	O194	0.803690	0.941040	0.553290
O1951	O195	0.827960	0.925750	0.488830
O1961	O196	0.560100	0.384200	0.620700
O1971	O197	0.493210	0.197570	0.436080
O1981	O198	0.574020	0.265320	0.508340
O1991	O199	0.387750	0.250400	0.446710
O2001	O200	0.436920	0.339130	0.511170
O2011	O201	0.939400	0.379300	0.763500
O2021	O202	0.057130	0.563920	0.761490
O2031	O203	0.065680	0.491660	0.756980
O2041	O204	0.941040	0.553290	0.803690
O2051	O205	0.925750	0.488830	0.827960
O2061	O206	0.384200	0.620700	0.560100
O2071	O207	0.197570	0.436080	0.493210
O2081	O208	0.265320	0.508340	0.574020
O2091	O209	0.250400	0.446710	0.387750
O2101	O210	0.339130	0.511170	0.436920
O2111	O211	0.615800	0.175900	0.236500
O2121	O212	0.802430	0.295640	0.238510
O2131	O213	0.734680	0.308700	0.243020
O2141	O214	0.749600	0.137350	0.196310
O2151	O215	0.660870	0.097790	0.172040
O2161	O216	0.060600	0.824100	0.439900
O2171	O217	0.942870	0.704360	0.506790
O2181	O218	0.934320	0.691300	0.425980
O2191	O219	0.058960	0.862650	0.612250
O2201	O220	0.074250	0.902210	0.563080
O2211	O221	0.824100	0.439900	0.060600
O2221	O222	0.704360	0.506790	0.942870
O2231	O223	0.691300	0.425980	0.934320
O2241	O224	0.862650	0.612250	0.058960
O2251	O225	0.902210	0.563080	0.074250
O2261	O226	0.175900	0.236500	0.615800
O2271	O227	0.295640	0.238510	0.802430
O2281	O228	0.308700	0.243020	0.734680
O2291	O229	0.137350	0.196310	0.749600
O2301	O230	0.097790	0.172040	0.660870
O2311	O231	0.620700	0.560100	0.384200
O2321	O232	0.436080	0.493210	0.197570
O2331	O233	0.508340	0.574020	0.265320
O2341	O234	0.446710	0.387750	0.250400
O2351	O235	0.511170	0.436920	0.339130
O2361	O236	0.379300	0.763500	0.939400
O2371	O237	0.563920	0.761490	0.057130
O2381	O238	0.491660	0.756980	0.065680
O2391	O239	0.553290	0.803690	0.941040
O2401	O240	0.488830	0.827960	0.925750
O2411	O241	0.841700	0.224850	0.224850
O2421	O242	0.689000	0.192800	0.192800
O2431	O243	0.657020	0.289310	0.289310
O2441	O244	0.000000	0.616850	0.775150
O2451	O245	0.000000	0.496200	0.807200
O2461	O246	0.000000	0.367710	0.710690
O2471	O247	0.000000	0.775150	0.616850
O2481	O248	0.000000	0.807200	0.496200
O2491	O249	0.000000	0.710690	0.367710
O2501	O250	0.158300	0.383150	0.383150
O2511	O251	0.311000	0.503800	0.503800
O2521	O252	0.342980	0.632290	0.632290
O2531	O253	0.616850	0.000000	0.775150
O2541	O254	0.496200	0.000000	0.807200
O2551	O255	0.367710	0.000000	0.710690
O2561	O256	0.383150	0.158300	0.383150
O2571	O257	0.503800	0.311000	0.503800
O2581	O258	0.632290	0.342980	0.632290
O2591	O259	0.224850	0.841700	0.224850
O2601	O260	0.192800	0.689000	0.192800
O2611	O261	0.289310	0.657020	0.289310
O2621	O262	0.775150	0.000000	0.616850
O2631	O263	0.807200	0.000000	0.496200
O2641	O264	0.710690	0.000000	0.367710
O2651	O265	0.616850	0.775150	0.000000
O2661	O266	0.496200	0.807200	0.000000
O2671	O267	0.367710	0.710690	0.000000
O2681	O268	0.224850	0.224850	0.841700
O2691	O269	0.192800	0.192800	0.689000
O2701	O270	0.289310	0.289310	0.657020
O2711	O271	0.383150	0.383150	0.158300
O2721	O272	0.503800	0.503800	0.311000
O2731	O273	0.632290	0.632290	0.342980
O2741	O274	0.775150	0.616850	0.000000
O2751	O275	0.807200	0.496200	0.000000
O2761	O276	0.710690	0.367710	0.000000
O2771	O277	0.775150	0.158300	0.775150
O2781	O278	0.807200	0.311000	0.807200
O2791	O279	0.710690	0.342980	0.710690
O2801	O280	0.383150	0.000000	0.224850
O2811	O281	0.503800	0.000000	0.192800
O2821	O282	0.632290	0.000000	0.289310
O2831	O283	0.224850	0.000000	0.383150
O2841	O284	0.192800	0.000000	0.503800
O2851	O285	0.289310	0.000000	0.632290
O2861	O286	0.616850	0.841700	0.616850
O2871	O287	0.496200	0.689000	0.496200
O2881	O288	0.367710	0.657020	0.367710
O2891	O289	0.000000	0.383150	0.224850
O2901	O290	0.000000	0.503800	0.192800
O2911	O291	0.000000	0.632290	0.289310
O2921	O292	0.841700	0.616850	0.616850
O2931	O293	0.689000	0.496200	0.496200
O2941	O294	0.657020	0.367710	0.367710
O2951	O295	0.158300	0.775150	0.775150
O2961	O296	0.311000	0.807200	0.807200
O2971	O297	0.342980	0.710690	0.710690
O2981	O298	0.000000	0.224850	0.383150
O2991	O299	0.000000	0.192800	0.503800
O3001	O300	0.000000	0.289310	0.632290
O3011	O301	0.224850	0.383150	0.000000
O3021	O302	0.192800	0.503800	0.000000
O3031	O303	0.289310	0.632290	0.000000
O3041	O304	0.775150	0.775150	0.158300
O3051	O305	0.807200	0.807200	0.311000
O3061	O306	0.710690	0.710690	0.342980
O3071	O307	0.616850	0.616850	0.841700
O3081	O308	0.496200	0.496200	0.689000
O3091	O309	0.367710	0.367710	0.657020
O3101	O310	0.383150	0.224850	0.000000
O3111	O311	0.503800	0.192800	0.000000
O3121	O312	0.632290	0.289310	0.000000
