data_LEVPAF_freeONLY_PM
_symmetry_space_group_name_H-M	'P1'
_cell_length_a	31.864000
_cell_length_b	31.864000
_cell_length_c	12.846000
_cell_angle_alpha	90.000000
_cell_angle_beta	90.000000
_cell_angle_gamma	120.000000
_symmetry_Int_Tables_number 1

loop_
_symmetry_equiv_pos_as_xyz
'x,y,z'

loop_
_atom_site_label
_atom_site_type_symbol
_atom_site_fract_x
_atom_site_fract_y
_atom_site_fract_z
C11	C1	0.021590	0.294120	0.034000
C21	C2	0.055460	0.275270	0.022700
H11	H1	0.069200	0.276500	0.958100
C31	C3	0.066430	0.256640	0.103300
H21	H2	0.050100	0.254900	0.164600
C41	C4	0.100120	0.238430	0.110800
C51	C5	0.131110	0.240460	0.032000
C61	C6	0.164870	0.225500	0.049600
H31	H3	0.185500	0.227300	0.996300
C71	C7	0.167700	0.207930	0.146700
H41	H4	0.190700	0.198600	0.158600
C81	C8	0.136800	0.204000	0.224900
H51	H5	0.138100	0.191400	0.289300
C91	C9	0.103530	0.219040	0.207300
H61	H6	0.082600	0.216200	0.260900
C101	C10	0.096380	0.307480	0.749500
C111	C11	0.129920	0.292210	0.709200
H71	H7	0.163000	0.313700	0.715600
C121	C12	0.115990	0.249950	0.664400
H81	H8	0.082900	0.228900	0.656900
C131	C13	0.148740	0.233620	0.625600
C141	C14	0.132430	0.196060	0.552000
C151	C15	0.163280	0.180210	0.515800
H91	H9	0.152200	0.155500	0.466700
C161	C16	0.210090	0.200920	0.552400
H101	H10	0.230300	0.189600	0.529000
C171	C17	0.227230	0.238550	0.623800
H111	H11	0.259200	0.253300	0.646500
C181	C18	0.196600	0.254130	0.661100
H121	H12	0.208000	0.278700	0.710600
C191	C19	0.910980	0.240130	0.814900
H131	H13	0.915500	0.250800	0.883500
C201	C20	0.865660	0.203580	0.785300
H141	H14	0.840600	0.190200	0.833800
C211	C21	0.857320	0.186710	0.683600
C221	C22	0.896770	0.209160	0.615500
H151	H15	0.893200	0.199700	0.546000
C231	C23	0.940850	0.245190	0.651200
H161	H16	0.966600	0.259400	0.604600
N11	N1	0.948520	0.260860	0.750100
O11	O1	0.010440	0.300350	0.124500
O21	O2	0.004540	0.303760	0.954700
O31	O3	0.050800	0.278250	0.743200
O41	O4	0.113110	0.348830	0.787800
O51	O5	0.128570	0.257860	0.938200
H171	H17	0.155500	0.271400	0.911200
O61	O6	0.086270	0.176520	0.518200
H181	H18	0.079800	0.153500	0.479900
Zn11	Zn1	0.016730	0.309260	0.802860
C241	C24	0.688260	0.627450	0.367330
C251	C25	0.722130	0.608600	0.356030
H191	H19	0.735870	0.609830	0.291430
C261	C26	0.733100	0.589970	0.436630
H201	H20	0.716770	0.588230	0.497930
C271	C27	0.766790	0.571760	0.444130
C281	C28	0.797780	0.573790	0.365330
C291	C29	0.831540	0.558830	0.382930
H211	H21	0.852170	0.560630	0.329630
C301	C30	0.834370	0.541260	0.480030
H221	H22	0.857370	0.531930	0.491930
C311	C31	0.803470	0.537330	0.558230
H231	H23	0.804770	0.524730	0.622630
C321	C32	0.770200	0.552370	0.540630
H241	H24	0.749270	0.549530	0.594230
C331	C33	0.763050	0.640810	0.082830
C341	C34	0.796590	0.625540	0.042530
H251	H25	0.829670	0.647030	0.048930
C351	C35	0.782660	0.583280	0.997730
H261	H26	0.749570	0.562230	0.990230
C361	C36	0.815410	0.566950	0.958930
C371	C37	0.799100	0.529390	0.885330
C381	C38	0.829950	0.513540	0.849130
H271	H27	0.818870	0.488830	0.800030
C391	C39	0.876760	0.534250	0.885730
H281	H28	0.896970	0.522930	0.862330
C401	C40	0.893900	0.571880	0.957130
H291	H29	0.925870	0.586630	0.979830
C411	C41	0.863270	0.587460	0.994430
H301	H30	0.874670	0.612030	0.043930
C421	C42	0.577650	0.573460	0.148230
H311	H31	0.582170	0.584130	0.216830
C431	C43	0.532330	0.536910	0.118630
H321	H32	0.507270	0.523530	0.167130
C441	C44	0.523990	0.520040	0.016930
C451	C45	0.563440	0.542490	0.948830
H331	H33	0.559870	0.533030	0.879330
C461	C46	0.607520	0.578520	0.984530
H341	H34	0.633270	0.592730	0.937930
N21	N2	0.615190	0.594190	0.083430
O71	O7	0.677110	0.633680	0.457830
O81	O8	0.671210	0.637090	0.288030
O91	O9	0.717470	0.611580	0.076530
O101	O10	0.779780	0.682160	0.121130
O111	O11	0.795240	0.591190	0.271530
H351	H35	0.822170	0.604730	0.244530
O121	O12	0.752940	0.509850	0.851530
H361	H36	0.746470	0.486830	0.813230
Zn21	Zn2	0.683390	0.642600	0.136190
C471	C47	0.354920	0.960790	0.700670
C481	C48	0.388790	0.941940	0.689370
H371	H37	0.402530	0.943170	0.624770
C491	C49	0.399760	0.923310	0.769970
H381	H38	0.383430	0.921570	0.831270
C501	C50	0.433450	0.905100	0.777470
C511	C51	0.464440	0.907130	0.698670
C521	C52	0.498200	0.892170	0.716270
H391	H39	0.518830	0.893970	0.662970
C531	C53	0.501030	0.874600	0.813370
H401	H40	0.524030	0.865270	0.825270
C541	C54	0.470130	0.870670	0.891570
H411	H41	0.471430	0.858070	0.955970
C551	C55	0.436860	0.885710	0.873970
H421	H42	0.415930	0.882870	0.927570
C561	C56	0.429710	0.974150	0.416170
C571	C57	0.463250	0.958880	0.375870
H431	H43	0.496330	0.980370	0.382270
C581	C58	0.449320	0.916620	0.331070
H441	H44	0.416230	0.895570	0.323570
C591	C59	0.482070	0.900290	0.292270
C601	C60	0.465760	0.862730	0.218670
C611	C61	0.496610	0.846880	0.182470
H451	H45	0.485530	0.822170	0.133370
C621	C62	0.543420	0.867590	0.219070
H461	H46	0.563630	0.856270	0.195670
C631	C63	0.560560	0.905220	0.290470
H471	H47	0.592530	0.919970	0.313170
C641	C64	0.529930	0.920800	0.327770
H481	H48	0.541330	0.945370	0.377270
C651	C65	0.244310	0.906800	0.481570
H491	H49	0.248830	0.917470	0.550170
C661	C66	0.198990	0.870250	0.451970
H501	H50	0.173930	0.856870	0.500470
C671	C67	0.190650	0.853380	0.350270
C681	C68	0.230100	0.875830	0.282170
H511	H51	0.226530	0.866370	0.212670
C691	C69	0.274180	0.911860	0.317870
H521	H52	0.299930	0.926070	0.271270
N31	N3	0.281850	0.927530	0.416770
O131	O13	0.343770	0.967020	0.791170
O141	O14	0.337870	0.970430	0.621370
O151	O15	0.384130	0.944920	0.409870
O161	O16	0.446440	0.015500	0.454470
O171	O17	0.461900	0.924530	0.604870
H531	H53	0.488830	0.938070	0.577870
O181	O18	0.419600	0.843190	0.184870
H541	H54	0.413130	0.820170	0.146570
Zn31	Zn3	0.350060	0.975930	0.469530
C701	C70	0.705880	0.727470	0.034000
C711	C71	0.724730	0.780190	0.022700
H551	H55	0.723500	0.792700	0.958100
C721	C72	0.743360	0.809790	0.103300
H561	H56	0.745100	0.795200	0.164600
C731	C73	0.761570	0.861690	0.110800
C741	C74	0.759540	0.890650	0.032000
C751	C75	0.774500	0.939370	0.049600
H571	H57	0.772700	0.958200	0.996300
C761	C76	0.792070	0.959770	0.146700
H581	H58	0.801400	0.992100	0.158600
C771	C77	0.796000	0.932800	0.224900
H591	H59	0.808600	0.946700	0.289300
C781	C78	0.780960	0.884490	0.207300
H601	H60	0.783800	0.866400	0.260900
C791	C79	0.692520	0.788900	0.749500
C801	C80	0.707790	0.837710	0.709200
H611	H61	0.686300	0.849300	0.715600
C811	C81	0.750050	0.866040	0.664400
H621	H62	0.771100	0.854000	0.656900
C821	C82	0.766380	0.915120	0.625600
C831	C83	0.803940	0.936370	0.552000
C841	C84	0.819790	0.983070	0.515800
H631	H63	0.844500	0.996700	0.466700
C851	C85	0.799080	0.009170	0.552400
H641	H64	0.810400	0.040700	0.529000
C861	C86	0.761450	0.988680	0.623800
H651	H65	0.746700	0.005900	0.646500
C871	C87	0.745870	0.942470	0.661100
H661	H66	0.721300	0.929300	0.710600
C881	C88	0.759870	0.670850	0.814900
H671	H67	0.749200	0.664700	0.883500
C891	C89	0.796420	0.662080	0.785300
H681	H68	0.809800	0.650400	0.833800
C901	C90	0.813290	0.670610	0.683600
C911	C91	0.790840	0.687610	0.615500
H691	H69	0.800300	0.693500	0.546000
C921	C92	0.754810	0.695660	0.651200
H701	H70	0.740600	0.707200	0.604600
N41	N4	0.739140	0.687660	0.750100
O191	O19	0.699650	0.710090	0.124500
O201	O20	0.696240	0.700780	0.954700
O211	O21	0.721750	0.772550	0.743200
O221	O22	0.651170	0.764280	0.787800
O231	O23	0.742140	0.870710	0.938200
H711	H71	0.728600	0.884100	0.911200
O241	O24	0.823480	0.909750	0.518200
H721	H72	0.846500	0.926300	0.479900
Zn41	Zn4	0.690740	0.707460	0.802860
C931	C93	0.372550	0.060800	0.367330
C941	C94	0.391400	0.113520	0.356030
H731	H73	0.390170	0.126030	0.291430
C951	C95	0.410030	0.143120	0.436630
H741	H74	0.411770	0.128530	0.497930
C961	C96	0.428240	0.195020	0.444130
C971	C97	0.426210	0.223980	0.365330
C981	C98	0.441170	0.272700	0.382930
H751	H75	0.439370	0.291530	0.329630
C991	C99	0.458740	0.293100	0.480030
H761	H76	0.468070	0.325430	0.491930
C1001	C100	0.462670	0.266130	0.558230
H771	H77	0.475270	0.280030	0.622630
C1011	C101	0.447630	0.217820	0.540630
H781	H78	0.450470	0.199730	0.594230
C1021	C102	0.359190	0.122230	0.082830
C1031	C103	0.374460	0.171040	0.042530
H791	H79	0.352970	0.182630	0.048930
C1041	C104	0.416720	0.199370	0.997730
H801	H80	0.437770	0.187330	0.990230
C1051	C105	0.433050	0.248450	0.958930
C1061	C106	0.470610	0.269700	0.885330
C1071	C107	0.486460	0.316400	0.849130
H811	H81	0.511170	0.330030	0.800030
C1081	C108	0.465750	0.342500	0.885730
H821	H82	0.477070	0.374030	0.862330
C1091	C109	0.428120	0.322010	0.957130
H831	H83	0.413370	0.339230	0.979830
C1101	C110	0.412540	0.275800	0.994430
H841	H84	0.387970	0.262630	0.043930
C1111	C111	0.426540	0.004180	0.148230
H851	H85	0.415870	0.998030	0.216830
C1121	C112	0.463090	0.995410	0.118630
H861	H86	0.476470	0.983730	0.167130
C1131	C113	0.479960	0.003940	0.016930
C1141	C114	0.457510	0.020940	0.948830
H871	H87	0.466970	0.026830	0.879330
C1151	C115	0.421480	0.028990	0.984530
H881	H88	0.407270	0.040530	0.937930
N51	N5	0.405810	0.020990	0.083430
O251	O25	0.366320	0.043420	0.457830
O261	O26	0.362910	0.034110	0.288030
O271	O27	0.388420	0.105880	0.076530
O281	O28	0.317840	0.097610	0.121130
O291	O29	0.408810	0.204040	0.271530
H891	H89	0.395270	0.217430	0.244530
O301	O30	0.490150	0.243080	0.851530
H901	H90	0.513170	0.259630	0.813230
Zn51	Zn5	0.357400	0.040800	0.136190
C1161	C116	0.039210	0.394140	0.700670
C1171	C117	0.058060	0.446860	0.689370
H911	H91	0.056830	0.459370	0.624770
C1181	C118	0.076690	0.476460	0.769970
H921	H92	0.078430	0.461870	0.831270
C1191	C119	0.094900	0.528360	0.777470
C1201	C120	0.092870	0.557320	0.698670
C1211	C121	0.107830	0.606040	0.716270
H931	H93	0.106030	0.624870	0.662970
C1221	C122	0.125400	0.626440	0.813370
H941	H94	0.134730	0.658770	0.825270
C1231	C123	0.129330	0.599470	0.891570
H951	H95	0.141930	0.613370	0.955970
C1241	C124	0.114290	0.551160	0.873970
H961	H96	0.117130	0.533070	0.927570
C1251	C125	0.025850	0.455570	0.416170
C1261	C126	0.041120	0.504380	0.375870
H971	H97	0.019630	0.515970	0.382270
C1271	C127	0.083380	0.532710	0.331070
H981	H98	0.104430	0.520670	0.323570
C1281	C128	0.099710	0.581790	0.292270
C1291	C129	0.137270	0.603040	0.218670
C1301	C130	0.153120	0.649740	0.182470
H991	H99	0.177830	0.663370	0.133370
C1311	C131	0.132410	0.675840	0.219070
H1001	H100	0.143730	0.707370	0.195670
C1321	C132	0.094780	0.655350	0.290470
H1011	H101	0.080030	0.672570	0.313170
C1331	C133	0.079200	0.609140	0.327770
H1021	H102	0.054630	0.595970	0.377270
C1341	C134	0.093200	0.337520	0.481570
H1031	H103	0.082530	0.331370	0.550170
C1351	C135	0.129750	0.328750	0.451970
H1041	H104	0.143130	0.317070	0.500470
C1361	C136	0.146620	0.337280	0.350270
C1371	C137	0.124170	0.354280	0.282170
H1051	H105	0.133630	0.360170	0.212670
C1381	C138	0.088140	0.362330	0.317870
H1061	H106	0.073930	0.373870	0.271270
N61	N6	0.072470	0.354330	0.416770
O311	O31	0.032980	0.376760	0.791170
O321	O32	0.029570	0.367450	0.621370
O331	O33	0.055080	0.439220	0.409870
O341	O34	0.984500	0.430950	0.454470
O351	O35	0.075470	0.537380	0.604870
H1071	H107	0.061930	0.550770	0.577870
O361	O36	0.156810	0.576420	0.184870
H1081	H108	0.179830	0.592970	0.146570
Zn61	Zn6	0.024070	0.374130	0.469530
C1391	C139	0.272530	0.978410	0.034000
C1401	C140	0.219810	0.944540	0.022700
H1091	H109	0.207300	0.930800	0.958100
C1411	C141	0.190210	0.933570	0.103300
H1101	H110	0.204800	0.949900	0.164600
C1421	C142	0.138310	0.899880	0.110800
C1431	C143	0.109350	0.868890	0.032000
C1441	C144	0.060630	0.835130	0.049600
H1111	H111	0.041800	0.814500	0.996300
C1451	C145	0.040230	0.832300	0.146700
H1121	H112	0.007900	0.809300	0.158600
C1461	C146	0.067200	0.863200	0.224900
H1131	H113	0.053300	0.861900	0.289300
C1471	C147	0.115510	0.896470	0.207300
H1141	H114	0.133600	0.917400	0.260900
C1481	C148	0.211100	0.903620	0.749500
C1491	C149	0.162290	0.870080	0.709200
H1151	H115	0.150700	0.837000	0.715600
C1501	C150	0.133960	0.884010	0.664400
H1161	H116	0.146000	0.917100	0.656900
C1511	C151	0.084880	0.851260	0.625600
C1521	C152	0.063630	0.867570	0.552000
C1531	C153	0.016930	0.836720	0.515800
H1171	H117	0.003300	0.847800	0.466700
C1541	C154	0.990830	0.789910	0.552400
H1181	H118	0.959300	0.769700	0.529000
C1551	C155	0.011320	0.772770	0.623800
H1191	H119	0.994100	0.740800	0.646500
C1561	C156	0.057530	0.803400	0.661100
H1201	H120	0.070700	0.792000	0.710600
C1571	C157	0.329150	0.089020	0.814900
H1211	H121	0.335300	0.084500	0.883500
C1581	C158	0.337920	0.134340	0.785300
H1221	H122	0.349600	0.159400	0.833800
C1591	C159	0.329390	0.142680	0.683600
C1601	C160	0.312390	0.103230	0.615500
H1231	H123	0.306500	0.106800	0.546000
C1611	C161	0.304340	0.059150	0.651200
H1241	H124	0.292800	0.033400	0.604600
N71	N7	0.312340	0.051480	0.750100
O371	O37	0.289910	0.989560	0.124500
O381	O38	0.299220	0.995460	0.954700
O391	O39	0.227450	0.949200	0.743200
O401	O40	0.235720	0.886890	0.787800
O411	O41	0.129290	0.871430	0.938200
H1251	H125	0.115900	0.844500	0.911200
O421	O42	0.090250	0.913730	0.518200
H1261	H126	0.073700	0.920200	0.479900
Zn71	Zn7	0.292540	0.983270	0.802860
C1621	C162	0.939200	0.311740	0.367330
C1631	C163	0.886480	0.277870	0.356030
H1271	H127	0.873970	0.264130	0.291430
C1641	C164	0.856880	0.266900	0.436630
H1281	H128	0.871470	0.283230	0.497930
C1651	C165	0.804980	0.233210	0.444130
C1661	C166	0.776020	0.202220	0.365330
C1671	C167	0.727300	0.168460	0.382930
H1291	H129	0.708470	0.147830	0.329630
C1681	C168	0.706900	0.165630	0.480030
H1301	H130	0.674570	0.142630	0.491930
C1691	C169	0.733870	0.196530	0.558230
H1311	H131	0.719970	0.195230	0.622630
C1701	C170	0.782180	0.229800	0.540630
H1321	H132	0.800270	0.250730	0.594230
C1711	C171	0.877770	0.236950	0.082830
C1721	C172	0.828960	0.203410	0.042530
H1331	H133	0.817370	0.170330	0.048930
C1731	C173	0.800630	0.217340	0.997730
H1341	H134	0.812670	0.250430	0.990230
C1741	C174	0.751550	0.184590	0.958930
C1751	C175	0.730300	0.200900	0.885330
C1761	C176	0.683600	0.170050	0.849130
H1351	H135	0.669970	0.181130	0.800030
C1771	C177	0.657500	0.123240	0.885730
H1361	H136	0.625970	0.103030	0.862330
C1781	C178	0.677990	0.106100	0.957130
H1371	H137	0.660770	0.074130	0.979830
C1791	C179	0.724200	0.136730	0.994430
H1381	H138	0.737370	0.125330	0.043930
C1801	C180	0.995820	0.422350	0.148230
H1391	H139	0.001970	0.417830	0.216830
C1811	C181	0.004590	0.467670	0.118630
H1401	H140	0.016270	0.492730	0.167130
C1821	C182	0.996060	0.476010	0.016930
C1831	C183	0.979060	0.436560	0.948830
H1411	H141	0.973170	0.440130	0.879330
C1841	C184	0.971010	0.392480	0.984530
H1421	H142	0.959470	0.366730	0.937930
N81	N8	0.979010	0.384810	0.083430
O431	O43	0.956580	0.322890	0.457830
O441	O44	0.965890	0.328790	0.288030
O451	O45	0.894120	0.282530	0.076530
O461	O46	0.902390	0.220220	0.121130
O471	O47	0.795960	0.204760	0.271530
H1431	H143	0.782570	0.177830	0.244530
O481	O48	0.756920	0.247060	0.851530
H1441	H144	0.740370	0.253530	0.813230
Zn81	Zn8	0.959200	0.316610	0.136190
C1851	C185	0.605860	0.645080	0.700670
C1861	C186	0.553140	0.611210	0.689370
H1451	H145	0.540630	0.597470	0.624770
C1871	C187	0.523540	0.600240	0.769970
H1461	H146	0.538130	0.616570	0.831270
C1881	C188	0.471640	0.566550	0.777470
C1891	C189	0.442680	0.535560	0.698670
C1901	C190	0.393960	0.501800	0.716270
H1471	H147	0.375130	0.481170	0.662970
C1911	C191	0.373560	0.498970	0.813370
H1481	H148	0.341230	0.475970	0.825270
C1921	C192	0.400530	0.529870	0.891570
H1491	H149	0.386630	0.528570	0.955970
C1931	C193	0.448840	0.563140	0.873970
H1501	H150	0.466930	0.584070	0.927570
C1941	C194	0.544430	0.570290	0.416170
C1951	C195	0.495620	0.536750	0.375870
H1511	H151	0.484030	0.503670	0.382270
C1961	C196	0.467290	0.550680	0.331070
H1521	H152	0.479330	0.583770	0.323570
C1971	C197	0.418210	0.517930	0.292270
C1981	C198	0.396960	0.534240	0.218670
C1991	C199	0.350260	0.503390	0.182470
H1531	H153	0.336630	0.514470	0.133370
C2001	C200	0.324160	0.456580	0.219070
H1541	H154	0.292630	0.436370	0.195670
C2011	C201	0.344650	0.439440	0.290470
H1551	H155	0.327430	0.407470	0.313170
C2021	C202	0.390860	0.470070	0.327770
H1561	H156	0.404030	0.458670	0.377270
C2031	C203	0.662480	0.755690	0.481570
H1571	H157	0.668630	0.751170	0.550170
C2041	C204	0.671250	0.801010	0.451970
H1581	H158	0.682930	0.826070	0.500470
C2051	C205	0.662720	0.809350	0.350270
C2061	C206	0.645720	0.769900	0.282170
H1591	H159	0.639830	0.773470	0.212670
C2071	C207	0.637670	0.725820	0.317870
H1601	H160	0.626130	0.700070	0.271270
N91	N9	0.645670	0.718150	0.416770
O491	O49	0.623240	0.656230	0.791170
O501	O50	0.632550	0.662130	0.621370
O511	O51	0.560780	0.615870	0.409870
O521	O52	0.569050	0.553560	0.454470
O531	O53	0.462620	0.538100	0.604870
H1611	H161	0.449230	0.511170	0.577870
O541	O54	0.423580	0.580400	0.184870
H1621	H162	0.407030	0.586870	0.146570
Zn91	Zn9	0.625870	0.649940	0.469530
C2081	C208	0.978410	0.705880	0.966000
C2091	C209	0.944540	0.724730	0.977300
H1631	H163	0.930800	0.723500	0.041900
C2101	C210	0.933570	0.743360	0.896700
H1641	H164	0.949900	0.745100	0.835400
C2111	C211	0.899880	0.761570	0.889200
C2121	C212	0.868890	0.759540	0.968000
C2131	C213	0.835130	0.774500	0.950400
H1651	H165	0.814500	0.772700	0.003700
C2141	C214	0.832300	0.792070	0.853300
H1661	H166	0.809300	0.801400	0.841400
C2151	C215	0.863200	0.796000	0.775100
H1671	H167	0.861900	0.808600	0.710700
C2161	C216	0.896470	0.780960	0.792700
H1681	H168	0.917400	0.783800	0.739100
C2171	C217	0.903620	0.692520	0.250500
C2181	C218	0.870080	0.707790	0.290800
H1691	H169	0.837000	0.686300	0.284400
C2191	C219	0.884010	0.750050	0.335600
H1701	H170	0.917100	0.771100	0.343100
C2201	C220	0.851260	0.766380	0.374400
C2211	C221	0.867570	0.803940	0.448000
C2221	C222	0.836720	0.819790	0.484200
H1711	H171	0.847800	0.844500	0.533300
C2231	C223	0.789910	0.799080	0.447600
H1721	H172	0.769700	0.810400	0.471000
C2241	C224	0.772770	0.761450	0.376200
H1731	H173	0.740800	0.746700	0.353500
C2251	C225	0.803400	0.745870	0.338900
H1741	H174	0.792000	0.721300	0.289400
C2261	C226	0.089020	0.759870	0.185100
H1751	H175	0.084500	0.749200	0.116500
C2271	C227	0.134340	0.796420	0.214700
H1761	H176	0.159400	0.809800	0.166200
C2281	C228	0.142680	0.813290	0.316400
C2291	C229	0.103230	0.790840	0.384500
H1771	H177	0.106800	0.800300	0.454000
C2301	C230	0.059150	0.754810	0.348800
H1781	H178	0.033400	0.740600	0.395400
N101	N10	0.051480	0.739140	0.249900
O551	O55	0.989560	0.699650	0.875500
O561	O56	0.995460	0.696240	0.045300
O571	O57	0.949200	0.721750	0.256800
O581	O58	0.886890	0.651170	0.212200
O591	O59	0.871430	0.742140	0.061800
H1791	H179	0.844500	0.728600	0.088800
O601	O60	0.913730	0.823480	0.481800
H1801	H180	0.920200	0.846500	0.520100
Zn101	Zn10	0.983270	0.690740	0.197140
C2311	C231	0.645080	0.039210	0.299330
C2321	C232	0.611210	0.058060	0.310630
H1811	H181	0.597470	0.056830	0.375230
C2331	C233	0.600240	0.076690	0.230030
H1821	H182	0.616570	0.078430	0.168730
C2341	C234	0.566550	0.094900	0.222530
C2351	C235	0.535560	0.092870	0.301330
C2361	C236	0.501800	0.107830	0.283730
H1831	H183	0.481170	0.106030	0.337030
C2371	C237	0.498970	0.125400	0.186630
H1841	H184	0.475970	0.134730	0.174730
C2381	C238	0.529870	0.129330	0.108430
H1851	H185	0.528570	0.141930	0.044030
C2391	C239	0.563140	0.114290	0.126030
H1861	H186	0.584070	0.117130	0.072430
C2401	C240	0.570290	0.025850	0.583830
C2411	C241	0.536750	0.041120	0.624130
H1871	H187	0.503670	0.019630	0.617730
C2421	C242	0.550680	0.083380	0.668930
H1881	H188	0.583770	0.104430	0.676430
C2431	C243	0.517930	0.099710	0.707730
C2441	C244	0.534240	0.137270	0.781330
C2451	C245	0.503390	0.153120	0.817530
H1891	H189	0.514470	0.177830	0.866630
C2461	C246	0.456580	0.132410	0.780930
H1901	H190	0.436370	0.143730	0.804330
C2471	C247	0.439440	0.094780	0.709530
H1911	H191	0.407470	0.080030	0.686830
C2481	C248	0.470070	0.079200	0.672230
H1921	H192	0.458670	0.054630	0.622730
C2491	C249	0.755690	0.093200	0.518430
H1931	H193	0.751170	0.082530	0.449830
C2501	C250	0.801010	0.129750	0.548030
H1941	H194	0.826070	0.143130	0.499530
C2511	C251	0.809350	0.146620	0.649730
C2521	C252	0.769900	0.124170	0.717830
H1951	H195	0.773470	0.133630	0.787330
C2531	C253	0.725820	0.088140	0.682130
H1961	H196	0.700070	0.073930	0.728730
N111	N11	0.718150	0.072470	0.583230
O611	O61	0.656230	0.032980	0.208830
O621	O62	0.662130	0.029570	0.378630
O631	O63	0.615870	0.055080	0.590130
O641	O64	0.553560	0.984500	0.545530
O651	O65	0.538100	0.075470	0.395130
H1971	H197	0.511170	0.061930	0.422130
O661	O66	0.580400	0.156810	0.815130
H1981	H198	0.586870	0.179830	0.853430
Zn111	Zn11	0.649940	0.024070	0.530470
C2541	C254	0.311740	0.372550	0.632670
C2551	C255	0.277870	0.391400	0.643970
H1991	H199	0.264130	0.390170	0.708570
C2561	C256	0.266900	0.410030	0.563370
H2001	H200	0.283230	0.411770	0.502070
C2571	C257	0.233210	0.428240	0.555870
C2581	C258	0.202220	0.426210	0.634670
C2591	C259	0.168460	0.441170	0.617070
H2011	H201	0.147830	0.439370	0.670370
C2601	C260	0.165630	0.458740	0.519970
H2021	H202	0.142630	0.468070	0.508070
C2611	C261	0.196530	0.462670	0.441770
H2031	H203	0.195230	0.475270	0.377370
C2621	C262	0.229800	0.447630	0.459370
H2041	H204	0.250730	0.450470	0.405770
C2631	C263	0.236950	0.359190	0.917170
C2641	C264	0.203410	0.374460	0.957470
H2051	H205	0.170330	0.352970	0.951070
C2651	C265	0.217340	0.416720	0.002270
H2061	H206	0.250430	0.437770	0.009770
C2661	C266	0.184590	0.433050	0.041070
C2671	C267	0.200900	0.470610	0.114670
C2681	C268	0.170050	0.486460	0.150870
H2071	H207	0.181130	0.511170	0.199970
C2691	C269	0.123240	0.465750	0.114270
H2081	H208	0.103030	0.477070	0.137670
C2701	C270	0.106100	0.428120	0.042870
H2091	H209	0.074130	0.413370	0.020170
C2711	C271	0.136730	0.412540	0.005570
H2101	H210	0.125330	0.387970	0.956070
C2721	C272	0.422350	0.426540	0.851770
H2111	H211	0.417830	0.415870	0.783170
C2731	C273	0.467670	0.463090	0.881370
H2121	H212	0.492730	0.476470	0.832870
C2741	C274	0.476010	0.479960	0.983070
C2751	C275	0.436560	0.457510	0.051170
H2131	H213	0.440130	0.466970	0.120670
C2761	C276	0.392480	0.421480	0.015470
H2141	H214	0.366730	0.407270	0.062070
N121	N12	0.384810	0.405810	0.916570
O671	O67	0.322890	0.366320	0.542170
O681	O68	0.328790	0.362910	0.711970
O691	O69	0.282530	0.388420	0.923470
O701	O70	0.220220	0.317840	0.878870
O711	O71	0.204760	0.408810	0.728470
H2151	H215	0.177830	0.395270	0.755470
O721	O72	0.247060	0.490150	0.148470
H2161	H216	0.253530	0.513170	0.186770
Zn121	Zn12	0.316610	0.357400	0.863810
C2771	C277	0.294120	0.272530	0.966000
C2781	C278	0.275270	0.219810	0.977300
H2171	H217	0.276500	0.207300	0.041900
C2791	C279	0.256640	0.190210	0.896700
H2181	H218	0.254900	0.204800	0.835400
C2801	C280	0.238430	0.138310	0.889200
C2811	C281	0.240460	0.109350	0.968000
C2821	C282	0.225500	0.060630	0.950400
H2191	H219	0.227300	0.041800	0.003700
C2831	C283	0.207930	0.040230	0.853300
H2201	H220	0.198600	0.007900	0.841400
C2841	C284	0.204000	0.067200	0.775100
H2211	H221	0.191400	0.053300	0.710700
C2851	C285	0.219040	0.115510	0.792700
H2221	H222	0.216200	0.133600	0.739100
C2861	C286	0.307480	0.211100	0.250500
C2871	C287	0.292210	0.162290	0.290800
H2231	H223	0.313700	0.150700	0.284400
C2881	C288	0.249950	0.133960	0.335600
H2241	H224	0.228900	0.146000	0.343100
C2891	C289	0.233620	0.084880	0.374400
C2901	C290	0.196060	0.063630	0.448000
C2911	C291	0.180210	0.016930	0.484200
H2251	H225	0.155500	0.003300	0.533300
C2921	C292	0.200920	0.990830	0.447600
H2261	H226	0.189600	0.959300	0.471000
C2931	C293	0.238550	0.011320	0.376200
H2271	H227	0.253300	0.994100	0.353500
C2941	C294	0.254130	0.057530	0.338900
H2281	H228	0.278700	0.070700	0.289400
C2951	C295	0.240130	0.329150	0.185100
H2291	H229	0.250800	0.335300	0.116500
C2961	C296	0.203580	0.337920	0.214700
H2301	H230	0.190200	0.349600	0.166200
C2971	C297	0.186710	0.329390	0.316400
C2981	C298	0.209160	0.312390	0.384500
H2311	H231	0.199700	0.306500	0.454000
C2991	C299	0.245190	0.304340	0.348800
H2321	H232	0.259400	0.292800	0.395400
N131	N13	0.260860	0.312340	0.249900
O731	O73	0.300350	0.289910	0.875500
O741	O74	0.303760	0.299220	0.045300
O751	O75	0.278250	0.227450	0.256800
O761	O76	0.348830	0.235720	0.212200
O771	O77	0.257860	0.129290	0.061800
H2331	H233	0.271400	0.115900	0.088800
O781	O78	0.176520	0.090250	0.481800
H2341	H234	0.153500	0.073700	0.520100
Zn131	Zn13	0.309260	0.292540	0.197140
C3001	C300	0.960790	0.605860	0.299330
C3011	C301	0.941940	0.553140	0.310630
H2351	H235	0.943170	0.540630	0.375230
C3021	C302	0.923310	0.523540	0.230030
H2361	H236	0.921570	0.538130	0.168730
C3031	C303	0.905100	0.471640	0.222530
C3041	C304	0.907130	0.442680	0.301330
C3051	C305	0.892170	0.393960	0.283730
H2371	H237	0.893970	0.375130	0.337030
C3061	C306	0.874600	0.373560	0.186630
H2381	H238	0.865270	0.341230	0.174730
C3071	C307	0.870670	0.400530	0.108430
H2391	H239	0.858070	0.386630	0.044030
C3081	C308	0.885710	0.448840	0.126030
H2401	H240	0.882870	0.466930	0.072430
C3091	C309	0.974150	0.544430	0.583830
C3101	C310	0.958880	0.495620	0.624130
H2411	H241	0.980370	0.484030	0.617730
C3111	C311	0.916620	0.467290	0.668930
H2421	H242	0.895570	0.479330	0.676430
C3121	C312	0.900290	0.418210	0.707730
C3131	C313	0.862730	0.396960	0.781330
C3141	C314	0.846880	0.350260	0.817530
H2431	H243	0.822170	0.336630	0.866630
C3151	C315	0.867590	0.324160	0.780930
H2441	H244	0.856270	0.292630	0.804330
C3161	C316	0.905220	0.344650	0.709530
H2451	H245	0.919970	0.327430	0.686830
C3171	C317	0.920800	0.390860	0.672230
H2461	H246	0.945370	0.404030	0.622730
C3181	C318	0.906800	0.662480	0.518430
H2471	H247	0.917470	0.668630	0.449830
C3191	C319	0.870250	0.671250	0.548030
H2481	H248	0.856870	0.682930	0.499530
C3201	C320	0.853380	0.662720	0.649730
C3211	C321	0.875830	0.645720	0.717830
H2491	H249	0.866370	0.639830	0.787330
C3221	C322	0.911860	0.637670	0.682130
H2501	H250	0.926070	0.626130	0.728730
N141	N14	0.927530	0.645670	0.583230
O791	O79	0.967020	0.623240	0.208830
O801	O80	0.970430	0.632550	0.378630
O811	O81	0.944920	0.560780	0.590130
O821	O82	0.015500	0.569050	0.545530
O831	O83	0.924530	0.462620	0.395130
H2511	H251	0.938070	0.449230	0.422130
O841	O84	0.843190	0.423580	0.815130
H2521	H252	0.820170	0.407030	0.853430
Zn141	Zn14	0.975930	0.625870	0.530470
C3231	C323	0.627450	0.939200	0.632670
C3241	C324	0.608600	0.886480	0.643970
H2531	H253	0.609830	0.873970	0.708570
C3251	C325	0.589970	0.856880	0.563370
H2541	H254	0.588230	0.871470	0.502070
C3261	C326	0.571760	0.804980	0.555870
C3271	C327	0.573790	0.776020	0.634670
C3281	C328	0.558830	0.727300	0.617070
H2551	H255	0.560630	0.708470	0.670370
C3291	C329	0.541260	0.706900	0.519970
H2561	H256	0.531930	0.674570	0.508070
C3301	C330	0.537330	0.733870	0.441770
H2571	H257	0.524730	0.719970	0.377370
C3311	C331	0.552370	0.782180	0.459370
H2581	H258	0.549530	0.800270	0.405770
C3321	C332	0.640810	0.877770	0.917170
C3331	C333	0.625540	0.828960	0.957470
H2591	H259	0.647030	0.817370	0.951070
C3341	C334	0.583280	0.800630	0.002270
H2601	H260	0.562230	0.812670	0.009770
C3351	C335	0.566950	0.751550	0.041070
C3361	C336	0.529390	0.730300	0.114670
C3371	C337	0.513540	0.683600	0.150870
H2611	H261	0.488830	0.669970	0.199970
C3381	C338	0.534250	0.657500	0.114270
H2621	H262	0.522930	0.625970	0.137670
C3391	C339	0.571880	0.677990	0.042870
H2631	H263	0.586630	0.660770	0.020170
C3401	C340	0.587460	0.724200	0.005570
H2641	H264	0.612030	0.737370	0.956070
C3411	C341	0.573460	0.995820	0.851770
H2651	H265	0.584130	0.001970	0.783170
C3421	C342	0.536910	0.004590	0.881370
H2661	H266	0.523530	0.016270	0.832870
C3431	C343	0.520040	0.996060	0.983070
C3441	C344	0.542490	0.979060	0.051170
H2671	H267	0.533030	0.973170	0.120670
C3451	C345	0.578520	0.971010	0.015470
H2681	H268	0.592730	0.959470	0.062070
N151	N15	0.594190	0.979010	0.916570
O851	O85	0.633680	0.956580	0.542170
O861	O86	0.637090	0.965890	0.711970
O871	O87	0.611580	0.894120	0.923470
O881	O88	0.682160	0.902390	0.878870
O891	O89	0.591190	0.795960	0.728470
H2691	H269	0.604730	0.782570	0.755470
O901	O90	0.509850	0.756920	0.148470
H2701	H270	0.486830	0.740370	0.186770
Zn151	Zn15	0.642600	0.959200	0.863810
C3461	C346	0.727470	0.021590	0.966000
C3471	C347	0.780190	0.055460	0.977300
H2711	H271	0.792700	0.069200	0.041900
C3481	C348	0.809790	0.066430	0.896700
H2721	H272	0.795200	0.050100	0.835400
C3491	C349	0.861690	0.100120	0.889200
C3501	C350	0.890650	0.131110	0.968000
C3511	C351	0.939370	0.164870	0.950400
H2731	H273	0.958200	0.185500	0.003700
C3521	C352	0.959770	0.167700	0.853300
H2741	H274	0.992100	0.190700	0.841400
C3531	C353	0.932800	0.136800	0.775100
H2751	H275	0.946700	0.138100	0.710700
C3541	C354	0.884490	0.103530	0.792700
H2761	H276	0.866400	0.082600	0.739100
C3551	C355	0.788900	0.096380	0.250500
C3561	C356	0.837710	0.129920	0.290800
H2771	H277	0.849300	0.163000	0.284400
C3571	C357	0.866040	0.115990	0.335600
H2781	H278	0.854000	0.082900	0.343100
C3581	C358	0.915120	0.148740	0.374400
C3591	C359	0.936370	0.132430	0.448000
C3601	C360	0.983070	0.163280	0.484200
H2791	H279	0.996700	0.152200	0.533300
C3611	C361	0.009170	0.210090	0.447600
H2801	H280	0.040700	0.230300	0.471000
C3621	C362	0.988680	0.227230	0.376200
H2811	H281	0.005900	0.259200	0.353500
C3631	C363	0.942470	0.196600	0.338900
H2821	H282	0.929300	0.208000	0.289400
C3641	C364	0.670850	0.910980	0.185100
H2831	H283	0.664700	0.915500	0.116500
C3651	C365	0.662080	0.865660	0.214700
H2841	H284	0.650400	0.840600	0.166200
C3661	C366	0.670610	0.857320	0.316400
C3671	C367	0.687610	0.896770	0.384500
H2851	H285	0.693500	0.893200	0.454000
C3681	C368	0.695660	0.940850	0.348800
H2861	H286	0.707200	0.966600	0.395400
N161	N16	0.687660	0.948520	0.249900
O911	O91	0.710090	0.010440	0.875500
O921	O92	0.700780	0.004540	0.045300
O931	O93	0.772550	0.050800	0.256800
O941	O94	0.764280	0.113110	0.212200
O951	O95	0.870710	0.128570	0.061800
H2871	H287	0.884100	0.155500	0.088800
O961	O96	0.909750	0.086270	0.481800
H2881	H288	0.926300	0.079800	0.520100
Zn161	Zn16	0.707460	0.016730	0.197140
C3691	C369	0.394140	0.354920	0.299330
C3701	C370	0.446860	0.388790	0.310630
H2891	H289	0.459370	0.402530	0.375230
C3711	C371	0.476460	0.399760	0.230030
H2901	H290	0.461870	0.383430	0.168730
C3721	C372	0.528360	0.433450	0.222530
C3731	C373	0.557320	0.464440	0.301330
C3741	C374	0.606040	0.498200	0.283730
H2911	H291	0.624870	0.518830	0.337030
C3751	C375	0.626440	0.501030	0.186630
H2921	H292	0.658770	0.524030	0.174730
C3761	C376	0.599470	0.470130	0.108430
H2931	H293	0.613370	0.471430	0.044030
C3771	C377	0.551160	0.436860	0.126030
H2941	H294	0.533070	0.415930	0.072430
C3781	C378	0.455570	0.429710	0.583830
C3791	C379	0.504380	0.463250	0.624130
H2951	H295	0.515970	0.496330	0.617730
C3801	C380	0.532710	0.449320	0.668930
H2961	H296	0.520670	0.416230	0.676430
C3811	C381	0.581790	0.482070	0.707730
C3821	C382	0.603040	0.465760	0.781330
C3831	C383	0.649740	0.496610	0.817530
H2971	H297	0.663370	0.485530	0.866630
C3841	C384	0.675840	0.543420	0.780930
H2981	H298	0.707370	0.563630	0.804330
C3851	C385	0.655350	0.560560	0.709530
H2991	H299	0.672570	0.592530	0.686830
C3861	C386	0.609140	0.529930	0.672230
H3001	H300	0.595970	0.541330	0.622730
C3871	C387	0.337520	0.244310	0.518430
H3011	H301	0.331370	0.248830	0.449830
C3881	C388	0.328750	0.198990	0.548030
H3021	H302	0.317070	0.173930	0.499530
C3891	C389	0.337280	0.190650	0.649730
C3901	C390	0.354280	0.230100	0.717830
H3031	H303	0.360170	0.226530	0.787330
C3911	C391	0.362330	0.274180	0.682130
H3041	H304	0.373870	0.299930	0.728730
N171	N17	0.354330	0.281850	0.583230
O971	O97	0.376760	0.343770	0.208830
O981	O98	0.367450	0.337870	0.378630
O991	O99	0.439220	0.384130	0.590130
O1001	O100	0.430950	0.446440	0.545530
O1011	O101	0.537380	0.461900	0.395130
H3051	H305	0.550770	0.488830	0.422130
O1021	O102	0.576420	0.419600	0.815130
H3061	H306	0.592970	0.413130	0.853430
Zn171	Zn17	0.374130	0.350060	0.530470
C3921	C392	0.060800	0.688260	0.632670
C3931	C393	0.113520	0.722130	0.643970
H3071	H307	0.126030	0.735870	0.708570
C3941	C394	0.143120	0.733100	0.563370
H3081	H308	0.128530	0.716770	0.502070
C3951	C395	0.195020	0.766790	0.555870
C3961	C396	0.223980	0.797780	0.634670
C3971	C397	0.272700	0.831540	0.617070
H3091	H309	0.291530	0.852170	0.670370
C3981	C398	0.293100	0.834370	0.519970
H3101	H310	0.325430	0.857370	0.508070
C3991	C399	0.266130	0.803470	0.441770
H3111	H311	0.280030	0.804770	0.377370
C4001	C400	0.217820	0.770200	0.459370
H3121	H312	0.199730	0.749270	0.405770
C4011	C401	0.122230	0.763050	0.917170
C4021	C402	0.171040	0.796590	0.957470
H3131	H313	0.182630	0.829670	0.951070
C4031	C403	0.199370	0.782660	0.002270
H3141	H314	0.187330	0.749570	0.009770
C4041	C404	0.248450	0.815410	0.041070
C4051	C405	0.269700	0.799100	0.114670
C4061	C406	0.316400	0.829950	0.150870
H3151	H315	0.330030	0.818870	0.199970
C4071	C407	0.342500	0.876760	0.114270
H3161	H316	0.374030	0.896970	0.137670
C4081	C408	0.322010	0.893900	0.042870
H3171	H317	0.339230	0.925870	0.020170
C4091	C409	0.275800	0.863270	0.005570
H3181	H318	0.262630	0.874670	0.956070
C4101	C410	0.004180	0.577650	0.851770
H3191	H319	0.998030	0.582170	0.783170
C4111	C411	0.995410	0.532330	0.881370
H3201	H320	0.983730	0.507270	0.832870
C4121	C412	0.003940	0.523990	0.983070
C4131	C413	0.020940	0.563440	0.051170
H3211	H321	0.026830	0.559870	0.120670
C4141	C414	0.028990	0.607520	0.015470
H3221	H322	0.040530	0.633270	0.062070
N181	N18	0.020990	0.615190	0.916570
O1031	O103	0.043420	0.677110	0.542170
O1041	O104	0.034110	0.671210	0.711970
O1051	O105	0.105880	0.717470	0.923470
O1061	O106	0.097610	0.779780	0.878870
O1071	O107	0.204040	0.795240	0.728470
H3231	H323	0.217430	0.822170	0.755470
O1081	O108	0.243080	0.752940	0.148470
H3241	H324	0.259630	0.746470	0.186770
Zn181	Zn18	0.040800	0.683390	0.863810
