data_LEYQUD_freeONLY_PM
_symmetry_space_group_name_H-M	'P1'
_cell_length_a	30.553600
_cell_length_b	15.643000
_cell_length_c	21.970100
_cell_angle_alpha	90.000000
_cell_angle_beta	133.091000
_cell_angle_gamma	90.000000
_symmetry_Int_Tables_number 1

loop_
_symmetry_equiv_pos_as_xyz
'x,y,z'

loop_
_atom_site_label
_atom_site_type_symbol
_atom_site_fract_x
_atom_site_fract_y
_atom_site_fract_z
Nd11	Nd1	0.331290	0.871700	0.485890
Nd21	Nd2	0.610550	0.863450	0.673630
O11	O1	0.252810	0.769100	0.372300
O21	O2	0.223300	0.652100	0.295200
O31	O3	0.440500	0.857000	0.569600
O41	O4	0.520500	0.784800	0.613900
O51	O5	0.633900	0.972100	0.617400
O61	O6	0.673300	0.095900	0.625600
O71	O7	0.622300	0.882800	0.795100
O81	O8	0.657300	0.952700	0.909100
O91	O9	0.247400	0.837600	0.480600
H11	H1	0.239100	0.887000	0.486800
H21	H2	0.214500	0.814200	0.438600
O101	O10	0.247300	0.972300	0.389700
H31	H3	0.247800	0.021800	0.375800
H41	H4	0.214700	0.964100	0.376700
O111	O11	0.377300	0.017200	0.514900
H51	H5	0.361600	0.037800	0.468600
H61	H6	0.387300	0.056700	0.548000
O121	O12	0.366600	0.765100	0.601400
H71	H7	0.402400	0.746300	0.636500
H81	H8	0.360100	0.791700	0.628500
O131	O13	0.527900	0.976400	0.622900
H91	H9	0.540700	0.005400	0.664500
H101	H10	0.497700	0.948400	0.605100
O141	O14	0.533200	0.868400	0.512300
H111	H11	0.513500	0.908600	0.478100
H121	H12	0.527800	0.823900	0.486400
O151	O15	0.633500	0.719000	0.735100
H131	H13	0.618300	0.671500	0.711700
H141	H14	0.671000	0.714900	0.772500
O161	O16	0.659700	0.791000	0.630300
H151	H15	0.642100	0.762900	0.585600
H161	H16	0.681800	0.828400	0.634200
N11	N1	0.366500	0.734500	0.464200
N21	N2	0.661700	0.001300	0.757900
C11	C1	0.327600	0.676400	0.406900
C21	C2	0.345900	0.601100	0.395700
H171	H17	0.317300	0.560900	0.354100
C31	C3	0.406500	0.586500	0.446900
H181	H18	0.420400	0.535100	0.441900
C41	C4	0.446600	0.647000	0.504900
H191	H19	0.488500	0.638500	0.539700
C51	C5	0.425300	0.720400	0.512200
C61	C6	0.262300	0.701100	0.353400
C71	C7	0.465200	0.792100	0.570300
C81	C8	0.684700	0.054600	0.738500
C91	C9	0.726000	0.117900	0.793000
H201	H20	0.744500	0.152200	0.780200
C101	C10	0.739000	0.128600	0.866400
H211	H21	0.766400	0.171700	0.904800
C111	C11	0.712200	0.076500	0.883800
H221	H22	0.719600	0.084800	0.933000
C121	C12	0.674400	0.012300	0.828300
C131	C13	0.662700	0.040500	0.653900
C141	C14	0.649500	0.945700	0.846500
Nd31	Nd3	0.831290	0.371700	0.485890
Nd41	Nd4	0.110550	0.363450	0.673630
O171	O17	0.752810	0.269100	0.372300
O181	O18	0.723300	0.152100	0.295200
O191	O19	0.940500	0.357000	0.569600
O201	O20	0.020500	0.284800	0.613900
O211	O21	0.133900	0.472100	0.617400
O221	O22	0.173300	0.595900	0.625600
O231	O23	0.122300	0.382800	0.795100
O241	O24	0.157300	0.452700	0.909100
O251	O25	0.747400	0.337600	0.480600
H231	H23	0.739100	0.387000	0.486800
H241	H24	0.714500	0.314200	0.438600
O261	O26	0.747300	0.472300	0.389700
H251	H25	0.747800	0.521800	0.375800
H261	H26	0.714700	0.464100	0.376700
O271	O27	0.877300	0.517200	0.514900
H271	H27	0.861600	0.537800	0.468600
H281	H28	0.887300	0.556700	0.548000
O281	O28	0.866600	0.265100	0.601400
H291	H29	0.902400	0.246300	0.636500
H301	H30	0.860100	0.291700	0.628500
O291	O29	0.027900	0.476400	0.622900
H311	H31	0.040700	0.505400	0.664500
H321	H32	0.997700	0.448400	0.605100
O301	O30	0.033200	0.368400	0.512300
H331	H33	0.013500	0.408600	0.478100
H341	H34	0.027800	0.323900	0.486400
O311	O31	0.133500	0.219000	0.735100
H351	H35	0.118300	0.171500	0.711700
H361	H36	0.171000	0.214900	0.772500
O321	O32	0.159700	0.291000	0.630300
H371	H37	0.142100	0.262900	0.585600
H381	H38	0.181800	0.328400	0.634200
N31	N3	0.866500	0.234500	0.464200
N41	N4	0.161700	0.501300	0.757900
C151	C15	0.827600	0.176400	0.406900
C161	C16	0.845900	0.101100	0.395700
H391	H39	0.817300	0.060900	0.354100
C171	C17	0.906500	0.086500	0.446900
H401	H40	0.920400	0.035100	0.441900
C181	C18	0.946600	0.147000	0.504900
H411	H41	0.988500	0.138500	0.539700
C191	C19	0.925300	0.220400	0.512200
C201	C20	0.762300	0.201100	0.353400
C211	C21	0.965200	0.292100	0.570300
C221	C22	0.184700	0.554600	0.738500
C231	C23	0.226000	0.617900	0.793000
H421	H42	0.244500	0.652200	0.780200
C241	C24	0.239000	0.628600	0.866400
H431	H43	0.266400	0.671700	0.904800
C251	C25	0.212200	0.576500	0.883800
H441	H44	0.219600	0.584800	0.933000
C261	C26	0.174400	0.512300	0.828300
C271	C27	0.162700	0.540500	0.653900
C281	C28	0.149500	0.445700	0.846500
Nd51	Nd5	0.668710	0.871700	0.014110
Nd61	Nd6	0.389460	0.863450	0.826370
O331	O33	0.747190	0.769100	0.127700
O341	O34	0.776700	0.652100	0.204800
O351	O35	0.559500	0.857000	0.930400
O361	O36	0.479500	0.784800	0.886100
O371	O37	0.366100	0.972100	0.882600
O381	O38	0.326700	0.095900	0.874400
O391	O39	0.377700	0.882800	0.704900
O401	O40	0.342700	0.952700	0.590900
O411	O41	0.752600	0.837600	0.019400
H451	H45	0.760900	0.887000	0.013200
H461	H46	0.785500	0.814200	0.061400
O421	O42	0.752700	0.972300	0.110300
H471	H47	0.752200	0.021800	0.124200
H481	H48	0.785300	0.964100	0.123300
O431	O43	0.622700	0.017200	0.985100
H491	H49	0.638400	0.037800	0.031400
H501	H50	0.612700	0.056700	0.952000
O441	O44	0.633400	0.765100	0.898600
H511	H51	0.597600	0.746300	0.863500
H521	H52	0.639900	0.791700	0.871500
O451	O45	0.472100	0.976400	0.877100
H531	H53	0.459300	0.005400	0.835500
H541	H54	0.502300	0.948400	0.894900
O461	O46	0.466800	0.868400	0.987700
H551	H55	0.486500	0.908600	0.021900
H561	H56	0.472200	0.823900	0.013600
O471	O47	0.366500	0.719000	0.764900
H571	H57	0.381700	0.671500	0.788300
H581	H58	0.329000	0.714900	0.727500
O481	O48	0.340300	0.791000	0.869700
H591	H59	0.357900	0.762900	0.914400
H601	H60	0.318200	0.828400	0.865800
N51	N5	0.633500	0.734500	0.035800
N61	N6	0.338300	0.001300	0.742100
C291	C29	0.672400	0.676400	0.093100
C301	C30	0.654100	0.601100	0.104300
H611	H61	0.682700	0.560900	0.145900
C311	C31	0.593500	0.586500	0.053100
H621	H62	0.579600	0.535100	0.058100
C321	C32	0.553400	0.647000	0.995100
H631	H63	0.511500	0.638500	0.960300
C331	C33	0.574700	0.720400	0.987800
C341	C34	0.737700	0.701100	0.146600
C351	C35	0.534800	0.792100	0.929700
C361	C36	0.315300	0.054600	0.761500
C371	C37	0.274000	0.117900	0.707000
H641	H64	0.255500	0.152200	0.719800
C381	C38	0.261000	0.128600	0.633600
H651	H65	0.233600	0.171700	0.595200
C391	C39	0.287800	0.076500	0.616200
H661	H66	0.280400	0.084800	0.567000
C401	C40	0.325600	0.012300	0.671700
C411	C41	0.337300	0.040500	0.846100
C421	C42	0.350500	0.945700	0.653500
Nd71	Nd7	0.168710	0.371700	0.014110
Nd81	Nd8	0.889460	0.363450	0.826370
O491	O49	0.247190	0.269100	0.127700
O501	O50	0.276700	0.152100	0.204800
O511	O51	0.059500	0.357000	0.930400
O521	O52	0.979500	0.284800	0.886100
O531	O53	0.866100	0.472100	0.882600
O541	O54	0.826700	0.595900	0.874400
O551	O55	0.877700	0.382800	0.704900
O561	O56	0.842700	0.452700	0.590900
O571	O57	0.252600	0.337600	0.019400
H671	H67	0.260900	0.387000	0.013200
H681	H68	0.285500	0.314200	0.061400
O581	O58	0.252700	0.472300	0.110300
H691	H69	0.252200	0.521800	0.124200
H701	H70	0.285300	0.464100	0.123300
O591	O59	0.122700	0.517200	0.985100
H711	H71	0.138400	0.537800	0.031400
H721	H72	0.112700	0.556700	0.952000
O601	O60	0.133400	0.265100	0.898600
H731	H73	0.097600	0.246300	0.863500
H741	H74	0.139900	0.291700	0.871500
O611	O61	0.972100	0.476400	0.877100
H751	H75	0.959300	0.505400	0.835500
H761	H76	0.002300	0.448400	0.894900
O621	O62	0.966800	0.368400	0.987700
H771	H77	0.986500	0.408600	0.021900
H781	H78	0.972200	0.323900	0.013600
O631	O63	0.866500	0.219000	0.764900
H791	H79	0.881700	0.171500	0.788300
H801	H80	0.829000	0.214900	0.727500
O641	O64	0.840300	0.291000	0.869700
H811	H81	0.857900	0.262900	0.914400
H821	H82	0.818200	0.328400	0.865800
N71	N7	0.133500	0.234500	0.035800
N81	N8	0.838300	0.501300	0.742100
C431	C43	0.172400	0.176400	0.093100
C441	C44	0.154100	0.101100	0.104300
H831	H83	0.182700	0.060900	0.145900
C451	C45	0.093500	0.086500	0.053100
H841	H84	0.079600	0.035100	0.058100
C461	C46	0.053400	0.147000	0.995100
H851	H85	0.011500	0.138500	0.960300
C471	C47	0.074700	0.220400	0.987800
C481	C48	0.237700	0.201100	0.146600
C491	C49	0.034800	0.292100	0.929700
C501	C50	0.815300	0.554600	0.761500
C511	C51	0.774000	0.617900	0.707000
H861	H86	0.755500	0.652200	0.719800
C521	C52	0.761000	0.628600	0.633600
H871	H87	0.733600	0.671700	0.595200
C531	C53	0.787800	0.576500	0.616200
H881	H88	0.780400	0.584800	0.567000
C541	C54	0.825600	0.512300	0.671700
C551	C55	0.837300	0.540500	0.846100
C561	C56	0.850500	0.445700	0.653500
Nd91	Nd9	0.668710	0.128300	0.514110
Nd101	Nd10	0.389460	0.136550	0.326370
O651	O65	0.747190	0.230900	0.627700
O661	O66	0.776700	0.347900	0.704800
O671	O67	0.559500	0.143000	0.430400
O681	O68	0.479500	0.215200	0.386100
O691	O69	0.366100	0.027900	0.382600
O701	O70	0.326700	0.904100	0.374400
O711	O71	0.377700	0.117200	0.204900
O721	O72	0.342700	0.047300	0.090900
O731	O73	0.752600	0.162400	0.519400
H891	H89	0.760900	0.113000	0.513200
H901	H90	0.785500	0.185800	0.561400
O741	O74	0.752700	0.027700	0.610300
H911	H91	0.752200	0.978200	0.624200
H921	H92	0.785300	0.035900	0.623300
O751	O75	0.622700	0.982800	0.485100
H931	H93	0.638400	0.962200	0.531400
H941	H94	0.612700	0.943300	0.452000
O761	O76	0.633400	0.234900	0.398600
H951	H95	0.597600	0.253700	0.363500
H961	H96	0.639900	0.208300	0.371500
O771	O77	0.472100	0.023600	0.377100
H971	H97	0.459300	0.994600	0.335500
H981	H98	0.502300	0.051600	0.394900
O781	O78	0.466800	0.131600	0.487700
H991	H99	0.486500	0.091400	0.521900
H1001	H100	0.472200	0.176100	0.513600
O791	O79	0.366500	0.281000	0.264900
H1011	H101	0.381700	0.328500	0.288300
H1021	H102	0.329000	0.285100	0.227500
O801	O80	0.340300	0.209000	0.369700
H1031	H103	0.357900	0.237100	0.414400
H1041	H104	0.318200	0.171600	0.365800
N91	N9	0.633500	0.265500	0.535800
N101	N10	0.338300	0.998700	0.242100
C571	C57	0.672400	0.323600	0.593100
C581	C58	0.654100	0.398900	0.604300
H1051	H105	0.682700	0.439100	0.645900
C591	C59	0.593500	0.413500	0.553100
H1061	H106	0.579600	0.464900	0.558100
C601	C60	0.553400	0.353000	0.495100
H1071	H107	0.511500	0.361500	0.460300
C611	C61	0.574700	0.279600	0.487800
C621	C62	0.737700	0.298900	0.646600
C631	C63	0.534800	0.207900	0.429700
C641	C64	0.315300	0.945400	0.261500
C651	C65	0.274000	0.882100	0.207000
H1081	H108	0.255500	0.847800	0.219800
C661	C66	0.261000	0.871400	0.133600
H1091	H109	0.233600	0.828300	0.095200
C671	C67	0.287800	0.923500	0.116200
H1101	H110	0.280400	0.915200	0.067000
C681	C68	0.325600	0.987700	0.171700
C691	C69	0.337300	0.959500	0.346100
C701	C70	0.350500	0.054300	0.153500
Nd111	Nd11	0.168710	0.628300	0.514110
Nd121	Nd12	0.889460	0.636550	0.326370
O811	O81	0.247190	0.730900	0.627700
O821	O82	0.276700	0.847900	0.704800
O831	O83	0.059500	0.643000	0.430400
O841	O84	0.979500	0.715200	0.386100
O851	O85	0.866100	0.527900	0.382600
O861	O86	0.826700	0.404100	0.374400
O871	O87	0.877700	0.617200	0.204900
O881	O88	0.842700	0.547300	0.090900
O891	O89	0.252600	0.662400	0.519400
H1111	H111	0.260900	0.613000	0.513200
H1121	H112	0.285500	0.685800	0.561400
O901	O90	0.252700	0.527700	0.610300
H1131	H113	0.252200	0.478200	0.624200
H1141	H114	0.285300	0.535900	0.623300
O911	O91	0.122700	0.482800	0.485100
H1151	H115	0.138400	0.462200	0.531400
H1161	H116	0.112700	0.443300	0.452000
O921	O92	0.133400	0.734900	0.398600
H1171	H117	0.097600	0.753700	0.363500
H1181	H118	0.139900	0.708300	0.371500
O931	O93	0.972100	0.523600	0.377100
H1191	H119	0.959300	0.494600	0.335500
H1201	H120	0.002300	0.551600	0.394900
O941	O94	0.966800	0.631600	0.487700
H1211	H121	0.986500	0.591400	0.521900
H1221	H122	0.972200	0.676100	0.513600
O951	O95	0.866500	0.781000	0.264900
H1231	H123	0.881700	0.828500	0.288300
H1241	H124	0.829000	0.785100	0.227500
O961	O96	0.840300	0.709000	0.369700
H1251	H125	0.857900	0.737100	0.414400
H1261	H126	0.818200	0.671600	0.365800
N111	N11	0.133500	0.765500	0.535800
N121	N12	0.838300	0.498700	0.242100
C711	C71	0.172400	0.823600	0.593100
C721	C72	0.154100	0.898900	0.604300
H1271	H127	0.182700	0.939100	0.645900
C731	C73	0.093500	0.913500	0.553100
H1281	H128	0.079600	0.964900	0.558100
C741	C74	0.053400	0.853000	0.495100
H1291	H129	0.011500	0.861500	0.460300
C751	C75	0.074700	0.779600	0.487800
C761	C76	0.237700	0.798900	0.646600
C771	C77	0.034800	0.707900	0.429700
C781	C78	0.815300	0.445400	0.261500
C791	C79	0.774000	0.382100	0.207000
H1301	H130	0.755500	0.347800	0.219800
C801	C80	0.761000	0.371400	0.133600
H1311	H131	0.733600	0.328300	0.095200
C811	C81	0.787800	0.423500	0.116200
H1321	H132	0.780400	0.415200	0.067000
C821	C82	0.825600	0.487700	0.171700
C831	C83	0.837300	0.459500	0.346100
C841	C84	0.850500	0.554300	0.153500
Nd131	Nd13	0.331290	0.128300	0.985890
Nd141	Nd14	0.610550	0.136550	0.173630
O971	O97	0.252810	0.230900	0.872300
O981	O98	0.223300	0.347900	0.795200
O991	O99	0.440500	0.143000	0.069600
O1001	O100	0.520500	0.215200	0.113900
O1011	O101	0.633900	0.027900	0.117400
O1021	O102	0.673300	0.904100	0.125600
O1031	O103	0.622300	0.117200	0.295100
O1041	O104	0.657300	0.047300	0.409100
O1051	O105	0.247400	0.162400	0.980600
H1331	H133	0.239100	0.113000	0.986800
H1341	H134	0.214500	0.185800	0.938600
O1061	O106	0.247300	0.027700	0.889700
H1351	H135	0.247800	0.978200	0.875800
H1361	H136	0.214700	0.035900	0.876700
O1071	O107	0.377300	0.982800	0.014900
H1371	H137	0.361600	0.962200	0.968600
H1381	H138	0.387300	0.943300	0.048000
O1081	O108	0.366600	0.234900	0.101400
H1391	H139	0.402400	0.253700	0.136500
H1401	H140	0.360100	0.208300	0.128500
O1091	O109	0.527900	0.023600	0.122900
H1411	H141	0.540700	0.994600	0.164500
H1421	H142	0.497700	0.051600	0.105100
O1101	O110	0.533200	0.131600	0.012300
H1431	H143	0.513500	0.091400	0.978100
H1441	H144	0.527800	0.176100	0.986400
O1111	O111	0.633500	0.281000	0.235100
H1451	H145	0.618300	0.328500	0.211700
H1461	H146	0.671000	0.285100	0.272500
O1121	O112	0.659700	0.209000	0.130300
H1471	H147	0.642100	0.237100	0.085600
H1481	H148	0.681800	0.171600	0.134200
N131	N13	0.366500	0.265500	0.964200
N141	N14	0.661700	0.998700	0.257900
C851	C85	0.327600	0.323600	0.906900
C861	C86	0.345900	0.398900	0.895700
H1491	H149	0.317300	0.439100	0.854100
C871	C87	0.406500	0.413500	0.946900
H1501	H150	0.420400	0.464900	0.941900
C881	C88	0.446600	0.353000	0.004900
H1511	H151	0.488500	0.361500	0.039700
C891	C89	0.425300	0.279600	0.012200
C901	C90	0.262300	0.298900	0.853400
C911	C91	0.465200	0.207900	0.070300
C921	C92	0.684700	0.945400	0.238500
C931	C93	0.726000	0.882100	0.293000
H1521	H152	0.744500	0.847800	0.280200
C941	C94	0.739000	0.871400	0.366400
H1531	H153	0.766400	0.828300	0.404800
C951	C95	0.712200	0.923500	0.383800
H1541	H154	0.719600	0.915200	0.433000
C961	C96	0.674400	0.987700	0.328300
C971	C97	0.662700	0.959500	0.153900
C981	C98	0.649500	0.054300	0.346500
Nd151	Nd15	0.831290	0.628300	0.985890
Nd161	Nd16	0.110550	0.636550	0.173630
O1131	O113	0.752810	0.730900	0.872300
O1141	O114	0.723300	0.847900	0.795200
O1151	O115	0.940500	0.643000	0.069600
O1161	O116	0.020500	0.715200	0.113900
O1171	O117	0.133900	0.527900	0.117400
O1181	O118	0.173300	0.404100	0.125600
O1191	O119	0.122300	0.617200	0.295100
O1201	O120	0.157300	0.547300	0.409100
O1211	O121	0.747400	0.662400	0.980600
H1551	H155	0.739100	0.613000	0.986800
H1561	H156	0.714500	0.685800	0.938600
O1221	O122	0.747300	0.527700	0.889700
H1571	H157	0.747800	0.478200	0.875800
H1581	H158	0.714700	0.535900	0.876700
O1231	O123	0.877300	0.482800	0.014900
H1591	H159	0.861600	0.462200	0.968600
H1601	H160	0.887300	0.443300	0.048000
O1241	O124	0.866600	0.734900	0.101400
H1611	H161	0.902400	0.753700	0.136500
H1621	H162	0.860100	0.708300	0.128500
O1251	O125	0.027900	0.523600	0.122900
H1631	H163	0.040700	0.494600	0.164500
H1641	H164	0.997700	0.551600	0.105100
O1261	O126	0.033200	0.631600	0.012300
H1651	H165	0.013500	0.591400	0.978100
H1661	H166	0.027800	0.676100	0.986400
O1271	O127	0.133500	0.781000	0.235100
H1671	H167	0.118300	0.828500	0.211700
H1681	H168	0.171000	0.785100	0.272500
O1281	O128	0.159700	0.709000	0.130300
H1691	H169	0.142100	0.737100	0.085600
H1701	H170	0.181800	0.671600	0.134200
N151	N15	0.866500	0.765500	0.964200
N161	N16	0.161700	0.498700	0.257900
C991	C99	0.827600	0.823600	0.906900
C1001	C100	0.845900	0.898900	0.895700
H1711	H171	0.817300	0.939100	0.854100
C1011	C101	0.906500	0.913500	0.946900
H1721	H172	0.920400	0.964900	0.941900
C1021	C102	0.946600	0.853000	0.004900
H1731	H173	0.988500	0.861500	0.039700
C1031	C103	0.925300	0.779600	0.012200
C1041	C104	0.762300	0.798900	0.853400
C1051	C105	0.965200	0.707900	0.070300
C1061	C106	0.184700	0.445400	0.238500
C1071	C107	0.226000	0.382100	0.293000
H1741	H174	0.244500	0.347800	0.280200
C1081	C108	0.239000	0.371400	0.366400
H1751	H175	0.266400	0.328300	0.404800
C1091	C109	0.212200	0.423500	0.383800
H1761	H176	0.219600	0.415200	0.433000
C1101	C110	0.174400	0.487700	0.328300
C1111	C111	0.162700	0.459500	0.153900
C1121	C112	0.149500	0.554300	0.346500
