data_LEZMIN_freeONLY_PM
_symmetry_space_group_name_H-M	'P1'
_cell_length_a	9.536400
_cell_length_b	21.801500
_cell_length_c	9.111800
_cell_angle_alpha	90.000000
_cell_angle_beta	90.000000
_cell_angle_gamma	90.000000
_symmetry_Int_Tables_number 1

loop_
_symmetry_equiv_pos_as_xyz
'x,y,z'

loop_
_atom_site_label
_atom_site_type_symbol
_atom_site_fract_x
_atom_site_fract_y
_atom_site_fract_z
Zn11	Zn1	0.567700	0.548380	0.780340
P11	P1	0.379810	0.664360	0.710810
H11	H1	0.277400	0.627300	0.751400
P21	P2	0.293270	0.500470	0.944010
H21	H2	0.309900	0.552400	0.016500
O11	O1	0.346600	0.685610	0.556300
O21	O2	0.387300	0.714410	0.822000
O31	O3	0.512100	0.625920	0.702200
O41	O4	0.413400	0.495680	0.835400
O51	O5	0.149700	0.502840	0.872300
O61	O6	0.299700	0.448500	0.056700
Zn21	Zn2	0.932300	0.951620	0.780340
P31	P3	0.120190	0.835640	0.710810
H31	H3	0.222600	0.872700	0.751400
P41	P4	0.206730	0.999530	0.944010
H41	H4	0.190100	0.947600	0.016500
O71	O7	0.153400	0.814390	0.556300
O81	O8	0.112700	0.785590	0.822000
O91	O9	0.987900	0.874080	0.702200
O101	O10	0.086600	0.004320	0.835400
O111	O11	0.350300	0.997160	0.872300
O121	O12	0.200300	0.051500	0.056700
Zn31	Zn3	0.432300	0.048380	0.719660
P51	P5	0.620190	0.164360	0.789190
H51	H5	0.722600	0.127300	0.748600
P61	P6	0.706730	0.000470	0.555990
H61	H6	0.690100	0.052400	0.483500
O131	O13	0.653400	0.185610	0.943700
O141	O14	0.612700	0.214410	0.678000
O151	O15	0.487900	0.125920	0.797800
O161	O16	0.586600	0.995680	0.664600
O171	O17	0.850300	0.002840	0.627700
O181	O18	0.700300	0.948500	0.443300
Zn41	Zn4	0.067700	0.451620	0.719660
P71	P7	0.879810	0.335640	0.789190
H71	H7	0.777400	0.372700	0.748600
P81	P8	0.793270	0.499530	0.555990
H81	H8	0.809900	0.447600	0.483500
O191	O19	0.846600	0.314390	0.943700
O201	O20	0.887300	0.285590	0.678000
O211	O21	0.012100	0.374080	0.797800
O221	O22	0.913400	0.504320	0.664600
O231	O23	0.649700	0.497160	0.627700
O241	O24	0.799700	0.551500	0.443300
Zn51	Zn5	0.432300	0.451620	0.219660
P91	P9	0.620190	0.335640	0.289190
H91	H9	0.722600	0.372700	0.248600
P101	P10	0.706730	0.499530	0.055990
H101	H10	0.690100	0.447600	0.983500
O251	O25	0.653400	0.314390	0.443700
O261	O26	0.612700	0.285590	0.178000
O271	O27	0.487900	0.374080	0.297800
O281	O28	0.586600	0.504320	0.164600
O291	O29	0.850300	0.497160	0.127700
O301	O30	0.700300	0.551500	0.943300
Zn61	Zn6	0.067700	0.048380	0.219660
P111	P11	0.879810	0.164360	0.289190
H111	H11	0.777400	0.127300	0.248600
P121	P12	0.793270	0.000470	0.055990
H121	H12	0.809900	0.052400	0.983500
O311	O31	0.846600	0.185610	0.443700
O321	O32	0.887300	0.214410	0.178000
O331	O33	0.012100	0.125920	0.297800
O341	O34	0.913400	0.995680	0.164600
O351	O35	0.649700	0.002840	0.127700
O361	O36	0.799700	0.948500	0.943300
Zn71	Zn7	0.567700	0.951620	0.280340
P131	P13	0.379810	0.835640	0.210810
H131	H13	0.277400	0.872700	0.251400
P141	P14	0.293270	0.999530	0.444010
H141	H14	0.309900	0.947600	0.516500
O371	O37	0.346600	0.814390	0.056300
O381	O38	0.387300	0.785590	0.322000
O391	O39	0.512100	0.874080	0.202200
O401	O40	0.413400	0.004320	0.335400
O411	O41	0.149700	0.997160	0.372300
O421	O42	0.299700	0.051500	0.556700
Zn81	Zn8	0.932300	0.548380	0.280340
P151	P15	0.120190	0.664360	0.210810
H151	H15	0.222600	0.627300	0.251400
P161	P16	0.206730	0.500470	0.444010
H161	H16	0.190100	0.552400	0.516500
O431	O43	0.153400	0.685610	0.056300
O441	O44	0.112700	0.714410	0.322000
O451	O45	0.987900	0.625920	0.202200
O461	O46	0.086600	0.495680	0.335400
O471	O47	0.350300	0.502840	0.372300
O481	O48	0.200300	0.448500	0.556700
Zn91	Zn9	0.250000	0.750000	0.453770
Zn101	Zn10	0.750000	0.250000	0.046230
Zn111	Zn11	0.750000	0.250000	0.546230
Zn121	Zn12	0.250000	0.750000	0.953770
