data_LIFSEA_freeONLY_PM
_symmetry_space_group_name_H-M	'P1'
_cell_length_a	22.028000
_cell_length_b	12.607000
_cell_length_c	23.179000
_cell_angle_alpha	90.000000
_cell_angle_beta	103.760000
_cell_angle_gamma	90.000000
_symmetry_Int_Tables_number 1

loop_
_symmetry_equiv_pos_as_xyz
'x,y,z'

loop_
_atom_site_label
_atom_site_type_symbol
_atom_site_fract_x
_atom_site_fract_y
_atom_site_fract_z
O11	O1	0.599440	0.382520	0.244090
Cd11	Cd1	0.597520	0.667750	0.270600
C11	C1	0.649940	0.431100	0.259090
O21	O2	0.657590	0.521580	0.280690
O31	O3	0.550830	0.826070	0.271250
N11	N1	0.811470	0.266370	0.233300
C21	C2	0.706790	0.372800	0.250050
C31	C3	0.701290	0.276400	0.221550
C41	C4	0.765810	0.415300	0.270090
H11	H1	0.662300	0.245200	0.207800
C51	C5	0.754670	0.226600	0.213710
C61	C6	0.816260	0.359700	0.261140
H21	H2	0.771200	0.480500	0.289300
C71	C7	0.553130	0.046400	0.276730
H31	H3	0.750500	0.162000	0.193700
H41	H4	0.855900	0.388600	0.275200
H51	H5	0.589600	0.011100	0.295300
C81	C8	0.551130	0.155400	0.275420
H61	H6	0.587300	0.192500	0.293200
N21	N2	0.526030	0.387460	0.355140
C91	C9	0.581950	0.355300	0.387010
C101	C10	0.482110	0.403200	0.385270
H71	H7	0.613100	0.342500	0.367000
C111	C11	0.596080	0.340000	0.447380
C121	C12	0.492170	0.389200	0.445460
H81	H8	0.442600	0.424800	0.364300
H91	H9	0.635900	0.318100	0.467200
C131	C13	0.550480	0.357400	0.478410
H101	H10	0.459900	0.400900	0.464200
C141	C14	0.562880	0.345300	0.543450
C151	C15	0.620660	0.371800	0.580200
C161	C16	0.517490	0.310200	0.571010
H111	H11	0.653400	0.393200	0.563900
C171	C17	0.628760	0.365800	0.640710
C181	C18	0.529750	0.305600	0.631720
H121	H12	0.478500	0.289700	0.548300
N31	N3	0.584410	0.334700	0.667160
H131	H13	0.667500	0.384500	0.664600
H141	H14	0.498500	0.281000	0.649200
N41	N4	0.629460	0.684540	0.373860
C191	C19	0.652400	0.603300	0.408870
C201	C20	0.628970	0.779000	0.400220
H151	H15	0.655400	0.537700	0.391400
C211	C21	0.671900	0.611400	0.469680
C221	C22	0.648470	0.792600	0.460790
H161	H16	0.614900	0.837800	0.376600
H171	H17	0.686700	0.551600	0.492100
C231	C23	0.669780	0.707000	0.497510
H181	H18	0.647300	0.859700	0.477100
C241	C24	0.689900	0.717800	0.563960
H191	H19	0.701700	0.790000	0.574100
H201	H20	0.725000	0.672000	0.579000
H211	H21	0.656000	0.698300	0.581200
O41	O4	0.099440	0.882520	0.244090
Cd21	Cd2	0.097520	0.167750	0.270600
C251	C25	0.149940	0.931100	0.259090
O51	O5	0.157590	0.021580	0.280690
O61	O6	0.050830	0.326070	0.271250
N51	N5	0.311470	0.766370	0.233300
C261	C26	0.206790	0.872800	0.250050
C271	C27	0.201290	0.776400	0.221550
C281	C28	0.265810	0.915300	0.270090
H221	H22	0.162300	0.745200	0.207800
C291	C29	0.254670	0.726600	0.213710
C301	C30	0.316260	0.859700	0.261140
H231	H23	0.271200	0.980500	0.289300
C311	C31	0.053130	0.546400	0.276730
H241	H24	0.250500	0.662000	0.193700
H251	H25	0.355900	0.888600	0.275200
H261	H26	0.089600	0.511100	0.295300
C321	C32	0.051130	0.655400	0.275420
H271	H27	0.087300	0.692500	0.293200
N61	N6	0.026030	0.887460	0.355140
C331	C33	0.081950	0.855300	0.387010
C341	C34	0.982110	0.903200	0.385270
H281	H28	0.113100	0.842500	0.367000
C351	C35	0.096080	0.840000	0.447380
C361	C36	0.992170	0.889200	0.445460
H291	H29	0.942600	0.924800	0.364300
H301	H30	0.135900	0.818100	0.467200
C371	C37	0.050480	0.857400	0.478410
H311	H31	0.959900	0.900900	0.464200
C381	C38	0.062880	0.845300	0.543450
C391	C39	0.120660	0.871800	0.580200
C401	C40	0.017490	0.810200	0.571010
H321	H32	0.153400	0.893200	0.563900
C411	C41	0.128760	0.865800	0.640710
C421	C42	0.029750	0.805600	0.631720
H331	H33	0.978500	0.789700	0.548300
N71	N7	0.084410	0.834700	0.667160
H341	H34	0.167500	0.884500	0.664600
H351	H35	0.998500	0.781000	0.649200
N81	N8	0.129460	0.184540	0.373860
C431	C43	0.152400	0.103300	0.408870
C441	C44	0.128970	0.279000	0.400220
H361	H36	0.155400	0.037700	0.391400
C451	C45	0.171900	0.111400	0.469680
C461	C46	0.148470	0.292600	0.460790
H371	H37	0.114900	0.337800	0.376600
H381	H38	0.186700	0.051600	0.492100
C471	C47	0.169780	0.207000	0.497510
H391	H39	0.147300	0.359700	0.477100
C481	C48	0.189900	0.217800	0.563960
H401	H40	0.201700	0.290000	0.574100
H411	H41	0.225000	0.172000	0.579000
H421	H42	0.156000	0.198300	0.581200
O71	O7	0.400560	0.382520	0.255910
Cd31	Cd3	0.402480	0.667750	0.229400
C491	C49	0.350060	0.431100	0.240910
O81	O8	0.342410	0.521580	0.219310
O91	O9	0.449170	0.826070	0.228750
N91	N9	0.188530	0.266370	0.266700
C501	C50	0.293210	0.372800	0.249950
C511	C51	0.298710	0.276400	0.278450
C521	C52	0.234190	0.415300	0.229910
H431	H43	0.337700	0.245200	0.292200
C531	C53	0.245330	0.226600	0.286290
C541	C54	0.183740	0.359700	0.238860
H441	H44	0.228800	0.480500	0.210700
C551	C55	0.446870	0.046400	0.223270
H451	H45	0.249500	0.162000	0.306300
H461	H46	0.144100	0.388600	0.224800
H471	H47	0.410400	0.011100	0.204700
C561	C56	0.448870	0.155400	0.224580
H481	H48	0.412700	0.192500	0.206800
N101	N10	0.473970	0.387460	0.144860
C571	C57	0.418050	0.355300	0.112990
C581	C58	0.517890	0.403200	0.114730
H491	H49	0.386900	0.342500	0.133000
C591	C59	0.403920	0.340000	0.052620
C601	C60	0.507830	0.389200	0.054540
H501	H50	0.557400	0.424800	0.135700
H511	H51	0.364100	0.318100	0.032800
C611	C61	0.449520	0.357400	0.021590
H521	H52	0.540100	0.400900	0.035800
C621	C62	0.437120	0.345300	0.956550
C631	C63	0.379340	0.371800	0.919800
C641	C64	0.482510	0.310200	0.928990
H531	H53	0.346600	0.393200	0.936100
C651	C65	0.371240	0.365800	0.859290
C661	C66	0.470250	0.305600	0.868280
H541	H54	0.521500	0.289700	0.951700
N111	N11	0.415590	0.334700	0.832840
H551	H55	0.332500	0.384500	0.835400
H561	H56	0.501500	0.281000	0.850800
N121	N12	0.370540	0.684540	0.126140
C671	C67	0.347600	0.603300	0.091130
C681	C68	0.371030	0.779000	0.099780
H571	H57	0.344600	0.537700	0.108600
C691	C69	0.328100	0.611400	0.030320
C701	C70	0.351530	0.792600	0.039210
H581	H58	0.385100	0.837800	0.123400
H591	H59	0.313300	0.551600	0.007900
C711	C71	0.330220	0.707000	0.002490
H601	H60	0.352700	0.859700	0.022900
C721	C72	0.310100	0.717800	0.936040
H611	H61	0.298300	0.790000	0.925900
H621	H62	0.275000	0.672000	0.921000
H631	H63	0.344000	0.698300	0.918800
O101	O10	0.900560	0.882520	0.255910
Cd41	Cd4	0.902470	0.167750	0.229400
C731	C73	0.850060	0.931100	0.240910
O111	O11	0.842410	0.021580	0.219310
O121	O12	0.949170	0.326070	0.228750
N131	N13	0.688530	0.766370	0.266700
C741	C74	0.793210	0.872800	0.249950
C751	C75	0.798710	0.776400	0.278450
C761	C76	0.734190	0.915300	0.229910
H641	H64	0.837700	0.745200	0.292200
C771	C77	0.745330	0.726600	0.286290
C781	C78	0.683740	0.859700	0.238860
H651	H65	0.728800	0.980500	0.210700
C791	C79	0.946870	0.546400	0.223270
H661	H66	0.749500	0.662000	0.306300
H671	H67	0.644100	0.888600	0.224800
H681	H68	0.910400	0.511100	0.204700
C801	C80	0.948870	0.655400	0.224580
H691	H69	0.912700	0.692500	0.206800
N141	N14	0.973970	0.887460	0.144860
C811	C81	0.918050	0.855300	0.112990
C821	C82	0.017890	0.903200	0.114730
H701	H70	0.886900	0.842500	0.133000
C831	C83	0.903920	0.840000	0.052620
C841	C84	0.007830	0.889200	0.054540
H711	H71	0.057400	0.924800	0.135700
H721	H72	0.864100	0.818100	0.032800
C851	C85	0.949520	0.857400	0.021590
H731	H73	0.040100	0.900900	0.035800
C861	C86	0.937120	0.845300	0.956550
C871	C87	0.879340	0.871800	0.919800
C881	C88	0.982510	0.810200	0.928990
H741	H74	0.846600	0.893200	0.936100
C891	C89	0.871240	0.865800	0.859290
C901	C90	0.970250	0.805600	0.868280
H751	H75	0.021500	0.789700	0.951700
N151	N15	0.915590	0.834700	0.832840
H761	H76	0.832500	0.884500	0.835400
H771	H77	0.001500	0.781000	0.850800
N161	N16	0.870540	0.184540	0.126140
C911	C91	0.847600	0.103300	0.091130
C921	C92	0.871030	0.279000	0.099780
H781	H78	0.844600	0.037700	0.108600
C931	C93	0.828100	0.111400	0.030320
C941	C94	0.851530	0.292600	0.039210
H791	H79	0.885100	0.337800	0.123400
H801	H80	0.813300	0.051600	0.007900
C951	C95	0.830220	0.207000	0.002490
H811	H81	0.852700	0.359700	0.022900
C961	C96	0.810100	0.217800	0.936040
H821	H82	0.798300	0.290000	0.925900
H831	H83	0.775000	0.172000	0.921000
H841	H84	0.844000	0.198300	0.918800
O131	O13	0.400560	0.617480	0.755910
Cd51	Cd5	0.402480	0.332250	0.729400
C971	C97	0.350060	0.568900	0.740910
O141	O14	0.342410	0.478420	0.719310
O151	O15	0.449170	0.173930	0.728750
N171	N17	0.188530	0.733630	0.766700
C981	C98	0.293210	0.627200	0.749950
C991	C99	0.298710	0.723600	0.778450
C1001	C100	0.234190	0.584700	0.729910
H851	H85	0.337700	0.754800	0.792200
C1011	C101	0.245330	0.773400	0.786290
C1021	C102	0.183740	0.640300	0.738860
H861	H86	0.228800	0.519500	0.710700
C1031	C103	0.446870	0.953600	0.723270
H871	H87	0.249500	0.838000	0.806300
H881	H88	0.144100	0.611400	0.724800
H891	H89	0.410400	0.988900	0.704700
C1041	C104	0.448870	0.844600	0.724580
H901	H90	0.412700	0.807500	0.706800
N181	N18	0.473970	0.612540	0.644860
C1051	C105	0.418050	0.644700	0.612990
C1061	C106	0.517890	0.596800	0.614730
H911	H91	0.386900	0.657500	0.633000
C1071	C107	0.403920	0.660000	0.552620
C1081	C108	0.507830	0.610800	0.554540
H921	H92	0.557400	0.575200	0.635700
H931	H93	0.364100	0.681900	0.532800
C1091	C109	0.449520	0.642600	0.521590
H941	H94	0.540100	0.599100	0.535800
C1101	C110	0.437120	0.654700	0.456550
C1111	C111	0.379340	0.628200	0.419800
C1121	C112	0.482510	0.689800	0.428990
H951	H95	0.346600	0.606800	0.436100
C1131	C113	0.371240	0.634200	0.359290
C1141	C114	0.470250	0.694400	0.368280
H961	H96	0.521500	0.710300	0.451700
N191	N19	0.415590	0.665300	0.332840
H971	H97	0.332500	0.615500	0.335400
H981	H98	0.501500	0.719000	0.350800
N201	N20	0.370540	0.315460	0.626140
C1151	C115	0.347600	0.396700	0.591130
C1161	C116	0.371030	0.221000	0.599780
H991	H99	0.344600	0.462300	0.608600
C1171	C117	0.328100	0.388600	0.530320
C1181	C118	0.351530	0.207400	0.539210
H1001	H100	0.385100	0.162200	0.623400
H1011	H101	0.313300	0.448400	0.507900
C1191	C119	0.330220	0.293000	0.502490
H1021	H102	0.352700	0.140300	0.522900
C1201	C120	0.310100	0.282200	0.436040
H1031	H103	0.298300	0.210000	0.425900
H1041	H104	0.275000	0.328000	0.421000
H1051	H105	0.344000	0.301700	0.418800
O161	O16	0.900560	0.117480	0.755910
Cd61	Cd6	0.902470	0.832250	0.729400
C1211	C121	0.850060	0.068900	0.740910
O171	O17	0.842410	0.978420	0.719310
O181	O18	0.949170	0.673930	0.728750
N211	N21	0.688530	0.233630	0.766700
C1221	C122	0.793210	0.127200	0.749950
C1231	C123	0.798710	0.223600	0.778450
C1241	C124	0.734190	0.084700	0.729910
H1061	H106	0.837700	0.254800	0.792200
C1251	C125	0.745330	0.273400	0.786290
C1261	C126	0.683740	0.140300	0.738860
H1071	H107	0.728800	0.019500	0.710700
C1271	C127	0.946870	0.453600	0.723270
H1081	H108	0.749500	0.338000	0.806300
H1091	H109	0.644100	0.111400	0.724800
H1101	H110	0.910400	0.488900	0.704700
C1281	C128	0.948870	0.344600	0.724580
H1111	H111	0.912700	0.307500	0.706800
N221	N22	0.973970	0.112540	0.644860
C1291	C129	0.918050	0.144700	0.612990
C1301	C130	0.017890	0.096800	0.614730
H1121	H112	0.886900	0.157500	0.633000
C1311	C131	0.903920	0.160000	0.552620
C1321	C132	0.007830	0.110800	0.554540
H1131	H113	0.057400	0.075200	0.635700
H1141	H114	0.864100	0.181900	0.532800
C1331	C133	0.949520	0.142600	0.521590
H1151	H115	0.040100	0.099100	0.535800
C1341	C134	0.937120	0.154700	0.456550
C1351	C135	0.879340	0.128200	0.419800
C1361	C136	0.982510	0.189800	0.428990
H1161	H116	0.846600	0.106800	0.436100
C1371	C137	0.871240	0.134200	0.359290
C1381	C138	0.970250	0.194400	0.368280
H1171	H117	0.021500	0.210300	0.451700
N231	N23	0.915590	0.165300	0.332840
H1181	H118	0.832500	0.115500	0.335400
H1191	H119	0.001500	0.219000	0.350800
N241	N24	0.870540	0.815460	0.626140
C1391	C139	0.847600	0.896700	0.591130
C1401	C140	0.871030	0.721000	0.599780
H1201	H120	0.844600	0.962300	0.608600
C1411	C141	0.828100	0.888600	0.530320
C1421	C142	0.851530	0.707400	0.539210
H1211	H121	0.885100	0.662200	0.623400
H1221	H122	0.813300	0.948400	0.507900
C1431	C143	0.830220	0.793000	0.502490
H1231	H123	0.852700	0.640300	0.522900
C1441	C144	0.810100	0.782200	0.436040
H1241	H124	0.798300	0.710000	0.425900
H1251	H125	0.775000	0.828000	0.421000
H1261	H126	0.844000	0.801700	0.418800
O191	O19	0.599440	0.617480	0.744090
Cd71	Cd7	0.597520	0.332250	0.770600
C1451	C145	0.649940	0.568900	0.759090
O201	O20	0.657590	0.478420	0.780690
O211	O21	0.550830	0.173930	0.771250
N251	N25	0.811470	0.733630	0.733300
C1461	C146	0.706790	0.627200	0.750050
C1471	C147	0.701290	0.723600	0.721550
C1481	C148	0.765810	0.584700	0.770090
H1271	H127	0.662300	0.754800	0.707800
C1491	C149	0.754670	0.773400	0.713710
C1501	C150	0.816260	0.640300	0.761140
H1281	H128	0.771200	0.519500	0.789300
C1511	C151	0.553130	0.953600	0.776730
H1291	H129	0.750500	0.838000	0.693700
H1301	H130	0.855900	0.611400	0.775200
H1311	H131	0.589600	0.988900	0.795300
C1521	C152	0.551130	0.844600	0.775420
H1321	H132	0.587300	0.807500	0.793200
N261	N26	0.526030	0.612540	0.855140
C1531	C153	0.581950	0.644700	0.887010
C1541	C154	0.482110	0.596800	0.885270
H1331	H133	0.613100	0.657500	0.867000
C1551	C155	0.596080	0.660000	0.947380
C1561	C156	0.492170	0.610800	0.945460
H1341	H134	0.442600	0.575200	0.864300
H1351	H135	0.635900	0.681900	0.967200
C1571	C157	0.550480	0.642600	0.978410
H1361	H136	0.459900	0.599100	0.964200
C1581	C158	0.562880	0.654700	0.043450
C1591	C159	0.620660	0.628200	0.080200
C1601	C160	0.517490	0.689800	0.071010
H1371	H137	0.653400	0.606800	0.063900
C1611	C161	0.628760	0.634200	0.140710
C1621	C162	0.529750	0.694400	0.131720
H1381	H138	0.478500	0.710300	0.048300
N271	N27	0.584410	0.665300	0.167160
H1391	H139	0.667500	0.615500	0.164600
H1401	H140	0.498500	0.719000	0.149200
N281	N28	0.629460	0.315460	0.873860
C1631	C163	0.652400	0.396700	0.908870
C1641	C164	0.628970	0.221000	0.900220
H1411	H141	0.655400	0.462300	0.891400
C1651	C165	0.671900	0.388600	0.969680
C1661	C166	0.648470	0.207400	0.960790
H1421	H142	0.614900	0.162200	0.876600
H1431	H143	0.686700	0.448400	0.992100
C1671	C167	0.669780	0.293000	0.997510
H1441	H144	0.647300	0.140300	0.977100
C1681	C168	0.689900	0.282200	0.063960
H1451	H145	0.701700	0.210000	0.074100
H1461	H146	0.725000	0.328000	0.079000
H1471	H147	0.656000	0.301700	0.081200
O221	O22	0.099440	0.117480	0.744090
Cd81	Cd8	0.097520	0.832250	0.770600
C1691	C169	0.149940	0.068900	0.759090
O231	O23	0.157590	0.978420	0.780690
O241	O24	0.050830	0.673930	0.771250
N291	N29	0.311470	0.233630	0.733300
C1701	C170	0.206790	0.127200	0.750050
C1711	C171	0.201290	0.223600	0.721550
C1721	C172	0.265810	0.084700	0.770090
H1481	H148	0.162300	0.254800	0.707800
C1731	C173	0.254670	0.273400	0.713710
C1741	C174	0.316260	0.140300	0.761140
H1491	H149	0.271200	0.019500	0.789300
C1751	C175	0.053130	0.453600	0.776730
H1501	H150	0.250500	0.338000	0.693700
H1511	H151	0.355900	0.111400	0.775200
H1521	H152	0.089600	0.488900	0.795300
C1761	C176	0.051130	0.344600	0.775420
H1531	H153	0.087300	0.307500	0.793200
N301	N30	0.026030	0.112540	0.855140
C1771	C177	0.081950	0.144700	0.887010
C1781	C178	0.982110	0.096800	0.885270
H1541	H154	0.113100	0.157500	0.867000
C1791	C179	0.096080	0.160000	0.947380
C1801	C180	0.992170	0.110800	0.945460
H1551	H155	0.942600	0.075200	0.864300
H1561	H156	0.135900	0.181900	0.967200
C1811	C181	0.050480	0.142600	0.978410
H1571	H157	0.959900	0.099100	0.964200
C1821	C182	0.062880	0.154700	0.043450
C1831	C183	0.120660	0.128200	0.080200
C1841	C184	0.017490	0.189800	0.071010
H1581	H158	0.153400	0.106800	0.063900
C1851	C185	0.128760	0.134200	0.140710
C1861	C186	0.029750	0.194400	0.131720
H1591	H159	0.978500	0.210300	0.048300
N311	N31	0.084410	0.165300	0.167160
H1601	H160	0.167500	0.115500	0.164600
H1611	H161	0.998500	0.219000	0.149200
N321	N32	0.129460	0.815460	0.873860
C1871	C187	0.152400	0.896700	0.908870
C1881	C188	0.128970	0.721000	0.900220
H1621	H162	0.155400	0.962300	0.891400
C1891	C189	0.171900	0.888600	0.969680
C1901	C190	0.148470	0.707400	0.960790
H1631	H163	0.114900	0.662200	0.876600
H1641	H164	0.186700	0.948400	0.992100
C1911	C191	0.169780	0.793000	0.997510
H1651	H165	0.147300	0.640300	0.977100
C1921	C192	0.189900	0.782200	0.063960
H1661	H166	0.201700	0.710000	0.074100
H1671	H167	0.225000	0.828000	0.079000
H1681	H168	0.156000	0.801700	0.081200
Cd91	Cd9	0.500000	0.400810	0.250000
F11	F1	0.500000	0.582440	0.250000
N331	N33	0.500000	0.211000	0.250000
C1931	C193	0.500000	0.870600	0.250000
C1941	C194	0.500000	0.990100	0.250000
Cd101	Cd10	0.000000	0.900810	0.250000
F21	F2	0.000000	0.082440	0.250000
N341	N34	0.000000	0.711000	0.250000
C1951	C195	0.000000	0.370600	0.250000
C1961	C196	0.000000	0.490100	0.250000
Cd111	Cd11	0.500000	0.599190	0.750000
F31	F3	0.500000	0.417560	0.750000
N351	N35	0.500000	0.789000	0.750000
C1971	C197	0.500000	0.129400	0.750000
C1981	C198	0.500000	0.009900	0.750000
Cd121	Cd12	0.000000	0.099190	0.750000
F41	F4	0.000000	0.917560	0.750000
N361	N36	0.000000	0.289000	0.750000
C1991	C199	0.000000	0.629400	0.750000
C2001	C200	0.000000	0.509900	0.750000
