data_LIPQOR_freeONLY_PM
_symmetry_space_group_name_H-M	'P1'
_cell_length_a	24.777000
_cell_length_b	24.777000
_cell_length_c	26.489000
_cell_angle_alpha	90.000000
_cell_angle_beta	90.000000
_cell_angle_gamma	120.000000
_symmetry_Int_Tables_number 1

loop_
_symmetry_equiv_pos_as_xyz
'x,y,z'

loop_
_atom_site_label
_atom_site_type_symbol
_atom_site_fract_x
_atom_site_fract_y
_atom_site_fract_z
Cu11	Cu1	0.132710	0.646610	0.027620
N11	N1	0.032800	0.526600	0.070580
N21	N2	0.084500	0.582800	0.083600
N31	N3	0.049600	0.522800	0.150600
N41	N4	0.083500	0.470000	0.268600
N51	N5	0.138500	0.577300	0.992690
N61	N6	0.086800	0.521700	0.978020
N71	N7	0.168800	0.516500	0.959200
N81	N8	0.293600	0.479700	0.971400
C11	C1	0.012600	0.492000	0.110600
H11	H1	0.978100	0.452200	0.111800
C21	C2	0.094600	0.579000	0.132000
H21	H2	0.127400	0.609800	0.150600
C31	C3	0.042500	0.497800	0.200300
C41	C4	0.986600	0.477300	0.224000
H31	H3	0.955300	0.482400	0.209500
C51	C5	0.978300	0.448300	0.271400
H41	H4	0.940400	0.431200	0.288100
C61	C6	0.090000	0.495800	0.223200
H51	H5	0.128300	0.512900	0.206900
C71	C7	0.028100	0.446100	0.292200
H61	H6	0.023200	0.427500	0.323600
C81	C8	0.186800	0.572900	0.980900
H71	H7	0.227900	0.603700	0.986400
C91	C9	0.106200	0.486500	0.958600
H81	H8	0.080600	0.446400	0.946100
C101	C10	0.209300	0.493900	0.945500
C111	C11	0.252300	0.498500	0.980500
H91	H9	0.252800	0.515400	0.012000
C121	C12	0.290300	0.454300	0.926200
H101	H10	0.318900	0.441600	0.918500
C131	C13	0.246400	0.446100	0.890700
H111	H11	0.245200	0.427100	0.860200
C141	C14	0.204600	0.465500	0.899600
H121	H12	0.174500	0.459900	0.875900
Cl11	Cl1	0.028360	0.614780	0.982570
Cu21	Cu2	0.799380	0.979940	0.360950
N91	N9	0.699470	0.859930	0.403910
N101	N10	0.751170	0.916130	0.416930
N111	N11	0.716270	0.856130	0.483930
N121	N12	0.750170	0.803330	0.601930
N131	N13	0.805170	0.910630	0.326020
N141	N14	0.753470	0.855030	0.311350
N151	N15	0.835470	0.849830	0.292530
N161	N16	0.960270	0.813030	0.304730
C151	C15	0.679270	0.825330	0.443930
H131	H13	0.644770	0.785530	0.445130
C161	C16	0.761270	0.912330	0.465330
H141	H14	0.794070	0.943130	0.483930
C171	C17	0.709170	0.831130	0.533630
C181	C18	0.653270	0.810630	0.557330
H151	H15	0.621970	0.815730	0.542830
C191	C19	0.644970	0.781630	0.604730
H161	H16	0.607070	0.764530	0.621430
C201	C20	0.756670	0.829130	0.556530
H171	H17	0.794970	0.846230	0.540230
C211	C21	0.694770	0.779430	0.625530
H181	H18	0.689870	0.760830	0.656930
C221	C22	0.853470	0.906230	0.314230
H191	H19	0.894570	0.937030	0.319730
C231	C23	0.772870	0.819830	0.291930
H201	H20	0.747270	0.779730	0.279430
C241	C24	0.875970	0.827230	0.278830
C251	C25	0.918970	0.831830	0.313830
H211	H21	0.919470	0.848730	0.345330
C261	C26	0.956970	0.787630	0.259530
H221	H22	0.985570	0.774930	0.251830
C271	C27	0.913070	0.779430	0.224030
H231	H23	0.911870	0.760430	0.193530
C281	C28	0.871270	0.798830	0.232930
H241	H24	0.841170	0.793230	0.209230
Cl21	Cl2	0.695030	0.948110	0.315900
Cu31	Cu3	0.466040	0.313280	0.694290
N171	N17	0.366130	0.193270	0.737250
N181	N18	0.417830	0.249470	0.750270
N191	N19	0.382930	0.189470	0.817270
N201	N20	0.416830	0.136670	0.935270
N211	N21	0.471830	0.243970	0.659360
N221	N22	0.420130	0.188370	0.644690
N231	N23	0.502130	0.183170	0.625870
N241	N24	0.626930	0.146370	0.638070
C291	C29	0.345930	0.158670	0.777270
H251	H25	0.311430	0.118870	0.778470
C301	C30	0.427930	0.245670	0.798670
H261	H26	0.460730	0.276470	0.817270
C311	C31	0.375830	0.164470	0.866970
C321	C32	0.319930	0.143970	0.890670
H271	H27	0.288630	0.149070	0.876170
C331	C33	0.311630	0.114970	0.938070
H281	H28	0.273730	0.097870	0.954770
C341	C34	0.423330	0.162470	0.889870
H291	H29	0.461630	0.179570	0.873570
C351	C35	0.361430	0.112770	0.958870
H301	H30	0.356530	0.094170	0.990270
C361	C36	0.520130	0.239570	0.647570
H311	H31	0.561230	0.270370	0.653070
C371	C37	0.439530	0.153170	0.625270
H321	H32	0.413930	0.113070	0.612770
C381	C38	0.542630	0.160570	0.612170
C391	C39	0.585630	0.165170	0.647170
H331	H33	0.586130	0.182070	0.678670
C401	C40	0.623630	0.120970	0.592870
H341	H34	0.652230	0.108270	0.585170
C411	C41	0.579730	0.112770	0.557370
H351	H35	0.578530	0.093770	0.526870
C421	C42	0.537930	0.132170	0.566270
H361	H36	0.507830	0.126570	0.542570
Cl31	Cl3	0.361690	0.281450	0.649240
Cu41	Cu4	0.353390	0.486100	0.027620
N251	N25	0.473400	0.506200	0.070580
N261	N26	0.417200	0.501700	0.083600
N271	N27	0.477200	0.526800	0.150600
N281	N28	0.530000	0.613500	0.268600
N291	N29	0.422700	0.561200	0.992690
N301	N30	0.478300	0.565100	0.978020
N311	N31	0.483500	0.652300	0.959200
N321	N32	0.520300	0.813900	0.971400
C431	C43	0.508000	0.520600	0.110600
H371	H37	0.547800	0.525900	0.111800
C441	C44	0.421000	0.515600	0.132000
H381	H38	0.390200	0.517600	0.150600
C451	C45	0.502200	0.544700	0.200300
C461	C46	0.522700	0.509300	0.224000
H391	H39	0.517600	0.472900	0.209500
C471	C47	0.551700	0.530000	0.271400
H401	H40	0.568800	0.509200	0.288100
C481	C48	0.504200	0.594200	0.223200
H411	H41	0.487100	0.615400	0.206900
C491	C49	0.553900	0.582000	0.292200
H421	H42	0.572500	0.595700	0.323600
C501	C50	0.427100	0.613900	0.980900
H431	H43	0.396300	0.624200	0.986400
C511	C51	0.513500	0.619700	0.958600
H441	H44	0.553600	0.634200	0.946100
C521	C52	0.506100	0.715400	0.945500
C531	C53	0.501500	0.753800	0.980500
H451	H45	0.484600	0.737400	0.012000
C541	C54	0.545700	0.836000	0.926200
H461	H46	0.558400	0.877300	0.918500
C551	C55	0.553900	0.800300	0.890700
H471	H47	0.572900	0.818100	0.860200
C561	C56	0.534500	0.739100	0.899600
H481	H48	0.540100	0.714600	0.875900
Cl41	Cl4	0.385220	0.413580	0.982570
Cu51	Cu5	0.020060	0.819430	0.360950
N331	N33	0.140070	0.839530	0.403910
N341	N34	0.083870	0.835030	0.416930
N351	N35	0.143870	0.860130	0.483930
N361	N36	0.196670	0.946830	0.601930
N371	N37	0.089370	0.894530	0.326020
N381	N38	0.144970	0.898430	0.311350
N391	N39	0.150170	0.985630	0.292530
N401	N40	0.186970	0.147230	0.304730
C571	C57	0.174670	0.853930	0.443930
H491	H49	0.214470	0.859230	0.445130
C581	C58	0.087670	0.848930	0.465330
H501	H50	0.056870	0.850930	0.483930
C591	C59	0.168870	0.878030	0.533630
C601	C60	0.189370	0.842630	0.557330
H511	H51	0.184270	0.806230	0.542830
C611	C61	0.218370	0.863330	0.604730
H521	H52	0.235470	0.842530	0.621430
C621	C62	0.170870	0.927530	0.556530
H531	H53	0.153770	0.948730	0.540230
C631	C63	0.220570	0.915330	0.625530
H541	H54	0.239170	0.929030	0.656930
C641	C64	0.093770	0.947230	0.314230
H551	H55	0.062970	0.957530	0.319730
C651	C65	0.180170	0.953030	0.291930
H561	H56	0.220270	0.967530	0.279430
C661	C66	0.172770	0.048730	0.278830
C671	C67	0.168170	0.087130	0.313830
H571	H57	0.151270	0.070730	0.345330
C681	C68	0.212370	0.169330	0.259530
H581	H58	0.225070	0.210630	0.251830
C691	C69	0.220570	0.133630	0.224030
H591	H59	0.239570	0.151430	0.193530
C701	C70	0.201170	0.072430	0.232930
H601	H60	0.206770	0.047930	0.209230
Cl51	Cl5	0.051890	0.746910	0.315900
Cu61	Cu6	0.686720	0.152770	0.694290
N411	N41	0.806730	0.172870	0.737250
N421	N42	0.750530	0.168370	0.750270
N431	N43	0.810530	0.193470	0.817270
N441	N44	0.863330	0.280170	0.935270
N451	N45	0.756030	0.227870	0.659360
N461	N46	0.811630	0.231770	0.644690
N471	N47	0.816830	0.318970	0.625870
N481	N48	0.853630	0.480570	0.638070
C711	C71	0.841330	0.187270	0.777270
H611	H61	0.881130	0.192570	0.778470
C721	C72	0.754330	0.182270	0.798670
H621	H62	0.723530	0.184270	0.817270
C731	C73	0.835530	0.211370	0.866970
C741	C74	0.856030	0.175970	0.890670
H631	H63	0.850930	0.139570	0.876170
C751	C75	0.885030	0.196670	0.938070
H641	H64	0.902130	0.175870	0.954770
C761	C76	0.837530	0.260870	0.889870
H651	H65	0.820430	0.282070	0.873570
C771	C77	0.887230	0.248670	0.958870
H661	H66	0.905830	0.262370	0.990270
C781	C78	0.760430	0.280570	0.647570
H671	H67	0.729630	0.290870	0.653070
C791	C79	0.846830	0.286370	0.625270
H681	H68	0.886930	0.300870	0.612770
C801	C80	0.839430	0.382070	0.612170
C811	C81	0.834830	0.420470	0.647170
H691	H69	0.817930	0.404070	0.678670
C821	C82	0.879030	0.502670	0.592870
H701	H70	0.891730	0.543970	0.585170
C831	C83	0.887230	0.466970	0.557370
H711	H71	0.906230	0.484770	0.526870
C841	C84	0.867830	0.405770	0.566270
H721	H72	0.873430	0.381270	0.542570
Cl61	Cl6	0.718550	0.080250	0.649240
Cu71	Cu7	0.513900	0.867290	0.027620
N491	N49	0.493800	0.967200	0.070580
N501	N50	0.498300	0.915500	0.083600
N511	N51	0.473200	0.950400	0.150600
N521	N52	0.386500	0.916500	0.268600
N531	N53	0.438800	0.861500	0.992690
N541	N54	0.434900	0.913200	0.978020
N551	N55	0.347700	0.831200	0.959200
N561	N56	0.186100	0.706400	0.971400
C851	C85	0.479400	0.987400	0.110600
H731	H73	0.474100	0.021900	0.111800
C861	C86	0.484400	0.905400	0.132000
H741	H74	0.482400	0.872600	0.150600
C871	C87	0.455300	0.957500	0.200300
C881	C88	0.490700	0.013400	0.224000
H751	H75	0.527100	0.044700	0.209500
C891	C89	0.470000	0.021700	0.271400
H761	H76	0.490800	0.059600	0.288100
C901	C90	0.405800	0.910000	0.223200
H771	H77	0.384600	0.871700	0.206900
C911	C91	0.418000	0.971900	0.292200
H781	H78	0.404300	0.976800	0.323600
C921	C92	0.386100	0.813200	0.980900
H791	H79	0.375800	0.772100	0.986400
C931	C93	0.380300	0.893800	0.958600
H801	H80	0.365800	0.919400	0.946100
C941	C94	0.284600	0.790700	0.945500
C951	C95	0.246200	0.747700	0.980500
H811	H81	0.262600	0.747200	0.012000
C961	C96	0.164000	0.709700	0.926200
H821	H82	0.122700	0.681100	0.918500
C971	C97	0.199700	0.753600	0.890700
H831	H83	0.181900	0.754800	0.860200
C981	C98	0.260900	0.795400	0.899600
H841	H84	0.285400	0.825500	0.875900
Cl71	Cl7	0.586420	0.971640	0.982570
Cu81	Cu8	0.180570	0.200620	0.360950
N571	N57	0.160470	0.300530	0.403910
N581	N58	0.164970	0.248830	0.416930
N591	N59	0.139870	0.283730	0.483930
N601	N60	0.053170	0.249830	0.601930
N611	N61	0.105470	0.194830	0.326020
N621	N62	0.101570	0.246530	0.311350
N631	N63	0.014370	0.164530	0.292530
N641	N64	0.852770	0.039730	0.304730
C991	C99	0.146070	0.320730	0.443930
H851	H85	0.140770	0.355230	0.445130
C1001	C100	0.151070	0.238730	0.465330
H861	H86	0.149070	0.205930	0.483930
C1011	C101	0.121970	0.290830	0.533630
C1021	C102	0.157370	0.346730	0.557330
H871	H87	0.193770	0.378030	0.542830
C1031	C103	0.136670	0.355030	0.604730
H881	H88	0.157470	0.392930	0.621430
C1041	C104	0.072470	0.243330	0.556530
H891	H89	0.051270	0.205030	0.540230
C1051	C105	0.084670	0.305230	0.625530
H901	H90	0.070970	0.310130	0.656930
C1061	C106	0.052770	0.146530	0.314230
H911	H91	0.042470	0.105430	0.319730
C1071	C107	0.046970	0.227130	0.291930
H921	H92	0.032470	0.252730	0.279430
C1081	C108	0.951270	0.124030	0.278830
C1091	C109	0.912870	0.081030	0.313830
H931	H93	0.929270	0.080530	0.345330
C1101	C110	0.830670	0.043030	0.259530
H941	H94	0.789370	0.014430	0.251830
C1111	C111	0.866370	0.086930	0.224030
H951	H95	0.848570	0.088130	0.193530
C1121	C112	0.927570	0.128730	0.232930
H961	H96	0.952070	0.158830	0.209230
Cl81	Cl8	0.253090	0.304970	0.315900
Cu91	Cu9	0.847230	0.533960	0.694290
N651	N65	0.827130	0.633870	0.737250
N661	N66	0.831630	0.582170	0.750270
N671	N67	0.806530	0.617070	0.817270
N681	N68	0.719830	0.583170	0.935270
N691	N69	0.772130	0.528170	0.659360
N701	N70	0.768230	0.579870	0.644690
N711	N71	0.681030	0.497870	0.625870
N721	N72	0.519430	0.373070	0.638070
C1131	C113	0.812730	0.654070	0.777270
H971	H97	0.807430	0.688570	0.778470
C1141	C114	0.817730	0.572070	0.798670
H981	H98	0.815730	0.539270	0.817270
C1151	C115	0.788630	0.624170	0.866970
C1161	C116	0.824030	0.680070	0.890670
H991	H99	0.860430	0.711370	0.876170
C1171	C117	0.803330	0.688370	0.938070
H1001	H100	0.824130	0.726270	0.954770
C1181	C118	0.739130	0.576670	0.889870
H1011	H101	0.717930	0.538370	0.873570
C1191	C119	0.751330	0.638570	0.958870
H1021	H102	0.737630	0.643470	0.990270
C1201	C120	0.719430	0.479870	0.647570
H1031	H103	0.709130	0.438770	0.653070
C1211	C121	0.713630	0.560470	0.625270
H1041	H104	0.699130	0.586070	0.612770
C1221	C122	0.617930	0.457370	0.612170
C1231	C123	0.579530	0.414370	0.647170
H1051	H105	0.595930	0.413870	0.678670
C1241	C124	0.497330	0.376370	0.592870
H1061	H106	0.456030	0.347770	0.585170
C1251	C125	0.533030	0.420270	0.557370
H1071	H107	0.515230	0.421470	0.526870
C1261	C126	0.594230	0.462070	0.566270
H1081	H108	0.618730	0.492170	0.542570
Cl91	Cl9	0.919750	0.638310	0.649240
Cu101	Cu10	0.867290	0.353390	0.972380
N731	N73	0.967200	0.473400	0.929420
N741	N74	0.915500	0.417200	0.916400
N751	N75	0.950400	0.477200	0.849400
N761	N76	0.916500	0.530000	0.731400
N771	N77	0.861500	0.422700	0.007310
N781	N78	0.913200	0.478300	0.021980
N791	N79	0.831200	0.483500	0.040800
N801	N80	0.706400	0.520300	0.028600
C1271	C127	0.987400	0.508000	0.889400
H1091	H109	0.021900	0.547800	0.888200
C1281	C128	0.905400	0.421000	0.868000
H1101	H110	0.872600	0.390200	0.849400
C1291	C129	0.957500	0.502200	0.799700
C1301	C130	0.013400	0.522700	0.776000
H1111	H111	0.044700	0.517600	0.790500
C1311	C131	0.021700	0.551700	0.728600
H1121	H112	0.059600	0.568800	0.711900
C1321	C132	0.910000	0.504200	0.776800
H1131	H113	0.871700	0.487100	0.793100
C1331	C133	0.971900	0.553900	0.707800
H1141	H114	0.976800	0.572500	0.676400
C1341	C134	0.813200	0.427100	0.019100
H1151	H115	0.772100	0.396300	0.013600
C1351	C135	0.893800	0.513500	0.041400
H1161	H116	0.919400	0.553600	0.053900
C1361	C136	0.790700	0.506100	0.054500
C1371	C137	0.747700	0.501500	0.019500
H1171	H117	0.747200	0.484600	0.988000
C1381	C138	0.709700	0.545700	0.073800
H1181	H118	0.681100	0.558400	0.081500
C1391	C139	0.753600	0.553900	0.109300
H1191	H119	0.754800	0.572900	0.139800
C1401	C140	0.795400	0.534500	0.100400
H1201	H120	0.825500	0.540100	0.124100
Cl101	Cl10	0.971640	0.385220	0.017430
Cu111	Cu11	0.533960	0.686720	0.305710
N811	N81	0.633870	0.806730	0.262750
N821	N82	0.582170	0.750530	0.249730
N831	N83	0.617070	0.810530	0.182730
N841	N84	0.583170	0.863330	0.064730
N851	N85	0.528170	0.756030	0.340640
N861	N86	0.579870	0.811630	0.355310
N871	N87	0.497870	0.816830	0.374130
N881	N88	0.373070	0.853630	0.361930
C1411	C141	0.654070	0.841330	0.222730
H1211	H121	0.688570	0.881130	0.221530
C1421	C142	0.572070	0.754330	0.201330
H1221	H122	0.539270	0.723530	0.182730
C1431	C143	0.624170	0.835530	0.133030
C1441	C144	0.680070	0.856030	0.109330
H1231	H123	0.711370	0.850930	0.123830
C1451	C145	0.688370	0.885030	0.061930
H1241	H124	0.726270	0.902130	0.045230
C1461	C146	0.576670	0.837530	0.110130
H1251	H125	0.538370	0.820430	0.126430
C1471	C147	0.638570	0.887230	0.041130
H1261	H126	0.643470	0.905830	0.009730
C1481	C148	0.479870	0.760430	0.352430
H1271	H127	0.438770	0.729630	0.346930
C1491	C149	0.560470	0.846830	0.374730
H1281	H128	0.586070	0.886930	0.387230
C1501	C150	0.457370	0.839430	0.387830
C1511	C151	0.414370	0.834830	0.352830
H1291	H129	0.413870	0.817930	0.321330
C1521	C152	0.376370	0.879030	0.407130
H1301	H130	0.347770	0.891730	0.414830
C1531	C153	0.420270	0.887230	0.442630
H1311	H131	0.421470	0.906230	0.473130
C1541	C154	0.462070	0.867830	0.433730
H1321	H132	0.492170	0.873430	0.457430
Cl111	Cl11	0.638310	0.718550	0.350760
Cu121	Cu12	0.200620	0.020060	0.639050
N891	N89	0.300530	0.140070	0.596090
N901	N90	0.248830	0.083870	0.583070
N911	N91	0.283730	0.143870	0.516070
N921	N92	0.249830	0.196670	0.398070
N931	N93	0.194830	0.089370	0.673980
N941	N94	0.246530	0.144970	0.688650
N951	N95	0.164530	0.150170	0.707470
N961	N96	0.039730	0.186970	0.695270
C1551	C155	0.320730	0.174670	0.556070
H1331	H133	0.355230	0.214470	0.554870
C1561	C156	0.238730	0.087670	0.534670
H1341	H134	0.205930	0.056870	0.516070
C1571	C157	0.290830	0.168870	0.466370
C1581	C158	0.346730	0.189370	0.442670
H1351	H135	0.378030	0.184270	0.457170
C1591	C159	0.355030	0.218370	0.395270
H1361	H136	0.392930	0.235470	0.378570
C1601	C160	0.243330	0.170870	0.443470
H1371	H137	0.205030	0.153770	0.459770
C1611	C161	0.305230	0.220570	0.374470
H1381	H138	0.310130	0.239170	0.343070
C1621	C162	0.146530	0.093770	0.685770
H1391	H139	0.105430	0.062970	0.680270
C1631	C163	0.227130	0.180170	0.708070
H1401	H140	0.252730	0.220270	0.720570
C1641	C164	0.124030	0.172770	0.721170
C1651	C165	0.081030	0.168170	0.686170
H1411	H141	0.080530	0.151270	0.654670
C1661	C166	0.043030	0.212370	0.740470
H1421	H142	0.014430	0.225070	0.748170
C1671	C167	0.086930	0.220570	0.775970
H1431	H143	0.088130	0.239570	0.806470
C1681	C168	0.128730	0.201170	0.767070
H1441	H144	0.158830	0.206770	0.790770
Cl121	Cl12	0.304970	0.051890	0.684100
Cu131	Cu13	0.646610	0.513900	0.972380
N971	N97	0.526600	0.493800	0.929420
N981	N98	0.582800	0.498300	0.916400
N991	N99	0.522800	0.473200	0.849400
N1001	N100	0.470000	0.386500	0.731400
N1011	N101	0.577300	0.438800	0.007310
N1021	N102	0.521700	0.434900	0.021980
N1031	N103	0.516500	0.347700	0.040800
N1041	N104	0.479700	0.186100	0.028600
C1691	C169	0.492000	0.479400	0.889400
H1451	H145	0.452200	0.474100	0.888200
C1701	C170	0.579000	0.484400	0.868000
H1461	H146	0.609800	0.482400	0.849400
C1711	C171	0.497800	0.455300	0.799700
C1721	C172	0.477300	0.490700	0.776000
H1471	H147	0.482400	0.527100	0.790500
C1731	C173	0.448300	0.470000	0.728600
H1481	H148	0.431200	0.490800	0.711900
C1741	C174	0.495800	0.405800	0.776800
H1491	H149	0.512900	0.384600	0.793100
C1751	C175	0.446100	0.418000	0.707800
H1501	H150	0.427500	0.404300	0.676400
C1761	C176	0.572900	0.386100	0.019100
H1511	H151	0.603700	0.375800	0.013600
C1771	C177	0.486500	0.380300	0.041400
H1521	H152	0.446400	0.365800	0.053900
C1781	C178	0.493900	0.284600	0.054500
C1791	C179	0.498500	0.246200	0.019500
H1531	H153	0.515400	0.262600	0.988000
C1801	C180	0.454300	0.164000	0.073800
H1541	H154	0.441600	0.122700	0.081500
C1811	C181	0.446100	0.199700	0.109300
H1551	H155	0.427100	0.181900	0.139800
C1821	C182	0.465500	0.260900	0.100400
H1561	H156	0.459900	0.285400	0.124100
Cl131	Cl13	0.614780	0.586420	0.017430
Cu141	Cu14	0.313280	0.847230	0.305710
N1051	N105	0.193270	0.827130	0.262750
N1061	N106	0.249470	0.831630	0.249730
N1071	N107	0.189470	0.806530	0.182730
N1081	N108	0.136670	0.719830	0.064730
N1091	N109	0.243970	0.772130	0.340640
N1101	N110	0.188370	0.768230	0.355310
N1111	N111	0.183170	0.681030	0.374130
N1121	N112	0.146370	0.519430	0.361930
C1831	C183	0.158670	0.812730	0.222730
H1571	H157	0.118870	0.807430	0.221530
C1841	C184	0.245670	0.817730	0.201330
H1581	H158	0.276470	0.815730	0.182730
C1851	C185	0.164470	0.788630	0.133030
C1861	C186	0.143970	0.824030	0.109330
H1591	H159	0.149070	0.860430	0.123830
C1871	C187	0.114970	0.803330	0.061930
H1601	H160	0.097870	0.824130	0.045230
C1881	C188	0.162470	0.739130	0.110130
H1611	H161	0.179570	0.717930	0.126430
C1891	C189	0.112770	0.751330	0.041130
H1621	H162	0.094170	0.737630	0.009730
C1901	C190	0.239570	0.719430	0.352430
H1631	H163	0.270370	0.709130	0.346930
C1911	C191	0.153170	0.713630	0.374730
H1641	H164	0.113070	0.699130	0.387230
C1921	C192	0.160570	0.617930	0.387830
C1931	C193	0.165170	0.579530	0.352830
H1651	H165	0.182070	0.595930	0.321330
C1941	C194	0.120970	0.497330	0.407130
H1661	H166	0.108270	0.456030	0.414830
C1951	C195	0.112770	0.533030	0.442630
H1671	H167	0.093770	0.515230	0.473130
C1961	C196	0.132170	0.594230	0.433730
H1681	H168	0.126570	0.618730	0.457430
Cl141	Cl14	0.281450	0.919750	0.350760
Cu151	Cu15	0.979940	0.180570	0.639050
N1131	N113	0.859930	0.160470	0.596090
N1141	N114	0.916130	0.164970	0.583070
N1151	N115	0.856130	0.139870	0.516070
N1161	N116	0.803330	0.053170	0.398070
N1171	N117	0.910630	0.105470	0.673980
N1181	N118	0.855030	0.101570	0.688650
N1191	N119	0.849830	0.014370	0.707470
N1201	N120	0.813030	0.852770	0.695270
C1971	C197	0.825330	0.146070	0.556070
H1691	H169	0.785530	0.140770	0.554870
C1981	C198	0.912330	0.151070	0.534670
H1701	H170	0.943130	0.149070	0.516070
C1991	C199	0.831130	0.121970	0.466370
C2001	C200	0.810630	0.157370	0.442670
H1711	H171	0.815730	0.193770	0.457170
C2011	C201	0.781630	0.136670	0.395270
H1721	H172	0.764530	0.157470	0.378570
C2021	C202	0.829130	0.072470	0.443470
H1731	H173	0.846230	0.051270	0.459770
C2031	C203	0.779430	0.084670	0.374470
H1741	H174	0.760830	0.070970	0.343070
C2041	C204	0.906230	0.052770	0.685770
H1751	H175	0.937030	0.042470	0.680270
C2051	C205	0.819830	0.046970	0.708070
H1761	H176	0.779730	0.032470	0.720570
C2061	C206	0.827230	0.951270	0.721170
C2071	C207	0.831830	0.912870	0.686170
H1771	H177	0.848730	0.929270	0.654670
C2081	C208	0.787630	0.830670	0.740470
H1781	H178	0.774930	0.789370	0.748170
C2091	C209	0.779430	0.866370	0.775970
H1791	H179	0.760430	0.848570	0.806470
C2101	C210	0.798830	0.927570	0.767070
H1801	H180	0.793230	0.952070	0.790770
Cl151	Cl15	0.948110	0.253090	0.684100
Cu161	Cu16	0.486100	0.132710	0.972380
N1211	N121	0.506200	0.032800	0.929420
N1221	N122	0.501700	0.084500	0.916400
N1231	N123	0.526800	0.049600	0.849400
N1241	N124	0.613500	0.083500	0.731400
N1251	N125	0.561200	0.138500	0.007310
N1261	N126	0.565100	0.086800	0.021980
N1271	N127	0.652300	0.168800	0.040800
N1281	N128	0.813900	0.293600	0.028600
C2111	C211	0.520600	0.012600	0.889400
H1811	H181	0.525900	0.978100	0.888200
C2121	C212	0.515600	0.094600	0.868000
H1821	H182	0.517600	0.127400	0.849400
C2131	C213	0.544700	0.042500	0.799700
C2141	C214	0.509300	0.986600	0.776000
H1831	H183	0.472900	0.955300	0.790500
C2151	C215	0.530000	0.978300	0.728600
H1841	H184	0.509200	0.940400	0.711900
C2161	C216	0.594200	0.090000	0.776800
H1851	H185	0.615400	0.128300	0.793100
C2171	C217	0.582000	0.028100	0.707800
H1861	H186	0.595700	0.023200	0.676400
C2181	C218	0.613900	0.186800	0.019100
H1871	H187	0.624200	0.227900	0.013600
C2191	C219	0.619700	0.106200	0.041400
H1881	H188	0.634200	0.080600	0.053900
C2201	C220	0.715400	0.209300	0.054500
C2211	C221	0.753800	0.252300	0.019500
H1891	H189	0.737400	0.252800	0.988000
C2221	C222	0.836000	0.290300	0.073800
H1901	H190	0.877300	0.318900	0.081500
C2231	C223	0.800300	0.246400	0.109300
H1911	H191	0.818100	0.245200	0.139800
C2241	C224	0.739100	0.204600	0.100400
H1921	H192	0.714600	0.174500	0.124100
Cl161	Cl16	0.413580	0.028360	0.017430
Cu171	Cu17	0.152770	0.466040	0.305710
N1291	N129	0.172870	0.366130	0.262750
N1301	N130	0.168370	0.417830	0.249730
N1311	N131	0.193470	0.382930	0.182730
N1321	N132	0.280170	0.416830	0.064730
N1331	N133	0.227870	0.471830	0.340640
N1341	N134	0.231770	0.420130	0.355310
N1351	N135	0.318970	0.502130	0.374130
N1361	N136	0.480570	0.626930	0.361930
C2251	C225	0.187270	0.345930	0.222730
H1931	H193	0.192570	0.311430	0.221530
C2261	C226	0.182270	0.427930	0.201330
H1941	H194	0.184270	0.460730	0.182730
C2271	C227	0.211370	0.375830	0.133030
C2281	C228	0.175970	0.319930	0.109330
H1951	H195	0.139570	0.288630	0.123830
C2291	C229	0.196670	0.311630	0.061930
H1961	H196	0.175870	0.273730	0.045230
C2301	C230	0.260870	0.423330	0.110130
H1971	H197	0.282070	0.461630	0.126430
C2311	C231	0.248670	0.361430	0.041130
H1981	H198	0.262370	0.356530	0.009730
C2321	C232	0.280570	0.520130	0.352430
H1991	H199	0.290870	0.561230	0.346930
C2331	C233	0.286370	0.439530	0.374730
H2001	H200	0.300870	0.413930	0.387230
C2341	C234	0.382070	0.542630	0.387830
C2351	C235	0.420470	0.585630	0.352830
H2011	H201	0.404070	0.586130	0.321330
C2361	C236	0.502670	0.623630	0.407130
H2021	H202	0.543970	0.652230	0.414830
C2371	C237	0.466970	0.579730	0.442630
H2031	H203	0.484770	0.578530	0.473130
C2381	C238	0.405770	0.537930	0.433730
H2041	H204	0.381270	0.507830	0.457430
Cl171	Cl17	0.080250	0.361690	0.350760
Cu181	Cu18	0.819430	0.799380	0.639050
N1371	N137	0.839530	0.699470	0.596090
N1381	N138	0.835030	0.751170	0.583070
N1391	N139	0.860130	0.716270	0.516070
N1401	N140	0.946830	0.750170	0.398070
N1411	N141	0.894530	0.805170	0.673980
N1421	N142	0.898430	0.753470	0.688650
N1431	N143	0.985630	0.835470	0.707470
N1441	N144	0.147230	0.960270	0.695270
C2391	C239	0.853930	0.679270	0.556070
H2051	H205	0.859230	0.644770	0.554870
C2401	C240	0.848930	0.761270	0.534670
H2061	H206	0.850930	0.794070	0.516070
C2411	C241	0.878030	0.709170	0.466370
C2421	C242	0.842630	0.653270	0.442670
H2071	H207	0.806230	0.621970	0.457170
C2431	C243	0.863330	0.644970	0.395270
H2081	H208	0.842530	0.607070	0.378570
C2441	C244	0.927530	0.756670	0.443470
H2091	H209	0.948730	0.794970	0.459770
C2451	C245	0.915330	0.694770	0.374470
H2101	H210	0.929030	0.689870	0.343070
C2461	C246	0.947230	0.853470	0.685770
H2111	H211	0.957530	0.894570	0.680270
C2471	C247	0.953030	0.772870	0.708070
H2121	H212	0.967530	0.747270	0.720570
C2481	C248	0.048730	0.875970	0.721170
C2491	C249	0.087130	0.918970	0.686170
H2131	H213	0.070730	0.919470	0.654670
C2501	C250	0.169330	0.956970	0.740470
H2141	H214	0.210630	0.985570	0.748170
C2511	C251	0.133630	0.913070	0.775970
H2151	H215	0.151430	0.911870	0.806470
C2521	C252	0.072430	0.871270	0.767070
H2161	H216	0.047930	0.841170	0.790770
Cl181	Cl18	0.746910	0.695030	0.684100
Cu191	Cu19	0.000000	0.500000	0.000000
Cu201	Cu20	0.666670	0.833330	0.333330
Cu211	Cu21	0.333330	0.166670	0.666670
Cu221	Cu22	0.500000	0.500000	0.000000
Cu231	Cu23	0.166670	0.833330	0.333330
Cu241	Cu24	0.833330	0.166670	0.666670
Cu251	Cu25	0.500000	0.000000	0.000000
Cu261	Cu26	0.166670	0.333330	0.333330
Cu271	Cu27	0.833330	0.666670	0.666670
