data_LIPQIL_freeONLY_PM
_symmetry_space_group_name_H-M	'P1'
_cell_length_a	21.146000
_cell_length_b	21.146000
_cell_length_c	21.146000
_cell_angle_alpha	90.000000
_cell_angle_beta	90.000000
_cell_angle_gamma	90.000000
_symmetry_Int_Tables_number 1

loop_
_symmetry_equiv_pos_as_xyz
'x,y,z'

loop_
_atom_site_label
_atom_site_type_symbol
_atom_site_fract_x
_atom_site_fract_y
_atom_site_fract_z
N11	N1	0.742700	0.609500	0.788600
C11	C1	0.756600	0.566100	0.828500
H11	H1	0.733000	0.555800	0.864100
N21	N2	0.242700	0.109500	0.288600
C21	C2	0.256600	0.066100	0.328500
H21	H2	0.233000	0.055800	0.364100
N31	N3	0.257300	0.390500	0.788600
C31	C3	0.243400	0.433900	0.828500
H31	H3	0.267000	0.444200	0.864100
N41	N4	0.757300	0.890500	0.288600
C41	C4	0.743400	0.933900	0.328500
H41	H4	0.767000	0.944200	0.364100
N51	N5	0.257300	0.609500	0.211400
C51	C5	0.243400	0.566100	0.171500
H51	H5	0.267000	0.555800	0.135900
N61	N6	0.757300	0.109500	0.711400
C61	C6	0.743400	0.066100	0.671500
H61	H6	0.767000	0.055800	0.635900
N71	N7	0.742700	0.390500	0.211400
C71	C7	0.756600	0.433900	0.171500
H71	H7	0.733000	0.444200	0.135900
N81	N8	0.242700	0.890500	0.711400
C81	C8	0.256600	0.933900	0.671500
H81	H8	0.233000	0.944200	0.635900
N91	N9	0.788600	0.742700	0.609500
C91	C9	0.828500	0.756600	0.566100
H91	H9	0.864100	0.733000	0.555800
N101	N10	0.288600	0.242700	0.109500
C101	C10	0.328500	0.256600	0.066100
H101	H10	0.364100	0.233000	0.055800
N111	N11	0.788600	0.257300	0.390500
C111	C11	0.828500	0.243400	0.433900
H111	H11	0.864100	0.267000	0.444200
N121	N12	0.288600	0.757300	0.890500
C121	C12	0.328500	0.743400	0.933900
H121	H12	0.364100	0.767000	0.944200
N131	N13	0.211400	0.257300	0.609500
C131	C13	0.171500	0.243400	0.566100
H131	H13	0.135900	0.267000	0.555800
N141	N14	0.711400	0.757300	0.109500
C141	C14	0.671500	0.743400	0.066100
H141	H14	0.635900	0.767000	0.055800
N151	N15	0.211400	0.742700	0.390500
C151	C15	0.171500	0.756600	0.433900
H151	H15	0.135900	0.733000	0.444200
N161	N16	0.711400	0.242700	0.890500
C161	C16	0.671500	0.256600	0.933900
H161	H16	0.635900	0.233000	0.944200
N171	N17	0.609500	0.788600	0.742700
C171	C17	0.566100	0.828500	0.756600
H171	H17	0.555800	0.864100	0.733000
N181	N18	0.109500	0.288600	0.242700
C181	C18	0.066100	0.328500	0.256600
H181	H18	0.055800	0.364100	0.233000
N191	N19	0.390500	0.788600	0.257300
C191	C19	0.433900	0.828500	0.243400
H191	H19	0.444200	0.864100	0.267000
N201	N20	0.890500	0.288600	0.757300
C201	C20	0.933900	0.328500	0.743400
H201	H20	0.944200	0.364100	0.767000
N211	N21	0.609500	0.211400	0.257300
C211	C21	0.566100	0.171500	0.243400
H211	H21	0.555800	0.135900	0.267000
N221	N22	0.109500	0.711400	0.757300
C221	C22	0.066100	0.671500	0.743400
H221	H22	0.055800	0.635900	0.767000
N231	N23	0.390500	0.211400	0.742700
C231	C23	0.433900	0.171500	0.756600
H231	H23	0.444200	0.135900	0.733000
N241	N24	0.890500	0.711400	0.242700
C241	C24	0.933900	0.671500	0.256600
H241	H24	0.944200	0.635900	0.233000
N251	N25	0.609500	0.742700	0.788600
C251	C25	0.566100	0.756600	0.828500
H251	H25	0.555800	0.733000	0.864100
N261	N26	0.109500	0.242700	0.288600
C261	C26	0.066100	0.256600	0.328500
H261	H26	0.055800	0.233000	0.364100
N271	N27	0.390500	0.257300	0.788600
C271	C27	0.433900	0.243400	0.828500
H271	H27	0.444200	0.267000	0.864100
N281	N28	0.890500	0.757300	0.288600
C281	C28	0.933900	0.743400	0.328500
H281	H28	0.944200	0.767000	0.364100
N291	N29	0.609500	0.257300	0.211400
C291	C29	0.566100	0.243400	0.171500
H291	H29	0.555800	0.267000	0.135900
N301	N30	0.109500	0.757300	0.711400
C301	C30	0.066100	0.743400	0.671500
H301	H30	0.055800	0.767000	0.635900
N311	N31	0.390500	0.742700	0.211400
C311	C31	0.433900	0.756600	0.171500
H311	H31	0.444200	0.733000	0.135900
N321	N32	0.890500	0.242700	0.711400
C321	C32	0.933900	0.256600	0.671500
H321	H32	0.944200	0.233000	0.635900
N331	N33	0.742700	0.788600	0.609500
C331	C33	0.756600	0.828500	0.566100
H331	H33	0.733000	0.864100	0.555800
N341	N34	0.242700	0.288600	0.109500
C341	C34	0.256600	0.328500	0.066100
H341	H34	0.233000	0.364100	0.055800
N351	N35	0.257300	0.788600	0.390500
C351	C35	0.243400	0.828500	0.433900
H351	H35	0.267000	0.864100	0.444200
N361	N36	0.757300	0.288600	0.890500
C361	C36	0.743400	0.328500	0.933900
H361	H36	0.767000	0.364100	0.944200
N371	N37	0.257300	0.211400	0.609500
C371	C37	0.243400	0.171500	0.566100
H371	H37	0.267000	0.135900	0.555800
N381	N38	0.757300	0.711400	0.109500
C381	C38	0.743400	0.671500	0.066100
H381	H38	0.767000	0.635900	0.055800
N391	N39	0.742700	0.211400	0.390500
C391	C39	0.756600	0.171500	0.433900
H391	H39	0.733000	0.135900	0.444200
N401	N40	0.242700	0.711400	0.890500
C401	C40	0.256600	0.671500	0.933900
H401	H40	0.233000	0.635900	0.944200
N411	N41	0.788600	0.609500	0.742700
C411	C41	0.828500	0.566100	0.756600
H411	H41	0.864100	0.555800	0.733000
N421	N42	0.288600	0.109500	0.242700
C421	C42	0.328500	0.066100	0.256600
H421	H42	0.364100	0.055800	0.233000
N431	N43	0.788600	0.390500	0.257300
C431	C43	0.828500	0.433900	0.243400
H431	H43	0.864100	0.444200	0.267000
N441	N44	0.288600	0.890500	0.757300
C441	C44	0.328500	0.933900	0.743400
H441	H44	0.364100	0.944200	0.767000
N451	N45	0.211400	0.609500	0.257300
C451	C45	0.171500	0.566100	0.243400
H451	H45	0.135900	0.555800	0.267000
N461	N46	0.711400	0.109500	0.757300
C461	C46	0.671500	0.066100	0.743400
H461	H46	0.635900	0.055800	0.767000
N471	N47	0.211400	0.390500	0.742700
C471	C47	0.171500	0.433900	0.756600
H471	H47	0.135900	0.444200	0.733000
N481	N48	0.711400	0.890500	0.242700
C481	C48	0.671500	0.933900	0.256600
H481	H48	0.635900	0.944200	0.233000
Cu11	Cu1	0.674170	0.674170	0.787380
O11	O1	0.606300	0.606300	0.730300
Cu21	Cu2	0.174170	0.174170	0.287380
O21	O2	0.106300	0.106300	0.230300
Cu31	Cu3	0.325830	0.325830	0.787380
O31	O3	0.393700	0.393700	0.730300
Cu41	Cu4	0.825830	0.825830	0.287380
O41	O4	0.893700	0.893700	0.230300
Cu51	Cu5	0.325830	0.674170	0.212620
O51	O5	0.393700	0.606300	0.269700
Cu61	Cu6	0.825830	0.174170	0.712620
O61	O6	0.893700	0.106300	0.769700
Cu71	Cu7	0.674170	0.325830	0.212620
O71	O7	0.606300	0.393700	0.269700
Cu81	Cu8	0.174170	0.825830	0.712620
O81	O8	0.106300	0.893700	0.769700
Cu91	Cu9	0.787380	0.674170	0.674170
O91	O9	0.730300	0.606300	0.606300
Cu101	Cu10	0.287380	0.174170	0.174170
O101	O10	0.230300	0.106300	0.106300
Cu111	Cu11	0.787380	0.325830	0.325830
O111	O11	0.730300	0.393700	0.393700
Cu121	Cu12	0.287380	0.825830	0.825830
O121	O12	0.230300	0.893700	0.893700
Cu131	Cu13	0.212620	0.325830	0.674170
O131	O13	0.269700	0.393700	0.606300
Cu141	Cu14	0.712620	0.825830	0.174170
O141	O14	0.769700	0.893700	0.106300
Cu151	Cu15	0.212620	0.674170	0.325830
O151	O15	0.269700	0.606300	0.393700
Cu161	Cu16	0.712620	0.174170	0.825830
O161	O16	0.769700	0.106300	0.893700
Cu171	Cu17	0.674170	0.787380	0.674170
O171	O17	0.606300	0.730300	0.606300
Cu181	Cu18	0.174170	0.287380	0.174170
O181	O18	0.106300	0.230300	0.106300
Cu191	Cu19	0.325830	0.787380	0.325830
O191	O19	0.393700	0.730300	0.393700
Cu201	Cu20	0.825830	0.287380	0.825830
O201	O20	0.893700	0.230300	0.893700
Cu211	Cu21	0.674170	0.212620	0.325830
O211	O21	0.606300	0.269700	0.393700
Cu221	Cu22	0.174170	0.712620	0.825830
O221	O22	0.106300	0.769700	0.893700
Cu231	Cu23	0.325830	0.212620	0.674170
O231	O23	0.393700	0.269700	0.606300
Cu241	Cu24	0.825830	0.712620	0.174170
O241	O24	0.893700	0.769700	0.106300
O251	O25	0.700200	0.700200	0.700200
O261	O26	0.200200	0.200200	0.200200
O271	O27	0.299800	0.299800	0.700200
O281	O28	0.799800	0.799800	0.200200
O291	O29	0.299800	0.700200	0.299800
O301	O30	0.799800	0.200200	0.799800
O311	O31	0.700200	0.299800	0.299800
O321	O32	0.200200	0.799800	0.799800
N491	N49	0.852500	0.374400	0.852500
N501	N50	0.810900	0.537400	0.810900
C491	C49	0.825500	0.424800	0.825500
H491	H49	0.794600	0.419000	0.794600
C501	C50	0.896700	0.384800	0.896700
H501	H50	0.915800	0.350200	0.915800
C511	C51	0.914600	0.442600	0.914600
H511	H51	0.945500	0.447700	0.945500
C521	C52	0.886200	0.495800	0.886200
H521	H52	0.897600	0.536700	0.897600
C531	C53	0.842500	0.484900	0.842500
N511	N51	0.352500	0.874400	0.352500
N521	N52	0.310900	0.037400	0.310900
C541	C54	0.325500	0.924800	0.325500
H531	H53	0.294600	0.919000	0.294600
C551	C55	0.396700	0.884800	0.396700
H541	H54	0.415800	0.850200	0.415800
C561	C56	0.414600	0.942600	0.414600
H551	H55	0.445500	0.947700	0.445500
C571	C57	0.386200	0.995800	0.386200
H561	H56	0.397600	0.036700	0.397600
C581	C58	0.342500	0.984900	0.342500
N531	N53	0.147500	0.625600	0.852500
N541	N54	0.189100	0.462600	0.810900
C591	C59	0.174500	0.575200	0.825500
H571	H57	0.205400	0.581000	0.794600
C601	C60	0.103300	0.615200	0.896700
H581	H58	0.084200	0.649800	0.915800
C611	C61	0.085400	0.557400	0.914600
H591	H59	0.054500	0.552300	0.945500
C621	C62	0.113800	0.504200	0.886200
H601	H60	0.102400	0.463300	0.897600
C631	C63	0.157500	0.515100	0.842500
N551	N55	0.647500	0.125600	0.352500
N561	N56	0.689100	0.962600	0.310900
C641	C64	0.674500	0.075200	0.325500
H611	H61	0.705400	0.081000	0.294600
C651	C65	0.603300	0.115200	0.396700
H621	H62	0.584200	0.149800	0.415800
C661	C66	0.585400	0.057400	0.414600
H631	H63	0.554500	0.052300	0.445500
C671	C67	0.613800	0.004200	0.386200
H641	H64	0.602400	0.963300	0.397600
C681	C68	0.657500	0.015100	0.342500
N571	N57	0.147500	0.374400	0.147500
N581	N58	0.189100	0.537400	0.189100
C691	C69	0.174500	0.424800	0.174500
H651	H65	0.205400	0.419000	0.205400
C701	C70	0.103300	0.384800	0.103300
H661	H66	0.084200	0.350200	0.084200
C711	C71	0.085400	0.442600	0.085400
H671	H67	0.054500	0.447700	0.054500
C721	C72	0.113800	0.495800	0.113800
H681	H68	0.102400	0.536700	0.102400
C731	C73	0.157500	0.484900	0.157500
N591	N59	0.647500	0.874400	0.647500
N601	N60	0.689100	0.037400	0.689100
C741	C74	0.674500	0.924800	0.674500
H691	H69	0.705400	0.919000	0.705400
C751	C75	0.603300	0.884800	0.603300
H701	H70	0.584200	0.850200	0.584200
C761	C76	0.585400	0.942600	0.585400
H711	H71	0.554500	0.947700	0.554500
C771	C77	0.613800	0.995800	0.613800
H721	H72	0.602400	0.036700	0.602400
C781	C78	0.657500	0.984900	0.657500
N611	N61	0.852500	0.625600	0.147500
N621	N62	0.810900	0.462600	0.189100
C791	C79	0.825500	0.575200	0.174500
H731	H73	0.794600	0.581000	0.205400
C801	C80	0.896700	0.615200	0.103300
H741	H74	0.915800	0.649800	0.084200
C811	C81	0.914600	0.557400	0.085400
H751	H75	0.945500	0.552300	0.054500
C821	C82	0.886200	0.504200	0.113800
H761	H76	0.897600	0.463300	0.102400
C831	C83	0.842500	0.515100	0.157500
N631	N63	0.352500	0.125600	0.647500
N641	N64	0.310900	0.962600	0.689100
C841	C84	0.325500	0.075200	0.674500
H771	H77	0.294600	0.081000	0.705400
C851	C85	0.396700	0.115200	0.603300
H781	H78	0.415800	0.149800	0.584200
C861	C86	0.414600	0.057400	0.585400
H791	H79	0.445500	0.052300	0.554500
C871	C87	0.386200	0.004200	0.613800
H801	H80	0.397600	0.963300	0.602400
C881	C88	0.342500	0.015100	0.657500
N651	N65	0.852500	0.852500	0.374400
N661	N66	0.810900	0.810900	0.537400
C891	C89	0.825500	0.825500	0.424800
H811	H81	0.794600	0.794600	0.419000
C901	C90	0.896700	0.896700	0.384800
H821	H82	0.915800	0.915800	0.350200
C911	C91	0.914600	0.914600	0.442600
H831	H83	0.945500	0.945500	0.447700
C921	C92	0.886200	0.886200	0.495800
H841	H84	0.897600	0.897600	0.536700
C931	C93	0.842500	0.842500	0.484900
N671	N67	0.352500	0.352500	0.874400
N681	N68	0.310900	0.310900	0.037400
C941	C94	0.325500	0.325500	0.924800
H851	H85	0.294600	0.294600	0.919000
C951	C95	0.396700	0.396700	0.884800
H861	H86	0.415800	0.415800	0.850200
C961	C96	0.414600	0.414600	0.942600
H871	H87	0.445500	0.445500	0.947700
C971	C97	0.386200	0.386200	0.995800
H881	H88	0.397600	0.397600	0.036700
C981	C98	0.342500	0.342500	0.984900
N691	N69	0.852500	0.147500	0.625600
N701	N70	0.810900	0.189100	0.462600
C991	C99	0.825500	0.174500	0.575200
H891	H89	0.794600	0.205400	0.581000
C1001	C100	0.896700	0.103300	0.615200
H901	H90	0.915800	0.084200	0.649800
C1011	C101	0.914600	0.085400	0.557400
H911	H91	0.945500	0.054500	0.552300
C1021	C102	0.886200	0.113800	0.504200
H921	H92	0.897600	0.102400	0.463300
C1031	C103	0.842500	0.157500	0.515100
N711	N71	0.352500	0.647500	0.125600
N721	N72	0.310900	0.689100	0.962600
C1041	C104	0.325500	0.674500	0.075200
H931	H93	0.294600	0.705400	0.081000
C1051	C105	0.396700	0.603300	0.115200
H941	H94	0.415800	0.584200	0.149800
C1061	C106	0.414600	0.585400	0.057400
H951	H95	0.445500	0.554500	0.052300
C1071	C107	0.386200	0.613800	0.004200
H961	H96	0.397600	0.602400	0.963300
C1081	C108	0.342500	0.657500	0.015100
N731	N73	0.147500	0.147500	0.374400
N741	N74	0.189100	0.189100	0.537400
C1091	C109	0.174500	0.174500	0.424800
H971	H97	0.205400	0.205400	0.419000
C1101	C110	0.103300	0.103300	0.384800
H981	H98	0.084200	0.084200	0.350200
C1111	C111	0.085400	0.085400	0.442600
H991	H99	0.054500	0.054500	0.447700
C1121	C112	0.113800	0.113800	0.495800
H1001	H100	0.102400	0.102400	0.536700
C1131	C113	0.157500	0.157500	0.484900
N751	N75	0.647500	0.647500	0.874400
N761	N76	0.689100	0.689100	0.037400
C1141	C114	0.674500	0.674500	0.924800
H1011	H101	0.705400	0.705400	0.919000
C1151	C115	0.603300	0.603300	0.884800
H1021	H102	0.584200	0.584200	0.850200
C1161	C116	0.585400	0.585400	0.942600
H1031	H103	0.554500	0.554500	0.947700
C1171	C117	0.613800	0.613800	0.995800
H1041	H104	0.602400	0.602400	0.036700
C1181	C118	0.657500	0.657500	0.984900
N771	N77	0.147500	0.852500	0.625600
N781	N78	0.189100	0.810900	0.462600
C1191	C119	0.174500	0.825500	0.575200
H1051	H105	0.205400	0.794600	0.581000
C1201	C120	0.103300	0.896700	0.615200
H1061	H106	0.084200	0.915800	0.649800
C1211	C121	0.085400	0.914600	0.557400
H1071	H107	0.054500	0.945500	0.552300
C1221	C122	0.113800	0.886200	0.504200
H1081	H108	0.102400	0.897600	0.463300
C1231	C123	0.157500	0.842500	0.515100
N791	N79	0.647500	0.352500	0.125600
N801	N80	0.689100	0.310900	0.962600
C1241	C124	0.674500	0.325500	0.075200
H1091	H109	0.705400	0.294600	0.081000
C1251	C125	0.603300	0.396700	0.115200
H1101	H110	0.584200	0.415800	0.149800
C1261	C126	0.585400	0.414600	0.057400
H1111	H111	0.554500	0.445500	0.052300
C1271	C127	0.613800	0.386200	0.004200
H1121	H112	0.602400	0.397600	0.963300
C1281	C128	0.657500	0.342500	0.015100
N811	N81	0.374400	0.852500	0.852500
N821	N82	0.537400	0.810900	0.810900
C1291	C129	0.424800	0.825500	0.825500
H1131	H113	0.419000	0.794600	0.794600
C1301	C130	0.384800	0.896700	0.896700
H1141	H114	0.350200	0.915800	0.915800
C1311	C131	0.442600	0.914600	0.914600
H1151	H115	0.447700	0.945500	0.945500
C1321	C132	0.495800	0.886200	0.886200
H1161	H116	0.536700	0.897600	0.897600
C1331	C133	0.484900	0.842500	0.842500
N831	N83	0.874400	0.352500	0.352500
N841	N84	0.037400	0.310900	0.310900
C1341	C134	0.924800	0.325500	0.325500
H1171	H117	0.919000	0.294600	0.294600
C1351	C135	0.884800	0.396700	0.396700
H1181	H118	0.850200	0.415800	0.415800
C1361	C136	0.942600	0.414600	0.414600
H1191	H119	0.947700	0.445500	0.445500
C1371	C137	0.995800	0.386200	0.386200
H1201	H120	0.036700	0.397600	0.397600
C1381	C138	0.984900	0.342500	0.342500
N851	N85	0.625600	0.852500	0.147500
N861	N86	0.462600	0.810900	0.189100
C1391	C139	0.575200	0.825500	0.174500
H1211	H121	0.581000	0.794600	0.205400
C1401	C140	0.615200	0.896700	0.103300
H1221	H122	0.649800	0.915800	0.084200
C1411	C141	0.557400	0.914600	0.085400
H1231	H123	0.552300	0.945500	0.054500
C1421	C142	0.504200	0.886200	0.113800
H1241	H124	0.463300	0.897600	0.102400
C1431	C143	0.515100	0.842500	0.157500
N871	N87	0.125600	0.352500	0.647500
N881	N88	0.962600	0.310900	0.689100
C1441	C144	0.075200	0.325500	0.674500
H1251	H125	0.081000	0.294600	0.705400
C1451	C145	0.115200	0.396700	0.603300
H1261	H126	0.149800	0.415800	0.584200
C1461	C146	0.057400	0.414600	0.585400
H1271	H127	0.052300	0.445500	0.554500
C1471	C147	0.004200	0.386200	0.613800
H1281	H128	0.963300	0.397600	0.602400
C1481	C148	0.015100	0.342500	0.657500
N891	N89	0.374400	0.147500	0.147500
N901	N90	0.537400	0.189100	0.189100
C1491	C149	0.424800	0.174500	0.174500
H1291	H129	0.419000	0.205400	0.205400
C1501	C150	0.384800	0.103300	0.103300
H1301	H130	0.350200	0.084200	0.084200
C1511	C151	0.442600	0.085400	0.085400
H1311	H131	0.447700	0.054500	0.054500
C1521	C152	0.495800	0.113800	0.113800
H1321	H132	0.536700	0.102400	0.102400
C1531	C153	0.484900	0.157500	0.157500
N911	N91	0.874400	0.647500	0.647500
N921	N92	0.037400	0.689100	0.689100
C1541	C154	0.924800	0.674500	0.674500
H1331	H133	0.919000	0.705400	0.705400
C1551	C155	0.884800	0.603300	0.603300
H1341	H134	0.850200	0.584200	0.584200
C1561	C156	0.942600	0.585400	0.585400
H1351	H135	0.947700	0.554500	0.554500
C1571	C157	0.995800	0.613800	0.613800
H1361	H136	0.036700	0.602400	0.602400
C1581	C158	0.984900	0.657500	0.657500
N931	N93	0.625600	0.147500	0.852500
N941	N94	0.462600	0.189100	0.810900
C1591	C159	0.575200	0.174500	0.825500
H1371	H137	0.581000	0.205400	0.794600
C1601	C160	0.615200	0.103300	0.896700
H1381	H138	0.649800	0.084200	0.915800
C1611	C161	0.557400	0.085400	0.914600
H1391	H139	0.552300	0.054500	0.945500
C1621	C162	0.504200	0.113800	0.886200
H1401	H140	0.463300	0.102400	0.897600
C1631	C163	0.515100	0.157500	0.842500
N951	N95	0.125600	0.647500	0.352500
N961	N96	0.962600	0.689100	0.310900
C1641	C164	0.075200	0.674500	0.325500
H1411	H141	0.081000	0.705400	0.294600
C1651	C165	0.115200	0.603300	0.396700
H1421	H142	0.149800	0.584200	0.415800
C1661	C166	0.057400	0.585400	0.414600
H1431	H143	0.052300	0.554500	0.445500
C1671	C167	0.004200	0.613800	0.386200
H1441	H144	0.963300	0.602400	0.397600
C1681	C168	0.015100	0.657500	0.342500
