data_LIPRAE_freeONLY_PM
_symmetry_space_group_name_H-M	'P1'
_cell_length_a	21.131800
_cell_length_b	21.131800
_cell_length_c	21.131800
_cell_angle_alpha	90.000000
_cell_angle_beta	90.000000
_cell_angle_gamma	90.000000
_symmetry_Int_Tables_number 1

loop_
_symmetry_equiv_pos_as_xyz
'x,y,z'

loop_
_atom_site_label
_atom_site_type_symbol
_atom_site_fract_x
_atom_site_fract_y
_atom_site_fract_z
C11	C1	0.671100	0.934000	0.743500
H11	H1	0.635400	0.943900	0.767200
N11	N1	0.711800	0.890800	0.757300
C21	C2	0.171100	0.434000	0.243500
H21	H2	0.135400	0.443900	0.267200
N21	N2	0.211800	0.390800	0.257300
C31	C3	0.328900	0.066000	0.743500
H31	H3	0.364600	0.056100	0.767200
N31	N3	0.288200	0.109200	0.757300
C41	C4	0.828900	0.566000	0.243500
H41	H4	0.864600	0.556100	0.267200
N41	N4	0.788200	0.609200	0.257300
C51	C5	0.328900	0.934000	0.256500
H51	H5	0.364600	0.943900	0.232800
N51	N5	0.288200	0.890800	0.242700
C61	C6	0.828900	0.434000	0.756500
H61	H6	0.864600	0.443900	0.732800
N61	N6	0.788200	0.390800	0.742700
C71	C7	0.671100	0.066000	0.256500
H71	H7	0.635400	0.056100	0.232800
N71	N7	0.711800	0.109200	0.242700
C81	C8	0.171100	0.566000	0.756500
H81	H8	0.135400	0.556100	0.732800
N81	N8	0.211800	0.609200	0.742700
C91	C9	0.743500	0.671100	0.934000
H91	H9	0.767200	0.635400	0.943900
N91	N9	0.757300	0.711800	0.890800
C101	C10	0.243500	0.171100	0.434000
H101	H10	0.267200	0.135400	0.443900
N101	N10	0.257300	0.211800	0.390800
C111	C11	0.743500	0.328900	0.066000
H111	H11	0.767200	0.364600	0.056100
N111	N11	0.757300	0.288200	0.109200
C121	C12	0.243500	0.828900	0.566000
H121	H12	0.267200	0.864600	0.556100
N121	N12	0.257300	0.788200	0.609200
C131	C13	0.256500	0.328900	0.934000
H131	H13	0.232800	0.364600	0.943900
N131	N13	0.242700	0.288200	0.890800
C141	C14	0.756500	0.828900	0.434000
H141	H14	0.732800	0.864600	0.443900
N141	N14	0.742700	0.788200	0.390800
C151	C15	0.256500	0.671100	0.066000
H151	H15	0.232800	0.635400	0.056100
N151	N15	0.242700	0.711800	0.109200
C161	C16	0.756500	0.171100	0.566000
H161	H16	0.732800	0.135400	0.556100
N161	N16	0.742700	0.211800	0.609200
C171	C17	0.934000	0.743500	0.671100
H171	H17	0.943900	0.767200	0.635400
N171	N17	0.890800	0.757300	0.711800
C181	C18	0.434000	0.243500	0.171100
H181	H18	0.443900	0.267200	0.135400
N181	N18	0.390800	0.257300	0.211800
C191	C19	0.066000	0.743500	0.328900
H191	H19	0.056100	0.767200	0.364600
N191	N19	0.109200	0.757300	0.288200
C201	C20	0.566000	0.243500	0.828900
H201	H20	0.556100	0.267200	0.864600
N201	N20	0.609200	0.257300	0.788200
C211	C21	0.934000	0.256500	0.328900
H211	H21	0.943900	0.232800	0.364600
N211	N21	0.890800	0.242700	0.288200
C221	C22	0.434000	0.756500	0.828900
H221	H22	0.443900	0.732800	0.864600
N221	N22	0.390800	0.742700	0.788200
C231	C23	0.066000	0.256500	0.671100
H231	H23	0.056100	0.232800	0.635400
N231	N23	0.109200	0.242700	0.711800
C241	C24	0.566000	0.756500	0.171100
H241	H24	0.556100	0.732800	0.135400
N241	N24	0.609200	0.742700	0.211800
C251	C25	0.934000	0.671100	0.743500
H251	H25	0.943900	0.635400	0.767200
N251	N25	0.890800	0.711800	0.757300
C261	C26	0.434000	0.171100	0.243500
H261	H26	0.443900	0.135400	0.267200
N261	N26	0.390800	0.211800	0.257300
C271	C27	0.066000	0.328900	0.743500
H271	H27	0.056100	0.364600	0.767200
N271	N27	0.109200	0.288200	0.757300
C281	C28	0.566000	0.828900	0.243500
H281	H28	0.556100	0.864600	0.267200
N281	N28	0.609200	0.788200	0.257300
C291	C29	0.934000	0.328900	0.256500
H291	H29	0.943900	0.364600	0.232800
N291	N29	0.890800	0.288200	0.242700
C301	C30	0.434000	0.828900	0.756500
H301	H30	0.443900	0.864600	0.732800
N301	N30	0.390800	0.788200	0.742700
C311	C31	0.066000	0.671100	0.256500
H311	H31	0.056100	0.635400	0.232800
N311	N31	0.109200	0.711800	0.242700
C321	C32	0.566000	0.171100	0.756500
H321	H32	0.556100	0.135400	0.732800
N321	N32	0.609200	0.211800	0.742700
C331	C33	0.671100	0.743500	0.934000
H331	H33	0.635400	0.767200	0.943900
N331	N33	0.711800	0.757300	0.890800
C341	C34	0.171100	0.243500	0.434000
H341	H34	0.135400	0.267200	0.443900
N341	N34	0.211800	0.257300	0.390800
C351	C35	0.328900	0.743500	0.066000
H351	H35	0.364600	0.767200	0.056100
N351	N35	0.288200	0.757300	0.109200
C361	C36	0.828900	0.243500	0.566000
H361	H36	0.864600	0.267200	0.556100
N361	N36	0.788200	0.257300	0.609200
C371	C37	0.328900	0.256500	0.934000
H371	H37	0.364600	0.232800	0.943900
N371	N37	0.288200	0.242700	0.890800
C381	C38	0.828900	0.756500	0.434000
H381	H38	0.864600	0.732800	0.443900
N381	N38	0.788200	0.742700	0.390800
C391	C39	0.671100	0.256500	0.066000
H391	H39	0.635400	0.232800	0.056100
N391	N39	0.711800	0.242700	0.109200
C401	C40	0.171100	0.756500	0.566000
H401	H40	0.135400	0.732800	0.556100
N401	N40	0.211800	0.742700	0.609200
C411	C41	0.743500	0.934000	0.671100
H411	H41	0.767200	0.943900	0.635400
N411	N41	0.757300	0.890800	0.711800
C421	C42	0.243500	0.434000	0.171100
H421	H42	0.267200	0.443900	0.135400
N421	N42	0.257300	0.390800	0.211800
C431	C43	0.743500	0.066000	0.328900
H431	H43	0.767200	0.056100	0.364600
N431	N43	0.757300	0.109200	0.288200
C441	C44	0.243500	0.566000	0.828900
H441	H44	0.267200	0.556100	0.864600
N441	N44	0.257300	0.609200	0.788200
C451	C45	0.256500	0.934000	0.328900
H451	H45	0.232800	0.943900	0.364600
N451	N45	0.242700	0.890800	0.288200
C461	C46	0.756500	0.434000	0.828900
H461	H46	0.732800	0.443900	0.864600
N461	N46	0.742700	0.390800	0.788200
C471	C47	0.256500	0.066000	0.671100
H471	H47	0.232800	0.056100	0.635400
N471	N47	0.242700	0.109200	0.711800
C481	C48	0.756500	0.566000	0.171100
H481	H48	0.732800	0.556100	0.135400
N481	N48	0.742700	0.609200	0.211800
Cu11	Cu1	0.713900	0.828250	0.828250
Cu21	Cu2	0.213900	0.328250	0.328250
Cu31	Cu3	0.286100	0.171750	0.828250
Cu41	Cu4	0.786100	0.671750	0.328250
Cu51	Cu5	0.286100	0.828250	0.171750
Cu61	Cu6	0.786100	0.328250	0.671750
Cu71	Cu7	0.713900	0.171750	0.171750
Cu81	Cu8	0.213900	0.671750	0.671750
Cu91	Cu9	0.828250	0.713900	0.828250
Cu101	Cu10	0.328250	0.213900	0.328250
Cu111	Cu11	0.828250	0.286100	0.171750
Cu121	Cu12	0.328250	0.786100	0.671750
Cu131	Cu13	0.171750	0.286100	0.828250
Cu141	Cu14	0.671750	0.786100	0.328250
Cu151	Cu15	0.171750	0.713900	0.171750
Cu161	Cu16	0.671750	0.213900	0.671750
Cu171	Cu17	0.828250	0.828250	0.713900
Cu181	Cu18	0.328250	0.328250	0.213900
Cu191	Cu19	0.171750	0.828250	0.286100
Cu201	Cu20	0.671750	0.328250	0.786100
Cu211	Cu21	0.828250	0.171750	0.286100
Cu221	Cu22	0.328250	0.671750	0.786100
Cu231	Cu23	0.171750	0.171750	0.713900
Cu241	Cu24	0.671750	0.671750	0.213900
O11	O1	0.800700	0.800700	0.800700
O21	O2	0.300700	0.300700	0.300700
O31	O3	0.199300	0.199300	0.800700
O41	O4	0.699300	0.699300	0.300700
O51	O5	0.199300	0.800700	0.199300
O61	O6	0.699300	0.300700	0.699300
O71	O7	0.800700	0.199300	0.199300
O81	O8	0.300700	0.699300	0.699300
O91	O9	0.894600	0.894600	0.768600
O101	O10	0.394600	0.394600	0.268600
O111	O11	0.105400	0.105400	0.768600
O121	O12	0.605400	0.605400	0.268600
O131	O13	0.105400	0.894600	0.231400
O141	O14	0.605400	0.394600	0.731400
O151	O15	0.894600	0.105400	0.231400
O161	O16	0.394600	0.605400	0.731400
O171	O17	0.768600	0.894600	0.894600
O181	O18	0.268600	0.394600	0.394600
O191	O19	0.768600	0.105400	0.105400
O201	O20	0.268600	0.605400	0.605400
O211	O21	0.231400	0.105400	0.894600
O221	O22	0.731400	0.605400	0.394600
O231	O23	0.231400	0.894600	0.105400
O241	O24	0.731400	0.394600	0.605400
O251	O25	0.894600	0.768600	0.894600
O261	O26	0.394600	0.268600	0.394600
O271	O27	0.105400	0.768600	0.105400
O281	O28	0.605400	0.268600	0.605400
O291	O29	0.894600	0.231400	0.105400
O301	O30	0.394600	0.731400	0.605400
O311	O31	0.105400	0.231400	0.894600
O321	O32	0.605400	0.731400	0.394600
C491	C49	0.601800	0.115100	0.601800
H491	H49	0.582300	0.149400	0.582300
C501	C50	0.584900	0.056200	0.584900
H501	H50	0.554000	0.050600	0.554000
C511	C51	0.612700	0.003600	0.612700
H511	H51	0.601300	0.962700	0.601300
C521	C52	0.657000	0.014800	0.657000
C531	C53	0.673900	0.076000	0.673900
H521	H52	0.704600	0.082900	0.704600
N491	N49	0.645400	0.125600	0.645400
N501	N50	0.688700	0.963100	0.688700
C541	C54	0.101800	0.615100	0.101800
H531	H53	0.082300	0.649400	0.082300
C551	C55	0.084900	0.556200	0.084900
H541	H54	0.054000	0.550600	0.054000
C561	C56	0.112700	0.503600	0.112700
H551	H55	0.101300	0.462700	0.101300
C571	C57	0.157000	0.514800	0.157000
C581	C58	0.173900	0.576000	0.173900
H561	H56	0.204600	0.582900	0.204600
N511	N51	0.145400	0.625600	0.145400
N521	N52	0.188700	0.463100	0.188700
C591	C59	0.398200	0.884900	0.601800
H571	H57	0.417700	0.850600	0.582300
C601	C60	0.415100	0.943800	0.584900
H581	H58	0.446000	0.949400	0.554000
C611	C61	0.387300	0.996400	0.612700
H591	H59	0.398700	0.037300	0.601300
C621	C62	0.343000	0.985200	0.657000
C631	C63	0.326100	0.924000	0.673900
H601	H60	0.295400	0.917100	0.704600
N531	N53	0.354600	0.874400	0.645400
N541	N54	0.311300	0.036900	0.688700
C641	C64	0.898200	0.384900	0.101800
H611	H61	0.917700	0.350600	0.082300
C651	C65	0.915100	0.443800	0.084900
H621	H62	0.946000	0.449400	0.054000
C661	C66	0.887300	0.496400	0.112700
H631	H63	0.898700	0.537300	0.101300
C671	C67	0.843000	0.485200	0.157000
C681	C68	0.826100	0.424000	0.173900
H641	H64	0.795400	0.417100	0.204600
N551	N55	0.854600	0.374400	0.145400
N561	N56	0.811300	0.536900	0.188700
C691	C69	0.398200	0.115100	0.398200
H651	H65	0.417700	0.149400	0.417700
C701	C70	0.415100	0.056200	0.415100
H661	H66	0.446000	0.050600	0.446000
C711	C71	0.387300	0.003600	0.387300
H671	H67	0.398700	0.962700	0.398700
C721	C72	0.343000	0.014800	0.343000
C731	C73	0.326100	0.076000	0.326100
H681	H68	0.295400	0.082900	0.295400
N571	N57	0.354600	0.125600	0.354600
N581	N58	0.311300	0.963100	0.311300
C741	C74	0.898200	0.615100	0.898200
H691	H69	0.917700	0.649400	0.917700
C751	C75	0.915100	0.556200	0.915100
H701	H70	0.946000	0.550600	0.946000
C761	C76	0.887300	0.503600	0.887300
H711	H71	0.898700	0.462700	0.898700
C771	C77	0.843000	0.514800	0.843000
C781	C78	0.826100	0.576000	0.826100
H721	H72	0.795400	0.582900	0.795400
N591	N59	0.854600	0.625600	0.854600
N601	N60	0.811300	0.463100	0.811300
C791	C79	0.601800	0.884900	0.398200
H731	H73	0.582300	0.850600	0.417700
C801	C80	0.584900	0.943800	0.415100
H741	H74	0.554000	0.949400	0.446000
C811	C81	0.612700	0.996400	0.387300
H751	H75	0.601300	0.037300	0.398700
C821	C82	0.657000	0.985200	0.343000
C831	C83	0.673900	0.924000	0.326100
H761	H76	0.704600	0.917100	0.295400
N611	N61	0.645400	0.874400	0.354600
N621	N62	0.688700	0.036900	0.311300
C841	C84	0.101800	0.384900	0.898200
H771	H77	0.082300	0.350600	0.917700
C851	C85	0.084900	0.443800	0.915100
H781	H78	0.054000	0.449400	0.946000
C861	C86	0.112700	0.496400	0.887300
H791	H79	0.101300	0.537300	0.898700
C871	C87	0.157000	0.485200	0.843000
C881	C88	0.173900	0.424000	0.826100
H801	H80	0.204600	0.417100	0.795400
N631	N63	0.145400	0.374400	0.854600
N641	N64	0.188700	0.536900	0.811300
C891	C89	0.601800	0.601800	0.115100
H811	H81	0.582300	0.582300	0.149400
C901	C90	0.584900	0.584900	0.056200
H821	H82	0.554000	0.554000	0.050600
C911	C91	0.612700	0.612700	0.003600
H831	H83	0.601300	0.601300	0.962700
C921	C92	0.657000	0.657000	0.014800
C931	C93	0.673900	0.673900	0.076000
H841	H84	0.704600	0.704600	0.082900
N651	N65	0.645400	0.645400	0.125600
N661	N66	0.688700	0.688700	0.963100
C941	C94	0.101800	0.101800	0.615100
H851	H85	0.082300	0.082300	0.649400
C951	C95	0.084900	0.084900	0.556200
H861	H86	0.054000	0.054000	0.550600
C961	C96	0.112700	0.112700	0.503600
H871	H87	0.101300	0.101300	0.462700
C971	C97	0.157000	0.157000	0.514800
C981	C98	0.173900	0.173900	0.576000
H881	H88	0.204600	0.204600	0.582900
N671	N67	0.145400	0.145400	0.625600
N681	N68	0.188700	0.188700	0.463100
C991	C99	0.601800	0.398200	0.884900
H891	H89	0.582300	0.417700	0.850600
C1001	C100	0.584900	0.415100	0.943800
H901	H90	0.554000	0.446000	0.949400
C1011	C101	0.612700	0.387300	0.996400
H911	H91	0.601300	0.398700	0.037300
C1021	C102	0.657000	0.343000	0.985200
C1031	C103	0.673900	0.326100	0.924000
H921	H92	0.704600	0.295400	0.917100
N691	N69	0.645400	0.354600	0.874400
N701	N70	0.688700	0.311300	0.036900
C1041	C104	0.101800	0.898200	0.384900
H931	H93	0.082300	0.917700	0.350600
C1051	C105	0.084900	0.915100	0.443800
H941	H94	0.054000	0.946000	0.449400
C1061	C106	0.112700	0.887300	0.496400
H951	H95	0.101300	0.898700	0.537300
C1071	C107	0.157000	0.843000	0.485200
C1081	C108	0.173900	0.826100	0.424000
H961	H96	0.204600	0.795400	0.417100
N711	N71	0.145400	0.854600	0.374400
N721	N72	0.188700	0.811300	0.536900
C1091	C109	0.398200	0.398200	0.115100
H971	H97	0.417700	0.417700	0.149400
C1101	C110	0.415100	0.415100	0.056200
H981	H98	0.446000	0.446000	0.050600
C1111	C111	0.387300	0.387300	0.003600
H991	H99	0.398700	0.398700	0.962700
C1121	C112	0.343000	0.343000	0.014800
C1131	C113	0.326100	0.326100	0.076000
H1001	H100	0.295400	0.295400	0.082900
N731	N73	0.354600	0.354600	0.125600
N741	N74	0.311300	0.311300	0.963100
C1141	C114	0.898200	0.898200	0.615100
H1011	H101	0.917700	0.917700	0.649400
C1151	C115	0.915100	0.915100	0.556200
H1021	H102	0.946000	0.946000	0.550600
C1161	C116	0.887300	0.887300	0.503600
H1031	H103	0.898700	0.898700	0.462700
C1171	C117	0.843000	0.843000	0.514800
C1181	C118	0.826100	0.826100	0.576000
H1041	H104	0.795400	0.795400	0.582900
N751	N75	0.854600	0.854600	0.625600
N761	N76	0.811300	0.811300	0.463100
C1191	C119	0.398200	0.601800	0.884900
H1051	H105	0.417700	0.582300	0.850600
C1201	C120	0.415100	0.584900	0.943800
H1061	H106	0.446000	0.554000	0.949400
C1211	C121	0.387300	0.612700	0.996400
H1071	H107	0.398700	0.601300	0.037300
C1221	C122	0.343000	0.657000	0.985200
C1231	C123	0.326100	0.673900	0.924000
H1081	H108	0.295400	0.704600	0.917100
N771	N77	0.354600	0.645400	0.874400
N781	N78	0.311300	0.688700	0.036900
C1241	C124	0.898200	0.101800	0.384900
H1091	H109	0.917700	0.082300	0.350600
C1251	C125	0.915100	0.084900	0.443800
H1101	H110	0.946000	0.054000	0.449400
C1261	C126	0.887300	0.112700	0.496400
H1111	H111	0.898700	0.101300	0.537300
C1271	C127	0.843000	0.157000	0.485200
C1281	C128	0.826100	0.173900	0.424000
H1121	H112	0.795400	0.204600	0.417100
N791	N79	0.854600	0.145400	0.374400
N801	N80	0.811300	0.188700	0.536900
C1291	C129	0.115100	0.601800	0.601800
H1131	H113	0.149400	0.582300	0.582300
C1301	C130	0.056200	0.584900	0.584900
H1141	H114	0.050600	0.554000	0.554000
C1311	C131	0.003600	0.612700	0.612700
H1151	H115	0.962700	0.601300	0.601300
C1321	C132	0.014800	0.657000	0.657000
C1331	C133	0.076000	0.673900	0.673900
H1161	H116	0.082900	0.704600	0.704600
N811	N81	0.125600	0.645400	0.645400
N821	N82	0.963100	0.688700	0.688700
C1341	C134	0.615100	0.101800	0.101800
H1171	H117	0.649400	0.082300	0.082300
C1351	C135	0.556200	0.084900	0.084900
H1181	H118	0.550600	0.054000	0.054000
C1361	C136	0.503600	0.112700	0.112700
H1191	H119	0.462700	0.101300	0.101300
C1371	C137	0.514800	0.157000	0.157000
C1381	C138	0.576000	0.173900	0.173900
H1201	H120	0.582900	0.204600	0.204600
N831	N83	0.625600	0.145400	0.145400
N841	N84	0.463100	0.188700	0.188700
C1391	C139	0.884900	0.601800	0.398200
H1211	H121	0.850600	0.582300	0.417700
C1401	C140	0.943800	0.584900	0.415100
H1221	H122	0.949400	0.554000	0.446000
C1411	C141	0.996400	0.612700	0.387300
H1231	H123	0.037300	0.601300	0.398700
C1421	C142	0.985200	0.657000	0.343000
C1431	C143	0.924000	0.673900	0.326100
H1241	H124	0.917100	0.704600	0.295400
N851	N85	0.874400	0.645400	0.354600
N861	N86	0.036900	0.688700	0.311300
C1441	C144	0.384900	0.101800	0.898200
H1251	H125	0.350600	0.082300	0.917700
C1451	C145	0.443800	0.084900	0.915100
H1261	H126	0.449400	0.054000	0.946000
C1461	C146	0.496400	0.112700	0.887300
H1271	H127	0.537300	0.101300	0.898700
C1471	C147	0.485200	0.157000	0.843000
C1481	C148	0.424000	0.173900	0.826100
H1281	H128	0.417100	0.204600	0.795400
N871	N87	0.374400	0.145400	0.854600
N881	N88	0.536900	0.188700	0.811300
C1491	C149	0.115100	0.398200	0.398200
H1291	H129	0.149400	0.417700	0.417700
C1501	C150	0.056200	0.415100	0.415100
H1301	H130	0.050600	0.446000	0.446000
C1511	C151	0.003600	0.387300	0.387300
H1311	H131	0.962700	0.398700	0.398700
C1521	C152	0.014800	0.343000	0.343000
C1531	C153	0.076000	0.326100	0.326100
H1321	H132	0.082900	0.295400	0.295400
N891	N89	0.125600	0.354600	0.354600
N901	N90	0.963100	0.311300	0.311300
C1541	C154	0.615100	0.898200	0.898200
H1331	H133	0.649400	0.917700	0.917700
C1551	C155	0.556200	0.915100	0.915100
H1341	H134	0.550600	0.946000	0.946000
C1561	C156	0.503600	0.887300	0.887300
H1351	H135	0.462700	0.898700	0.898700
C1571	C157	0.514800	0.843000	0.843000
C1581	C158	0.576000	0.826100	0.826100
H1361	H136	0.582900	0.795400	0.795400
N911	N91	0.625600	0.854600	0.854600
N921	N92	0.463100	0.811300	0.811300
C1591	C159	0.884900	0.398200	0.601800
H1371	H137	0.850600	0.417700	0.582300
C1601	C160	0.943800	0.415100	0.584900
H1381	H138	0.949400	0.446000	0.554000
C1611	C161	0.996400	0.387300	0.612700
H1391	H139	0.037300	0.398700	0.601300
C1621	C162	0.985200	0.343000	0.657000
C1631	C163	0.924000	0.326100	0.673900
H1401	H140	0.917100	0.295400	0.704600
N931	N93	0.874400	0.354600	0.645400
N941	N94	0.036900	0.311300	0.688700
C1641	C164	0.384900	0.898200	0.101800
H1411	H141	0.350600	0.917700	0.082300
C1651	C165	0.443800	0.915100	0.084900
H1421	H142	0.449400	0.946000	0.054000
C1661	C166	0.496400	0.887300	0.112700
H1431	H143	0.537300	0.898700	0.101300
C1671	C167	0.485200	0.843000	0.157000
C1681	C168	0.424000	0.826100	0.173900
H1441	H144	0.417100	0.795400	0.204600
N951	N95	0.374400	0.854600	0.145400
N961	N96	0.536900	0.811300	0.188700
