data_LIRVAK_charged_PM
_symmetry_space_group_name_H-M	'P1'
_cell_length_a	11.555700
_cell_length_b	14.099900
_cell_length_c	25.627800
_cell_angle_alpha	90.000000
_cell_angle_beta	90.000000
_cell_angle_gamma	94.144000
_symmetry_Int_Tables_number 1

loop_
_symmetry_equiv_pos_as_xyz
'x,y,z'

loop_
_atom_site_label
_atom_site_type_symbol
_atom_site_fract_x
_atom_site_fract_y
_atom_site_fract_z
Cu11	Cu1	0.026660	0.012570	0.645300
Cu21	Cu2	0.481840	0.482290	0.877860
Cu31	Cu3	0.973340	0.987430	0.145300
Cu41	Cu4	0.518160	0.517710	0.377860
H11	H1	0.252000	0.498400	0.822700
H21	H2	0.528700	0.664400	0.826600
H31	H3	0.978800	0.852000	0.716100
H41	H4	0.371400	0.852700	0.714800
H51	H5	0.279400	0.968500	0.670900
H61	H6	0.894400	0.165800	0.803800
H71	H7	0.492200	0.398400	0.772800
H81	H8	0.568100	0.356400	0.447800
H91	H9	0.600500	0.304600	0.720300
H101	H10	0.985900	0.063100	0.758300
H111	H11	0.066800	0.847000	0.576500
H121	H12	0.064600	0.740200	0.762600
H131	H13	0.442700	0.784100	0.786800
H141	H14	0.230600	0.011400	0.574800
H151	H15	0.047500	0.217400	0.620300
H161	H16	0.533800	0.720500	0.415500
H171	H17	0.476700	0.250100	0.505700
H181	H18	0.738800	0.517300	0.439900
H191	H19	0.974300	0.745700	0.519000
H201	H20	0.778000	0.954700	0.614200
H211	H21	0.147000	0.323200	0.561500
H221	H22	0.634800	0.816800	0.467400
H231	H23	0.275400	0.455900	0.411500
H241	H24	0.349000	0.112200	0.523200
H251	H25	0.175000	0.356100	0.467800
H261	H26	0.692200	0.370500	0.891900
H271	H27	0.837500	0.610300	0.501200
H281	H28	0.823700	0.129000	0.632100
H291	H29	0.677300	0.855300	0.556800
H301	H30	0.804400	0.271200	0.846900
H311	H31	0.713600	0.226400	0.676700
H321	H32	0.159300	0.602400	0.772100
H331	H33	0.748000	0.501600	0.322700
H341	H34	0.471300	0.335600	0.326600
H351	H35	0.021200	0.148000	0.216100
H361	H36	0.628600	0.147300	0.214800
H371	H37	0.720600	0.031500	0.170900
H381	H38	0.105600	0.834200	0.303800
H391	H39	0.507800	0.601600	0.272800
H401	H40	0.431900	0.643600	0.947800
H411	H41	0.399500	0.695400	0.220300
H421	H42	0.014100	0.936900	0.258300
H431	H43	0.933200	0.153000	0.076500
H441	H44	0.935400	0.259800	0.262600
H451	H45	0.557300	0.215900	0.286800
H461	H46	0.769400	0.988600	0.074800
H471	H47	0.952500	0.782600	0.120300
H481	H48	0.466200	0.279500	0.915500
H491	H49	0.523300	0.749900	0.005700
H501	H50	0.261200	0.482700	0.939900
H511	H51	0.025700	0.254300	0.019000
H521	H52	0.222000	0.045300	0.114200
H531	H53	0.853000	0.676800	0.061500
H541	H54	0.365200	0.183200	0.967400
H551	H55	0.724600	0.544100	0.911500
H561	H56	0.651000	0.887800	0.023200
H571	H57	0.825000	0.643900	0.967800
H581	H58	0.307800	0.629500	0.391900
H591	H59	0.162500	0.389700	0.001200
H601	H60	0.176300	0.871000	0.132100
H611	H61	0.322700	0.144700	0.056800
H621	H62	0.195600	0.728800	0.346900
H631	H63	0.286400	0.773600	0.176700
H641	H64	0.840700	0.397600	0.272100
C11	C1	0.291300	0.556000	0.813800
C21	C2	0.451000	0.654300	0.817300
C31	C3	0.059400	0.854600	0.716600
C41	C4	0.291000	0.852800	0.716100
C51	C5	0.234900	0.922700	0.689600
C61	C6	0.876000	0.157700	0.768700
C71	C7	0.558500	0.375000	0.787000
C81	C8	0.488200	0.356600	0.452300
C91	C9	0.621500	0.315700	0.754900
C101	C10	0.934500	0.100000	0.741000
C111	C11	0.987000	0.849200	0.572600
C121	C12	0.226200	0.782800	0.744500
C131	C13	0.110500	0.785500	0.744100
C141	C14	0.401600	0.725700	0.792000
C151	C15	0.286500	0.709400	0.773900
C161	C16	0.215700	0.075300	0.572900
C171	C17	0.105100	0.195700	0.599000
C181	C18	0.782100	0.210400	0.746600
C191	C19	0.597600	0.697200	0.432000
C201	C20	0.433200	0.292300	0.487600
C211	C21	0.714800	0.577600	0.446700
C221	C22	0.932500	0.787900	0.537900
C231	C23	0.818400	0.912400	0.594700
C241	C24	0.166300	0.260500	0.564200
C251	C25	0.655900	0.754700	0.464000
C261	C26	0.316800	0.414700	0.431300
C271	C27	0.285300	0.134200	0.540400
C281	C28	0.255200	0.354900	0.465000
C291	C29	0.674900	0.357900	0.857100
C301	C30	0.776400	0.634700	0.483200
C311	C31	0.838500	0.137000	0.667600
C321	C32	0.255400	0.227300	0.534800
C331	C33	0.757100	0.852400	0.560200
C341	C34	0.316700	0.290800	0.495800
C351	C35	0.748700	0.725900	0.493200
C361	C36	0.812800	0.789500	0.531400
C371	C37	0.742200	0.297600	0.830700
C381	C38	0.770000	0.195800	0.694600
C391	C39	0.233500	0.619400	0.784700
C401	C40	0.712700	0.276000	0.775900
C411	C41	0.708700	0.444000	0.313800
C421	C42	0.549000	0.345700	0.317300
C431	C43	0.940600	0.145400	0.216600
C441	C44	0.709000	0.147200	0.216100
C451	C45	0.765100	0.077300	0.189600
C461	C46	0.124000	0.842300	0.268700
C471	C47	0.441500	0.625000	0.287000
C481	C48	0.511800	0.643400	0.952300
C491	C49	0.378500	0.684300	0.254900
C501	C50	0.065500	0.900000	0.241000
C511	C51	0.013000	0.150800	0.072600
C521	C52	0.773800	0.217200	0.244500
C531	C53	0.889500	0.214500	0.244100
C541	C54	0.598400	0.274300	0.292000
C551	C55	0.713500	0.290600	0.273900
C561	C56	0.784300	0.924700	0.072900
C571	C57	0.894900	0.804300	0.099000
C581	C58	0.217900	0.789600	0.246600
C591	C59	0.402400	0.302800	0.932000
C601	C60	0.566800	0.707700	0.987600
C611	C61	0.285200	0.422400	0.946700
C621	C62	0.067500	0.212100	0.037900
C631	C63	0.181600	0.087600	0.094700
C641	C64	0.833700	0.739500	0.064200
C651	C65	0.344100	0.245300	0.964000
C661	C66	0.683200	0.585300	0.931300
C671	C67	0.714700	0.865800	0.040400
C681	C68	0.744800	0.645100	0.965000
C691	C69	0.325100	0.642100	0.357100
C701	C70	0.223600	0.365300	0.983200
C711	C71	0.161500	0.863000	0.167600
C721	C72	0.744600	0.772700	0.034800
C731	C73	0.242900	0.147600	0.060200
C741	C74	0.683300	0.709200	0.995800
C751	C75	0.251300	0.274100	0.993200
C761	C76	0.187200	0.210500	0.031400
C771	C77	0.257800	0.702400	0.330700
C781	C78	0.230000	0.804200	0.194600
C791	C79	0.766500	0.380600	0.284700
C801	C80	0.287300	0.724000	0.275900
N11	N1	0.585100	0.400200	0.835700
N21	N2	0.397500	0.571900	0.829700
N31	N3	0.621500	0.606300	0.420500
N41	N4	0.117400	0.926400	0.690000
N51	N5	0.128800	0.105000	0.601600
N61	N6	0.924800	0.090400	0.688000
N71	N7	0.934400	0.912100	0.601200
N81	N8	0.430100	0.418400	0.424700
N91	N9	0.414900	0.599800	0.335700
N101	N10	0.602500	0.428100	0.329700
N111	N11	0.378500	0.393700	0.920500
N121	N12	0.882600	0.073600	0.190000
N131	N13	0.871200	0.895000	0.101600
N141	N14	0.075200	0.909600	0.188000
N151	N15	0.065600	0.087900	0.101200
N161	N16	0.569900	0.581600	0.924700
H651	H65	0.668600	0.296800	0.132800
H661	H66	0.706000	0.556000	0.132100
H671	H67	0.681200	0.514400	0.188200
H681	H68	0.828200	0.448500	0.122200
H691	H69	0.785300	0.395900	0.173600
H701	H70	0.541900	0.482400	0.031300
H711	H71	0.635100	0.413000	0.014400
H721	H72	0.671700	0.502900	0.048200
H731	H73	0.429400	0.356200	0.077200
H741	H74	0.487800	0.303200	0.122900
H751	H75	0.517200	0.279500	0.064900
H761	H76	0.486300	0.454200	0.205400
H771	H77	0.553000	0.365500	0.189700
H781	H78	0.431300	0.380300	0.165100
C811	C81	0.696400	0.348400	0.109300
C821	C82	0.588700	0.398300	0.089200
C831	C83	0.558800	0.466000	0.134800
C841	C84	0.680200	0.499100	0.151300
C851	C85	0.760200	0.422700	0.140900
C861	C86	0.611300	0.453900	0.041700
C871	C87	0.499100	0.329100	0.088500
C881	C88	0.489300	0.545000	0.119200
C891	C89	0.761800	0.306700	0.066800
C901	C90	0.502600	0.411900	0.177400
O11	O1	0.848200	0.354300	0.046500
O21	O2	0.725500	0.223700	0.051800
O31	O3	0.389900	0.521900	0.097700
O41	O4	0.518800	0.631100	0.130900
H791	H79	0.189000	0.050700	0.860100
H801	H80	0.134200	0.969100	0.823700
H811	H81	0.289500	0.888000	0.847300
H821	H82	0.315500	0.953100	0.896700
H831	H83	0.097600	0.790400	0.850800
H841	H84	0.091300	0.722800	0.899500
H851	H85	0.203900	0.732500	0.865200
H861	H86	0.956500	0.782200	0.936000
H871	H87	0.924600	0.871200	0.968300
H881	H88	0.016100	0.804600	0.990000
H891	H89	0.182700	0.004900	0.960700
H901	H90	0.139800	0.933900	0.004900
H911	H91	0.054500	0.003800	0.980900
C911	C91	0.187100	0.843600	0.911600
C921	C92	0.080300	0.891000	0.932300
C931	C93	0.059800	0.967300	0.896800
C941	C94	0.159200	0.984600	0.859000
C951	C95	0.254900	0.917900	0.877000
C961	C96	0.141100	0.765800	0.879000
C971	C97	0.986000	0.832000	0.959000
C981	C98	0.259800	0.802400	0.958300
C991	C99	0.971400	0.036100	0.899600
C1001	C100	0.118000	0.965000	0.973500
O51	O5	0.233300	0.717700	0.973700
O61	O6	0.342400	0.852900	0.976300
O71	O7	0.894600	0.028100	0.938700
O81	O8	0.004500	0.116200	0.895200
H921	H92	0.331400	0.703200	0.632800
H931	H93	0.294000	0.444000	0.632100
H941	H94	0.318800	0.485600	0.688200
H951	H95	0.171800	0.551500	0.622200
H961	H96	0.214700	0.604100	0.673600
H971	H97	0.458100	0.517600	0.531300
H981	H98	0.364900	0.587000	0.514400
H991	H99	0.328300	0.497100	0.548200
H1001	H100	0.570600	0.643800	0.577200
H1011	H101	0.512200	0.696800	0.622900
H1021	H102	0.482800	0.720500	0.564900
H1031	H103	0.513700	0.545800	0.705400
H1041	H104	0.447000	0.634500	0.689700
H1051	H105	0.568700	0.619700	0.665100
C1011	C101	0.303600	0.651600	0.609300
C1021	C102	0.411300	0.601700	0.589200
C1031	C103	0.441200	0.534000	0.634800
C1041	C104	0.319800	0.500900	0.651300
C1051	C105	0.239800	0.577300	0.640900
C1061	C106	0.388700	0.546100	0.541700
C1071	C107	0.500900	0.670900	0.588500
C1081	C108	0.510700	0.455000	0.619200
C1091	C109	0.238200	0.693300	0.566800
C1101	C110	0.497400	0.588100	0.677400
O91	O9	0.151800	0.645700	0.546500
O101	O10	0.274500	0.776300	0.551800
O111	O11	0.610100	0.478100	0.597700
O121	O12	0.481200	0.368900	0.630900
H1061	H106	0.811000	0.949300	0.360100
H1071	H107	0.865800	0.030900	0.323700
H1081	H108	0.710500	0.112000	0.347300
H1091	H109	0.684500	0.046900	0.396700
H1101	H110	0.902400	0.209600	0.350800
H1111	H111	0.908700	0.277200	0.399500
H1121	H112	0.796100	0.267500	0.365200
H1131	H113	0.043500	0.217800	0.436000
H1141	H114	0.075400	0.128800	0.468300
H1151	H115	0.983900	0.195400	0.490000
H1161	H116	0.817300	0.995100	0.460700
H1171	H117	0.860200	0.066100	0.504900
H1181	H118	0.945500	0.996200	0.480900
C1111	C111	0.812900	0.156400	0.411600
C1121	C112	0.919700	0.109000	0.432300
C1131	C113	0.940200	0.032700	0.396800
C1141	C114	0.840800	0.015400	0.359000
C1151	C115	0.745100	0.082100	0.377000
C1161	C116	0.858900	0.234200	0.379000
C1171	C117	0.014000	0.168000	0.459000
C1181	C118	0.740200	0.197600	0.458300
C1191	C119	0.028600	0.963900	0.399600
C1201	C120	0.882000	0.035000	0.473500
O131	O13	0.766700	0.282300	0.473700
O141	O14	0.657600	0.147100	0.476300
O151	O15	0.105400	0.971900	0.438700
O161	O16	0.995500	0.883800	0.395200
