data_LIVTIT_freeONLY_PM
_symmetry_space_group_name_H-M	'P1'
_cell_length_a	21.617000
_cell_length_b	11.127000
_cell_length_c	16.294000
_cell_angle_alpha	90.000000
_cell_angle_beta	111.610000
_cell_angle_gamma	90.000000
_symmetry_Int_Tables_number 1

loop_
_symmetry_equiv_pos_as_xyz
'x,y,z'

loop_
_atom_site_label
_atom_site_type_symbol
_atom_site_fract_x
_atom_site_fract_y
_atom_site_fract_z
Cu11	Cu1	0.975360	0.006370	0.677890
Cu21	Cu2	0.520290	0.007920	0.696660
C11	C1	0.823700	0.334700	0.743700
C21	C2	0.820500	0.207600	0.737500
C31	C3	0.762100	0.149100	0.721800
C41	C4	0.705100	0.214800	0.710700
C51	C5	0.707000	0.340600	0.713100
C61	C6	0.766400	0.399900	0.732100
C71	C7	0.886700	0.394100	0.762600
N11	N1	0.937700	0.435900	0.780700
C81	C8	0.879500	0.141500	0.741400
N21	N2	0.924700	0.089300	0.740100
C91	C9	0.643100	0.151900	0.694400
N31	N3	0.594100	0.103600	0.682800
C101	C10	0.646000	0.406500	0.699800
N41	N4	0.596900	0.455100	0.685900
C111	C11	0.791800	0.798000	0.509800
C121	C12	0.791500	0.673100	0.505900
C131	C13	0.734000	0.612700	0.458500
C141	C14	0.676200	0.676100	0.416400
C151	C15	0.675700	0.801800	0.422500
C161	C16	0.733800	0.862900	0.469200
N51	N5	0.902000	0.908500	0.594200
C171	C17	0.853800	0.860800	0.557600
C181	C18	0.851800	0.606700	0.551100
N61	N6	0.901100	0.556900	0.585400
C191	C19	0.616700	0.614700	0.360000
N71	N7	0.571000	0.567500	0.311800
C201	C20	0.614600	0.868500	0.379400
N81	N8	0.565500	0.916700	0.347500
O11	O1	0.508200	0.856700	0.613300
C211	C21	0.538500	0.836300	0.553700
C221	C22	0.527200	0.711400	0.520600
C231	C23	0.472000	0.670400	0.548400
C241	C24	0.477500	0.750400	0.622000
O21	O2	0.989400	0.152700	0.603300
C251	C25	0.960900	0.171100	0.513500
C261	C26	0.972600	0.293100	0.490800
C271	C27	0.025600	0.339700	0.572900
C281	C28	0.023300	0.256500	0.640500
Cu31	Cu3	0.024640	0.506370	0.822110
Cu41	Cu4	0.479710	0.507920	0.803340
C291	C29	0.176300	0.834700	0.756300
C301	C30	0.179500	0.707600	0.762500
C311	C31	0.237900	0.649100	0.778200
C321	C32	0.294900	0.714800	0.789300
C331	C33	0.293000	0.840600	0.786900
C341	C34	0.233600	0.899900	0.767900
C351	C35	0.113300	0.894100	0.737400
N91	N9	0.062300	0.935900	0.719300
C361	C36	0.120500	0.641500	0.758600
N101	N10	0.075300	0.589300	0.759900
C371	C37	0.356900	0.651900	0.805600
N111	N11	0.405900	0.603600	0.817200
C381	C38	0.354000	0.906500	0.800200
N121	N12	0.403100	0.955100	0.814100
C391	C39	0.208200	0.298000	0.990200
C401	C40	0.208500	0.173100	0.994100
C411	C41	0.266000	0.112700	0.041500
C421	C42	0.323800	0.176100	0.083600
C431	C43	0.324300	0.301800	0.077500
C441	C44	0.266200	0.362900	0.030800
N131	N13	0.098000	0.408500	0.905800
C451	C45	0.146200	0.360800	0.942400
C461	C46	0.148200	0.106700	0.948900
N141	N14	0.098900	0.056900	0.914600
C471	C47	0.383300	0.114700	0.140000
N151	N15	0.429000	0.067500	0.188200
C481	C48	0.385400	0.368500	0.120600
N161	N16	0.434500	0.416700	0.152500
O31	O3	0.491800	0.356700	0.886700
C491	C49	0.461500	0.336300	0.946300
C501	C50	0.472800	0.211400	0.979400
C511	C51	0.528000	0.170400	0.951600
C521	C52	0.522500	0.250400	0.878000
O41	O4	0.010600	0.652700	0.896700
C531	C53	0.039100	0.671100	0.986500
C541	C54	0.027400	0.793100	0.009200
C551	C55	0.974400	0.839700	0.927100
C561	C56	0.976700	0.756500	0.859500
Cu51	Cu5	0.024640	0.993630	0.322110
Cu61	Cu6	0.479710	0.992080	0.303340
C571	C57	0.176300	0.665300	0.256300
C581	C58	0.179500	0.792400	0.262500
C591	C59	0.237900	0.850900	0.278200
C601	C60	0.294900	0.785200	0.289300
C611	C61	0.293000	0.659400	0.286900
C621	C62	0.233600	0.600100	0.267900
C631	C63	0.113300	0.605900	0.237400
N171	N17	0.062300	0.564100	0.219300
C641	C64	0.120500	0.858500	0.258600
N181	N18	0.075300	0.910700	0.259900
C651	C65	0.356900	0.848100	0.305600
N191	N19	0.405900	0.896400	0.317200
C661	C66	0.354000	0.593500	0.300200
N201	N20	0.403100	0.544900	0.314100
C671	C67	0.208200	0.202000	0.490200
C681	C68	0.208500	0.326900	0.494100
C691	C69	0.266000	0.387300	0.541500
C701	C70	0.323800	0.323900	0.583600
C711	C71	0.324300	0.198200	0.577500
C721	C72	0.266200	0.137100	0.530800
N211	N21	0.098000	0.091500	0.405800
C731	C73	0.146200	0.139200	0.442400
C741	C74	0.148200	0.393300	0.448900
N221	N22	0.098900	0.443100	0.414600
C751	C75	0.383300	0.385300	0.640000
N231	N23	0.429000	0.432500	0.688200
C761	C76	0.385400	0.131500	0.620600
N241	N24	0.434500	0.083300	0.652500
O51	O5	0.491800	0.143300	0.386700
C771	C77	0.461500	0.163700	0.446300
C781	C78	0.472800	0.288600	0.479400
C791	C79	0.528000	0.329600	0.451600
C801	C80	0.522500	0.249600	0.378000
O61	O6	0.010600	0.847300	0.396700
C811	C81	0.039100	0.828900	0.486500
C821	C82	0.027400	0.706900	0.509200
C831	C83	0.974400	0.660300	0.427100
C841	C84	0.976700	0.743500	0.359500
Cu71	Cu7	0.975360	0.493630	0.177890
Cu81	Cu8	0.520290	0.492080	0.196660
C851	C85	0.823700	0.165300	0.243700
C861	C86	0.820500	0.292400	0.237500
C871	C87	0.762100	0.350900	0.221800
C881	C88	0.705100	0.285200	0.210700
C891	C89	0.707000	0.159400	0.213100
C901	C90	0.766400	0.100100	0.232100
C911	C91	0.886700	0.105900	0.262600
N251	N25	0.937700	0.064100	0.280700
C921	C92	0.879500	0.358500	0.241400
N261	N26	0.924700	0.410700	0.240100
C931	C93	0.643100	0.348100	0.194400
N271	N27	0.594100	0.396400	0.182800
C941	C94	0.646000	0.093500	0.199800
N281	N28	0.596900	0.044900	0.185900
C951	C95	0.791800	0.702000	0.009800
C961	C96	0.791500	0.826900	0.005900
C971	C97	0.734000	0.887300	0.958500
C981	C98	0.676200	0.823900	0.916400
C991	C99	0.675700	0.698200	0.922500
C1001	C100	0.733800	0.637100	0.969200
N291	N29	0.902000	0.591500	0.094200
C1011	C101	0.853800	0.639200	0.057600
C1021	C102	0.851800	0.893300	0.051100
N301	N30	0.901100	0.943100	0.085400
C1031	C103	0.616700	0.885300	0.860000
N311	N31	0.571000	0.932500	0.811800
C1041	C104	0.614600	0.631500	0.879400
N321	N32	0.565500	0.583300	0.847500
O71	O7	0.508200	0.643300	0.113300
C1051	C105	0.538500	0.663700	0.053700
C1061	C106	0.527200	0.788600	0.020600
C1071	C107	0.472000	0.829600	0.048400
C1081	C108	0.477500	0.749600	0.122000
O81	O8	0.989400	0.347300	0.103300
C1091	C109	0.960900	0.328900	0.013500
C1101	C110	0.972600	0.206900	0.990800
C1111	C111	0.025600	0.160300	0.072900
C1121	C112	0.023300	0.243500	0.140500
