data_LODKIA_freeONLY_PM
_symmetry_space_group_name_H-M	'P1'
_cell_length_a	9.154900
_cell_length_b	15.408600
_cell_length_c	25.451900
_cell_angle_alpha	80.776100
_cell_angle_beta	79.639200
_cell_angle_gamma	72.718300
_symmetry_Int_Tables_number 1

loop_
_symmetry_equiv_pos_as_xyz
'x,y,z'

loop_
_atom_site_label
_atom_site_type_symbol
_atom_site_fract_x
_atom_site_fract_y
_atom_site_fract_z
Cd11	Cd1	0.357210	0.738910	0.033890
Cd21	Cd2	0.642790	0.261090	0.966110
Cd31	Cd3	0.153230	0.376550	0.495030
Cd41	Cd4	0.024810	0.123450	0.004970
Cd51	Cd5	0.846770	0.623450	0.504970
Cd61	Cd6	0.869990	0.238910	0.533890
Cd71	Cd7	0.130010	0.761090	0.466110
Cd81	Cd8	0.975190	0.876550	0.995030
H11	H1	0.993300	0.210300	0.661900
H21	H2	0.630000	0.811200	0.739400
H31	H3	0.393800	0.049400	0.430400
H41	H4	0.706400	0.730100	0.867900
H51	H5	0.689400	0.595400	0.942200
H61	H6	0.441200	0.708800	0.457400
H71	H7	0.456400	0.999100	0.690500
H81	H8	0.773000	0.095400	0.442200
H91	H9	0.495400	0.676300	0.146900
H101	H10	0.681700	0.050900	0.711700
H111	H11	0.128700	0.079700	0.821700
H121	H12	0.293600	0.269900	0.132100
H131	H13	0.318600	0.823700	0.353100
H141	H14	0.603700	0.208300	0.520700
H151	H15	0.319200	0.659400	0.388200
H161	H16	0.414900	0.913400	0.486000
H171	H17	0.871300	0.920300	0.178300
H181	H18	0.819400	0.311200	0.239400
H191	H19	0.821700	0.359600	0.607800
H201	H20	0.444300	0.449100	0.788300
H211	H21	0.872000	0.230100	0.165900
H221	H22	0.035800	0.902100	0.622300
H231	H23	0.146000	0.500900	0.809500
H241	H24	0.304400	0.769900	0.632100
H251	H25	0.566500	0.216700	0.172100
H261	H26	0.044700	0.716700	0.672100
H271	H27	0.140000	0.086400	0.302600
H281	H28	0.606200	0.950600	0.569600
H291	H29	0.555700	0.550900	0.211700
H301	H30	0.558400	0.901300	0.387100
H311	H31	0.873600	0.450600	0.069600
H321	H32	0.185700	0.413400	0.986000
H331	H33	0.846800	0.598700	0.112900
H341	H34	0.865500	0.289700	0.838100
H351	H35	0.227000	0.904600	0.557800
H361	H36	0.153200	0.401300	0.887100
H371	H37	0.794500	0.142800	0.296400
H381	H38	0.366800	0.840600	0.111800
H391	H39	0.558800	0.291200	0.542600
H401	H40	0.233700	0.357200	0.203600
H411	H41	0.766300	0.642800	0.796400
H421	H42	0.310600	0.404600	0.057800
H431	H43	0.126400	0.549400	0.930400
H441	H44	0.202200	0.671200	0.947000
H451	H45	0.681400	0.176300	0.646900
H461	H46	0.433500	0.783300	0.827900
H471	H47	0.128000	0.769900	0.834100
H481	H48	0.134500	0.710300	0.161900
H491	H49	0.633200	0.159400	0.888200
H501	H50	0.392600	0.208800	0.957400
H511	H51	0.560200	0.597900	0.877700
H521	H52	0.318300	0.949100	0.288300
H531	H53	0.332700	0.291700	0.979300
H541	H54	0.820400	0.828800	0.553000
H551	H55	0.797800	0.328800	0.053000
H561	H56	0.439800	0.402100	0.122300
H571	H57	0.396300	0.791700	0.479300
H581	H58	0.667300	0.708300	0.020700
H591	H59	0.210900	0.859600	0.107800
H601	H60	0.955300	0.283300	0.327900
H611	H61	0.441600	0.098700	0.612900
H621	H62	0.789100	0.140400	0.892200
H631	H63	0.964200	0.097900	0.377700
H641	H64	0.854000	0.499100	0.190500
H651	H65	0.178300	0.640400	0.392200
H661	H66	0.370000	0.188800	0.260600
H671	H67	0.814300	0.586600	0.014000
H681	H68	0.987200	0.887600	0.259600
H691	H69	0.585100	0.086600	0.514000
H701	H70	0.695600	0.230100	0.367900
H711	H71	0.543600	0.000900	0.309500
H721	H72	0.471000	0.586400	0.802600
H731	H73	0.134400	0.612400	0.240400
H741	H74	0.179600	0.171200	0.447000
H751	H75	0.030100	0.420300	0.678300
H761	H76	0.607400	0.791200	0.042600
H771	H77	0.504600	0.323700	0.853100
H781	H78	0.529000	0.413600	0.197400
H791	H79	0.006700	0.789700	0.338100
H801	H80	0.860000	0.913600	0.697400
H811	H81	0.180600	0.688800	0.760600
H821	H82	0.969900	0.579700	0.321700
H831	H83	0.268000	0.269900	0.334100
H841	H84	0.012800	0.112400	0.740400
H851	H85	0.680800	0.340600	0.611800
H861	H86	0.732000	0.730100	0.665900
H871	H87	0.865600	0.387600	0.759600
H881	H88	0.205500	0.857200	0.703600
C11	C1	0.223700	0.616800	0.969800
C21	C2	0.923500	0.331600	0.832400
C31	C3	0.054200	0.530400	0.626800
C41	C4	0.401900	0.308300	0.406900
C51	C5	0.371000	0.779400	0.652800
C61	C6	0.011600	0.608300	0.722500
C71	C7	0.882900	0.808300	0.906900
C81	C8	0.338300	0.820900	0.927100
C91	C9	0.086300	0.679100	0.572900
C101	C10	0.945800	0.469600	0.373200
C111	C11	0.661700	0.179100	0.072900
C121	C12	0.763400	0.955100	0.276300
C131	C13	0.914100	0.304300	0.217500
C141	C14	0.017700	0.270200	0.921800
C151	C15	0.630300	0.157100	0.173100
C161	C16	0.213200	0.463700	0.992500
C171	C17	0.994800	0.544900	0.223700
C181	C18	0.625700	0.754800	0.673400
C191	C19	0.354000	0.101700	0.638300
C201	C20	0.592300	0.157400	0.271000
C211	C21	0.551200	0.542000	0.871600
C221	C22	0.085900	0.695700	0.782500
C231	C23	0.810500	0.980700	0.176900
C241	C24	0.987700	0.482900	0.275500
C251	C25	0.912500	0.831600	0.332400
C261	C26	0.482400	0.620700	0.141900
C271	C27	0.564100	0.804300	0.717500
C281	C28	0.076500	0.668400	0.167600
C291	C29	0.217300	0.165100	0.628900
C301	C30	0.161400	0.330700	0.196500
C311	C31	0.682200	0.956000	0.540600
C321	C32	0.448800	0.458000	0.128400
C331	C33	0.087200	0.242400	0.140600
C341	C34	0.497200	0.535300	0.827700
C351	C35	0.657600	0.108300	0.222500
C361	C36	0.075000	0.485400	0.576800
C371	C37	0.988700	0.665100	0.128900
C381	C38	0.209700	0.229800	0.578200
C391	C39	0.317800	0.044000	0.459400
C401	C40	0.330600	0.963700	0.492500
C411	C41	0.253900	0.982900	0.775500
C421	C42	0.245000	0.879300	0.358100
C431	C43	0.178800	0.544000	0.959400
C441	C44	0.005200	0.455100	0.776300
C451	C45	0.480200	0.454500	0.819300
C461	C46	0.369700	0.842900	0.826900
C471	C47	0.862800	0.985400	0.076800
C481	C48	0.968100	0.519300	0.323100
C491	C49	0.077200	0.609000	0.214400
C501	C50	0.746100	0.017100	0.224500
C511	C51	0.598100	0.691700	0.593100
C521	C52	0.330100	0.533400	0.043800
C531	C53	0.821200	0.456000	0.040600
C541	C54	0.906000	0.601700	0.138300
C551	C55	0.092700	0.033400	0.543800
C561	C56	0.035200	0.042000	0.371600
C571	C57	0.519800	0.545500	0.180700
C581	C58	0.342400	0.891700	0.777500
C591	C59	0.189700	0.116800	0.469800
C601	C60	0.988400	0.391700	0.277500
C611	C61	0.629000	0.220600	0.347200
C621	C62	0.782700	0.834900	0.371100
C631	C63	0.594700	0.464500	0.908900
C641	C64	0.407700	0.842600	0.729000
C651	C65	0.031900	0.964500	0.408900
C661	C66	0.922800	0.391000	0.785600
C671	C67	0.011300	0.334900	0.871100
C681	C68	0.979300	0.657400	0.771000
C691	C69	0.637000	0.958100	0.314900
C701	C70	0.218800	0.958600	0.534800
C711	C71	0.137200	0.014600	0.923200
C721	C72	0.060500	0.620700	0.624700
C731	C73	0.669400	0.036300	0.507500
C741	C74	0.781200	0.041400	0.465200
C751	C75	0.189500	0.019300	0.823100
C761	C76	0.788600	0.030400	0.126800
C771	C77	0.363000	0.041900	0.685100
C781	C78	0.838600	0.669300	0.803500
C791	C79	0.810300	0.883200	0.530200
C801	C80	0.435900	0.195700	0.282500
C811	C81	0.910000	0.541900	0.185100
C821	C82	0.236600	0.044900	0.723700
C831	C83	0.912800	0.757600	0.859400
C841	C84	0.031900	0.480700	0.676900
C851	C85	0.305900	0.879300	0.875300
C861	C86	0.020700	0.342600	0.229000
C871	C87	0.982300	0.729800	0.078200
C881	C88	0.968100	0.035500	0.591100
C891	C89	0.039500	0.657100	0.673100
C901	C90	0.964800	0.958000	0.628400
C911	C91	0.094000	0.398300	0.861700
C921	C92	0.246000	0.954500	0.319300
C931	C93	0.754000	0.045500	0.680700
C941	C94	0.139800	0.035300	0.327700
C951	C95	0.907300	0.966600	0.456200
C961	C96	0.099400	0.109000	0.714400
C971	C97	0.517600	0.379300	0.858100
C981	C98	0.087500	0.168400	0.667600
C991	C99	0.946100	0.254800	0.173400
C1001	C100	0.470200	0.257600	0.359400
C1011	C101	0.211400	0.969600	0.873200
C1021	C102	0.913700	0.320900	0.427100
C1031	C103	0.712200	0.541400	0.965200
C1041	C104	0.860200	0.964700	0.672300
C1051	C105	0.786800	0.536300	0.007500
C1061	C106	0.374300	0.245200	0.326600
C1071	C107	0.755000	0.120700	0.641900
C1081	C108	0.196800	0.279400	0.152800
C1091	C109	0.900600	0.891000	0.285600
C1101	C110	0.925000	0.514600	0.423200
C1111	C111	0.694100	0.120700	0.124700
C1121	C112	0.939500	0.379300	0.375300
C1131	C113	0.960500	0.342900	0.326900
C1141	C114	0.803200	0.720600	0.847200
C1151	C115	0.529800	0.742400	0.640600
C1161	C116	0.405300	0.535500	0.091100
C1171	C117	0.287800	0.458600	0.034800
C1181	C118	0.090000	0.458100	0.814900
C1191	C119	0.790300	0.770200	0.421800
C1201	C120	0.117100	0.191700	0.093100
C1211	C121	0.669900	0.466600	0.956200
C1221	C122	0.776300	0.383200	0.030200
C1231	C123	0.053900	0.745200	0.826600
C1241	C124	0.311400	0.830700	0.696500
C1251	C125	0.012300	0.517100	0.724500
C1261	C126	0.688600	0.169300	0.303500
C1271	C127	0.646000	0.898300	0.361700
C1281	C128	0.502800	0.464700	0.172300
N11	N1	0.860100	0.114500	0.597500
N21	N2	0.920400	0.888300	0.488300
N31	N3	0.139900	0.885500	0.402500
N41	N4	0.572100	0.385500	0.902500
N51	N5	0.427900	0.614500	0.097500
N61	N6	0.703000	0.388300	0.988300
N71	N7	0.079600	0.111700	0.511700
N81	N8	0.297000	0.611700	0.011700
O11	O1	0.929070	0.348370	0.470490
O21	O2	0.043910	0.517720	0.441260
O31	O3	0.517400	0.659600	0.571000
O41	O4	0.747930	0.151630	0.029510
O51	O5	0.214820	0.052930	0.943230
O61	O6	0.077270	0.277190	0.566870
O71	O7	0.260320	0.315480	0.422480
O81	O8	0.883800	0.736900	0.048500
O91	O9	0.621700	0.260200	0.518800
O101	O10	0.754800	0.354500	0.590100
O111	O11	0.699400	0.145500	0.909900
O121	O12	0.739680	0.684520	0.577520
O131	O13	0.789020	0.552930	0.443230
O141	O14	0.116200	0.263100	0.951500
O151	O15	0.599300	0.760200	0.018800
O161	O16	0.252000	0.159600	0.071000
O171	O17	0.119900	0.751330	0.572470
O181	O18	0.921330	0.222810	0.933130
O191	O19	0.998280	0.184520	0.077520
O201	O20	0.922730	0.722810	0.433130
O211	O21	0.070930	0.651630	0.529510
O221	O22	0.556300	0.251330	0.072470
O231	O23	0.785180	0.947070	0.056770
O241	O24	0.330800	0.236900	0.548500
O251	O25	0.078670	0.777190	0.066870
O261	O26	0.300600	0.854500	0.090100
O271	O27	0.748000	0.840400	0.929000
O281	O28	0.482600	0.340400	0.429000
O291	O29	0.880100	0.248670	0.427530
O301	O30	0.400700	0.239800	0.981200
O311	O31	0.956090	0.482280	0.558740
O321	O32	0.245200	0.645500	0.409900
O331	O33	0.252070	0.848370	0.970490
O341	O34	0.997110	0.017720	0.941260
O351	O35	0.378300	0.739800	0.481200
O361	O36	0.669200	0.763100	0.451500
O371	O37	0.001720	0.815480	0.922480
O381	O38	0.443700	0.748670	0.927530
O391	O39	0.210980	0.447070	0.556770
O401	O40	0.002890	0.982280	0.058740
