data_LODPUR_freeONLY_PM
_symmetry_space_group_name_H-M	'P1'
_cell_length_a	7.800500
_cell_length_b	11.294700
_cell_length_c	13.155200
_cell_angle_alpha	82.719000
_cell_angle_beta	80.499000
_cell_angle_gamma	83.194000
_symmetry_Int_Tables_number 1

loop_
_symmetry_equiv_pos_as_xyz
'x,y,z'

loop_
_atom_site_label
_atom_site_type_symbol
_atom_site_fract_x
_atom_site_fract_y
_atom_site_fract_z
Zn11	Zn1	0.716380	0.764700	0.735780
Zn21	Zn2	0.283620	0.235300	0.264220
H11	H1	0.752200	0.114600	0.566500
H21	H2	0.282200	0.520800	0.209700
H31	H3	0.344000	0.465200	0.663900
H41	H4	0.529000	0.614000	0.121400
H51	H5	0.123700	0.905700	0.855400
H61	H6	0.876300	0.094300	0.144600
H71	H7	0.528600	0.020900	0.757200
H81	H8	0.471400	0.979100	0.242800
H91	H9	0.717800	0.479200	0.790300
H101	H10	0.627700	0.378600	0.627700
H111	H11	0.299100	0.986800	0.947900
H121	H12	0.956100	0.316400	0.094300
H131	H13	0.789000	0.722400	0.497800
H141	H14	0.700900	0.013200	0.052100
H151	H15	0.652000	0.269400	0.128600
H161	H16	0.425600	0.793300	0.579700
H171	H17	0.211000	0.277600	0.502200
H181	H18	0.060600	0.638900	0.412400
H191	H19	0.101900	0.626800	0.703700
H201	H20	0.043900	0.683600	0.905700
H211	H21	0.247800	0.885400	0.433500
H221	H22	0.574400	0.206700	0.420300
H231	H23	0.986600	0.080800	0.654500
H241	H24	0.348000	0.730600	0.871400
H251	H25	0.231300	0.352800	0.010800
H261	H26	0.372300	0.621400	0.372300
H271	H27	0.656000	0.534800	0.336100
H281	H28	0.898100	0.373200	0.296300
H291	H29	0.471000	0.386000	0.878600
H301	H30	0.768700	0.647200	0.989200
H311	H31	0.013400	0.919200	0.345500
H321	H32	0.939400	0.361100	0.587600
C11	C1	0.926300	0.056900	0.086100
C21	C2	0.671500	0.445800	0.477200
C31	C3	0.026700	0.609500	0.943600
C41	C4	0.178700	0.992700	0.968600
C51	C5	0.408300	0.655600	0.862700
C61	C6	0.149300	0.611200	0.549300
C71	C7	0.147800	0.931400	0.460500
C81	C8	0.895100	0.948500	0.945200
C91	C9	0.886500	0.692800	0.528700
C101	C10	0.861200	0.587700	0.993800
C111	C11	0.852200	0.068600	0.539500
C121	C12	0.142900	0.978200	0.553800
C131	C13	0.341900	0.548500	0.895500
C141	C14	0.850700	0.388800	0.450700
C151	C15	0.973300	0.390500	0.056400
C161	C16	0.168400	0.522100	0.948900
C171	C17	0.138800	0.412300	0.006200
C181	C18	0.104900	0.051500	0.054800
C191	C19	0.524100	0.014600	0.288100
C201	C20	0.941100	0.360000	0.359000
C211	C21	0.591700	0.344400	0.137300
C221	C22	0.418800	0.861000	0.614300
C231	C23	0.992200	0.048100	0.592500
C241	C24	0.406400	0.480000	0.597700
C251	C25	0.780500	0.890000	0.889700
C261	C26	0.612100	0.518300	0.818200
C271	C27	0.423100	0.573000	0.424200
C281	C28	0.113500	0.307200	0.471300
C291	C29	0.831600	0.477900	0.051100
C301	C30	0.475900	0.985400	0.711900
C311	C31	0.328500	0.554200	0.522800
C321	C32	0.293900	0.955500	0.609100
C331	C33	0.821300	0.007300	0.031400
C341	C34	0.658100	0.451500	0.104500
C351	C35	0.593600	0.520000	0.402300
C361	C36	0.576900	0.427000	0.575800
C371	C37	0.581200	0.139000	0.385700
C381	C38	0.073700	0.943100	0.913900
C391	C39	0.387900	0.481700	0.181800
C401	C40	0.007800	0.951900	0.407500
C411	C41	0.706100	0.044500	0.390900
C421	C42	0.219500	0.110000	0.110300
C431	C43	0.058900	0.640000	0.641000
C441	C44	0.857100	0.021800	0.446200
N11	N1	0.962300	0.354100	0.522200
N21	N2	0.420900	0.364300	0.185600
N31	N3	0.524900	0.537700	0.132900
N41	N4	0.533600	0.880100	0.678000
N51	N5	0.893800	0.691600	0.628200
N61	N6	0.332400	0.034500	0.672800
N71	N7	0.106200	0.308400	0.371800
N81	N8	0.579100	0.635700	0.814400
N91	N9	0.475100	0.462300	0.867100
N101	N10	0.037700	0.645900	0.477800
N111	N11	0.466400	0.119900	0.322000
N121	N12	0.667600	0.965500	0.327200
O11	O1	0.143300	0.151000	0.194660
O21	O2	0.625800	0.881300	0.925300
O31	O3	0.856700	0.849000	0.805340
O41	O4	0.374200	0.118700	0.074700
