data_LOFCUF_freeONLY_PM
_symmetry_space_group_name_H-M	'P1'
_cell_length_a	18.658000
_cell_length_b	20.089000
_cell_length_c	21.137000
_cell_angle_alpha	90.000000
_cell_angle_beta	90.000000
_cell_angle_gamma	90.000000
_symmetry_Int_Tables_number 1

loop_
_symmetry_equiv_pos_as_xyz
'x,y,z'

loop_
_atom_site_label
_atom_site_type_symbol
_atom_site_fract_x
_atom_site_fract_y
_atom_site_fract_z
Ni11	Ni1	0.549180	0.143840	0.810940
Ni21	Ni2	0.219560	0.992550	0.013600
Ni31	Ni3	0.950820	0.856160	0.310940
Ni41	Ni4	0.280440	0.007450	0.513600
Ni51	Ni5	0.450820	0.643840	0.689060
Ni61	Ni6	0.780440	0.492550	0.486400
Ni71	Ni7	0.049180	0.356160	0.189060
Ni81	Ni8	0.719560	0.507450	0.986400
Mo11	Mo1	0.609550	0.548090	0.724670
Mo21	Mo2	0.637080	0.442040	0.600550
Mo31	Mo3	0.687400	0.292880	0.658430
Mo41	Mo4	0.669840	0.294370	0.819540
Mo51	Mo5	0.591890	0.440970	0.862020
Mo61	Mo6	0.890450	0.451910	0.224670
Mo71	Mo7	0.862920	0.557960	0.100550
Mo81	Mo8	0.812600	0.707120	0.158430
Mo91	Mo9	0.830160	0.705630	0.319540
Mo101	Mo10	0.908110	0.559030	0.362020
Mo111	Mo11	0.390450	0.048090	0.775330
Mo121	Mo12	0.362920	0.942040	0.899450
Mo131	Mo13	0.312600	0.792880	0.841570
Mo141	Mo14	0.330160	0.794370	0.680460
Mo151	Mo15	0.408110	0.940970	0.637980
Mo161	Mo16	0.109550	0.951910	0.275330
Mo171	Mo17	0.137080	0.057960	0.399450
Mo181	Mo18	0.187400	0.207120	0.341570
Mo191	Mo19	0.169840	0.205630	0.180460
Mo201	Mo20	0.091890	0.059030	0.137980
P11	P1	0.732300	0.432500	0.744990
P21	P2	0.541000	0.379060	0.723520
P31	P3	0.767700	0.567500	0.244990
P41	P4	0.959000	0.620940	0.223520
P51	P5	0.267700	0.932500	0.755010
P61	P6	0.459000	0.879060	0.776480
P71	P7	0.232300	0.067500	0.255010
P81	P8	0.041000	0.120940	0.276480
H11	H1	0.581500	0.994500	0.761800
H21	H2	0.714900	0.142300	0.750100
H31	H3	0.837200	0.058400	0.740700
H41	H4	0.817300	0.997600	0.697500
H51	H5	0.871000	0.899900	0.734100
H61	H6	0.935100	0.851700	0.824600
H71	H7	0.860100	0.007900	0.933200
H81	H8	0.793300	0.044900	0.851600
H91	H9	0.948700	0.848500	0.938700
H101	H10	0.928400	0.910900	0.980000
H111	H11	0.045500	0.972000	0.017500
H121	H12	0.173700	0.913800	0.884600
H131	H13	0.678000	0.349800	0.970900
H141	H14	0.737700	0.437700	0.123900
H151	H15	0.725600	0.216500	0.068200
H161	H16	0.686200	0.229200	0.003800
H171	H17	0.570500	0.203900	0.991400
H181	H18	0.459300	0.171200	0.032900
H191	H19	0.528300	0.186900	0.205700
H201	H20	0.641400	0.225300	0.170600
H211	H21	0.428100	0.126900	0.191100
H221	H22	0.385100	0.179300	0.151800
H231	H23	0.286700	0.121200	0.086600
H241	H24	0.381700	0.952400	0.069000
H251	H25	0.684500	0.142500	0.905400
H261	H26	0.522600	0.027100	0.915400
H271	H27	0.619000	0.984800	0.050400
H281	H28	0.558100	0.952900	0.008900
H291	H29	0.620400	0.914400	0.899300
H301	H30	0.697400	0.839700	0.862900
H311	H31	0.786700	0.820100	0.032500
H321	H32	0.716100	0.902000	0.064800
H331	H33	0.833900	0.771900	0.884400
H341	H34	0.845600	0.758300	0.956900
H351	H35	0.699400	0.587900	0.849900
H361	H36	0.765700	0.658200	0.006600
H371	H37	0.407900	0.127200	0.904000
H381	H38	0.495900	0.289800	0.849800
H391	H39	0.342500	0.346000	0.937400
H401	H40	0.418000	0.373700	0.917900
H411	H41	0.322500	0.305300	0.045200
H421	H42	0.351600	0.312200	0.151100
H431	H43	0.547500	0.378000	0.103700
H441	H44	0.512800	0.379500	0.997200
H451	H45	0.423000	0.394400	0.223400
H461	H46	0.456600	0.323300	0.231800
H471	H47	0.685600	0.404800	0.249700
H481	H48	0.512800	0.495700	0.205200
H491	H49	0.629400	0.510100	0.240600
H501	H50	0.918500	0.005500	0.261800
H511	H51	0.785100	0.857700	0.250100
H521	H52	0.662800	0.941600	0.240700
H531	H53	0.682700	0.002400	0.197500
H541	H54	0.629000	0.100100	0.234100
H551	H55	0.564900	0.148300	0.324600
H561	H56	0.639900	0.992100	0.433200
H571	H57	0.706700	0.955100	0.351600
H581	H58	0.551300	0.151500	0.438700
H591	H59	0.571600	0.089100	0.480000
H601	H60	0.454500	0.028000	0.517500
H611	H61	0.326300	0.086200	0.384600
H621	H62	0.822000	0.650200	0.470900
H631	H63	0.762300	0.562300	0.623900
H641	H64	0.774400	0.783500	0.568200
H651	H65	0.813800	0.770800	0.503800
H661	H66	0.929500	0.796100	0.491400
H671	H67	0.040700	0.828800	0.532900
H681	H68	0.971700	0.813100	0.705700
H691	H69	0.858600	0.774700	0.670600
H701	H70	0.071900	0.873100	0.691100
H711	H71	0.114900	0.820700	0.651800
H721	H72	0.213300	0.878800	0.586600
H731	H73	0.118300	0.047600	0.569000
H741	H74	0.815500	0.857500	0.405400
H751	H75	0.977400	0.972900	0.415400
H761	H76	0.881000	0.015200	0.550400
H771	H77	0.941900	0.047100	0.508900
H781	H78	0.879600	0.085600	0.399300
H791	H79	0.802600	0.160300	0.362900
H801	H80	0.713300	0.179900	0.532500
H811	H81	0.783900	0.098000	0.564800
H821	H82	0.666100	0.228100	0.384400
H831	H83	0.654400	0.241700	0.456900
H841	H84	0.800600	0.412100	0.349900
H851	H85	0.734300	0.341800	0.506600
H861	H86	0.092100	0.872800	0.404000
H871	H87	0.004100	0.710200	0.349800
H881	H88	0.157500	0.654000	0.437400
H891	H89	0.082000	0.626300	0.417900
H901	H90	0.177500	0.694700	0.545200
H911	H91	0.148400	0.687800	0.651100
H921	H92	0.952500	0.622000	0.603700
H931	H93	0.987200	0.620500	0.497200
H941	H94	0.077000	0.605600	0.723400
H951	H95	0.043400	0.676700	0.731800
H961	H96	0.814400	0.595200	0.749700
H971	H97	0.987200	0.504300	0.705200
H981	H98	0.870600	0.489900	0.740600
H991	H99	0.418500	0.494500	0.738200
H1001	H100	0.285100	0.642300	0.749900
H1011	H101	0.162800	0.558400	0.759300
H1021	H102	0.182700	0.497600	0.802500
H1031	H103	0.129000	0.399900	0.765900
H1041	H104	0.064900	0.351700	0.675400
H1051	H105	0.139900	0.507900	0.566800
H1061	H106	0.206700	0.544900	0.648400
H1071	H107	0.051300	0.348500	0.561300
H1081	H108	0.071600	0.410900	0.520000
H1091	H109	0.954500	0.472000	0.482500
H1101	H110	0.826300	0.413800	0.615400
H1111	H111	0.322000	0.849800	0.529100
H1121	H112	0.262300	0.937700	0.376100
H1131	H113	0.274400	0.716500	0.431800
H1141	H114	0.313800	0.729200	0.496200
H1151	H115	0.429500	0.703900	0.508600
H1161	H116	0.540700	0.671200	0.467100
H1171	H117	0.471700	0.686900	0.294300
H1181	H118	0.358600	0.725300	0.329400
H1191	H119	0.571900	0.626900	0.308900
H1201	H120	0.614900	0.679300	0.348200
H1211	H121	0.713300	0.621200	0.413400
H1221	H122	0.618300	0.452400	0.431000
H1231	H123	0.315500	0.642500	0.594600
H1241	H124	0.477400	0.527100	0.584600
H1251	H125	0.381000	0.484800	0.449600
H1261	H126	0.441900	0.452900	0.491100
H1271	H127	0.379600	0.414400	0.600700
H1281	H128	0.302600	0.339700	0.637100
H1291	H129	0.213300	0.320100	0.467500
H1301	H130	0.283900	0.402000	0.435200
H1311	H131	0.166100	0.271900	0.615600
H1321	H132	0.154400	0.258300	0.543100
H1331	H133	0.300600	0.087900	0.650100
H1341	H134	0.234300	0.158200	0.493400
H1351	H135	0.592100	0.627200	0.596000
H1361	H136	0.504100	0.789800	0.650200
H1371	H137	0.657500	0.846000	0.562600
H1381	H138	0.582000	0.873700	0.582100
H1391	H139	0.677500	0.805300	0.454800
H1401	H140	0.648400	0.812200	0.348900
H1411	H141	0.452500	0.878000	0.396300
H1421	H142	0.487200	0.879500	0.502800
H1431	H143	0.577000	0.894400	0.276600
H1441	H144	0.543400	0.823300	0.268200
H1451	H145	0.314400	0.904800	0.250300
H1461	H146	0.487200	0.995700	0.294800
H1471	H147	0.370600	0.010100	0.259400
H1481	H148	0.081500	0.505500	0.238200
H1491	H149	0.214900	0.357700	0.249900
H1501	H150	0.337200	0.441600	0.259300
H1511	H151	0.317300	0.502400	0.302500
H1521	H152	0.371000	0.600100	0.265900
H1531	H153	0.435100	0.648300	0.175400
H1541	H154	0.360100	0.492100	0.066800
H1551	H155	0.293300	0.455100	0.148400
H1561	H156	0.448700	0.651500	0.061300
H1571	H157	0.428400	0.589100	0.020000
H1581	H158	0.545500	0.528000	0.982500
H1591	H159	0.673700	0.586200	0.115400
H1601	H160	0.178000	0.150200	0.029100
H1611	H161	0.237700	0.062300	0.876100
H1621	H162	0.225600	0.283500	0.931800
H1631	H163	0.186200	0.270800	0.996200
H1641	H164	0.070500	0.296100	0.008600
H1651	H165	0.959300	0.328800	0.967100
H1661	H166	0.028300	0.313100	0.794300
H1671	H167	0.141400	0.274700	0.829400
H1681	H168	0.928100	0.373100	0.808900
H1691	H169	0.885100	0.320700	0.848200
H1701	H170	0.786700	0.378800	0.913400
H1711	H171	0.881700	0.547600	0.931000
H1721	H172	0.184500	0.357500	0.094600
H1731	H173	0.022600	0.472900	0.084600
H1741	H174	0.119000	0.515200	0.949600
H1751	H175	0.058100	0.547100	0.991100
H1761	H176	0.120400	0.585600	0.100700
H1771	H177	0.197400	0.660300	0.137100
H1781	H178	0.286700	0.679900	0.967500
H1791	H179	0.216100	0.598000	0.935200
H1801	H180	0.333900	0.728100	0.115600
H1811	H181	0.345600	0.741700	0.043100
H1821	H182	0.199400	0.912100	0.150100
H1831	H183	0.265700	0.841800	0.993400
H1841	H184	0.907900	0.372800	0.096000
H1851	H185	0.995900	0.210200	0.150200
H1861	H186	0.842500	0.154000	0.062600
H1871	H187	0.918000	0.126300	0.082100
H1881	H188	0.822500	0.194700	0.954800
H1891	H189	0.851600	0.187800	0.848900
H1901	H190	0.047500	0.122000	0.896300
H1911	H191	0.012800	0.120500	0.002800
H1921	H192	0.923000	0.105600	0.776600
H1931	H193	0.956600	0.176700	0.768200
H1941	H194	0.185600	0.095200	0.750300
H1951	H195	0.012800	0.004300	0.794800
H1961	H196	0.129400	0.989900	0.759400
C11	C1	0.623300	0.018700	0.755500
C21	C2	0.694000	0.100300	0.749700
C31	C3	0.806500	0.019500	0.737300
C41	C4	0.822000	0.975300	0.787900
C51	C5	0.867900	0.918300	0.774400
C61	C6	0.909400	0.891200	0.828600
C71	C7	0.908900	0.925800	0.885000
C81	C8	0.861500	0.986100	0.894400
C91	C9	0.821900	0.007400	0.846200
C101	C10	0.950100	0.896700	0.940500
C111	C11	0.064000	0.953300	0.980800
C121	C12	0.132200	0.921600	0.907800
C131	C13	0.691800	0.358300	0.012400
C141	C14	0.724300	0.404400	0.095700
C151	C15	0.685800	0.239800	0.048600
C161	C16	0.619300	0.215800	0.076000
C171	C17	0.564200	0.200400	0.034900
C181	C18	0.497000	0.178700	0.060800
C191	C19	0.485100	0.168600	0.123200
C201	C20	0.537200	0.188500	0.162500
C211	C21	0.606500	0.212500	0.141600
C221	C22	0.419000	0.142900	0.148600
C231	C23	0.320200	0.086800	0.087100
C241	C24	0.373700	0.996700	0.079600
C251	C25	0.653100	0.108900	0.917500
C261	C26	0.566800	0.046800	0.923400
C271	C27	0.606600	0.970400	0.008000
C281	C28	0.658700	0.916000	0.986200
C291	C29	0.655000	0.896500	0.926000
C301	C30	0.702000	0.849500	0.905800
C311	C31	0.758100	0.811000	0.938600
C321	C32	0.755200	0.838100	0.003000
C331	C33	0.711000	0.887000	0.023400
C341	C34	0.809900	0.760900	0.923700
C351	C35	0.723500	0.615400	0.878100
C361	C36	0.757800	0.651300	0.963700
C371	C37	0.418000	0.172400	0.900700
C381	C38	0.468000	0.258200	0.870500
C391	C39	0.393800	0.339200	0.941900
C401	C40	0.414200	0.344500	0.010300
C411	C41	0.366700	0.322700	0.057000
C421	C42	0.384400	0.326600	0.120900
C431	C43	0.450400	0.351800	0.140300
C441	C44	0.500700	0.367000	0.092700
C451	C45	0.480400	0.365700	0.027900
C461	C46	0.460400	0.364800	0.208600
C471	C47	0.637000	0.412200	0.242800
C481	C48	0.545300	0.463200	0.217800
C491	C49	0.876700	0.981300	0.255500
C501	C50	0.806000	0.899700	0.249700
C511	C51	0.693500	0.980500	0.237300
C521	C52	0.678000	0.024700	0.287900
C531	C53	0.632100	0.081700	0.274400
C541	C54	0.590600	0.108800	0.328600
C551	C55	0.591100	0.074200	0.385000
C561	C56	0.638500	0.013900	0.394400
C571	C57	0.678100	0.992600	0.346200
C581	C58	0.549900	0.103300	0.440500
C591	C59	0.436000	0.046700	0.480800
C601	C60	0.367800	0.078400	0.407800
C611	C61	0.808200	0.641700	0.512400
C621	C62	0.775700	0.595600	0.595700
C631	C63	0.814200	0.760200	0.548600
C641	C64	0.880700	0.784200	0.576000
C651	C65	0.935800	0.799600	0.534900
C661	C66	0.003000	0.821300	0.560800
C671	C67	0.014900	0.831400	0.623200
C681	C68	0.962800	0.811500	0.662500
C691	C69	0.893500	0.787500	0.641600
C701	C70	0.081000	0.857100	0.648600
C711	C71	0.179800	0.913200	0.587100
C721	C72	0.126300	0.003300	0.579600
C731	C73	0.846900	0.891100	0.417500
C741	C74	0.933200	0.953200	0.423400
C751	C75	0.893400	0.029600	0.508000
C761	C76	0.841300	0.084000	0.486200
C771	C77	0.845000	0.103500	0.426000
C781	C78	0.798000	0.150500	0.405800
C791	C79	0.741900	0.189000	0.438600
C801	C80	0.744800	0.161900	0.503000
C811	C81	0.789000	0.113000	0.523400
C821	C82	0.690100	0.239100	0.423700
C831	C83	0.776500	0.384600	0.378100
C841	C84	0.742200	0.348700	0.463700
C851	C85	0.082000	0.827600	0.400700
C861	C86	0.032000	0.741800	0.370500
C871	C87	0.106200	0.660800	0.441900
C881	C88	0.085800	0.655500	0.510300
C891	C89	0.133300	0.677300	0.557000
C901	C90	0.115600	0.673400	0.620900
C911	C91	0.049600	0.648200	0.640300
C921	C92	0.999300	0.633000	0.592700
C931	C93	0.019600	0.634300	0.527900
C941	C94	0.039600	0.635200	0.708600
C951	C95	0.863000	0.587800	0.742800
C961	C96	0.954700	0.536800	0.717800
C971	C97	0.376700	0.518700	0.744500
C981	C98	0.306000	0.600300	0.750300
C991	C99	0.193500	0.519500	0.762700
C1001	C100	0.178000	0.475300	0.712100
C1011	C101	0.132100	0.418300	0.725600
C1021	C102	0.090600	0.391200	0.671400
C1031	C103	0.091100	0.425800	0.615000
C1041	C104	0.138500	0.486100	0.605600
C1051	C105	0.178100	0.507400	0.653800
C1061	C106	0.049900	0.396700	0.559500
C1071	C107	0.936000	0.453300	0.519200
C1081	C108	0.867800	0.421600	0.592200
C1091	C109	0.308200	0.858300	0.487600
C1101	C110	0.275700	0.904400	0.404300
C1111	C111	0.314200	0.739800	0.451400
C1121	C112	0.380700	0.715800	0.424000
C1131	C113	0.435800	0.700400	0.465100
C1141	C114	0.503000	0.678700	0.439200
C1151	C115	0.514900	0.668600	0.376800
C1161	C116	0.462800	0.688500	0.337500
C1171	C117	0.393500	0.712500	0.358400
C1181	C118	0.581000	0.642900	0.351400
C1191	C119	0.679800	0.586800	0.412900
C1201	C120	0.626300	0.496700	0.420400
C1211	C121	0.346900	0.608900	0.582500
C1221	C122	0.433200	0.546800	0.576600
C1231	C123	0.393400	0.470400	0.492000
C1241	C124	0.341300	0.416000	0.513800
C1251	C125	0.345000	0.396500	0.574000
C1261	C126	0.298000	0.349500	0.594200
C1271	C127	0.241900	0.311000	0.561400
C1281	C128	0.244800	0.338100	0.497000
C1291	C129	0.289000	0.387000	0.476600
C1301	C130	0.190100	0.260900	0.576300
C1311	C131	0.276500	0.115400	0.621900
C1321	C132	0.242200	0.151300	0.536300
C1331	C133	0.582000	0.672400	0.599300
C1341	C134	0.532000	0.758200	0.629500
C1351	C135	0.606200	0.839200	0.558100
C1361	C136	0.585800	0.844500	0.489700
C1371	C137	0.633300	0.822700	0.443000
C1381	C138	0.615600	0.826600	0.379100
C1391	C139	0.549600	0.851800	0.359700
C1401	C140	0.499300	0.867000	0.407300
C1411	C141	0.519600	0.865700	0.472100
C1421	C142	0.539600	0.864800	0.291400
C1431	C143	0.363000	0.912200	0.257200
C1441	C144	0.454700	0.963200	0.282200
C1451	C145	0.123300	0.481300	0.244500
C1461	C146	0.194000	0.399700	0.250300
C1471	C147	0.306500	0.480500	0.262700
C1481	C148	0.322000	0.524700	0.212100
C1491	C149	0.367900	0.581700	0.225600
C1501	C150	0.409400	0.608800	0.171400
C1511	C151	0.408900	0.574200	0.115000
C1521	C152	0.361500	0.513900	0.105600
C1531	C153	0.321900	0.492600	0.153800
C1541	C154	0.450100	0.603300	0.059500
C1551	C155	0.564000	0.546700	0.019200
C1561	C156	0.632200	0.578400	0.092200
C1571	C157	0.191800	0.141700	0.987600
C1581	C158	0.224300	0.095600	0.904300
C1591	C159	0.185800	0.260200	0.951400
C1601	C160	0.119300	0.284200	0.924000
C1611	C161	0.064200	0.299600	0.965100
C1621	C162	0.997000	0.321300	0.939200
C1631	C163	0.985100	0.331400	0.876800
C1641	C164	0.037200	0.311500	0.837500
C1651	C165	0.106500	0.287500	0.858400
C1661	C166	0.919000	0.357100	0.851400
C1671	C167	0.820200	0.413200	0.912900
C1681	C168	0.873700	0.503300	0.920400
C1691	C169	0.153100	0.391100	0.082500
C1701	C170	0.066800	0.453200	0.076600
C1711	C171	0.106600	0.529600	0.992000
C1721	C172	0.158700	0.584000	0.013800
C1731	C173	0.155000	0.603500	0.074000
C1741	C174	0.202000	0.650500	0.094200
C1751	C175	0.258100	0.689000	0.061400
C1761	C176	0.255200	0.661900	0.997000
C1771	C177	0.211000	0.613000	0.976600
C1781	C178	0.309900	0.739100	0.076300
C1791	C179	0.223500	0.884600	0.121900
C1801	C180	0.257800	0.848700	0.036300
C1811	C181	0.918000	0.327600	0.099300
C1821	C182	0.968000	0.241800	0.129500
C1831	C183	0.893800	0.160800	0.058100
C1841	C184	0.914200	0.155500	0.989700
C1851	C185	0.866700	0.177300	0.943000
C1861	C186	0.884400	0.173400	0.879100
C1871	C187	0.950400	0.148200	0.859700
C1881	C188	0.000700	0.133000	0.907300
C1891	C189	0.980400	0.134300	0.972100
C1901	C190	0.960400	0.135200	0.791400
C1911	C191	0.137000	0.087800	0.757200
C1921	C192	0.045300	0.036800	0.782200
N11	N1	0.624800	0.086100	0.761600
N21	N2	0.677900	0.992500	0.741600
N31	N3	0.727300	0.042000	0.737200
N41	N4	0.131600	0.955000	0.963500
N51	N5	0.071300	0.902200	0.890400
N61	N6	0.026200	0.920400	0.937300
N71	N7	0.708600	0.416900	0.034800
N81	N8	0.719200	0.339600	0.113000
N91	N9	0.697100	0.313700	0.056500
N101	N10	0.311100	0.026300	0.062000
N111	N11	0.422700	0.029500	0.111000
N121	N12	0.385600	0.089700	0.112900
N131	N13	0.591300	0.100700	0.891600
N141	N14	0.669100	0.064300	0.964400
N151	N15	0.610200	0.025800	0.965500
N161	N16	0.731500	0.598000	0.940700
N171	N17	0.773000	0.697100	0.917500
N181	N18	0.751100	0.671700	0.860100
N191	N19	0.471800	0.195000	0.863600
N201	N20	0.380500	0.217100	0.931900
N211	N21	0.414000	0.271300	0.915400
N221	N22	0.590600	0.365700	0.239700
N231	N23	0.608500	0.472500	0.235000
N241	N24	0.532800	0.395900	0.221000
N251	N25	0.875200	0.913900	0.261600
N261	N26	0.822100	0.007500	0.241600
N271	N27	0.772700	0.958000	0.237200
N281	N28	0.368400	0.045000	0.463500
N291	N29	0.428700	0.097800	0.390400
N301	N30	0.473800	0.079600	0.437300
N311	N31	0.791400	0.583100	0.534800
N321	N32	0.780800	0.660400	0.613000
N331	N33	0.802900	0.686300	0.556500
N341	N34	0.188900	0.973700	0.562000
N351	N35	0.077300	0.970500	0.611000
N361	N36	0.114400	0.910300	0.612900
N371	N37	0.908700	0.899300	0.391600
N381	N38	0.830900	0.935700	0.464400
N391	N39	0.889800	0.974200	0.465500
N401	N40	0.768500	0.402000	0.440700
N411	N41	0.727000	0.302900	0.417500
N421	N42	0.748900	0.328300	0.360100
N431	N43	0.028200	0.805000	0.363600
N441	N44	0.119500	0.782900	0.431900
N451	N45	0.086000	0.728700	0.415400
N461	N46	0.909400	0.634300	0.739700
N471	N47	0.891500	0.527500	0.735000
N481	N48	0.967200	0.604100	0.721000
N491	N49	0.375200	0.586100	0.738400
N501	N50	0.322100	0.492500	0.758400
N511	N51	0.272700	0.542000	0.762800
N521	N52	0.868400	0.455000	0.536500
N531	N53	0.928700	0.402200	0.609600
N541	N54	0.973800	0.420400	0.562700
N551	N55	0.291400	0.916900	0.465200
N561	N56	0.280800	0.839600	0.387000
N571	N57	0.302900	0.813700	0.443500
N581	N58	0.688900	0.526300	0.438000
N591	N59	0.577300	0.529500	0.389000
N601	N60	0.614400	0.589700	0.387100
N611	N61	0.408700	0.600700	0.608400
N621	N62	0.330900	0.564300	0.535600
N631	N63	0.389800	0.525800	0.534500
N641	N64	0.268500	0.098000	0.559300
N651	N65	0.227000	0.197100	0.582500
N661	N66	0.248900	0.171700	0.639900
N671	N67	0.528200	0.695000	0.636400
N681	N68	0.619500	0.717100	0.568100
N691	N69	0.586000	0.771300	0.584600
N701	N70	0.409400	0.865700	0.260300
N711	N71	0.391500	0.972500	0.265000
N721	N72	0.467200	0.895900	0.279000
N731	N73	0.124800	0.413900	0.238400
N741	N74	0.177900	0.507500	0.258400
N751	N75	0.227300	0.458000	0.262800
N761	N76	0.631600	0.545000	0.036500
N771	N77	0.571300	0.597800	0.109600
N781	N78	0.526200	0.579600	0.062700
N791	N79	0.208600	0.083100	0.965200
N801	N80	0.219200	0.160400	0.887000
N811	N81	0.197100	0.186300	0.943500
N821	N82	0.811100	0.473700	0.938000
N831	N83	0.922700	0.470500	0.889000
N841	N84	0.885600	0.410300	0.887100
N851	N85	0.091300	0.399300	0.108400
N861	N86	0.169100	0.435700	0.035600
N871	N87	0.110200	0.474200	0.034500
N881	N88	0.231500	0.902000	0.059300
N891	N89	0.273000	0.802900	0.082500
N901	N90	0.251100	0.828300	0.139900
N911	N91	0.971800	0.305000	0.136400
N921	N92	0.880500	0.282900	0.068100
N931	N93	0.914000	0.228700	0.084600
N941	N94	0.090600	0.134300	0.760300
N951	N95	0.108500	0.027500	0.765000
N961	N96	0.032800	0.104100	0.779000
O11	O1	0.522200	0.567900	0.705800
O21	O2	0.644300	0.624200	0.736700
O31	O3	0.593100	0.512500	0.808300
O41	O4	0.641600	0.526300	0.643000
O51	O5	0.575500	0.436900	0.690600
O61	O6	0.714700	0.505300	0.744300
O71	O7	0.569100	0.455700	0.550600
O81	O8	0.710600	0.455300	0.555800
O91	O9	0.634100	0.346100	0.601200
O101	O10	0.712900	0.400800	0.680800
O111	O11	0.766200	0.286300	0.619000
O121	O12	0.647900	0.217500	0.645300
O131	O13	0.723300	0.280800	0.744000
O141	O14	0.592600	0.319600	0.727100
O151	O15	0.734600	0.282000	0.872900
O161	O16	0.619800	0.222100	0.822000
O171	O17	0.606300	0.346600	0.870900
O181	O18	0.655700	0.468000	0.914100
O191	O19	0.516200	0.454500	0.902300
O201	O20	0.519300	0.401000	0.790300
O211	O21	0.689700	0.399100	0.799000
O221	O22	0.813200	0.424600	0.756900
O231	O23	0.473500	0.359600	0.689000
O241	O24	0.513700	0.190100	0.728900
O251	O25	0.977800	0.432100	0.205800
O261	O26	0.855700	0.375800	0.236700
O271	O27	0.906900	0.487500	0.308300
O281	O28	0.858400	0.473700	0.143000
O291	O29	0.924500	0.563100	0.190600
O301	O30	0.785300	0.494700	0.244300
O311	O31	0.930900	0.544300	0.050600
O321	O32	0.789400	0.544700	0.055800
O331	O33	0.865900	0.653900	0.101200
O341	O34	0.787100	0.599200	0.180800
O351	O35	0.733800	0.713700	0.119000
O361	O36	0.852100	0.782500	0.145300
O371	O37	0.776700	0.719200	0.244000
O381	O38	0.907400	0.680400	0.227100
O391	O39	0.765400	0.718000	0.372900
O401	O40	0.880200	0.777900	0.322000
O411	O41	0.893700	0.653400	0.370900
O421	O42	0.844300	0.532000	0.414100
O431	O43	0.983800	0.545500	0.402300
O441	O44	0.980700	0.599000	0.290300
O451	O45	0.810300	0.600900	0.299000
O461	O46	0.686800	0.575400	0.256900
O471	O47	0.026500	0.640400	0.189000
O481	O48	0.986300	0.809900	0.228900
O491	O49	0.477800	0.067900	0.794200
O501	O50	0.355700	0.124200	0.763300
O511	O51	0.406900	0.012500	0.691700
O521	O52	0.358400	0.026300	0.857000
O531	O53	0.424500	0.936900	0.809400
O541	O54	0.285300	0.005300	0.755700
O551	O55	0.430900	0.955700	0.949400
O561	O56	0.289400	0.955300	0.944200
O571	O57	0.365900	0.846100	0.898800
O581	O58	0.287100	0.900800	0.819200
O591	O59	0.233800	0.786300	0.881000
O601	O60	0.352100	0.717500	0.854700
O611	O61	0.276700	0.780800	0.756000
O621	O62	0.407400	0.819600	0.772900
O631	O63	0.265400	0.782000	0.627100
O641	O64	0.380200	0.722100	0.678000
O651	O65	0.393700	0.846600	0.629100
O661	O66	0.344300	0.968000	0.585900
O671	O67	0.483800	0.954500	0.597700
O681	O68	0.480700	0.901000	0.709700
O691	O69	0.310300	0.899100	0.701000
O701	O70	0.186800	0.924600	0.743100
O711	O71	0.526500	0.859600	0.811000
O721	O72	0.486300	0.690100	0.771100
O731	O73	0.022200	0.932100	0.294200
O741	O74	0.144300	0.875800	0.263300
O751	O75	0.093100	0.987500	0.191700
O761	O76	0.141600	0.973700	0.357000
O771	O77	0.075500	0.063100	0.309400
O781	O78	0.214700	0.994700	0.255700
O791	O79	0.069100	0.044300	0.449400
O801	O80	0.210600	0.044700	0.444200
O811	O81	0.134100	0.153900	0.398800
O821	O82	0.212900	0.099200	0.319200
O831	O83	0.266200	0.213700	0.381000
O841	O84	0.147900	0.282500	0.354700
O851	O85	0.223300	0.219200	0.256000
O861	O86	0.092600	0.180400	0.272900
O871	O87	0.234600	0.218000	0.127100
O881	O88	0.119800	0.277900	0.178000
O891	O89	0.106300	0.153400	0.129100
O901	O90	0.155700	0.032000	0.085900
O911	O91	0.016200	0.045500	0.097700
O921	O92	0.019300	0.099000	0.209700
O931	O93	0.189700	0.100900	0.201000
O941	O94	0.313200	0.075400	0.243100
O951	O95	0.973500	0.140400	0.311000
O961	O96	0.013700	0.309900	0.271100
