data_LOFZUB_freeONLY_PM
_symmetry_space_group_name_H-M	'P1'
_cell_length_a	18.773200
_cell_length_b	18.773200
_cell_length_c	9.453700
_cell_angle_alpha	90.000000
_cell_angle_beta	90.000000
_cell_angle_gamma	90.000000
_symmetry_Int_Tables_number 1

loop_
_symmetry_equiv_pos_as_xyz
'x,y,z'

loop_
_atom_site_label
_atom_site_type_symbol
_atom_site_fract_x
_atom_site_fract_y
_atom_site_fract_z
P11	P1	0.064130	0.557680	0.336300
O11	O1	0.057400	0.624300	0.246300
O21	O2	0.075400	0.580700	0.487800
O31	O3	0.127300	0.512800	0.290300
O41	O4	0.995000	0.516200	0.323900
Al11	Al1	0.064120	0.665680	0.080900
P21	P2	0.050210	0.333150	0.162200
O51	O5	0.015100	0.343300	0.018900
O61	O6	0.002600	0.364100	0.277500
O71	O7	0.122100	0.370800	0.159800
O81	O8	0.062400	0.255800	0.193200
Al21	Al2	0.164010	0.455770	0.157800
P31	P3	0.834200	0.433760	0.094200
O91	O9	0.844900	0.502100	0.012700
O101	O10	0.863000	0.370300	0.014600
O111	O11	0.870300	0.440100	0.236300
O121	O12	0.755600	0.420500	0.120700
Al31	Al3	0.949300	0.434810	0.335800
P41	P4	0.435870	0.942320	0.336300
O131	O13	0.442600	0.875700	0.246300
O141	O14	0.424600	0.919300	0.487800
O151	O15	0.372700	0.987200	0.290300
O161	O16	0.505000	0.983800	0.323900
Al41	Al4	0.435880	0.834320	0.080900
P51	P5	0.449790	0.166850	0.162200
O171	O17	0.484900	0.156700	0.018900
O181	O18	0.497400	0.135900	0.277500
O191	O19	0.377900	0.129200	0.159800
O201	O20	0.437600	0.244200	0.193200
Al51	Al5	0.335990	0.044230	0.157800
P61	P6	0.665800	0.066240	0.094200
O211	O21	0.655100	0.997900	0.012700
O221	O22	0.637000	0.129700	0.014600
O231	O23	0.629700	0.059900	0.236300
O241	O24	0.744400	0.079500	0.120700
Al61	Al6	0.550700	0.065190	0.335800
P71	P7	0.942320	0.064130	0.336300
O251	O25	0.875700	0.057400	0.246300
O261	O26	0.919300	0.075400	0.487800
O271	O27	0.987200	0.127300	0.290300
O281	O28	0.983800	0.995000	0.323900
Al71	Al7	0.834320	0.064120	0.080900
P81	P8	0.166850	0.050210	0.162200
O291	O29	0.156700	0.015100	0.018900
O301	O30	0.135900	0.002600	0.277500
O311	O31	0.129200	0.122100	0.159800
O321	O32	0.244200	0.062400	0.193200
Al81	Al8	0.044230	0.164010	0.157800
P91	P9	0.066240	0.834200	0.094200
O331	O33	0.997900	0.844900	0.012700
O341	O34	0.129700	0.863000	0.014600
O351	O35	0.059900	0.870300	0.236300
O361	O36	0.079500	0.755600	0.120700
Al91	Al9	0.065190	0.949300	0.335800
P101	P10	0.557680	0.435870	0.336300
O371	O37	0.624300	0.442600	0.246300
O381	O38	0.580700	0.424600	0.487800
O391	O39	0.512800	0.372700	0.290300
O401	O40	0.516200	0.505000	0.323900
Al101	Al10	0.665680	0.435880	0.080900
P111	P11	0.333150	0.449790	0.162200
O411	O41	0.343300	0.484900	0.018900
O421	O42	0.364100	0.497400	0.277500
O431	O43	0.370800	0.377900	0.159800
O441	O44	0.255800	0.437600	0.193200
Al111	Al11	0.455770	0.335990	0.157800
P121	P12	0.433760	0.665800	0.094200
O451	O45	0.502100	0.655100	0.012700
O461	O46	0.370300	0.637000	0.014600
O471	O47	0.440100	0.629700	0.236300
O481	O48	0.420500	0.744400	0.120700
Al121	Al12	0.434810	0.550700	0.335800
P131	P13	0.935870	0.442320	0.663700
O491	O49	0.942600	0.375700	0.753700
O501	O50	0.924600	0.419300	0.512200
O511	O51	0.872700	0.487200	0.709700
O521	O52	0.005000	0.483800	0.676100
Al131	Al13	0.935880	0.334320	0.919100
P141	P14	0.949790	0.666850	0.837800
O531	O53	0.984900	0.656700	0.981100
O541	O54	0.997400	0.635900	0.722500
O551	O55	0.877900	0.629200	0.840200
O561	O56	0.937600	0.744200	0.806800
Al141	Al14	0.835990	0.544230	0.842200
P151	P15	0.165800	0.566240	0.905800
O571	O57	0.155100	0.497900	0.987300
O581	O58	0.137000	0.629700	0.985400
O591	O59	0.129700	0.559900	0.763700
O601	O60	0.244400	0.579500	0.879300
Al151	Al15	0.050700	0.565190	0.664200
P161	P16	0.564130	0.057680	0.663700
O611	O61	0.557400	0.124300	0.753700
O621	O62	0.575400	0.080700	0.512200
O631	O63	0.627300	0.012800	0.709700
O641	O64	0.495000	0.016200	0.676100
Al161	Al16	0.564120	0.165680	0.919100
P171	P17	0.550210	0.833150	0.837800
O651	O65	0.515100	0.843300	0.981100
O661	O66	0.502600	0.864100	0.722500
O671	O67	0.622100	0.870800	0.840200
O681	O68	0.562400	0.755800	0.806800
Al171	Al17	0.664010	0.955770	0.842200
P181	P18	0.334200	0.933760	0.905800
O691	O69	0.344900	0.002100	0.987300
O701	O70	0.363000	0.870300	0.985400
O711	O71	0.370300	0.940100	0.763700
O721	O72	0.255600	0.920500	0.879300
Al181	Al18	0.449300	0.934810	0.664200
P191	P19	0.057680	0.935870	0.663700
O731	O73	0.124300	0.942600	0.753700
O741	O74	0.080700	0.924600	0.512200
O751	O75	0.012800	0.872700	0.709700
O761	O76	0.016200	0.005000	0.676100
Al191	Al19	0.165680	0.935880	0.919100
P201	P20	0.833150	0.949790	0.837800
O771	O77	0.843300	0.984900	0.981100
O781	O78	0.864100	0.997400	0.722500
O791	O79	0.870800	0.877900	0.840200
O801	O80	0.755800	0.937600	0.806800
Al201	Al20	0.955770	0.835990	0.842200
P211	P21	0.933760	0.165800	0.905800
O811	O81	0.002100	0.155100	0.987300
O821	O82	0.870300	0.137000	0.985400
O831	O83	0.940100	0.129700	0.763700
O841	O84	0.920500	0.244400	0.879300
Al211	Al21	0.934810	0.050700	0.664200
P221	P22	0.442320	0.564130	0.663700
O851	O85	0.375700	0.557400	0.753700
O861	O86	0.419300	0.575400	0.512200
O871	O87	0.487200	0.627300	0.709700
O881	O88	0.483800	0.495000	0.676100
Al221	Al22	0.334320	0.564120	0.919100
P231	P23	0.666850	0.550210	0.837800
O891	O89	0.656700	0.515100	0.981100
O901	O90	0.635900	0.502600	0.722500
O911	O91	0.629200	0.622100	0.840200
O921	O92	0.744200	0.562400	0.806800
Al231	Al23	0.544230	0.664010	0.842200
P241	P24	0.566240	0.334200	0.905800
O931	O93	0.497900	0.344900	0.987300
O941	O94	0.629700	0.363000	0.985400
O951	O95	0.559900	0.370300	0.763700
O961	O96	0.579500	0.255600	0.879300
Al241	Al24	0.565190	0.449300	0.664200
