data_LOKPEG_freeONLY_PM
_symmetry_space_group_name_H-M	'P1'
_cell_length_a	10.041000
_cell_length_b	9.220000
_cell_length_c	10.469000
_cell_angle_alpha	90.000000
_cell_angle_beta	91.600000
_cell_angle_gamma	90.000000
_symmetry_Int_Tables_number 1

loop_
_symmetry_equiv_pos_as_xyz
'x,y,z'

loop_
_atom_site_label
_atom_site_type_symbol
_atom_site_fract_x
_atom_site_fract_y
_atom_site_fract_z
Ga11	Ga1	0.371340	0.091840	0.838950
P11	P1	0.571900	0.833650	0.874200
O11	O1	0.686700	0.934300	0.841900
O21	O2	0.581000	0.685800	0.810400
O31	O3	0.440500	0.903400	0.831700
O41	O4	0.570700	0.801800	0.018200
Ga21	Ga2	0.871340	0.591840	0.338950
P21	P2	0.071900	0.333650	0.374200
O51	O5	0.186700	0.434300	0.341900
O61	O6	0.081000	0.185800	0.310400
O71	O7	0.940500	0.403400	0.331700
O81	O8	0.070700	0.301800	0.518200
Ga31	Ga3	0.128660	0.091840	0.161050
P31	P3	0.928100	0.833650	0.125800
O91	O9	0.813300	0.934300	0.158100
O101	O10	0.919000	0.685800	0.189600
O111	O11	0.059500	0.903400	0.168300
O121	O12	0.929300	0.801800	0.981800
Ga41	Ga4	0.628660	0.591840	0.661050
P41	P4	0.428100	0.333650	0.625800
O131	O13	0.313300	0.434300	0.658100
O141	O14	0.419000	0.185800	0.689600
O151	O15	0.559500	0.403400	0.668300
O161	O16	0.429300	0.301800	0.481800
Ga51	Ga5	0.628660	0.908160	0.161050
P51	P5	0.428100	0.166350	0.125800
O171	O17	0.313300	0.065700	0.158100
O181	O18	0.419000	0.314200	0.189600
O191	O19	0.559500	0.096600	0.168300
O201	O20	0.429300	0.198200	0.981800
Ga61	Ga6	0.128660	0.408160	0.661050
P61	P6	0.928100	0.666350	0.625800
O211	O21	0.813300	0.565700	0.658100
O221	O22	0.919000	0.814200	0.689600
O231	O23	0.059500	0.596600	0.668300
O241	O24	0.929300	0.698200	0.481800
Ga71	Ga7	0.871340	0.908160	0.838950
P71	P7	0.071900	0.166350	0.874200
O251	O25	0.186700	0.065700	0.841900
O261	O26	0.081000	0.314200	0.810400
O271	O27	0.940500	0.096600	0.831700
O281	O28	0.070700	0.198200	0.018200
Ga81	Ga8	0.371340	0.408160	0.338950
P81	P8	0.571900	0.666350	0.374200
O291	O29	0.686700	0.565700	0.341900
O301	O30	0.581000	0.814200	0.310400
O311	O31	0.440500	0.596600	0.331700
O321	O32	0.570700	0.698200	0.518200
