data_LOQLIN_SL_PM
_symmetry_space_group_name_H-M	'P1'
_cell_length_a	21.186900
_cell_length_b	21.186900
_cell_length_c	6.742300
_cell_angle_alpha	90.000000
_cell_angle_beta	90.000000
_cell_angle_gamma	59.966000
_symmetry_Int_Tables_number 1

loop_
_symmetry_equiv_pos_as_xyz
'x,y,z'

loop_
_atom_site_label
_atom_site_type_symbol
_atom_site_fract_x
_atom_site_fract_y
_atom_site_fract_z
H11	H1	0.321470	0.209070	0.944300
H21	H2	0.677520	0.028920	0.944300
H31	H3	0.792320	0.023800	0.944300
C41	C4	0.298330	0.232210	0.070180
C51	C5	0.701150	0.027870	0.070180
C61	C6	0.768680	0.024860	0.070180
O71	O7	0.431730	0.098810	0.089440
O81	O8	0.564880	0.033940	0.089440
O91	O9	0.904960	0.018780	0.089440
H101	H10	0.500000	0.906800	0.250000
H111	H11	0.678530	0.790930	0.444300
H121	H12	0.322480	0.971080	0.444300
H131	H13	0.207680	0.976200	0.444300
C141	C14	0.701670	0.767790	0.570180
C151	C15	0.298850	0.972130	0.570180
C161	C16	0.231320	0.975140	0.570180
O171	O17	0.568270	0.901190	0.589440
O181	O18	0.435120	0.966060	0.589440
O191	O19	0.095040	0.981220	0.589440
H201	H20	0.500000	0.093200	0.750000
H211	H21	0.209070	0.321470	0.555700
H221	H22	0.028920	0.677520	0.555700
H231	H23	0.023800	0.792320	0.555700
C241	C24	0.232210	0.298330	0.429820
C251	C25	0.027870	0.701150	0.429820
C261	C26	0.024860	0.768680	0.429820
O271	O27	0.098810	0.431730	0.410560
O281	O28	0.033940	0.564880	0.410560
O291	O29	0.018780	0.904960	0.410560
H301	H30	0.906800	0.500000	0.250000
H311	H31	0.790930	0.678530	0.055700
H321	H32	0.971080	0.322480	0.055700
H331	H33	0.976200	0.207680	0.055700
C341	C34	0.767790	0.701670	0.929820
C351	C35	0.972130	0.298850	0.929820
C361	C36	0.975140	0.231320	0.929820
O371	O37	0.901190	0.568270	0.910560
O381	O38	0.966060	0.435120	0.910560
O391	O39	0.981220	0.095040	0.910560
H401	H40	0.093200	0.500000	0.750000
H411	H41	0.678530	0.790930	0.055700
H421	H42	0.322480	0.971080	0.055700
H431	H43	0.207680	0.976200	0.055700
C441	C44	0.701670	0.767790	0.929820
C451	C45	0.298850	0.972130	0.929820
C461	C46	0.231320	0.975140	0.929820
O471	O47	0.568270	0.901190	0.910560
O481	O48	0.435120	0.966060	0.910560
O491	O49	0.095040	0.981220	0.910560
H511	H51	0.321470	0.209070	0.555700
H521	H52	0.677520	0.028920	0.555700
H531	H53	0.792320	0.023800	0.555700
C541	C54	0.298330	0.232210	0.429820
C551	C55	0.701150	0.027870	0.429820
C561	C56	0.768680	0.024860	0.429820
O571	O57	0.431730	0.098810	0.410560
O581	O58	0.564880	0.033940	0.410560
O591	O59	0.904960	0.018780	0.410560
H611	H61	0.790930	0.678530	0.444300
H621	H62	0.971080	0.322480	0.444300
H631	H63	0.976200	0.207680	0.444300
C641	C64	0.767790	0.701670	0.570180
C651	C65	0.972130	0.298850	0.570180
C661	C66	0.975140	0.231320	0.570180
O671	O67	0.901190	0.568270	0.589440
O681	O68	0.966060	0.435120	0.589440
O691	O69	0.981220	0.095040	0.589440
H711	H71	0.209070	0.321470	0.944300
H721	H72	0.028920	0.677520	0.944300
H731	H73	0.023800	0.792320	0.944300
C741	C74	0.232210	0.298330	0.070180
C751	C75	0.027870	0.701150	0.070180
C761	C76	0.024860	0.768680	0.070180
O771	O77	0.098810	0.431730	0.089440
O781	O78	0.033940	0.564880	0.089440
O791	O79	0.018780	0.904960	0.089440
Ga811	Ga81	0.500000	0.000000	0.000000
Ga821	Ga82	0.500000	0.000000	0.500000
Ga831	Ga83	0.000000	0.500000	0.500000
Ga841	Ga84	0.000000	0.500000	0.000000
Ga851	Ga85	0.000000	0.000000	0.000000
Ga861	Ga86	0.000000	0.000000	0.500000
C871	C87	0.402220	0.128320	0.250000
C881	C88	0.331380	0.199160	0.250000
C891	C89	0.595020	0.032600	0.250000
C901	C90	0.667390	0.029370	0.250000
C911	C91	0.802450	0.023350	0.250000
C921	C92	0.874810	0.020130	0.250000
O931	O93	0.500000	0.954000	0.250000
C941	C94	0.597780	0.871680	0.750000
C951	C95	0.668620	0.800840	0.750000
C961	C96	0.404980	0.967400	0.750000
C971	C97	0.332610	0.970630	0.750000
C981	C98	0.197550	0.976650	0.750000
C991	C99	0.125190	0.979870	0.750000
O1001	O100	0.500000	0.046000	0.750000
C1011	C101	0.128320	0.402220	0.250000
C1021	C102	0.199160	0.331380	0.250000
C1031	C103	0.032600	0.595020	0.250000
C1041	C104	0.029370	0.667390	0.250000
C1051	C105	0.023350	0.802450	0.250000
C1061	C106	0.020130	0.874810	0.250000
O1071	O107	0.954000	0.500000	0.250000
C1081	C108	0.871680	0.597780	0.750000
C1091	C109	0.800840	0.668620	0.750000
C1101	C110	0.967400	0.404980	0.750000
C1111	C111	0.970630	0.332610	0.750000
C1121	C112	0.976650	0.197550	0.750000
C1131	C113	0.979870	0.125190	0.750000
O1141	O114	0.046000	0.500000	0.750000
O1151	O115	0.025630	0.025630	0.250000
O1161	O116	0.974370	0.974370	0.750000
