data_LOQSUG_freeONLY_PM
_symmetry_space_group_name_H-M	'P1'
_cell_length_a	24.120500
_cell_length_b	24.120500
_cell_length_c	24.120500
_cell_angle_alpha	109.461000
_cell_angle_beta	109.461000
_cell_angle_gamma	109.461000
_symmetry_Int_Tables_number 1

loop_
_symmetry_equiv_pos_as_xyz
'x,y,z'

loop_
_atom_site_label
_atom_site_type_symbol
_atom_site_fract_x
_atom_site_fract_y
_atom_site_fract_z
Er11	Er1	0.401520	0.352070	0.852070
Er21	Er2	0.852070	0.401520	0.352070
Er31	Er3	0.352070	0.852070	0.401520
Er41	Er4	0.852070	0.901520	0.352070
Er51	Er5	0.901520	0.352070	0.852070
Er61	Er6	0.352070	0.852070	0.901520
Er71	Er7	0.302830	0.302830	0.302830
Er81	Er8	0.802830	0.802830	0.802830
H11	H1	0.349000	0.476800	0.027300
H21	H2	0.390000	0.715300	0.212200
H31	H3	0.668500	0.676100	0.308000
H41	H4	0.482500	0.526200	0.352900
H51	H5	0.464600	0.664800	0.192000
H61	H6	0.534500	0.667300	0.208700
H71	H7	0.377600	0.536400	0.153300
H81	H8	0.393200	0.535300	0.221600
H91	H9	0.513700	0.635600	0.330500
H101	H10	0.503700	0.689200	0.311500
H111	H11	0.546900	0.572800	0.235300
H121	H12	0.477300	0.520000	0.168100
H131	H13	0.523400	0.704000	0.133600
H141	H14	0.540700	0.730200	0.057400
H151	H15	0.516800	0.647000	0.956900
H161	H16	0.434900	0.545100	0.924100
H171	H17	0.291700	0.361600	0.934000
H181	H18	0.358100	0.372700	0.989400
H191	H19	0.356700	0.364500	0.086600
H201	H20	0.314200	0.374000	0.159800
H211	H21	0.205300	0.353900	0.120800
H221	H22	0.148700	0.347700	0.019200
H231	H23	0.209000	0.380000	0.969200
H241	H24	0.283600	0.500100	0.172900
H251	H25	0.179800	0.470500	0.165000
H261	H26	0.161200	0.553700	0.218900
H271	H27	0.233100	0.660100	0.249700
H281	H28	0.427800	0.845100	0.287600
H291	H29	0.472200	0.828800	0.337500
H301	H30	0.572000	0.833300	0.334900
H311	H31	0.638600	0.836600	0.286000
H321	H32	0.613300	0.853400	0.194600
H331	H33	0.514500	0.855400	0.146500
H341	H34	0.438600	0.829900	0.182200
H351	H35	0.574100	0.736500	0.426300
H361	H36	0.645700	0.839600	0.525500
H371	H37	0.746900	0.911100	0.539400
H381	H38	0.782100	0.870800	0.466800
H391	H39	0.772200	0.708700	0.283900
H401	H40	0.717900	0.717700	0.235000
H411	H41	0.622300	0.627000	0.140500
H421	H42	0.561600	0.514900	0.061600
H431	H43	0.576400	0.437400	0.091300
H441	H44	0.684600	0.478200	0.178700
H451	H45	0.740300	0.588500	0.262600
H461	H46	0.537200	0.466400	0.184600
H471	H47	0.535800	0.363900	0.153800
H481	H48	0.494500	0.305000	0.197600
H491	H49	0.449100	0.331100	0.258900
H501	H50	0.368300	0.483400	0.348500
H511	H51	0.424000	0.493700	0.414200
H521	H52	0.361800	0.578100	0.347600
H531	H53	0.403300	0.692100	0.388300
H541	H54	0.498200	0.767200	0.491600
H551	H55	0.545200	0.727100	0.558200
H561	H56	0.523400	0.617400	0.504000
H571	H57	0.027300	0.349000	0.476800
H581	H58	0.212200	0.390000	0.715300
H591	H59	0.308000	0.668500	0.676100
H601	H60	0.352900	0.482500	0.526200
H611	H61	0.192000	0.464600	0.664800
H621	H62	0.208700	0.534500	0.667300
H631	H63	0.153300	0.377600	0.536400
H641	H64	0.221600	0.393200	0.535300
H651	H65	0.330500	0.513700	0.635600
H661	H66	0.311500	0.503700	0.689200
H671	H67	0.235300	0.546900	0.572800
H681	H68	0.168100	0.477300	0.520000
H691	H69	0.133600	0.523400	0.704000
H701	H70	0.057400	0.540700	0.730200
H711	H71	0.956900	0.516800	0.647000
H721	H72	0.924100	0.434900	0.545100
H731	H73	0.934000	0.291700	0.361600
H741	H74	0.989400	0.358100	0.372700
H751	H75	0.086600	0.356700	0.364500
H761	H76	0.159800	0.314200	0.374000
H771	H77	0.120800	0.205300	0.353900
H781	H78	0.019200	0.148700	0.347700
H791	H79	0.969200	0.209000	0.380000
H801	H80	0.172900	0.283600	0.500100
H811	H81	0.165000	0.179800	0.470500
H821	H82	0.218900	0.161200	0.553700
H831	H83	0.249700	0.233100	0.660100
H841	H84	0.287600	0.427800	0.845100
H851	H85	0.337500	0.472200	0.828800
H861	H86	0.334900	0.572000	0.833300
H871	H87	0.286000	0.638600	0.836600
H881	H88	0.194600	0.613300	0.853400
H891	H89	0.146500	0.514500	0.855400
H901	H90	0.182200	0.438600	0.829900
H911	H91	0.426300	0.574100	0.736500
H921	H92	0.525500	0.645700	0.839600
H931	H93	0.539400	0.746900	0.911100
H941	H94	0.466800	0.782100	0.870800
H951	H95	0.283900	0.772200	0.708700
H961	H96	0.235000	0.717900	0.717700
H971	H97	0.140500	0.622300	0.627000
H981	H98	0.061600	0.561600	0.514900
H991	H99	0.091300	0.576400	0.437400
H1001	H100	0.178700	0.684600	0.478200
H1011	H101	0.262600	0.740300	0.588500
H1021	H102	0.184600	0.537200	0.466400
H1031	H103	0.153800	0.535800	0.363900
H1041	H104	0.197600	0.494500	0.305000
H1051	H105	0.258900	0.449100	0.331100
H1061	H106	0.348500	0.368300	0.483400
H1071	H107	0.414200	0.424000	0.493700
H1081	H108	0.347600	0.361800	0.578100
H1091	H109	0.388300	0.403300	0.692100
H1101	H110	0.491600	0.498200	0.767200
H1111	H111	0.558200	0.545200	0.727100
H1121	H112	0.504000	0.523400	0.617400
H1131	H113	0.476800	0.027300	0.349000
H1141	H114	0.715300	0.212200	0.390000
H1151	H115	0.676100	0.308000	0.668500
H1161	H116	0.526200	0.352900	0.482500
H1171	H117	0.664800	0.192000	0.464600
H1181	H118	0.667300	0.208700	0.534500
H1191	H119	0.536400	0.153300	0.377600
H1201	H120	0.535300	0.221600	0.393200
H1211	H121	0.635600	0.330500	0.513700
H1221	H122	0.689200	0.311500	0.503700
H1231	H123	0.572800	0.235300	0.546900
H1241	H124	0.520000	0.168100	0.477300
H1251	H125	0.704000	0.133600	0.523400
H1261	H126	0.730200	0.057400	0.540700
H1271	H127	0.647000	0.956900	0.516800
H1281	H128	0.545100	0.924100	0.434900
H1291	H129	0.361600	0.934000	0.291700
H1301	H130	0.372700	0.989400	0.358100
H1311	H131	0.364500	0.086600	0.356700
H1321	H132	0.374000	0.159800	0.314200
H1331	H133	0.353900	0.120800	0.205300
H1341	H134	0.347700	0.019200	0.148700
H1351	H135	0.380000	0.969200	0.209000
H1361	H136	0.500100	0.172900	0.283600
H1371	H137	0.470500	0.165000	0.179800
H1381	H138	0.553700	0.218900	0.161200
H1391	H139	0.660100	0.249700	0.233100
H1401	H140	0.845100	0.287600	0.427800
H1411	H141	0.828800	0.337500	0.472200
H1421	H142	0.833300	0.334900	0.572000
H1431	H143	0.836600	0.286000	0.638600
H1441	H144	0.853400	0.194600	0.613300
H1451	H145	0.855400	0.146500	0.514500
H1461	H146	0.829900	0.182200	0.438600
H1471	H147	0.736500	0.426300	0.574100
H1481	H148	0.839600	0.525500	0.645700
H1491	H149	0.911100	0.539400	0.746900
H1501	H150	0.870800	0.466800	0.782100
H1511	H151	0.708700	0.283900	0.772200
H1521	H152	0.717700	0.235000	0.717900
H1531	H153	0.627000	0.140500	0.622300
H1541	H154	0.514900	0.061600	0.561600
H1551	H155	0.437400	0.091300	0.576400
H1561	H156	0.478200	0.178700	0.684600
H1571	H157	0.588500	0.262600	0.740300
H1581	H158	0.466400	0.184600	0.537200
H1591	H159	0.363900	0.153800	0.535800
H1601	H160	0.305000	0.197600	0.494500
H1611	H161	0.331100	0.258900	0.449100
H1621	H162	0.483400	0.348500	0.368300
H1631	H163	0.493700	0.414200	0.424000
H1641	H164	0.578100	0.347600	0.361800
H1651	H165	0.692100	0.388300	0.403300
H1661	H166	0.767200	0.491600	0.498200
H1671	H167	0.727100	0.558200	0.545200
H1681	H168	0.617400	0.504000	0.523400
H1691	H169	0.976800	0.849000	0.527300
H1701	H170	0.215300	0.890000	0.712200
H1711	H171	0.176100	0.168500	0.808000
H1721	H172	0.026200	0.982500	0.852900
H1731	H173	0.164800	0.964600	0.692000
H1741	H174	0.167300	0.034500	0.708700
H1751	H175	0.036400	0.877600	0.653300
H1761	H176	0.035300	0.893200	0.721600
H1771	H177	0.135600	0.013700	0.830500
H1781	H178	0.189200	0.003700	0.811500
H1791	H179	0.072800	0.046900	0.735300
H1801	H180	0.020000	0.977300	0.668100
H1811	H181	0.204000	0.023400	0.633600
H1821	H182	0.230200	0.040700	0.557400
H1831	H183	0.147000	0.016800	0.456900
H1841	H184	0.045100	0.934900	0.424100
H1851	H185	0.861600	0.791700	0.434000
H1861	H186	0.872700	0.858100	0.489400
H1871	H187	0.864500	0.856700	0.586600
H1881	H188	0.874000	0.814200	0.659800
H1891	H189	0.853900	0.705300	0.620800
H1901	H190	0.847700	0.648700	0.519200
H1911	H191	0.880000	0.709000	0.469200
H1921	H192	0.000100	0.783600	0.672900
H1931	H193	0.970500	0.679800	0.665000
H1941	H194	0.053700	0.661200	0.718900
H1951	H195	0.160100	0.733100	0.749700
H1961	H196	0.345100	0.927800	0.787600
H1971	H197	0.328800	0.972200	0.837500
H1981	H198	0.333300	0.072000	0.834900
H1991	H199	0.336600	0.138600	0.786000
H2001	H200	0.353400	0.113300	0.694600
H2011	H201	0.355400	0.014500	0.646500
H2021	H202	0.329900	0.938600	0.682200
H2031	H203	0.236500	0.074100	0.926300
H2041	H204	0.339600	0.145700	0.025500
H2051	H205	0.411100	0.246900	0.039400
H2061	H206	0.370800	0.282100	0.966800
H2071	H207	0.208700	0.272200	0.783900
H2081	H208	0.217700	0.217900	0.735000
H2091	H209	0.127000	0.122300	0.640500
H2101	H210	0.014900	0.061600	0.561600
H2111	H211	0.937400	0.076400	0.591300
H2121	H212	0.978200	0.184600	0.678700
H2131	H213	0.088500	0.240300	0.762600
H2141	H214	0.966400	0.037200	0.684600
H2151	H215	0.863900	0.035800	0.653800
H2161	H216	0.805000	0.994500	0.697600
H2171	H217	0.831100	0.949100	0.758900
H2181	H218	0.983400	0.868300	0.848500
H2191	H219	0.993700	0.924000	0.914200
H2201	H220	0.078100	0.861800	0.847600
H2211	H221	0.192100	0.903300	0.888300
H2221	H222	0.267200	0.998200	0.991600
H2231	H223	0.227100	0.045200	0.058200
H2241	H224	0.117400	0.023400	0.004000
H2251	H225	0.849000	0.527300	0.976800
H2261	H226	0.890000	0.712200	0.215300
H2271	H227	0.168500	0.808000	0.176100
H2281	H228	0.982500	0.852900	0.026200
H2291	H229	0.964600	0.692000	0.164800
H2301	H230	0.034500	0.708700	0.167300
H2311	H231	0.877600	0.653300	0.036400
H2321	H232	0.893200	0.721600	0.035300
H2331	H233	0.013700	0.830500	0.135600
H2341	H234	0.003700	0.811500	0.189200
H2351	H235	0.046900	0.735300	0.072800
H2361	H236	0.977300	0.668100	0.020000
H2371	H237	0.023400	0.633600	0.204000
H2381	H238	0.040700	0.557400	0.230200
H2391	H239	0.016800	0.456900	0.147000
H2401	H240	0.934900	0.424100	0.045100
H2411	H241	0.791700	0.434000	0.861600
H2421	H242	0.858100	0.489400	0.872700
H2431	H243	0.856700	0.586600	0.864500
H2441	H244	0.814200	0.659800	0.874000
H2451	H245	0.705300	0.620800	0.853900
H2461	H246	0.648700	0.519200	0.847700
H2471	H247	0.709000	0.469200	0.880000
H2481	H248	0.783600	0.672900	0.000100
H2491	H249	0.679800	0.665000	0.970500
H2501	H250	0.661200	0.718900	0.053700
H2511	H251	0.733100	0.749700	0.160100
H2521	H252	0.927800	0.787600	0.345100
H2531	H253	0.972200	0.837500	0.328800
H2541	H254	0.072000	0.834900	0.333300
H2551	H255	0.138600	0.786000	0.336600
H2561	H256	0.113300	0.694600	0.353400
H2571	H257	0.014500	0.646500	0.355400
H2581	H258	0.938600	0.682200	0.329900
H2591	H259	0.074100	0.926300	0.236500
H2601	H260	0.145700	0.025500	0.339600
H2611	H261	0.246900	0.039400	0.411100
H2621	H262	0.282100	0.966800	0.370800
H2631	H263	0.272200	0.783900	0.208700
H2641	H264	0.217900	0.735000	0.217700
H2651	H265	0.122300	0.640500	0.127000
H2661	H266	0.061600	0.561600	0.014900
H2671	H267	0.076400	0.591300	0.937400
H2681	H268	0.184600	0.678700	0.978200
H2691	H269	0.240300	0.762600	0.088500
H2701	H270	0.037200	0.684600	0.966400
H2711	H271	0.035800	0.653800	0.863900
H2721	H272	0.994500	0.697600	0.805000
H2731	H273	0.949100	0.758900	0.831100
H2741	H274	0.868300	0.848500	0.983400
H2751	H275	0.924000	0.914200	0.993700
H2761	H276	0.861800	0.847600	0.078100
H2771	H277	0.903300	0.888300	0.192100
H2781	H278	0.998200	0.991600	0.267200
H2791	H279	0.045200	0.058200	0.227100
H2801	H280	0.023400	0.004000	0.117400
H2811	H281	0.527300	0.976800	0.849000
H2821	H282	0.712200	0.215300	0.890000
H2831	H283	0.808000	0.176100	0.168500
H2841	H284	0.852900	0.026200	0.982500
H2851	H285	0.692000	0.164800	0.964600
H2861	H286	0.708700	0.167300	0.034500
H2871	H287	0.653300	0.036400	0.877600
H2881	H288	0.721600	0.035300	0.893200
H2891	H289	0.830500	0.135600	0.013700
H2901	H290	0.811500	0.189200	0.003700
H2911	H291	0.735300	0.072800	0.046900
H2921	H292	0.668100	0.020000	0.977300
H2931	H293	0.633600	0.204000	0.023400
H2941	H294	0.557400	0.230200	0.040700
H2951	H295	0.456900	0.147000	0.016800
H2961	H296	0.424100	0.045100	0.934900
H2971	H297	0.434000	0.861600	0.791700
H2981	H298	0.489400	0.872700	0.858100
H2991	H299	0.586600	0.864500	0.856700
H3001	H300	0.659800	0.874000	0.814200
H3011	H301	0.620800	0.853900	0.705300
H3021	H302	0.519200	0.847700	0.648700
H3031	H303	0.469200	0.880000	0.709000
H3041	H304	0.672900	0.000100	0.783600
H3051	H305	0.665000	0.970500	0.679800
H3061	H306	0.718900	0.053700	0.661200
H3071	H307	0.749700	0.160100	0.733100
H3081	H308	0.787600	0.345100	0.927800
H3091	H309	0.837500	0.328800	0.972200
H3101	H310	0.834900	0.333300	0.072000
H3111	H311	0.786000	0.336600	0.138600
H3121	H312	0.694600	0.353400	0.113300
H3131	H313	0.646500	0.355400	0.014500
H3141	H314	0.682200	0.329900	0.938600
H3151	H315	0.926300	0.236500	0.074100
H3161	H316	0.025500	0.339600	0.145700
H3171	H317	0.039400	0.411100	0.246900
H3181	H318	0.966800	0.370800	0.282100
H3191	H319	0.783900	0.208700	0.272200
H3201	H320	0.735000	0.217700	0.217900
H3211	H321	0.640500	0.127000	0.122300
H3221	H322	0.561600	0.014900	0.061600
H3231	H323	0.591300	0.937400	0.076400
H3241	H324	0.678700	0.978200	0.184600
H3251	H325	0.762600	0.088500	0.240300
H3261	H326	0.684600	0.966400	0.037200
H3271	H327	0.653800	0.863900	0.035800
H3281	H328	0.697600	0.805000	0.994500
H3291	H329	0.758900	0.831100	0.949100
H3301	H330	0.848500	0.983400	0.868300
H3311	H331	0.914200	0.993700	0.924000
H3321	H332	0.847600	0.078100	0.861800
H3331	H333	0.888300	0.192100	0.903300
H3341	H334	0.991600	0.267200	0.998200
H3351	H335	0.058200	0.227100	0.045200
H3361	H336	0.004000	0.117400	0.023400
C11	C1	0.476000	0.601600	0.227300
C21	C2	0.486500	0.637400	0.189400
C31	C3	0.402800	0.564200	0.202300
C41	C4	0.519300	0.656600	0.303300
C51	C5	0.498200	0.550000	0.216500
C61	C6	0.395500	0.477300	0.977000
C71	C7	0.445800	0.550700	0.008700
C81	C8	0.472100	0.604300	0.071000
C91	C9	0.507500	0.670000	0.090200
C101	C10	0.519200	0.684800	0.045700
C111	C11	0.501500	0.637800	0.985300
C121	C12	0.459700	0.576600	0.970400
C131	C13	0.325500	0.388200	0.981900
C141	C14	0.290900	0.378800	0.024100
C151	C15	0.318700	0.369800	0.077600
C161	C16	0.290100	0.368500	0.117400
C171	C17	0.226500	0.359400	0.095600
C181	C18	0.193900	0.358400	0.037100
C191	C19	0.228300	0.373200	0.005000
C201	C20	0.356800	0.732800	0.278000
C211	C21	0.308700	0.650700	0.247400
C221	C22	0.319300	0.599100	0.221200
C231	C23	0.273400	0.533500	0.191100
C241	C24	0.212800	0.516000	0.187300
C251	C25	0.200100	0.563700	0.215300
C261	C26	0.246500	0.627900	0.238500
C271	C27	0.447700	0.816500	0.290300
C281	C28	0.495300	0.824000	0.260100
C291	C29	0.557600	0.832000	0.293300
C301	C30	0.599200	0.838400	0.266600
C311	C31	0.583800	0.847100	0.211800
C321	C32	0.524300	0.846500	0.182200
C331	C33	0.480300	0.833200	0.204700
C341	C34	0.728700	0.773800	0.351700
C351	C35	0.693900	0.787800	0.394400
C361	C36	0.630300	0.749600	0.383100
C371	C37	0.614800	0.766500	0.432700
C381	C38	0.657700	0.826900	0.492300
C391	C39	0.718400	0.867700	0.501500
C401	C40	0.737500	0.845600	0.455900
C411	C41	0.724300	0.693900	0.259900
C421	C42	0.683700	0.618700	0.212500
C431	C43	0.632400	0.596400	0.150800
C441	C44	0.595800	0.529700	0.104400
C451	C45	0.607900	0.483500	0.118400
C461	C46	0.668000	0.507000	0.174000
C471	C47	0.702600	0.573200	0.222000
C481	C48	0.434500	0.436500	0.311200
C491	C49	0.458400	0.415200	0.258500
C501	C50	0.482800	0.448800	0.229300
C511	C51	0.516000	0.436000	0.196300
C521	C52	0.517900	0.378400	0.180600
C531	C53	0.492700	0.344600	0.206300
C541	C54	0.464800	0.359800	0.243000
C551	C55	0.416700	0.507600	0.380300
C561	C56	0.444800	0.588100	0.416000
C571	C57	0.404200	0.609500	0.386000
C581	C58	0.426400	0.676400	0.412700
C591	C59	0.481600	0.720800	0.474500
C601	C60	0.513600	0.698200	0.512200
C611	C61	0.498000	0.632400	0.481100
C621	C62	0.227300	0.476000	0.601600
C631	C63	0.189400	0.486500	0.637400
C641	C64	0.202300	0.402800	0.564200
C651	C65	0.303300	0.519300	0.656600
C661	C66	0.216500	0.498200	0.550000
C671	C67	0.977000	0.395500	0.477300
C681	C68	0.008700	0.445800	0.550700
C691	C69	0.071000	0.472100	0.604300
C701	C70	0.090200	0.507500	0.670000
C711	C71	0.045700	0.519200	0.684800
C721	C72	0.985300	0.501500	0.637800
C731	C73	0.970400	0.459700	0.576600
C741	C74	0.981900	0.325500	0.388200
C751	C75	0.024100	0.290900	0.378800
C761	C76	0.077600	0.318700	0.369800
C771	C77	0.117400	0.290100	0.368500
C781	C78	0.095600	0.226500	0.359400
C791	C79	0.037100	0.193900	0.358400
C801	C80	0.005000	0.228300	0.373200
C811	C81	0.278000	0.356800	0.732800
C821	C82	0.247400	0.308700	0.650700
C831	C83	0.221200	0.319300	0.599100
C841	C84	0.191100	0.273400	0.533500
C851	C85	0.187300	0.212800	0.516000
C861	C86	0.215300	0.200100	0.563700
C871	C87	0.238500	0.246500	0.627900
C881	C88	0.290300	0.447700	0.816500
C891	C89	0.260100	0.495300	0.824000
C901	C90	0.293300	0.557600	0.832000
C911	C91	0.266600	0.599200	0.838400
C921	C92	0.211800	0.583800	0.847100
C931	C93	0.182200	0.524300	0.846500
C941	C94	0.204700	0.480300	0.833200
C951	C95	0.351700	0.728700	0.773800
C961	C96	0.394400	0.693900	0.787800
C971	C97	0.383100	0.630300	0.749600
C981	C98	0.432700	0.614800	0.766500
C991	C99	0.492300	0.657700	0.826900
C1001	C100	0.501500	0.718400	0.867700
C1011	C101	0.455900	0.737500	0.845600
C1021	C102	0.259900	0.724300	0.693900
C1031	C103	0.212500	0.683700	0.618700
C1041	C104	0.150800	0.632400	0.596400
C1051	C105	0.104400	0.595800	0.529700
C1061	C106	0.118400	0.607900	0.483500
C1071	C107	0.174000	0.668000	0.507000
C1081	C108	0.222000	0.702600	0.573200
C1091	C109	0.311200	0.434500	0.436500
C1101	C110	0.258500	0.458400	0.415200
C1111	C111	0.229300	0.482800	0.448800
C1121	C112	0.196300	0.516000	0.436000
C1131	C113	0.180600	0.517900	0.378400
C1141	C114	0.206300	0.492700	0.344600
C1151	C115	0.243000	0.464800	0.359800
C1161	C116	0.380300	0.416700	0.507600
C1171	C117	0.416000	0.444800	0.588100
C1181	C118	0.386000	0.404200	0.609500
C1191	C119	0.412700	0.426400	0.676400
C1201	C120	0.474500	0.481600	0.720800
C1211	C121	0.512200	0.513600	0.698200
C1221	C122	0.481100	0.498000	0.632400
C1231	C123	0.601600	0.227300	0.476000
C1241	C124	0.637400	0.189400	0.486500
C1251	C125	0.564200	0.202300	0.402800
C1261	C126	0.656600	0.303300	0.519300
C1271	C127	0.550000	0.216500	0.498200
C1281	C128	0.477300	0.977000	0.395500
C1291	C129	0.550700	0.008700	0.445800
C1301	C130	0.604300	0.071000	0.472100
C1311	C131	0.670000	0.090200	0.507500
C1321	C132	0.684800	0.045700	0.519200
C1331	C133	0.637800	0.985300	0.501500
C1341	C134	0.576600	0.970400	0.459700
C1351	C135	0.388200	0.981900	0.325500
C1361	C136	0.378800	0.024100	0.290900
C1371	C137	0.369800	0.077600	0.318700
C1381	C138	0.368500	0.117400	0.290100
C1391	C139	0.359400	0.095600	0.226500
C1401	C140	0.358400	0.037100	0.193900
C1411	C141	0.373200	0.005000	0.228300
C1421	C142	0.732800	0.278000	0.356800
C1431	C143	0.650700	0.247400	0.308700
C1441	C144	0.599100	0.221200	0.319300
C1451	C145	0.533500	0.191100	0.273400
C1461	C146	0.516000	0.187300	0.212800
C1471	C147	0.563700	0.215300	0.200100
C1481	C148	0.627900	0.238500	0.246500
C1491	C149	0.816500	0.290300	0.447700
C1501	C150	0.824000	0.260100	0.495300
C1511	C151	0.832000	0.293300	0.557600
C1521	C152	0.838400	0.266600	0.599200
C1531	C153	0.847100	0.211800	0.583800
C1541	C154	0.846500	0.182200	0.524300
C1551	C155	0.833200	0.204700	0.480300
C1561	C156	0.773800	0.351700	0.728700
C1571	C157	0.787800	0.394400	0.693900
C1581	C158	0.749600	0.383100	0.630300
C1591	C159	0.766500	0.432700	0.614800
C1601	C160	0.826900	0.492300	0.657700
C1611	C161	0.867700	0.501500	0.718400
C1621	C162	0.845600	0.455900	0.737500
C1631	C163	0.693900	0.259900	0.724300
C1641	C164	0.618700	0.212500	0.683700
C1651	C165	0.596400	0.150800	0.632400
C1661	C166	0.529700	0.104400	0.595800
C1671	C167	0.483500	0.118400	0.607900
C1681	C168	0.507000	0.174000	0.668000
C1691	C169	0.573200	0.222000	0.702600
C1701	C170	0.436500	0.311200	0.434500
C1711	C171	0.415200	0.258500	0.458400
C1721	C172	0.448800	0.229300	0.482800
C1731	C173	0.436000	0.196300	0.516000
C1741	C174	0.378400	0.180600	0.517900
C1751	C175	0.344600	0.206300	0.492700
C1761	C176	0.359800	0.243000	0.464800
C1771	C177	0.507600	0.380300	0.416700
C1781	C178	0.588100	0.416000	0.444800
C1791	C179	0.609500	0.386000	0.404200
C1801	C180	0.676400	0.412700	0.426400
C1811	C181	0.720800	0.474500	0.481600
C1821	C182	0.698200	0.512200	0.513600
C1831	C183	0.632400	0.481100	0.498000
C1841	C184	0.101600	0.976000	0.727300
C1851	C185	0.137400	0.986500	0.689400
C1861	C186	0.064200	0.902800	0.702300
C1871	C187	0.156600	0.019300	0.803300
C1881	C188	0.050000	0.998200	0.716500
C1891	C189	0.977300	0.895500	0.477000
C1901	C190	0.050700	0.945800	0.508700
C1911	C191	0.104300	0.972100	0.571000
C1921	C192	0.170000	0.007500	0.590200
C1931	C193	0.184800	0.019200	0.545700
C1941	C194	0.137800	0.001500	0.485300
C1951	C195	0.076600	0.959700	0.470400
C1961	C196	0.888200	0.825500	0.481900
C1971	C197	0.878800	0.790900	0.524100
C1981	C198	0.869800	0.818700	0.577600
C1991	C199	0.868500	0.790100	0.617400
C2001	C200	0.859400	0.726500	0.595600
C2011	C201	0.858400	0.693900	0.537100
C2021	C202	0.873200	0.728300	0.505000
C2031	C203	0.232800	0.856800	0.778000
C2041	C204	0.150700	0.808700	0.747400
C2051	C205	0.099100	0.819300	0.721200
C2061	C206	0.033500	0.773400	0.691100
C2071	C207	0.016000	0.712800	0.687300
C2081	C208	0.063700	0.700100	0.715300
C2091	C209	0.127900	0.746500	0.738500
C2101	C210	0.316500	0.947700	0.790300
C2111	C211	0.324000	0.995300	0.760100
C2121	C212	0.332000	0.057600	0.793300
C2131	C213	0.338400	0.099200	0.766600
C2141	C214	0.347100	0.083800	0.711800
C2151	C215	0.346500	0.024300	0.682200
C2161	C216	0.333200	0.980300	0.704700
C2171	C217	0.273800	0.228700	0.851700
C2181	C218	0.287800	0.193900	0.894400
C2191	C219	0.249600	0.130300	0.883100
C2201	C220	0.266500	0.114800	0.932700
C2211	C221	0.326900	0.157700	0.992300
C2221	C222	0.367700	0.218400	0.001500
C2231	C223	0.345600	0.237500	0.955900
C2241	C224	0.193900	0.224300	0.759900
C2251	C225	0.118700	0.183700	0.712500
C2261	C226	0.096400	0.132400	0.650800
C2271	C227	0.029700	0.095800	0.604400
C2281	C228	0.983500	0.107900	0.618400
C2291	C229	0.007000	0.168000	0.674000
C2301	C230	0.073200	0.202600	0.722000
C2311	C231	0.936500	0.934500	0.811200
C2321	C232	0.915200	0.958400	0.758500
C2331	C233	0.948800	0.982800	0.729300
C2341	C234	0.936000	0.016000	0.696300
C2351	C235	0.878400	0.017900	0.680600
C2361	C236	0.844600	0.992700	0.706300
C2371	C237	0.859800	0.964800	0.743000
C2381	C238	0.007600	0.916700	0.880300
C2391	C239	0.088100	0.944800	0.916000
C2401	C240	0.109500	0.904200	0.886000
C2411	C241	0.176400	0.926400	0.912700
C2421	C242	0.220800	0.981600	0.974500
C2431	C243	0.198200	0.013600	0.012200
C2441	C244	0.132400	0.998000	0.981100
C2451	C245	0.976000	0.727300	0.101600
C2461	C246	0.986500	0.689400	0.137400
C2471	C247	0.902800	0.702300	0.064200
C2481	C248	0.019300	0.803300	0.156600
C2491	C249	0.998200	0.716500	0.050000
C2501	C250	0.895500	0.477000	0.977300
C2511	C251	0.945800	0.508700	0.050700
C2521	C252	0.972100	0.571000	0.104300
C2531	C253	0.007500	0.590200	0.170000
C2541	C254	0.019200	0.545700	0.184800
C2551	C255	0.001500	0.485300	0.137800
C2561	C256	0.959700	0.470400	0.076600
C2571	C257	0.825500	0.481900	0.888200
C2581	C258	0.790900	0.524100	0.878800
C2591	C259	0.818700	0.577600	0.869800
C2601	C260	0.790100	0.617400	0.868500
C2611	C261	0.726500	0.595600	0.859400
C2621	C262	0.693900	0.537100	0.858400
C2631	C263	0.728300	0.505000	0.873200
C2641	C264	0.856800	0.778000	0.232800
C2651	C265	0.808700	0.747400	0.150700
C2661	C266	0.819300	0.721200	0.099100
C2671	C267	0.773400	0.691100	0.033500
C2681	C268	0.712800	0.687300	0.016000
C2691	C269	0.700100	0.715300	0.063700
C2701	C270	0.746500	0.738500	0.127900
C2711	C271	0.947700	0.790300	0.316500
C2721	C272	0.995300	0.760100	0.324000
C2731	C273	0.057600	0.793300	0.332000
C2741	C274	0.099200	0.766600	0.338400
C2751	C275	0.083800	0.711800	0.347100
C2761	C276	0.024300	0.682200	0.346500
C2771	C277	0.980300	0.704700	0.333200
C2781	C278	0.228700	0.851700	0.273800
C2791	C279	0.193900	0.894400	0.287800
C2801	C280	0.130300	0.883100	0.249600
C2811	C281	0.114800	0.932700	0.266500
C2821	C282	0.157700	0.992300	0.326900
C2831	C283	0.218400	0.001500	0.367700
C2841	C284	0.237500	0.955900	0.345600
C2851	C285	0.224300	0.759900	0.193900
C2861	C286	0.183700	0.712500	0.118700
C2871	C287	0.132400	0.650800	0.096400
C2881	C288	0.095800	0.604400	0.029700
C2891	C289	0.107900	0.618400	0.983500
C2901	C290	0.168000	0.674000	0.007000
C2911	C291	0.202600	0.722000	0.073200
C2921	C292	0.934500	0.811200	0.936500
C2931	C293	0.958400	0.758500	0.915200
C2941	C294	0.982800	0.729300	0.948800
C2951	C295	0.016000	0.696300	0.936000
C2961	C296	0.017900	0.680600	0.878400
C2971	C297	0.992700	0.706300	0.844600
C2981	C298	0.964800	0.743000	0.859800
C2991	C299	0.916700	0.880300	0.007600
C3001	C300	0.944800	0.916000	0.088100
C3011	C301	0.904200	0.886000	0.109500
C3021	C302	0.926400	0.912700	0.176400
C3031	C303	0.981600	0.974500	0.220800
C3041	C304	0.013600	0.012200	0.198200
C3051	C305	0.998000	0.981100	0.132400
C3061	C306	0.727300	0.101600	0.976000
C3071	C307	0.689400	0.137400	0.986500
C3081	C308	0.702300	0.064200	0.902800
C3091	C309	0.803300	0.156600	0.019300
C3101	C310	0.716500	0.050000	0.998200
C3111	C311	0.477000	0.977300	0.895500
C3121	C312	0.508700	0.050700	0.945800
C3131	C313	0.571000	0.104300	0.972100
C3141	C314	0.590200	0.170000	0.007500
C3151	C315	0.545700	0.184800	0.019200
C3161	C316	0.485300	0.137800	0.001500
C3171	C317	0.470400	0.076600	0.959700
C3181	C318	0.481900	0.888200	0.825500
C3191	C319	0.524100	0.878800	0.790900
C3201	C320	0.577600	0.869800	0.818700
C3211	C321	0.617400	0.868500	0.790100
C3221	C322	0.595600	0.859400	0.726500
C3231	C323	0.537100	0.858400	0.693900
C3241	C324	0.505000	0.873200	0.728300
C3251	C325	0.778000	0.232800	0.856800
C3261	C326	0.747400	0.150700	0.808700
C3271	C327	0.721200	0.099100	0.819300
C3281	C328	0.691100	0.033500	0.773400
C3291	C329	0.687300	0.016000	0.712800
C3301	C330	0.715300	0.063700	0.700100
C3311	C331	0.738500	0.127900	0.746500
C3321	C332	0.790300	0.316500	0.947700
C3331	C333	0.760100	0.324000	0.995300
C3341	C334	0.793300	0.332000	0.057600
C3351	C335	0.766600	0.338400	0.099200
C3361	C336	0.711800	0.347100	0.083800
C3371	C337	0.682200	0.346500	0.024300
C3381	C338	0.704700	0.333200	0.980300
C3391	C339	0.851700	0.273800	0.228700
C3401	C340	0.894400	0.287800	0.193900
C3411	C341	0.883100	0.249600	0.130300
C3421	C342	0.932700	0.266500	0.114800
C3431	C343	0.992300	0.326900	0.157700
C3441	C344	0.001500	0.367700	0.218400
C3451	C345	0.955900	0.345600	0.237500
C3461	C346	0.759900	0.193900	0.224300
C3471	C347	0.712500	0.118700	0.183700
C3481	C348	0.650800	0.096400	0.132400
C3491	C349	0.604400	0.029700	0.095800
C3501	C350	0.618400	0.983500	0.107900
C3511	C351	0.674000	0.007000	0.168000
C3521	C352	0.722000	0.073200	0.202600
C3531	C353	0.811200	0.936500	0.934500
C3541	C354	0.758500	0.915200	0.958400
C3551	C355	0.729300	0.948800	0.982800
C3561	C356	0.696300	0.936000	0.016000
C3571	C357	0.680600	0.878400	0.017900
C3581	C358	0.706300	0.844600	0.992700
C3591	C359	0.743000	0.859800	0.964800
C3601	C360	0.880300	0.007600	0.916700
C3611	C361	0.916000	0.088100	0.944800
C3621	C362	0.886000	0.109500	0.904200
C3631	C363	0.912700	0.176400	0.926400
C3641	C364	0.974500	0.220800	0.981600
C3651	C365	0.012200	0.198200	0.013600
C3661	C366	0.981100	0.132400	0.998000
N11	N1	0.355000	0.449800	0.999100
N21	N2	0.395400	0.744600	0.248600
N31	N3	0.699000	0.707400	0.308000
N41	N4	0.449100	0.493000	0.347500
N51	N5	0.508600	0.466300	0.873100
N61	N6	0.392700	0.262400	0.736300
N71	N7	0.482700	0.327800	0.943900
N81	N8	0.194900	0.310500	0.221400
N91	N9	0.999100	0.355000	0.449800
N101	N10	0.248600	0.395400	0.744600
N111	N11	0.308000	0.699000	0.707400
N121	N12	0.347500	0.449100	0.493000
N131	N13	0.873100	0.508600	0.466300
N141	N14	0.736300	0.392700	0.262400
N151	N15	0.943900	0.482700	0.327800
N161	N16	0.221400	0.194900	0.310500
N171	N17	0.449800	0.999100	0.355000
N181	N18	0.744600	0.248600	0.395400
N191	N19	0.707400	0.308000	0.699000
N201	N20	0.493000	0.347500	0.449100
N211	N21	0.466300	0.873100	0.508600
N221	N22	0.262400	0.736300	0.392700
N231	N23	0.327800	0.943900	0.482700
N241	N24	0.310500	0.221400	0.194900
N251	N25	0.949800	0.855000	0.499100
N261	N26	0.244600	0.895400	0.748600
N271	N27	0.207400	0.199000	0.808000
N281	N28	0.993000	0.949100	0.847500
N291	N29	0.966300	0.008600	0.373100
N301	N30	0.762400	0.892700	0.236300
N311	N31	0.827800	0.982700	0.443900
N321	N32	0.810500	0.694900	0.721400
N331	N33	0.855000	0.499100	0.949800
N341	N34	0.895400	0.748600	0.244600
N351	N35	0.199000	0.808000	0.207400
N361	N36	0.949100	0.847500	0.993000
N371	N37	0.008600	0.373100	0.966300
N381	N38	0.892700	0.236300	0.762400
N391	N39	0.982700	0.443900	0.827800
N401	N40	0.694900	0.721400	0.810500
N411	N41	0.499100	0.949800	0.855000
N421	N42	0.748600	0.244600	0.895400
N431	N43	0.808000	0.207400	0.199000
N441	N44	0.847500	0.993000	0.949100
N451	N45	0.373100	0.966300	0.008600
N461	N46	0.236300	0.762400	0.892700
N471	N47	0.443900	0.827800	0.982700
N481	N48	0.721400	0.810500	0.694900
O11	O1	0.455300	0.583600	0.113900
O21	O2	0.383600	0.619900	0.225800
O31	O3	0.589200	0.690800	0.322800
O41	O4	0.480400	0.511700	0.246800
O51	O5	0.395200	0.432500	0.930000
O61	O6	0.348200	0.772700	0.314200
O71	O7	0.777800	0.818800	0.356300
O81	O8	0.390300	0.385100	0.307200
O91	O9	0.519700	0.439600	0.909400
O101	O10	0.447400	0.450200	0.837300
O111	O11	0.554400	0.519900	0.886200
O121	O12	0.352500	0.240900	0.755400
O131	O13	0.437700	0.324800	0.770200
O141	O14	0.393200	0.222300	0.687400
O151	O15	0.461900	0.295700	0.881300
O161	O16	0.460600	0.366400	0.964300
O171	O17	0.522500	0.319800	0.984700
O181	O18	0.255200	0.352700	0.242500
O191	O19	0.185000	0.267700	0.241100
O201	O20	0.148500	0.321500	0.194400
O211	O21	0.113900	0.455300	0.583600
O221	O22	0.225800	0.383600	0.619900
O231	O23	0.322800	0.589200	0.690800
O241	O24	0.246800	0.480400	0.511700
O251	O25	0.930000	0.395200	0.432500
O261	O26	0.314200	0.348200	0.772700
O271	O27	0.356300	0.777800	0.818800
O281	O28	0.307200	0.390300	0.385100
O291	O29	0.909400	0.519700	0.439600
O301	O30	0.837300	0.447400	0.450200
O311	O31	0.886200	0.554400	0.519900
O321	O32	0.755400	0.352500	0.240900
O331	O33	0.770200	0.437700	0.324800
O341	O34	0.687400	0.393200	0.222300
O351	O35	0.881300	0.461900	0.295700
O361	O36	0.964300	0.460600	0.366400
O371	O37	0.984700	0.522500	0.319800
O381	O38	0.242500	0.255200	0.352700
O391	O39	0.241100	0.185000	0.267700
O401	O40	0.194400	0.148500	0.321500
O411	O41	0.583600	0.113900	0.455300
O421	O42	0.619900	0.225800	0.383600
O431	O43	0.690800	0.322800	0.589200
O441	O44	0.511700	0.246800	0.480400
O451	O45	0.432500	0.930000	0.395200
O461	O46	0.772700	0.314200	0.348200
O471	O47	0.818800	0.356300	0.777800
O481	O48	0.385100	0.307200	0.390300
O491	O49	0.439600	0.909400	0.519700
O501	O50	0.450200	0.837300	0.447400
O511	O51	0.519900	0.886200	0.554400
O521	O52	0.240900	0.755400	0.352500
O531	O53	0.324800	0.770200	0.437700
O541	O54	0.222300	0.687400	0.393200
O551	O55	0.295700	0.881300	0.461900
O561	O56	0.366400	0.964300	0.460600
O571	O57	0.319800	0.984700	0.522500
O581	O58	0.352700	0.242500	0.255200
O591	O59	0.267700	0.241100	0.185000
O601	O60	0.321500	0.194400	0.148500
O611	O61	0.083600	0.955300	0.613900
O621	O62	0.119900	0.883600	0.725800
O631	O63	0.190800	0.089200	0.822800
O641	O64	0.011700	0.980400	0.746800
O651	O65	0.932500	0.895200	0.430000
O661	O66	0.272700	0.848200	0.814200
O671	O67	0.318800	0.277800	0.856300
O681	O68	0.885100	0.890300	0.807200
O691	O69	0.939600	0.019700	0.409400
O701	O70	0.950200	0.947400	0.337300
O711	O71	0.019900	0.054400	0.386200
O721	O72	0.740900	0.852500	0.255400
O731	O73	0.824800	0.937700	0.270200
O741	O74	0.722300	0.893200	0.187400
O751	O75	0.795700	0.961900	0.381300
O761	O76	0.866400	0.960600	0.464300
O771	O77	0.819800	0.022500	0.484700
O781	O78	0.852700	0.755200	0.742500
O791	O79	0.767700	0.685000	0.741100
O801	O80	0.821500	0.648500	0.694400
O811	O81	0.955300	0.613900	0.083600
O821	O82	0.883600	0.725800	0.119900
O831	O83	0.089200	0.822800	0.190800
O841	O84	0.980400	0.746800	0.011700
O851	O85	0.895200	0.430000	0.932500
O861	O86	0.848200	0.814200	0.272700
O871	O87	0.277800	0.856300	0.318800
O881	O88	0.890300	0.807200	0.885100
O891	O89	0.019700	0.409400	0.939600
O901	O90	0.947400	0.337300	0.950200
O911	O91	0.054400	0.386200	0.019900
O921	O92	0.852500	0.255400	0.740900
O931	O93	0.937700	0.270200	0.824800
O941	O94	0.893200	0.187400	0.722300
O951	O95	0.961900	0.381300	0.795700
O961	O96	0.960600	0.464300	0.866400
O971	O97	0.022500	0.484700	0.819800
O981	O98	0.755200	0.742500	0.852700
O991	O99	0.685000	0.741100	0.767700
O1001	O100	0.648500	0.694400	0.821500
O1011	O101	0.613900	0.083600	0.955300
O1021	O102	0.725800	0.119900	0.883600
O1031	O103	0.822800	0.190800	0.089200
O1041	O104	0.746800	0.011700	0.980400
O1051	O105	0.430000	0.932500	0.895200
O1061	O106	0.814200	0.272700	0.848200
O1071	O107	0.856300	0.318800	0.277800
O1081	O108	0.807200	0.885100	0.890300
O1091	O109	0.409400	0.939600	0.019700
O1101	O110	0.337300	0.950200	0.947400
O1111	O111	0.386200	0.019900	0.054400
O1121	O112	0.255400	0.740900	0.852500
O1131	O113	0.270200	0.824800	0.937700
O1141	O114	0.187400	0.722300	0.893200
O1151	O115	0.381300	0.795700	0.961900
O1161	O116	0.464300	0.866400	0.960600
O1171	O117	0.484700	0.819800	0.022500
O1181	O118	0.742500	0.852700	0.755200
O1191	O119	0.741100	0.767700	0.685000
O1201	O120	0.694400	0.821500	0.648500
