data_LOSBOM_freeONLY_PM
_symmetry_space_group_name_H-M	'P1'
_cell_length_a	11.064000
_cell_length_b	15.957000
_cell_length_c	23.362000
_cell_angle_alpha	90.000000
_cell_angle_beta	92.265000
_cell_angle_gamma	90.000000
_symmetry_Int_Tables_number 1

loop_
_symmetry_equiv_pos_as_xyz
'x,y,z'

loop_
_atom_site_label
_atom_site_type_symbol
_atom_site_fract_x
_atom_site_fract_y
_atom_site_fract_z
Mg11	Mg1	0.358700	0.846760	0.259290
Mg21	Mg2	0.641300	0.153240	0.740710
Mg31	Mg3	0.552750	0.510900	0.839460
Mg41	Mg4	0.552750	0.989100	0.339460
Mg51	Mg5	0.447250	0.489100	0.160540
Mg61	Mg6	0.447250	0.010900	0.660540
Mg71	Mg7	0.641300	0.346760	0.240710
Mg81	Mg8	0.358700	0.653240	0.759290
H11	H1	0.381400	0.575800	0.996600
H21	H2	0.690100	0.488900	0.606500
H31	H3	0.104300	0.166100	0.875600
H41	H4	0.218600	0.231300	0.610600
H51	H5	0.845200	0.837700	0.234200
H61	H6	0.990000	0.108400	0.878800
H71	H7	0.898800	0.579000	0.655600
H81	H8	0.684100	0.118600	0.214100
H91	H9	0.255600	0.616600	0.535200
H101	H10	0.795900	0.965500	0.829200
H111	H11	0.470900	0.386600	0.594900
H121	H12	0.192800	0.768900	0.392500
H131	H13	0.255600	0.883400	0.035200
H141	H14	0.015900	0.260900	0.595600
H151	H15	0.591300	0.109500	0.061700
H161	H16	0.870000	0.747800	0.703800
H171	H17	0.744400	0.383400	0.464800
H181	H18	0.381400	0.924200	0.496600
H191	H19	0.315900	0.881400	0.785900
H201	H20	0.312000	0.500600	0.326800
H211	H21	0.164700	0.750700	0.562200
H221	H22	0.104300	0.333900	0.375600
H231	H23	0.529100	0.886600	0.905100
H241	H24	0.143900	0.866800	0.178900
H251	H25	0.990000	0.391600	0.378800
H261	H26	0.423600	0.204000	0.248900
H271	H27	0.807200	0.231100	0.607500
H281	H28	0.835300	0.249300	0.437800
H291	H29	0.164700	0.749300	0.062200
H301	H30	0.060500	0.274600	0.238500
H311	H31	0.431100	0.011600	0.864600
H321	H32	0.470900	0.113400	0.094900
H331	H33	0.130000	0.252200	0.296200
H341	H34	0.309900	0.988900	0.893500
H351	H35	0.154800	0.162300	0.765800
H361	H36	0.130000	0.247800	0.796200
H371	H37	0.423600	0.296000	0.748900
H381	H38	0.408700	0.890500	0.938300
H391	H39	0.591300	0.390500	0.561700
H401	H40	0.744400	0.116600	0.964800
H411	H41	0.895700	0.666100	0.624400
H421	H42	0.781400	0.731300	0.889400
H431	H43	0.807200	0.268900	0.107500
H441	H44	0.939500	0.774600	0.261500
H451	H45	0.795900	0.534500	0.329200
H461	H46	0.618600	0.424200	0.003400
H471	H47	0.939500	0.725400	0.761500
H481	H48	0.010000	0.891600	0.121200
H491	H49	0.735100	0.994800	0.916800
H501	H50	0.870000	0.752200	0.203800
H511	H51	0.445300	0.692400	0.407400
H521	H52	0.984100	0.739100	0.404400
H531	H53	0.264900	0.005200	0.083200
H541	H54	0.845200	0.662300	0.734200
H551	H55	0.529100	0.613400	0.405100
H561	H56	0.835300	0.250700	0.937800
H571	H57	0.101200	0.421000	0.344400
H581	H58	0.568900	0.988400	0.135400
H591	H59	0.684100	0.381400	0.714100
H601	H60	0.315900	0.618600	0.285900
H611	H61	0.154800	0.337700	0.265800
H621	H62	0.688000	0.499400	0.673200
H631	H63	0.576400	0.796000	0.751100
H641	H64	0.895700	0.833900	0.124400
H651	H65	0.143900	0.633200	0.678900
H661	H66	0.690100	0.011100	0.106500
H671	H67	0.856100	0.133200	0.821100
H681	H68	0.984100	0.760900	0.904400
H691	H69	0.431100	0.488400	0.364600
H701	H70	0.856100	0.366800	0.321100
H711	H71	0.735100	0.505200	0.416800
H721	H72	0.312000	0.999400	0.826800
H731	H73	0.445300	0.807600	0.907400
H741	H74	0.309900	0.511100	0.393500
H751	H75	0.010000	0.608400	0.621200
H761	H76	0.568900	0.511600	0.635400
H771	H77	0.898800	0.921000	0.155600
H781	H78	0.781400	0.768700	0.389400
H791	H79	0.015900	0.239100	0.095600
H801	H80	0.618600	0.075800	0.503400
H811	H81	0.408700	0.609500	0.438300
H821	H82	0.688000	0.000600	0.173200
H831	H83	0.264900	0.494800	0.583200
H841	H84	0.101200	0.079000	0.844400
H851	H85	0.192800	0.731100	0.892500
H861	H86	0.204100	0.465500	0.670800
H871	H87	0.204100	0.034500	0.170800
H881	H88	0.554700	0.307600	0.592600
H891	H89	0.554700	0.192400	0.092600
H901	H90	0.060500	0.225400	0.738500
H911	H91	0.218600	0.268700	0.110600
H921	H92	0.576400	0.704000	0.251100
C11	C1	0.946300	0.626500	0.645000
C21	C2	0.313500	0.627400	0.097800
C31	C3	0.094200	0.296800	0.273800
C41	C4	0.358000	0.648400	0.314700
C51	C5	0.808500	0.420900	0.468900
C61	C6	0.626600	0.959500	0.745900
C71	C7	0.785600	0.213200	0.570600
C81	C8	0.196900	0.506400	0.559800
C91	C9	0.235600	0.411500	0.672800
C101	C10	0.686500	0.127400	0.402200
C111	C11	0.079400	0.822600	0.965200
C121	C12	0.671700	0.749600	0.320600
C131	C13	0.911300	0.100600	0.005800
C141	C14	0.322500	0.391300	0.715600
C151	C15	0.101400	0.445900	0.555500
C161	C16	0.327000	0.880300	0.491400
C171	C17	0.349200	0.891600	0.385300
C181	C18	0.722100	0.342000	0.961700
C191	C19	0.764400	0.911500	0.827200
C201	C20	0.197600	0.776000	0.530400
C211	C21	0.898600	0.945900	0.944500
C221	C22	0.705300	0.147200	0.563400
C231	C23	0.195600	0.351600	0.633100
C241	C24	0.895200	0.162900	0.793000
C251	C25	0.898600	0.554100	0.444500
C261	C26	0.897500	0.629000	0.412500
C271	C27	0.358000	0.851600	0.814700
C281	C28	0.165500	0.746800	0.475600
C291	C29	0.804400	0.851600	0.866900
C301	C30	0.235600	0.088500	0.172800
C311	C31	0.294700	0.647200	0.936600
C321	C32	0.626600	0.540500	0.245900
C331	C33	0.756100	0.728400	0.362900
C341	C34	0.088700	0.899400	0.994200
C351	C35	0.705300	0.352800	0.063400
C361	C36	0.756100	0.771600	0.862900
C371	C37	0.895200	0.337100	0.293000
C381	C38	0.803100	0.006400	0.940200
C391	C39	0.294700	0.852800	0.436600
C401	C40	0.003000	0.038800	0.015200
C411	C41	0.946300	0.873500	0.145000
C421	C42	0.094200	0.203200	0.773800
C431	C43	0.104800	0.662900	0.707000
C441	C44	0.088700	0.600600	0.494200
C451	C45	0.013000	0.311000	0.575300
C461	C46	0.243900	0.271600	0.637100
C471	C47	0.328300	0.250400	0.679400
C481	C48	0.632200	0.810300	0.780300
C491	C49	0.722100	0.158000	0.461700
C501	C50	0.673000	0.119700	0.508600
C511	C51	0.764400	0.588500	0.327200
C521	C52	0.686500	0.372600	0.902200
C531	C53	0.621600	0.837100	0.320700
C541	C54	0.987000	0.689000	0.424700
C551	C55	0.677500	0.891300	0.784400
C561	C56	0.650800	0.391600	0.114700
C571	C57	0.373400	0.459500	0.754100
C581	C58	0.013000	0.189000	0.075300
C591	C59	0.804400	0.648400	0.366900
C601	C60	0.243900	0.228400	0.137100
C611	C61	0.327000	0.619700	0.991400
C621	C62	0.997000	0.538800	0.484800
C631	C63	0.003000	0.461200	0.515200
C641	C64	0.447000	0.868000	0.905500
C651	C65	0.553000	0.368000	0.594500
C661	C66	0.357000	0.519500	0.360400
C671	C67	0.621600	0.662900	0.820700
C681	C68	0.349200	0.608400	0.885300
C691	C69	0.195600	0.148400	0.133100
C701	C70	0.196900	0.993600	0.059800
C711	C71	0.197600	0.724000	0.030400
C721	C72	0.650800	0.108400	0.614700
C731	C73	0.079400	0.677400	0.465200
C741	C74	0.357000	0.980500	0.860400
C751	C75	0.808500	0.079100	0.968900
C761	C76	0.920600	0.322600	0.534800
C771	C77	0.785600	0.286800	0.070600
C781	C78	0.378400	0.337100	0.179300
C791	C79	0.834500	0.246800	0.024400
C801	C80	0.447000	0.632000	0.405500
C811	C81	0.165500	0.753200	0.975600
C821	C82	0.277900	0.842000	0.538300
C831	C83	0.642000	0.351600	0.685300
C841	C84	0.053700	0.126500	0.855000
C851	C85	0.373400	0.040500	0.254100
C861	C86	0.367800	0.189700	0.219700
C871	C87	0.803100	0.493600	0.440200
C881	C88	0.677500	0.608700	0.284400
C891	C89	0.643000	0.480500	0.639600
C901	C90	0.101400	0.054100	0.055500
C911	C91	0.214400	0.786800	0.429400
C921	C92	0.191500	0.579100	0.531100
C931	C93	0.905800	0.703200	0.726200
C941	C94	0.802400	0.276000	0.969600
C951	C95	0.920600	0.177400	0.034800
C961	C96	0.987000	0.811000	0.924700
C971	C97	0.642000	0.148400	0.185300
C981	C98	0.802400	0.224000	0.469600
C991	C99	0.897500	0.871000	0.912500
C1001	C100	0.643000	0.019500	0.139600
C1011	C101	0.673000	0.380300	0.008600
C1021	C102	0.671700	0.750400	0.820600
C1031	C103	0.905800	0.796800	0.226200
C1041	C104	0.378400	0.162900	0.679300
C1051	C105	0.834500	0.253200	0.524400
C1061	C106	0.191500	0.920900	0.031100
C1071	C107	0.328300	0.249600	0.179400
C1081	C108	0.277900	0.658000	0.038300
C1091	C109	0.553000	0.132000	0.094500
C1101	C110	0.367800	0.310300	0.719700
C1111	C111	0.911300	0.399400	0.505800
C1121	C112	0.104800	0.837100	0.207000
C1131	C113	0.214400	0.713200	0.929400
C1141	C114	0.632200	0.689700	0.280300
C1151	C115	0.102500	0.371000	0.587500
C1161	C116	0.053700	0.373500	0.355000
C1171	C117	0.102500	0.129000	0.087500
C1181	C118	0.313500	0.872600	0.597800
C1191	C119	0.322500	0.108700	0.215600
C1201	C120	0.997000	0.961200	0.984800
N11	N1	0.383000	0.605200	0.354700
N21	N2	0.002400	0.334600	0.304400
N31	N3	0.617000	0.394800	0.645300
N41	N4	0.997600	0.665400	0.695600
N51	N5	0.002400	0.165400	0.804400
N61	N6	0.383000	0.894800	0.854700
N71	N7	0.997600	0.834600	0.195600
N81	N8	0.617000	0.105200	0.145300
O11	O1	0.461000	0.357100	0.214900
O21	O2	0.273500	0.833200	0.639300
O31	O3	0.824700	0.314100	0.257700
O41	O4	0.726500	0.166800	0.360700
O51	O5	0.398100	0.790300	0.191700
O61	O6	0.539000	0.642900	0.785100
O71	O7	0.430700	0.944800	0.392960
O81	O8	0.175300	0.685900	0.742300
O91	O9	0.665500	0.611800	0.856800
O101	O10	0.569300	0.055200	0.607040
O111	O11	0.691000	0.134100	0.662200
O121	O12	0.569300	0.444800	0.107040
O131	O13	0.726500	0.333200	0.860700
O141	O14	0.561400	0.939100	0.704900
O151	O15	0.652200	0.033900	0.761100
O161	O16	0.686800	0.472200	0.782000
O171	O17	0.313200	0.527800	0.218000
O181	O18	0.175300	0.814100	0.242300
O191	O19	0.691000	0.365900	0.162200
O201	O20	0.398100	0.709700	0.691700
O211	O21	0.438600	0.439100	0.795100
O221	O22	0.379000	0.934500	0.601380
O231	O23	0.824700	0.185900	0.757700
O241	O24	0.461000	0.142900	0.714900
O251	O25	0.371000	0.720800	0.302000
O261	O26	0.309000	0.634100	0.837800
O271	O27	0.621000	0.434500	0.898620
O281	O28	0.601900	0.290300	0.308300
O291	O29	0.686800	0.027800	0.282000
O301	O30	0.621000	0.065500	0.398620
O311	O31	0.652200	0.466100	0.261100
O321	O32	0.629000	0.220800	0.198000
O331	O33	0.539000	0.857100	0.285100
O341	O34	0.438600	0.060900	0.295100
O351	O35	0.629000	0.279200	0.698000
O361	O36	0.347800	0.533900	0.738900
O371	O37	0.561400	0.560900	0.204900
O381	O38	0.601900	0.209700	0.808300
O391	O39	0.347800	0.966100	0.238900
O401	O40	0.379000	0.565500	0.101380
O411	O41	0.309000	0.865900	0.337800
O421	O42	0.334500	0.388200	0.143200
O431	O43	0.273500	0.666800	0.139300
O441	O44	0.665500	0.888200	0.356800
O451	O45	0.371000	0.779200	0.802000
O461	O46	0.334500	0.111800	0.643200
O471	O47	0.313200	0.972200	0.718000
O481	O48	0.430700	0.555200	0.892960
