data_LOTDIJ_freeONLY_PM
_symmetry_space_group_name_H-M	'P1'
_cell_length_a	17.891600
_cell_length_b	19.088000
_cell_length_c	19.674500
_cell_angle_alpha	90.000000
_cell_angle_beta	90.000000
_cell_angle_gamma	90.000000
_symmetry_Int_Tables_number 1

loop_
_symmetry_equiv_pos_as_xyz
'x,y,z'

loop_
_atom_site_label
_atom_site_type_symbol
_atom_site_fract_x
_atom_site_fract_y
_atom_site_fract_z
Co11	Co1	0.318410	0.765350	0.000040
Co21	Co2	0.181590	0.265350	0.500040
Co31	Co3	0.681590	0.265350	0.999960
Co41	Co4	0.818410	0.765350	0.499960
H11	H1	0.960900	0.668800	0.698600
H21	H2	0.406400	0.145800	0.873200
H31	H3	0.519500	0.461800	0.103000
H41	H4	0.862700	0.988900	0.727400
H51	H5	0.614000	0.541200	0.713300
H61	H6	0.202700	0.159800	0.822300
H71	H7	0.702300	0.794100	0.390100
H81	H8	0.170000	0.237600	0.742400
H91	H9	0.222500	0.667100	0.642200
H101	H10	0.599100	0.235500	0.132300
H111	H11	0.039100	0.168800	0.301400
H121	H12	0.733600	0.557000	0.354000
H131	H13	0.181100	0.434300	0.836700
H141	H14	0.724000	0.905400	0.501700
H151	H15	0.237500	0.297700	0.272700
H161	H16	0.386000	0.041200	0.286700
H171	H17	0.906400	0.145800	0.626800
H181	H18	0.909400	0.164300	0.133500
H191	H19	0.722900	0.356800	0.774700
H201	H20	0.416500	0.781900	0.119800
H211	H21	0.801100	0.699000	0.845200
H221	H22	0.264100	0.485300	0.271400
H231	H23	0.288000	0.283000	0.138000
H241	H24	0.288500	0.136400	0.255800
H251	H25	0.785600	0.674700	0.727000
H261	H26	0.985300	0.849900	0.321500
H271	H27	0.514100	0.568700	0.240400
H281	H28	0.790400	0.809700	0.141500
H291	H29	0.133400	0.411800	0.247800
H301	H30	0.556600	0.144400	0.027100
H311	H31	0.443400	0.644400	0.972900
H321	H32	0.263600	0.927000	0.820200
H331	H33	0.406300	0.593800	0.345000
H341	H34	0.737500	0.297700	0.227300
H351	H35	0.381500	0.454300	0.447300
H361	H36	0.945100	0.392300	0.137900
H371	H37	0.309100	0.965900	0.264700
H381	H38	0.967100	0.390500	0.307800
H391	H39	0.459800	0.533600	0.189200
H401	H40	0.690300	0.319000	0.290100
H411	H41	0.177100	0.883400	0.739900
H421	H42	0.959800	0.533600	0.310800
H431	H43	0.231600	0.907300	0.683100
H441	H44	0.540200	0.033600	0.810800
H451	H45	0.222900	0.356800	0.725300
H461	H46	0.350700	0.117500	0.712600
H471	H47	0.768400	0.407300	0.316900
H481	H48	0.168700	0.757900	0.701800
H491	H49	0.764100	0.485300	0.228600
H501	H50	0.331300	0.257900	0.201800
H511	H51	0.216800	0.064000	0.181000
H521	H52	0.797300	0.659800	0.177700
H531	H53	0.220700	0.883200	0.279400
H541	H54	0.262500	0.797700	0.772700
H551	H55	0.202300	0.794100	0.109900
H561	H56	0.709600	0.309700	0.641500
H571	H57	0.611200	0.841200	0.348900
H581	H58	0.980500	0.961800	0.603000
H591	H59	0.783200	0.564000	0.819000
H601	H60	0.279300	0.383200	0.779400
H611	H61	0.032900	0.890500	0.692200
H621	H62	0.850700	0.117500	0.787400
H631	H63	0.714400	0.174700	0.227000
H641	H64	0.224000	0.905400	0.998300
H651	H65	0.888800	0.341200	0.848900
H661	H66	0.618500	0.954300	0.552700
H671	H67	0.788000	0.283000	0.362000
H681	H68	0.698900	0.199000	0.345200
H691	H69	0.831300	0.257900	0.298200
H701	H70	0.045100	0.155300	0.818500
H711	H71	0.118500	0.954300	0.947300
H721	H72	0.460900	0.668800	0.801400
H731	H73	0.881500	0.454300	0.052700
H741	H74	0.809700	0.819000	0.790100
H751	H75	0.699700	0.051900	0.242600
H761	H76	0.885700	0.772700	0.207700
H771	H77	0.268400	0.407300	0.183100
H781	H78	0.212000	0.783000	0.638000
H791	H79	0.583500	0.281900	0.880200
H801	H80	0.702700	0.159800	0.677700
H811	H81	0.283200	0.564000	0.681000
H821	H82	0.233500	0.771700	0.311800
H831	H83	0.201500	0.117600	0.558700
H841	H84	0.852600	0.586800	0.261500
H851	H85	0.276000	0.405400	0.498300
H861	H86	0.830000	0.737600	0.257600
H871	H87	0.400900	0.735500	0.867700
H881	H88	0.297300	0.659800	0.322300
H891	H89	0.593600	0.645800	0.126800
H901	H90	0.865700	0.464700	0.789300
H911	H91	0.338800	0.970200	0.699000
H921	H92	0.297700	0.294100	0.609900
H931	H93	0.731600	0.907300	0.816900
H941	H94	0.615200	0.410300	0.032100
H951	H95	0.670000	0.237600	0.757600
H961	H96	0.788500	0.136400	0.244200
H971	H97	0.137300	0.488900	0.272600
H981	H98	0.042300	0.012600	0.765300
H991	H99	0.388800	0.341200	0.651100
H1001	H100	0.056600	0.144400	0.472900
H1011	H101	0.053300	0.600600	0.478000
H1021	H102	0.985900	0.068700	0.740400
H1031	H103	0.134300	0.964700	0.210700
H1041	H104	0.300300	0.551900	0.757400
H1051	H105	0.099100	0.235500	0.367700
H1061	H106	0.946700	0.100600	0.522000
H1071	H107	0.147400	0.086800	0.738500
H1081	H108	0.681100	0.434300	0.663300
H1091	H109	0.409000	0.642900	0.213600
H1101	H110	0.266500	0.271700	0.811800
H1111	H111	0.190900	0.465900	0.764700
H1121	H112	0.532900	0.890500	0.807800
H1131	H113	0.701500	0.117600	0.941300
H1141	H114	0.236400	0.427000	0.320200
H1151	H115	0.114300	0.272700	0.792300
H1161	H116	0.633400	0.411800	0.252200
H1171	H117	0.115200	0.410300	0.467900
H1181	H118	0.614300	0.272700	0.707700
H1191	H119	0.886000	0.041200	0.213300
H1201	H120	0.649300	0.617500	0.287400
H1211	H121	0.593700	0.093800	0.655000
H1221	H122	0.712000	0.783000	0.862000
H1231	H123	0.822900	0.383400	0.260100
H1241	H124	0.409400	0.164300	0.366500
H1251	H125	0.542300	0.012600	0.734700
H1261	H126	0.777100	0.856800	0.274700
H1271	H127	0.766500	0.271700	0.688200
H1281	H128	0.362700	0.988900	0.772600
H1291	H129	0.722500	0.667100	0.857800
H1301	H130	0.149300	0.617500	0.212600
H1311	H131	0.198900	0.199000	0.154800
H1321	H132	0.093600	0.645800	0.373200
H1331	H133	0.209600	0.309700	0.858500
H1341	H134	0.285600	0.674700	0.773000
H1351	H135	0.277500	0.167100	0.142200
H1361	H136	0.637300	0.488900	0.227400
H1371	H137	0.190300	0.319000	0.209900
H1381	H138	0.199700	0.051900	0.257400
H1391	H139	0.114000	0.541200	0.786700
H1401	H140	0.906300	0.593800	0.155000
H1411	H141	0.301100	0.699000	0.654800
H1421	H142	0.776000	0.405400	0.001700
H1431	H143	0.736400	0.427000	0.179800
H1441	H144	0.779300	0.383200	0.720600
H1451	H145	0.797700	0.294100	0.890100
H1461	H146	0.480500	0.961800	0.897000
H1471	H147	0.019500	0.461800	0.397000
H1481	H148	0.647400	0.086800	0.761500
H1491	H149	0.943400	0.644400	0.527100
H1501	H150	0.954900	0.655300	0.181500
H1511	H151	0.384800	0.910300	0.967900
H1521	H152	0.182500	0.726600	0.904900
H1531	H153	0.014100	0.568700	0.259600
H1541	H154	0.445100	0.392300	0.362100
H1551	H155	0.809100	0.965900	0.235300
H1561	H156	0.817500	0.226600	0.095100
H1571	H157	0.545100	0.155300	0.681500
H1581	H158	0.091000	0.142900	0.713600
H1591	H159	0.233600	0.557000	0.146000
H1601	H160	0.866600	0.911800	0.752200
H1611	H161	0.446700	0.100600	0.978000
H1621	H162	0.733500	0.771700	0.188200
H1631	H163	0.214400	0.174700	0.273000
H1641	H164	0.800300	0.551900	0.742600
H1651	H165	0.090600	0.664300	0.866500
H1661	H166	0.690900	0.465900	0.735300
H1671	H167	0.634300	0.964700	0.289300
H1681	H168	0.211500	0.636400	0.755800
H1691	H169	0.235900	0.985300	0.771400
H1701	H170	0.385700	0.772700	0.292300
H1711	H171	0.884800	0.910300	0.532100
H1721	H172	0.366600	0.911800	0.747800
H1731	H173	0.347500	0.696900	0.375500
H1741	H174	0.467100	0.390500	0.192200
H1751	H175	0.818900	0.934300	0.163300
H1761	H176	0.716800	0.064000	0.319000
H1771	H177	0.277100	0.856800	0.225300
H1781	H178	0.539100	0.168800	0.198600
H1791	H179	0.661200	0.470200	0.301000
H1801	H180	0.454900	0.655300	0.318500
H1811	H181	0.668700	0.757900	0.798200
H1821	H182	0.591000	0.142900	0.786400
H1831	H183	0.909000	0.642900	0.286400
H1841	H184	0.916500	0.781900	0.380200
H1851	H185	0.553300	0.600600	0.022000
H1861	H186	0.838800	0.970200	0.801000
H1871	H187	0.322900	0.383400	0.239900
H1881	H188	0.309700	0.819000	0.709900
H1891	H189	0.847500	0.696900	0.124500
H1901	H190	0.083500	0.281900	0.619800
H1911	H191	0.652500	0.196900	0.624500
H1921	H192	0.266400	0.057000	0.646000
H1931	H193	0.763600	0.927000	0.679800
H1941	H194	0.677100	0.883400	0.760100
H1951	H195	0.317500	0.226600	0.404900
H1961	H196	0.161200	0.470200	0.199000
H1971	H197	0.485900	0.068700	0.759600
H1981	H198	0.330000	0.737600	0.242400
H1991	H199	0.735900	0.985300	0.728600
H2001	H200	0.111200	0.841200	0.151100
H2011	H201	0.766400	0.057000	0.854000
H2021	H202	0.554900	0.892300	0.637900
H2031	H203	0.720700	0.883200	0.220600
H2041	H204	0.457700	0.512600	0.265300
H2051	H205	0.290400	0.809700	0.358500
H2061	H206	0.014700	0.349900	0.678500
H2071	H207	0.318900	0.934300	0.336700
H2081	H208	0.298500	0.617600	0.058700
H2091	H209	0.711500	0.636400	0.744200
H2101	H210	0.590600	0.664300	0.633500
H2111	H211	0.900900	0.735500	0.632300
H2121	H212	0.152500	0.196900	0.875500
H2131	H213	0.352600	0.586800	0.238500
H2141	H214	0.957700	0.512600	0.234700
H2151	H215	0.054900	0.892300	0.862100
H2161	H216	0.485300	0.849900	0.178500
H2171	H217	0.777500	0.167100	0.357800
H2181	H218	0.040200	0.033600	0.689200
H2191	H219	0.762500	0.797700	0.727300
H2201	H220	0.682500	0.726600	0.595100
H2211	H221	0.798500	0.617600	0.441300
H2221	H222	0.365700	0.464700	0.710700
H2231	H223	0.514700	0.349900	0.821500
H2241	H224	0.093700	0.093800	0.845000
C11	C1	0.082800	0.282500	0.373200
C21	C2	0.677600	0.425000	0.710600
C31	C3	0.408500	0.631600	0.313700
C41	C4	0.028500	0.307200	0.328200
C51	C5	0.110000	0.754400	0.210700
C61	C6	0.292600	0.245100	0.616600
C71	C7	0.526700	0.637400	0.043600
C81	C8	0.039500	0.163600	0.514600
C91	C9	0.517700	0.652800	0.717100
C101	C10	0.110200	0.803400	0.876200
C111	C11	0.264600	0.642800	0.086600
C121	C12	0.908700	0.320500	0.808900
C131	C13	0.664100	0.712700	0.334800
C141	C14	0.220600	0.296800	0.813000
C151	C15	0.071100	0.052200	0.210100
C161	C16	0.505200	0.372400	0.163500
C171	C17	0.928900	0.552200	0.789900
C181	C18	0.982200	0.325600	0.708700
C191	C19	0.760500	0.815400	0.772400
C201	C20	0.676800	0.641000	0.321800
C211	C21	0.971500	0.807200	0.671800
C221	C22	0.988300	0.222100	0.632100
C231	C23	0.989900	0.691800	0.732400
C241	C24	0.270300	0.867400	0.272100
C251	C25	0.457800	0.359400	0.733700
C261	C26	0.736000	0.443200	0.225500
C271	C27	0.720600	0.296800	0.687000
C281	C28	0.034700	0.414600	0.391000
C291	C29	0.999300	0.761100	0.727800
C301	C30	0.283200	0.263700	0.182300
C311	C31	0.434600	0.188900	0.331300
C321	C32	0.901100	0.605800	0.255000
C331	C33	0.366100	0.408100	0.436000
C341	C34	0.974300	0.432800	0.777800
C351	C35	0.839000	0.749500	0.211400
C361	C36	0.235400	0.142800	0.586600
C371	C37	0.406700	0.370600	0.387900
C381	C38	0.936500	0.026000	0.215400
C391	C39	0.915700	0.481200	0.786100
C401	C40	0.196500	0.084400	0.220900
C411	C41	0.747500	0.192900	0.326700
C421	C42	0.005700	0.574500	0.785500
C431	C43	0.176800	0.641000	0.178200
C441	C44	0.228200	0.888700	0.727800
C451	C45	0.961400	0.256900	0.694600
C461	C46	0.436500	0.026000	0.284600
C471	C47	0.164500	0.405300	0.584000
C481	C48	0.889800	0.303400	0.123800
C491	C49	0.322400	0.925000	0.289400
C501	C50	0.582800	0.282500	0.126800
C511	C51	0.610000	0.754400	0.289300
C521	C52	0.835500	0.905300	0.416000
C531	C53	0.229700	0.367400	0.772100
C541	C54	0.408700	0.320500	0.691100
C551	C55	0.339000	0.749500	0.288600
C561	C56	0.739500	0.315400	0.272400
C571	C57	0.716800	0.763700	0.817700
C581	C58	0.025700	0.932800	0.222200
C591	C59	0.835900	0.212700	0.834800
C601	C60	0.949200	0.164400	0.604700
C611	C61	0.171300	0.774600	0.912000
C621	C62	0.335900	0.212700	0.665200
C631	C63	0.696500	0.084400	0.279100
C641	C64	0.694800	0.878100	0.532200
C651	C65	0.063500	0.526000	0.784600
C661	C66	0.591500	0.131600	0.686300
C671	C67	0.465200	0.550200	0.234400
C681	C68	0.444000	0.744800	0.099700
C691	C69	0.525700	0.932800	0.277800
C701	C70	0.720400	0.127300	0.074900
C711	C71	0.065400	0.688900	0.831300
C721	C72	0.494800	0.872400	0.836500
C731	C73	0.994300	0.074500	0.214500
C741	C74	0.752500	0.692900	0.826700
C751	C75	0.461400	0.256900	0.805400
C761	C76	0.728200	0.888700	0.772200
C771	C77	0.471500	0.807200	0.828200
C781	C78	0.070400	0.758900	0.825900
C791	C79	0.822400	0.925000	0.210600
C801	C80	0.303500	0.584400	0.720900
C811	C81	0.161000	0.249500	0.788600
C821	C82	0.740400	0.148800	0.260800
C831	C83	0.048900	0.457300	0.780800
C841	C84	0.417200	0.782500	0.873200
C851	C85	0.401100	0.605800	0.245000
C861	C86	0.034800	0.050200	0.734400
C871	C87	0.511700	0.722100	0.132100
C881	C88	0.017700	0.652800	0.782900
C891	C89	0.239500	0.315400	0.227600
C901	C90	0.779400	0.796800	0.187000
C911	C91	0.660600	0.454500	0.255100
C921	C92	0.010100	0.191800	0.267600
C931	C93	0.216800	0.763700	0.682300
C941	C94	0.247500	0.192900	0.173300
C951	C95	0.664500	0.405300	0.916000
C961	C96	0.548900	0.457300	0.719200
C971	C97	0.275300	0.105400	0.638500
C981	C98	0.017800	0.825600	0.291300
C991	C99	0.539500	0.163600	0.985400
C1001	C100	0.042200	0.859400	0.233700
C1011	C101	0.610200	0.803400	0.623800
C1021	C102	0.779600	0.627300	0.574900
C1031	C103	0.542200	0.859400	0.266300
C1041	C104	0.343100	0.683900	0.329100
C1051	C105	0.489900	0.691800	0.767600
C1061	C106	0.056000	0.244800	0.599700
C1071	C107	0.335500	0.905300	0.084000
C1081	C108	0.783200	0.263700	0.317700
C1091	C109	0.556000	0.244800	0.900300
C1101	C110	0.328700	0.274600	0.412000
C1111	C111	0.091500	0.131600	0.813700
C1121	C112	0.091300	0.820500	0.191100
C1131	C113	0.534700	0.414600	0.109000
C1141	C114	0.528500	0.307200	0.171800
C1151	C115	0.093700	0.383600	0.432100
C1161	C116	0.805200	0.378100	0.032200
C1171	C117	0.093300	0.870600	0.887900
C1181	C118	0.194800	0.878100	0.967800
C1191	C119	0.488300	0.222100	0.867900
C1201	C120	0.656900	0.183900	0.670900
C1211	C121	0.429600	0.258900	0.325900
C1221	C122	0.965200	0.550200	0.265600
C1231	C123	0.982300	0.152800	0.217100
C1241	C124	0.593300	0.870600	0.612100
C1251	C125	0.792600	0.245100	0.883400
C1261	C126	0.460500	0.663600	0.014600
C1271	C127	0.449200	0.164400	0.895300
C1281	C128	0.843100	0.683900	0.170900
C1291	C129	0.571100	0.052200	0.289900
C1301	C130	0.220400	0.127300	0.425100
C1311	C131	0.866100	0.408100	0.064000
C1321	C132	0.038600	0.756900	0.305400
C1331	C133	0.279600	0.627300	0.925100
C1341	C134	0.428900	0.552200	0.710100
C1351	C135	0.236000	0.443200	0.274500
C1361	C136	0.339400	0.954500	0.744900
C1371	C137	0.259600	0.648800	0.739200
C1381	C138	0.323200	0.141000	0.678200
C1391	C139	0.661000	0.249500	0.711400
C1401	C140	0.973300	0.137400	0.543600
C1411	C141	0.839400	0.954500	0.755100
C1421	C142	0.565400	0.688900	0.668700
C1431	C143	0.957800	0.359400	0.766300
C1441	C144	0.050800	0.664400	0.395300
C1451	C145	0.240400	0.148800	0.239200
C1461	C146	0.759600	0.648800	0.760800
C1471	C147	0.510100	0.191800	0.232400
C1481	C148	0.415700	0.481200	0.713900
C1491	C149	0.084300	0.981200	0.213900
C1501	C150	0.260500	0.815400	0.727600
C1511	C151	0.473300	0.137400	0.956400
C1521	C152	0.764000	0.943200	0.725500
C1531	C153	0.944000	0.744800	0.400300
C1541	C154	0.770300	0.867400	0.227900
C1551	C155	0.917200	0.782500	0.626800
C1561	C156	0.828700	0.274600	0.088000
C1571	C157	0.026700	0.637400	0.456400
C1581	C158	0.494300	0.074500	0.285500
C1591	C159	0.960500	0.663600	0.485400
C1601	C160	0.499300	0.761100	0.772200
C1611	C161	0.160600	0.454500	0.244900
C1621	C162	0.906700	0.370600	0.112100
C1631	C163	0.633900	0.908100	0.564000
C1641	C164	0.098900	0.105800	0.745000
C1651	C165	0.505700	0.574500	0.714500
C1661	C166	0.177600	0.425000	0.789400
C1671	C167	0.538600	0.756900	0.194600
C1681	C168	0.517800	0.825600	0.208700
C1691	C169	0.593700	0.383600	0.067900
C1701	C170	0.264000	0.943200	0.774500
C1711	C171	0.929600	0.258900	0.174100
C1721	C172	0.406300	0.883600	0.932100
C1731	C173	0.951100	0.957300	0.219200
C1741	C174	0.994800	0.872400	0.663500
C1751	C175	0.906300	0.883600	0.567900
C1761	C176	0.823200	0.141000	0.821800
C1771	C177	0.570400	0.758900	0.674100
C1781	C178	0.764600	0.642800	0.413400
C1791	C179	0.724700	0.605400	0.361500
C1801	C180	0.389800	0.303400	0.376200
C1811	C181	0.011700	0.722100	0.367900
C1821	C182	0.271800	0.388700	0.227800
C1831	C183	0.164100	0.712700	0.165200
C1841	C184	0.000700	0.261100	0.272200
C1851	C185	0.965300	0.914600	0.609000
C1861	C186	0.707400	0.745100	0.383400
C1871	C187	0.729700	0.367400	0.727900
C1881	C188	0.771800	0.388700	0.272200
C1891	C189	0.474300	0.432800	0.722200
C1901	C190	0.550800	0.664400	0.104700
C1911	C191	0.005200	0.372400	0.336500
C1921	C192	0.156900	0.183900	0.829100
C1931	C193	0.451100	0.957300	0.280800
C1941	C194	0.598900	0.105800	0.755000
C1951	C195	0.482200	0.325600	0.791300
C1961	C196	0.735400	0.142800	0.913400
C1971	C197	0.671300	0.774600	0.588000
C1981	C198	0.803500	0.584400	0.779100
C1991	C199	0.775300	0.105400	0.861500
C2001	C200	0.890000	0.254400	0.789300
C2011	C201	0.591300	0.820500	0.308900
C2021	C202	0.207400	0.745100	0.116600
C2031	C203	0.252500	0.692900	0.673300
C2041	C204	0.563500	0.526000	0.715400
C2051	C205	0.500700	0.261100	0.227800
C2061	C206	0.465300	0.914600	0.891000
C2071	C207	0.934600	0.188900	0.168700
C2081	C208	0.133900	0.908100	0.936000
C2091	C209	0.305200	0.378100	0.467800
C2101	C210	0.908500	0.631600	0.186300
C2111	C211	0.482300	0.152800	0.282900
C2121	C212	0.390000	0.254400	0.710700
C2131	C213	0.224700	0.605400	0.138500
C2141	C214	0.534800	0.050200	0.765600
C2151	C215	0.584300	0.981200	0.286100
C2161	C216	0.279400	0.796800	0.313000
S11	S1	0.271420	0.054950	0.406110
S21	S2	0.728580	0.554950	0.593890
S31	S3	0.228580	0.554950	0.906110
S41	S4	0.647590	0.486110	0.885760
S51	S5	0.352410	0.986110	0.114240
S61	S6	0.147590	0.486110	0.614240
S71	S7	0.852410	0.986110	0.385760
S81	S8	0.771420	0.054950	0.093890
N11	N1	0.387800	0.818400	0.924500
N21	N2	0.808400	0.676700	0.560700
N31	N3	0.612200	0.318400	0.075500
N41	N4	0.244200	0.208600	0.577600
N51	N5	0.913900	0.221000	0.736800
N61	N6	0.887800	0.818400	0.575500
N71	N7	0.539300	0.797900	0.723400
N81	N8	0.586100	0.721000	0.236800
N91	N9	0.327200	0.851400	0.065700
N101	N10	0.920100	0.717900	0.456600
N111	N11	0.191600	0.176700	0.439300
N121	N12	0.744200	0.208600	0.922400
N131	N13	0.172800	0.351400	0.565700
N141	N14	0.079900	0.217900	0.543400
N151	N15	0.413900	0.221000	0.763200
N161	N16	0.960700	0.297900	0.223400
N171	N17	0.284000	0.310800	0.455000
N181	N18	0.755800	0.708600	0.422400
N191	N19	0.039300	0.797900	0.776600
N201	N20	0.691600	0.176700	0.060700
N211	N21	0.216000	0.810800	0.955000
N221	N22	0.579900	0.217900	0.956600
N231	N23	0.255800	0.708600	0.077600
N241	N24	0.460700	0.297900	0.276600
N251	N25	0.420100	0.717900	0.043400
N261	N26	0.672800	0.351400	0.934300
N271	N27	0.086100	0.721000	0.263200
N281	N28	0.112200	0.318400	0.424500
N291	N29	0.716000	0.810800	0.545000
N301	N30	0.308400	0.676700	0.939300
N311	N31	0.784000	0.310800	0.045000
N321	N32	0.827200	0.851400	0.434300
O11	O1	0.622200	0.102000	0.293100
O21	O2	0.397500	0.906500	0.273200
O31	O3	0.897500	0.906500	0.226800
O41	O4	0.877800	0.602000	0.793100
O51	O5	0.602500	0.406500	0.726800
O61	O6	0.102500	0.406500	0.773200
O71	O7	0.377800	0.602000	0.706900
O81	O8	0.122200	0.102000	0.206900
