data_LOVLEP_freeONLY_PM
_symmetry_space_group_name_H-M	'P1'
_cell_length_a	21.863000
_cell_length_b	26.745500
_cell_length_c	36.741000
_cell_angle_alpha	109.617000
_cell_angle_beta	90.000000
_cell_angle_gamma	114.125000
_symmetry_Int_Tables_number 1

loop_
_symmetry_equiv_pos_as_xyz
'x,y,z'

loop_
_atom_site_label
_atom_site_type_symbol
_atom_site_fract_x
_atom_site_fract_y
_atom_site_fract_z
Cu11	Cu1	0.157140	0.843240	0.334660
Cu21	Cu2	0.842860	0.156760	0.665340
Cu31	Cu3	0.220590	0.813240	0.525120
Cu41	Cu4	0.686100	0.843240	0.834660
Cu51	Cu5	0.690130	0.835880	0.607660
Cu61	Cu6	0.849810	0.160080	0.193560
Cu71	Cu7	0.518170	0.498800	0.218010
Cu81	Cu8	0.309870	0.164120	0.392340
Cu91	Cu9	0.000000	0.500000	0.000000
Cu101	Cu10	0.150190	0.839920	0.806440
Cu111	Cu11	0.019370	0.501200	0.281990
Cu121	Cu12	0.980630	0.498800	0.718010
Cu131	Cu13	0.592650	0.813240	0.025120
Cu141	Cu14	0.500000	0.500000	0.500000
Cu151	Cu15	0.145750	0.835880	0.107660
Cu161	Cu16	0.313900	0.156760	0.165340
Cu171	Cu17	0.310270	0.160080	0.693560
Cu181	Cu18	0.779410	0.186760	0.474880
Cu191	Cu19	0.689730	0.839920	0.306440
Cu201	Cu20	0.407350	0.186760	0.974880
Cu211	Cu21	0.854250	0.164120	0.892340
Cu221	Cu22	0.481830	0.501200	0.781990
P11	P1	0.495710	0.986620	0.693440
P21	P2	0.509090	0.013380	0.806560
P31	P3	0.490910	0.986620	0.193440
P41	P4	0.504290	0.013380	0.306560
H11	H1	0.654300	0.584600	0.199100
H21	H2	0.288100	0.028400	0.102800
H31	H3	0.718800	0.319400	0.809500
H41	H4	0.603600	0.395400	0.612400
H51	H5	0.280500	0.668000	0.758100
H61	H6	0.385900	0.467400	0.356600
H71	H7	0.153900	0.129400	0.405000
H81	H8	0.837700	0.351000	0.155500
H91	H9	0.156200	0.717000	0.897100
H101	H10	0.815700	0.921200	0.164400
H111	H11	0.184300	0.078800	0.835600
H121	H12	0.439200	0.283000	0.602900
H131	H13	0.964900	0.572200	0.579600
H141	H14	0.489300	0.028200	0.975600
H151	H15	0.663400	0.647800	0.693800
H161	H16	0.069700	0.415400	0.300900
H171	H17	0.384700	0.836600	0.426900
H181	H18	0.533200	0.669800	0.994800
H191	H19	0.902200	0.013200	0.361900
H201	H20	0.930300	0.584600	0.699100
H211	H21	0.430700	0.738000	0.899800
H221	H22	0.895500	0.562000	0.182300
H231	H23	0.611000	0.030400	0.007900
H241	H24	0.778200	0.960600	0.675100
H251	H25	0.255300	0.259600	0.392200
H261	H26	0.865500	0.944800	0.978100
H271	H27	0.050000	0.866800	0.630700
H281	H28	0.134500	0.055200	0.021900
H291	H29	0.916900	0.440600	0.409500
H301	H30	0.092500	0.986200	0.938700
H311	H31	0.162300	0.649000	0.844500
H321	H32	0.776200	0.183200	0.265800
H331	H33	0.104700	0.814800	0.578100
H341	H34	0.753000	0.209800	0.720800
H351	H35	0.335500	0.057800	0.912300
H361	H36	0.030300	0.090600	0.726400
H371	H37	0.532100	0.893200	0.011800
H381	H38	0.463400	0.217800	0.903900
H391	H39	0.413300	0.546400	0.202800
H401	H40	0.816600	0.030600	0.186800
H411	H41	0.423300	0.689400	0.751400
H421	H42	0.785500	0.694000	0.650500
H431	H43	0.979100	0.062400	0.791600
H441	H44	0.324600	0.385600	0.384900
H451	H45	0.835400	0.417800	0.457500
H461	H46	0.990400	0.042200	0.327500
H471	H47	0.392700	0.427800	0.920400
H481	H48	0.693200	0.291600	0.287500
H491	H49	0.336700	0.637800	0.804200
H501	H50	0.428500	0.367200	0.719900
H511	H51	0.472700	0.723800	0.233400
H521	H52	0.945600	0.064600	0.401100
H531	H53	0.978700	0.837800	0.204500
H541	H54	0.360100	0.486400	0.458500
H551	H55	0.167100	0.063400	0.520400
H561	H56	0.017400	0.025200	0.223700
H571	H57	0.639900	0.513600	0.541500
H581	H58	0.793300	0.793400	0.805900
H591	H59	0.576700	0.310600	0.248600
H601	H60	0.053700	0.993000	0.497300
H611	H61	0.011400	0.986400	0.354800
H621	H62	0.061000	0.385600	0.884900
H631	H63	0.503800	0.288000	0.340900
H641	H64	0.466800	0.330200	0.005200
H651	H65	0.948200	0.957800	0.172500
H661	H66	0.361100	0.893200	0.511800
H671	H67	0.336600	0.352200	0.306200
H681	H68	0.100800	0.534000	0.218200
H691	H69	0.868500	0.345600	0.073300
H701	H70	0.733900	0.310600	0.748600
H711	H71	0.259700	0.971600	0.397200
H721	H72	0.462100	0.635000	0.173000
H731	H73	0.638900	0.106800	0.488200
H741	H74	0.073200	0.958400	0.044100
H751	H75	0.822700	0.013200	0.002900
H761	H76	0.290400	0.097800	0.009400
H771	H77	0.048100	0.983800	0.435400
H781	H78	0.938700	0.367200	0.219900
H791	H79	0.455400	0.137000	0.147000
H801	H80	0.519900	0.679000	0.679800
H811	H81	0.172900	0.635000	0.673000
H821	H82	0.681600	0.137000	0.647000
H831	H83	0.975500	0.129400	0.905000
H841	H84	0.893700	0.986200	0.438700
H851	H85	0.945500	0.137400	0.802900
H861	H86	0.764800	0.258400	0.090900
H871	H87	0.103700	0.936600	0.979600
H881	H88	0.709600	0.902200	0.990600
H891	H89	0.754400	0.217800	0.403900
H901	H90	0.284800	0.816200	0.809900
H911	H91	0.967700	0.899600	0.636600
H921	H92	0.300200	0.733400	0.331800
H931	H93	0.527400	0.479200	0.977300
H941	H94	0.795300	0.334600	0.058200
H951	H95	0.468600	0.183800	0.690100
H961	H96	0.527200	0.699800	0.142400
H971	H97	0.974100	0.170200	0.243200
H981	H98	0.985800	0.380800	0.842200
H991	H99	0.791800	0.395400	0.112400
H1001	H100	0.566800	0.266600	0.168200
H1011	H101	0.307300	0.738000	0.399800
H1021	H102	0.803900	0.829800	0.256800
H1031	H103	0.015600	0.352200	0.806200
H1041	H104	0.513300	0.351000	0.655500
H1051	H105	0.539600	0.593800	0.461500
H1061	H106	0.535500	0.260600	0.289000
H1071	H107	0.174200	0.093200	0.627200
H1081	H108	0.057100	0.304200	0.811500
H1091	H109	0.266100	0.689400	0.251400
H1101	H110	0.843800	0.283000	0.102900
H1111	H111	0.166500	0.590800	0.146700
H1121	H112	0.950000	0.133200	0.369300
H1131	H113	0.257700	0.617400	0.716700
H1141	H114	0.719500	0.332000	0.241900
H1151	H115	0.914600	0.941600	0.217200
H1161	H116	0.121900	0.754000	0.851800
H1171	H117	0.201000	0.636600	0.223500
H1181	H118	0.506400	0.741600	0.409100
H1191	H119	0.582100	0.989000	0.964100
H1201	H120	0.561300	0.425200	0.998900
H1211	H121	0.908500	0.694000	0.150500
H1221	H122	0.951900	0.016200	0.564600
H1231	H123	0.663300	0.362200	0.195800
H1241	H124	0.935700	0.983800	0.935400
H1251	H125	0.258600	0.911200	0.883800
H1261	H126	0.396000	0.623200	0.627600
H1271	H127	0.183200	0.133200	0.869300
H1281	H128	0.508900	0.749200	0.170100
H1291	H129	0.037100	0.629200	0.057600
H1301	H130	0.856500	0.100400	0.731600
H1311	H131	0.460700	0.665400	0.441800
H1321	H132	0.833500	0.409200	0.853300
H1331	H133	0.881600	0.956400	0.744500
H1341	H134	0.389000	0.969600	0.992100
H1351	H135	0.583600	0.344800	0.845700
H1361	H136	0.761800	0.328600	0.139000
H1371	H137	0.345700	0.415400	0.800900
H1381	H138	0.289900	0.185200	0.921900
H1391	H139	0.942900	0.695800	0.188500
H1401	H140	0.048200	0.520800	0.522700
H1411	H141	0.417900	0.011000	0.035900
H1421	H142	0.433200	0.671400	0.361000
H1431	H143	0.715200	0.183800	0.190100
H1441	H144	0.699800	0.266600	0.668200
H1451	H145	0.078800	0.618000	0.593900
H1461	H146	0.024500	0.870600	0.095000
H1471	H147	0.131500	0.654400	0.926700
H1481	H148	0.235200	0.741600	0.909100
H1491	H149	0.918500	0.532600	0.143400
H1501	H150	0.772800	0.376800	0.872400
H1511	H151	0.133100	0.546400	0.702800
H1521	H152	0.665700	0.709200	0.240800
H1531	H153	0.461100	0.971800	0.524400
H1541	H154	0.472800	0.300200	0.857600
H1551	H155	0.247100	0.304200	0.311500
H1561	H156	0.032300	0.100400	0.363400
H1571	H157	0.607300	0.572200	0.079600
H1581	H158	0.522900	0.654400	0.426700
H1591	H159	0.014200	0.619200	0.157800
H1601	H160	0.301100	0.637800	0.304200
H1611	H161	0.437800	0.357200	0.166600
H1621	H162	0.827100	0.365000	0.327000
H1631	H163	0.614100	0.532600	0.643400
H1641	H164	0.068100	0.100400	0.863400
H1651	H165	0.575700	0.409200	0.353300
H1661	H166	0.919000	0.093200	0.127200
H1671	H167	0.359300	0.727600	0.831900
H1681	H168	0.007800	0.025200	0.723700
H1691	H169	0.238200	0.671400	0.861000
H1701	H170	0.060700	0.007000	0.002700
H1711	H171	0.043500	0.709200	0.740800
H1721	H172	0.306800	0.708400	0.712500
H1731	H173	0.060300	0.090600	0.226400
H1741	H174	0.208200	0.604600	0.887600
H1751	H175	0.537900	0.365000	0.827000
H1761	H176	0.491100	0.250800	0.829900
H1771	H177	0.761200	0.344800	0.345700
H1781	H178	0.277700	0.942200	0.587700
H1791	H179	0.433200	0.733400	0.831800
H1801	H180	0.545600	0.509800	0.066400
H1811	H181	0.054200	0.593800	0.961500
H1821	H182	0.725100	0.260600	0.789000
H1831	H183	0.435100	0.833800	0.884600
H1841	H184	0.654000	0.709800	0.785100
H1851	H185	0.106300	0.013800	0.561300
H1861	H186	0.592100	0.629200	0.557600
H1871	H187	0.538800	0.575800	0.025100
H1881	H188	0.513700	0.506200	0.868500
H1891	H189	0.477100	0.345600	0.573300
H1901	H190	0.191900	0.137400	0.302900
H1911	H191	0.118400	0.043600	0.255500
H1921	H192	0.101700	0.124800	0.791000
H1931	H193	0.025900	0.829800	0.756800
H1941	H194	0.845000	0.197200	0.818200
H1951	H195	0.496200	0.712000	0.659100
H1961	H196	0.825800	0.906800	0.372800
H1971	H197	0.962900	0.370800	0.942400
H1981	H198	0.303100	0.641200	0.347500
H1991	H199	0.967500	0.964600	0.603200
H2001	H200	0.827400	0.300200	0.357600
H2011	H201	0.417600	0.582200	0.042500
H2021	H202	0.571500	0.632800	0.280100
H2031	H203	0.399400	0.680600	0.690500
H2041	H204	0.548100	0.163400	0.073100
H2051	H205	0.167600	0.103400	0.114300
H2061	H206	0.956500	0.290800	0.259200
H2071	H207	0.675400	0.614400	0.615100
H2081	H208	0.215800	0.712000	0.159100
H2091	H209	0.593000	0.816800	0.234200
H2101	H210	0.586700	0.453600	0.797200
H2111	H211	0.543100	0.060800	0.520400
H2121	H212	0.584400	0.471800	0.429600
H2131	H213	0.168400	0.032000	0.954500
H2141	H214	0.359700	0.617400	0.216700
H2151	H215	0.601300	0.166200	0.615400
H2161	H216	0.992500	0.506200	0.368500
H2171	H217	0.612500	0.332000	0.741900
H2181	H218	0.935800	0.103400	0.614300
H2191	H219	0.227200	0.623200	0.127600
H2201	H220	0.531400	0.816200	0.309900
H2211	H221	0.863600	0.032000	0.454500
H2221	H222	0.067000	0.462200	0.760400
H2231	H223	0.007500	0.493800	0.631500
H2241	H224	0.566800	0.328600	0.639000
H2251	H225	0.631400	0.452600	0.210800
H2261	H226	0.032500	0.035400	0.396800
H2271	H227	0.752900	0.695800	0.688500
H2281	H228	0.172600	0.699800	0.642400
H2291	H229	0.354200	0.187000	0.092300
H2301	H230	0.873700	0.513600	0.041500
H2311	H231	0.831600	0.968000	0.045500
H2321	H232	0.167200	0.813000	0.407700
H2331	H233	0.338100	0.641200	0.847500
H2341	H234	0.318400	0.863000	0.353000
H2351	H235	0.664500	0.942200	0.087700
H2361	H236	0.190500	0.013200	0.502900
H2371	H237	0.784200	0.288000	0.840900
H2381	H238	0.079300	0.944800	0.478100
H2391	H239	0.631700	0.272400	0.668100
H2401	H240	0.887400	0.471800	0.929600
H2411	H241	0.939000	0.614400	0.115100
H2421	H242	0.645800	0.813000	0.907700
H2431	H243	0.035800	0.490200	0.433600
H2441	H244	0.435600	0.636600	0.723500
H2451	H245	0.482300	0.939200	0.979600
H2461	H246	0.933000	0.537800	0.239600
H2471	H247	0.368300	0.727600	0.331900
H2481	H248	0.114800	0.041600	0.455900
H2491	H249	0.396400	0.604600	0.387600
H2501	H250	0.569300	0.262000	0.100200
H2511	H251	0.919400	0.357200	0.666600
H2521	H252	0.722300	0.057800	0.412300
H2531	H253	0.140900	0.162200	0.295500
H2541	H254	0.064200	0.896600	0.385700
H2551	H255	0.196100	0.170200	0.743200
H2561	H256	0.346000	0.290200	0.214900
H2571	H257	0.383000	0.749800	0.397400
H2581	H258	0.119600	0.401600	0.859700
H2591	H259	0.085400	0.058400	0.782800
H2601	H260	0.995700	0.740400	0.107800
H2611	H261	0.460400	0.406200	0.538500
H2621	H262	0.182400	0.960600	0.175100
H2631	H263	0.880400	0.598400	0.140300
H2641	H264	0.083100	0.559400	0.590500
H2651	H265	0.112600	0.528200	0.070400
H2661	H266	0.480100	0.321000	0.320200
H2671	H267	0.035100	0.427800	0.420400
H2681	H268	0.647800	0.802800	0.681800
H2691	H269	0.051800	0.042200	0.827500
H2701	H270	0.710100	0.814800	0.078100
H2711	H271	0.367900	0.246000	0.648200
H2721	H272	0.976900	0.875200	0.709000
H2731	H273	0.486300	0.493800	0.131500
H2741	H274	0.799000	0.363400	0.776500
H2751	H275	0.456800	0.209800	0.220800
H2761	H276	0.395000	0.380800	0.342200
H2771	H277	0.183400	0.969400	0.813200
H2781	H278	0.951800	0.479200	0.477300
H2791	H279	0.809500	0.986800	0.497100
H2801	H280	0.881000	0.935400	0.098900
H2811	H281	0.566800	0.466000	0.281800
H2821	H282	0.920700	0.055200	0.521900
H2831	H283	0.025000	0.013600	0.145200
H2841	H284	0.816800	0.866800	0.130700
H2851	H285	0.467900	0.106800	0.988200
H2861	H286	0.564400	0.363400	0.276500
H2871	H287	0.944200	0.290200	0.714900
H2881	H288	0.000100	0.793400	0.305900
H2891	H289	0.527300	0.276200	0.766600
H2901	H290	0.406900	0.989000	0.464100
H2911	H291	0.027000	0.941600	0.717200
H2921	H292	0.604800	0.537800	0.739600
H2931	H293	0.021300	0.162200	0.795500
H2941	H294	0.562200	0.642800	0.833400
H2951	H295	0.863400	0.330200	0.505200
H2961	H296	0.454400	0.490200	0.933600
H2971	H297	0.104500	0.438000	0.817700
H2981	H298	0.605000	0.619200	0.657800
H2991	H299	0.206700	0.206600	0.194100
H3001	H300	0.159100	0.679000	0.179800
H3011	H301	0.177300	0.986800	0.997100
H3021	H302	0.604000	0.376800	0.372400
H3031	H303	0.982600	0.974800	0.776300
H3041	H304	0.840900	0.321000	0.820200
H3051	H305	0.097800	0.986800	0.638100
H3061	H306	0.251100	0.723800	0.733400
H3071	H307	0.178800	0.547400	0.289200
H3081	H308	0.136600	0.669800	0.494800
H3091	H309	0.401600	0.708400	0.212500
H3101	H310	0.539200	0.618000	0.093900
H3111	H311	0.999900	0.206600	0.694100
H3121	H312	0.896300	0.063400	0.020400
H3131	H313	0.821200	0.452600	0.710800
H3141	H314	0.846100	0.870600	0.595000
H3151	H315	0.204700	0.665400	0.941800
H3161	H316	0.544600	0.863000	0.853000
H3171	H317	0.023100	0.124800	0.291000
H3181	H318	0.536600	0.782200	0.096100
H3191	H319	0.889000	0.986800	0.138100
H3201	H320	0.451900	0.836600	0.926900
H3211	H321	0.866900	0.453600	0.297200
H3221	H322	0.560800	0.717000	0.397100
H3231	H323	0.461200	0.424200	0.974900
H3241	H324	0.387500	0.668000	0.258100
H3251	H325	0.064300	0.016200	0.064600
H3261	H326	0.921200	0.382000	0.406100
H3271	H327	0.131600	0.584000	0.872600
H3281	H328	0.868400	0.416000	0.127400
H3291	H329	0.939300	0.993000	0.997300
H3301	H330	0.282000	0.401600	0.359700
H3311	H331	0.080600	0.642800	0.333400
H3321	H332	0.523700	0.440600	0.909500
H3331	H333	0.164600	0.582200	0.542500
H3341	H334	0.020900	0.937600	0.208400
H3351	H335	0.415600	0.528200	0.570400
H3361	H336	0.192600	0.902200	0.490600
H3371	H337	0.334300	0.290800	0.759200
H3381	H338	0.564900	0.166200	0.115400
H3391	H339	0.493600	0.258400	0.590900
H3401	H340	0.486700	0.649000	0.344500
H3411	H341	0.984400	0.647800	0.193800
H3421	H342	0.945800	0.406200	0.038500
H3431	H343	0.054500	0.862600	0.197100
H3441	H344	0.143500	0.899600	0.268400
H3451	H345	0.817600	0.039400	0.824900
H3461	H346	0.240300	0.749200	0.670100
H3471	H347	0.416400	0.655200	0.154300
H3481	H348	0.472600	0.520800	0.022700
H3491	H349	0.368600	0.547400	0.789200
H3501	H350	0.419400	0.030400	0.507900
H3511	H351	0.004300	0.259600	0.892200
H3521	H352	0.939700	0.909400	0.773600
H3531	H353	0.136400	0.968000	0.545500
H3541	H354	0.740300	0.028400	0.602800
H3551	H355	0.894500	0.078800	0.335600
H3561	H356	0.898300	0.875200	0.209000
H3571	H357	0.899200	0.466000	0.781800
H3581	H358	0.832900	0.936600	0.479600
H3591	H359	0.807400	0.097800	0.509400
H3601	H360	0.155000	0.802800	0.181800
H3611	H361	0.407000	0.183200	0.765800
H3621	H362	0.692700	0.262000	0.600200
H3631	H363	0.946300	0.007000	0.502700
H3641	H364	0.859100	0.837800	0.704500
H3651	H365	0.091500	0.306000	0.849500
H3661	H366	0.580600	0.969600	0.492100
H3671	H367	0.136100	0.574800	0.501100
H3681	H368	0.510700	0.971800	0.024400
H3691	H369	0.964200	0.509800	0.566400
H3701	H370	0.347400	0.088800	0.616200
H3711	H371	0.632100	0.754000	0.351800
H3721	H372	0.105500	0.921200	0.664400
H3731	H373	0.214500	0.306000	0.349500
H3741	H374	0.126300	0.486400	0.958500
H3751	H375	0.973000	0.058400	0.282800
H3761	H376	0.247000	0.790200	0.279200
H3771	H377	0.786000	0.969400	0.313200
H3781	H378	0.274900	0.739400	0.211000
H3791	H379	0.111000	0.013200	0.861900
H3801	H380	0.748900	0.276200	0.266600
H3811	H381	0.054400	0.935400	0.598900
H3821	H382	0.992200	0.974800	0.276300
H3831	H383	0.083300	0.062400	0.291600
H3841	H384	0.615300	0.163400	0.573100
H3851	H385	0.582400	0.417800	0.957500
H3861	H386	0.832400	0.896600	0.885700
H3871	H387	0.744700	0.740400	0.607800
H3881	H388	0.543200	0.790200	0.779200
H3891	H389	0.925200	0.043600	0.755500
H3901	H390	0.352200	0.197200	0.318200
H3911	H391	0.759700	0.250800	0.329900
H3921	H392	0.832800	0.187000	0.592300
H3931	H393	0.969700	0.909400	0.273600
H3941	H394	0.238800	0.655200	0.654300
H3951	H395	0.661900	0.358800	0.152500
H3961	H396	0.438700	0.574800	0.001100
H3971	H397	0.640300	0.382600	0.783300
H3981	H398	0.245600	0.782200	0.596100
H3991	H399	0.863900	0.425200	0.498900
H4001	H400	0.756100	0.899600	0.768400
H4011	H401	0.931900	0.899600	0.136600
H4021	H402	0.640700	0.272400	0.168100
H4031	H403	0.711900	0.971600	0.897200
H4041	H404	0.214000	0.030600	0.686800
H4051	H405	0.395200	0.462200	0.260400
H4061	H406	0.895300	0.185200	0.421900
H4071	H407	0.741400	0.088800	0.116200
H4081	H408	0.433200	0.534000	0.718200
H4091	H409	0.037000	0.575800	0.525100
H4101	H410	0.009600	0.957800	0.672500
H4111	H411	0.464500	0.739400	0.711000
H4121	H412	0.407900	0.370800	0.442400
H4131	H413	0.424300	0.590800	0.646700
H4141	H414	0.698900	0.362200	0.695800
H4151	H415	0.975000	0.986400	0.854800
H4161	H416	0.119000	0.064600	0.901100
H4171	H417	0.666500	0.562000	0.682300
H4181	H418	0.963000	0.424200	0.474900
H4191	H419	0.460800	0.382000	0.906100
H4201	H420	0.074800	0.956400	0.244500
H4211	H421	0.452400	0.584000	0.372600
H4221	H422	0.718000	0.598400	0.640300
H4231	H423	0.916700	0.937600	0.708400
H4241	H424	0.061300	0.632800	0.780100
H4251	H425	0.926800	0.041600	0.955900
H4261	H426	0.988600	0.013600	0.645200
H4271	H427	0.598400	0.291600	0.787500
H4281	H428	0.633200	0.250200	0.102600
H4291	H429	0.366800	0.749800	0.897400
H4301	H430	0.002900	0.035400	0.896800
H4311	H431	0.281200	0.680600	0.190500
H4321	H432	0.223800	0.816800	0.734200
H4331	H433	0.878100	0.246000	0.148200
H4341	H434	0.398700	0.833800	0.384600
H4351	H435	0.517700	0.060800	0.020400
H4361	H436	0.221800	0.039400	0.324900
H4371	H437	0.696900	0.358800	0.652500
H4381	H438	0.476300	0.559400	0.090500
H4391	H439	0.539300	0.334600	0.558200
H4401	H440	0.907500	0.013800	0.061300
H4411	H441	0.617000	0.250200	0.602600
H4421	H442	0.885200	0.958400	0.544100
H4431	H443	0.547600	0.416000	0.627400
H4441	H444	0.456900	0.939200	0.479600
H4451	H445	0.081000	0.906800	0.872800
H4461	H446	0.652600	0.911200	0.383800
H4471	H447	0.333500	0.438000	0.317700
H4481	H448	0.997100	0.964600	0.103200
H4491	H449	0.243900	0.100400	0.231600
H4501	H450	0.808100	0.862600	0.697100
H4511	H451	0.055800	0.709800	0.285100
H4521	H452	0.538900	0.028200	0.475600
H4531	H453	0.600600	0.319400	0.309500
H4541	H454	0.742300	0.382600	0.283300
H4551	H455	0.593100	0.011000	0.535900
H4561	H456	0.081500	0.467400	0.856600
W11	W1	0.404570	0.088480	0.814330
W21	W2	0.390030	0.056840	0.706410
W31	W3	0.477640	0.040600	0.620660
W41	W4	0.434700	0.859320	0.780490
W51	W5	0.589790	0.166980	0.826660
W61	W6	0.437040	0.959400	0.879340
W71	W7	0.402930	0.893540	0.599320
W81	W8	0.575380	0.140680	0.719510
W91	W9	0.683870	0.091800	0.815090
W101	W10	0.422810	0.833020	0.673340
W111	W11	0.572210	0.966320	0.609840
W121	W12	0.424620	0.859320	0.280490
W131	W13	0.333190	0.943160	0.793590
W141	W14	0.395390	0.067480	0.207480
W151	W15	0.592070	0.908200	0.684910
W161	W16	0.407930	0.091800	0.315090
W171	W17	0.672090	0.067480	0.707480
W181	W18	0.509390	0.106460	0.900680
W191	W19	0.327910	0.932520	0.292520
W201	W20	0.522360	0.959400	0.379340
W211	W21	0.683910	0.088480	0.314330
W221	W22	0.597070	0.106460	0.400680
W231	W23	0.577190	0.166980	0.326660
W241	W24	0.565300	0.140680	0.219510
W251	W25	0.609970	0.943160	0.293590
W261	W26	0.427790	0.033680	0.390160
W271	W27	0.666810	0.056840	0.206410
W281	W28	0.604610	0.932520	0.792520
W291	W29	0.410210	0.833020	0.173340
W301	W30	0.605890	0.033680	0.890160
W311	W31	0.316090	0.911520	0.685670
W321	W32	0.316130	0.908200	0.184910
W331	W33	0.562960	0.040600	0.120660
W341	W34	0.394110	0.966320	0.109840
W351	W35	0.490610	0.893540	0.099320
W361	W36	0.595430	0.911520	0.185670
C11	C1	0.620400	0.569200	0.177800
C21	C2	0.591000	0.009600	0.509100
C31	C3	0.618500	0.717000	0.778200
C41	C4	0.895800	0.986200	0.985100
C51	C5	0.159100	0.686600	0.520400
C61	C6	0.072300	0.376600	0.858700
C71	C7	0.209600	0.185200	0.208900
C81	C8	0.132400	0.978200	0.985800
C91	C9	0.778500	0.080400	0.110900
C101	C10	0.550900	0.617000	0.566800
C111	C11	0.523800	0.463600	0.285600
C121	C12	0.165800	0.764800	0.845900
C131	C13	0.215100	0.965600	0.399600
C141	C14	0.857200	0.049600	0.840900
C151	C15	0.301900	0.080400	0.610900
C161	C16	0.110700	0.781000	0.168500
C171	C17	0.396800	0.215000	0.770600
C181	C18	0.936700	0.053600	0.373000
C191	C19	0.977200	0.934400	0.258500
C201	C20	0.259500	0.692000	0.715600
C211	C21	0.221500	0.919600	0.889100
C221	C22	0.480400	0.681200	0.669800
C231	C23	0.401000	0.235200	0.654100
C241	C24	0.986800	0.550000	0.585200
C251	C25	0.746400	0.202400	0.176200
C261	C26	0.472100	0.666200	0.368600
C271	C27	0.507500	0.425600	0.542400
C281	C28	0.845800	0.978200	0.485800
C291	C29	0.863200	0.008800	0.051700
C301	C30	0.611700	0.820600	0.899200
C311	C31	0.552600	0.303200	0.299200
C321	C32	0.909600	0.913200	0.229400
C331	C33	0.445700	0.575000	0.224400
C341	C34	0.998700	0.941000	0.644200
C351	C35	0.379600	0.430800	0.822200
C361	C36	0.154200	0.021800	0.514200
C371	C37	0.782500	0.253000	0.423900
C381	C38	0.487100	0.023400	0.000700
C391	C39	0.867600	0.021800	0.014200
C401	C40	0.799200	0.318800	0.830200
C411	C41	0.529500	0.747000	0.076100
C421	C42	0.673400	0.912000	0.995100
C431	C43	0.527900	0.333800	0.631400
C441	C44	0.526000	0.364000	0.574900
C451	C45	0.456200	0.591800	0.028800
C461	C46	0.029200	0.928400	0.230700
C471	C47	0.796800	0.239000	0.724300
C481	C48	0.773000	0.321000	0.766900
C491	C49	0.517100	0.575600	0.079700
C501	C50	0.125400	0.916600	0.882300
C511	C51	0.918100	0.425600	0.042400
C521	C52	0.186300	0.076600	0.106600
C531	C53	0.116900	0.053600	0.873000
C541	C54	0.644600	0.617200	0.668100
C551	C55	0.807600	0.950400	0.659100
C561	C56	0.543800	0.408200	0.971200
C571	C57	0.447400	0.696800	0.700800
C581	C58	0.418600	0.009600	0.009100
C591	C59	0.104300	0.560800	0.073800
C601	C60	0.355400	0.382800	0.331900
C611	C61	0.474000	0.636000	0.425100
C621	C62	0.197800	0.719600	0.887300
C631	C63	0.001300	0.059000	0.355800
C641	C64	0.889300	0.219000	0.831500
C651	C65	0.027400	0.382800	0.831900
C661	C66	0.058500	0.575600	0.579700
C671	C67	0.492500	0.574400	0.457600
C681	C68	0.452700	0.817400	0.899500
C691	C69	0.834200	0.235200	0.154100
C701	C70	0.093900	0.999200	0.448900
C711	C71	0.784900	0.034400	0.600400
C721	C72	0.915800	0.274800	0.268200
C731	C73	0.854400	0.991200	0.448300
C741	C74	0.199500	0.055400	0.705100
C751	C75	0.709700	0.152800	0.630800
C761	C76	0.051200	0.430800	0.322200
C771	C77	0.030600	0.463000	0.773200
C781	C78	0.972600	0.617200	0.168100
C791	C79	0.948800	0.569200	0.677800
C801	C80	0.974000	0.250400	0.870600
C811	C81	0.941500	0.424400	0.420300
C821	C82	0.899200	0.928400	0.730700
C831	C83	0.993400	0.028600	0.869300
C841	C84	0.249500	0.034400	0.100400
C851	C85	0.449100	0.383000	0.433200
C861	C86	0.554300	0.425000	0.775600
C871	C87	0.890300	0.076600	0.606600
C881	C88	0.288700	0.654600	0.329100
C891	C89	0.698100	0.919600	0.389100
C901	C90	0.970800	0.071600	0.769300
C911	C91	0.468800	0.479800	0.857800
C921	C92	0.687000	0.921200	0.092000
C931	C93	0.145600	0.008800	0.551700
C941	C94	0.751200	0.350800	0.266200
C951	C95	0.536300	0.023400	0.500700
C961	C96	0.634100	0.345400	0.170900
C971	C97	0.365900	0.654600	0.829100
C981	C98	0.790400	0.814800	0.791100
C991	C99	0.253600	0.797600	0.823800
C1001	C100	0.654400	0.245200	0.612600
C1011	C101	0.543500	0.439200	0.426200
C1021	C102	0.472500	0.313400	0.979600
C1031	C103	0.531200	0.520200	0.142200
C1041	C104	0.939800	0.463600	0.785600
C1051	C105	0.409000	0.990400	0.490900
C1061	C106	0.400400	0.649200	0.233800
C1071	C107	0.628100	0.562200	0.669600
C1081	C108	0.527500	0.686600	0.020400
C1091	C109	0.396900	0.518400	0.456200
C1101	C110	0.673500	0.281200	0.657100
C1111	C111	0.456000	0.202400	0.676200
C1121	C112	0.208800	0.083400	0.617700
C1131	C113	0.238600	0.912000	0.495100
C1141	C114	0.437300	0.622600	0.636900
C1151	C115	0.185300	0.622600	0.136900
C1161	C116	0.957200	0.934400	0.758500
C1171	C117	0.098500	0.717000	0.278200
C1181	C118	0.546400	0.331600	0.825200
C1191	C119	0.090400	0.086800	0.770600
C1201	C120	0.345600	0.754800	0.387400
C1211	C121	0.141100	0.852000	0.586700
C1221	C122	0.228400	0.126800	0.229300
C1231	C123	0.289100	0.148000	0.913300
C1241	C124	0.581400	0.990400	0.990900
C1251	C125	0.276400	0.250400	0.370600
C1261	C126	0.364700	0.817400	0.399500
C1271	C127	0.443100	0.152800	0.130800
C1281	C128	0.003600	0.913200	0.729400
C1291	C129	0.057100	0.900000	0.116100
C1301	C130	0.831100	0.421800	0.695900
C1311	C131	0.818200	0.215000	0.270600
C1321	C132	0.484200	0.369200	0.172000
C1331	C133	0.442200	0.239000	0.224300
C1341	C134	0.556900	0.847200	0.869200
C1351	C135	0.557800	0.761000	0.775700
C1361	C136	0.136800	0.991200	0.948300
C1371	C137	0.842900	0.900000	0.616100
C1381	C138	0.942900	0.100000	0.883900
C1391	C139	0.909600	0.013800	0.514900
C1401	C140	0.519600	0.318800	0.330200
C1411	C141	0.827200	0.382400	0.111700
C1421	C142	0.436800	0.450000	0.914800
C1431	C143	0.452000	0.679000	0.733100
C1441	C144	0.791100	0.179400	0.600800
C1451	C145	0.512900	0.976600	0.999300
C1461	C146	0.256900	0.312800	0.339300
C1471	C147	0.060100	0.868200	0.765500
C1481	C148	0.194100	0.666200	0.868600
C1491	C149	0.898400	0.126800	0.729300
C1501	C150	0.562700	0.377400	0.363100
C1511	C151	0.101600	0.873200	0.270700
C1521	C152	0.964800	0.971400	0.630700
C1531	C153	0.326500	0.718800	0.342900
C1541	C154	0.024400	0.814800	0.291100
C1551	C155	0.670300	0.781000	0.668500
C1561	C156	0.934100	0.562200	0.169600
C1571	C157	0.013200	0.450000	0.414800
C1581	C158	0.142800	0.950400	0.159100
C1591	C159	0.042800	0.065600	0.241500
C1601	C160	0.883100	0.946400	0.127000
C1611	C161	0.996400	0.086800	0.270600
C1621	C162	0.864400	0.408200	0.471200
C1631	C163	0.842300	0.866600	0.716400
C1641	C164	0.248800	0.649200	0.733800
C1651	C165	0.129300	0.575000	0.724400
C1661	C166	0.432500	0.692000	0.215600
C1671	C167	0.874600	0.083400	0.117700
C1681	C168	0.771600	0.873200	0.770700
C1691	C169	0.135600	0.591800	0.528800
C1701	C170	0.084200	0.725200	0.731800
C1711	C171	0.912000	0.094800	0.363400
C1721	C172	0.191900	0.131800	0.734500
C1731	C173	0.456500	0.560800	0.573800
C1741	C174	0.182800	0.094800	0.863400
C1751	C175	0.590700	0.421800	0.195900
C1761	C176	0.858900	0.148000	0.413300
C1771	C177	0.750500	0.965600	0.899600
C1781	C178	0.115000	0.630800	0.328000
C1791	C179	0.497600	0.563000	0.036200
C1801	C180	0.785200	0.331600	0.325200
C1811	C181	0.409300	0.578200	0.804100
C1821	C182	0.800500	0.944600	0.294900
C1831	C183	0.063300	0.946400	0.627000
C1841	C184	0.530200	0.622000	0.265600
C1851	C185	0.743100	0.687200	0.660700
C1861	C186	0.878500	0.481600	0.043800
C1871	C187	0.463700	0.976600	0.499300
C1881	C188	0.895700	0.439200	0.926200
C1891	C189	0.547300	0.182600	0.100500
C1901	C190	0.563200	0.550000	0.085200
C1911	C191	0.934600	0.437000	0.463800
C1921	C192	0.814700	0.377400	0.863100
C1931	C193	0.870700	0.425000	0.275600
C1941	C194	0.144100	0.944600	0.794900
C1951	C195	0.227000	0.679000	0.233100
C1961	C196	0.576500	0.906000	0.006600
C1971	C197	0.838000	0.364000	0.074900
C1981	C198	0.162000	0.636000	0.925100
C1991	C199	0.088000	0.905200	0.636600
C2001	C200	0.927700	0.623400	0.141300
C2011	C201	0.208900	0.820600	0.399200
C2021	C202	0.026000	0.749600	0.129400
C2031	C203	0.060200	0.536400	0.214400
C2041	C204	0.590800	0.245200	0.112600
C2051	C205	0.817200	0.905200	0.136600
C2061	C206	0.100800	0.071600	0.269300
C2071	C207	0.359000	0.274800	0.768200
C2081	C208	0.908200	0.378000	0.234400
C2091	C209	0.515800	0.630800	0.828000
C2101	C210	0.740500	0.308000	0.284400
C2111	C211	0.599000	0.764800	0.345900
C2121	C212	0.091800	0.622000	0.765600
C2131	C213	0.521800	0.719600	0.387300
C2141	C214	0.801400	0.284600	0.331700
C2151	C215	0.544000	0.797600	0.323800
C2161	C216	0.192400	0.049600	0.340900
C2171	C217	0.567500	0.308000	0.784400
C2181	C218	0.805900	0.333800	0.131400
C2191	C219	0.104200	0.013800	0.014900
C2201	C220	0.022800	0.065600	0.741500
C2211	C221	0.933900	0.383000	0.933200
C2221	C222	0.409200	0.754800	0.887400
C2231	C223	0.392300	0.718800	0.842900
C2241	C224	0.761400	0.088000	0.504900
C2251	C225	0.326600	0.088000	0.004900
C2261	C226	0.381500	0.283000	0.221800
C2271	C227	0.198600	0.715400	0.668300
C2281	C228	0.371900	0.437800	0.330400
C2291	C229	0.066100	0.617000	0.066800
C2301	C230	0.989000	0.520200	0.642200
C2311	C231	0.057700	0.059000	0.855800
C2321	C232	0.750600	0.303200	0.799200
C2331	C233	0.290300	0.847200	0.369200
C2341	C234	0.055900	0.312800	0.839300
C2351	C235	0.695700	0.623400	0.641300
C2361	C236	0.109700	0.923400	0.393400
C2371	C237	0.975700	0.133400	0.783600
C2381	C238	0.024300	0.866600	0.216400
C2391	C239	0.599600	0.350800	0.766200
C2401	C240	0.885000	0.369200	0.672000
C2411	C241	0.313000	0.078800	0.908000
C2421	C242	0.939900	0.131800	0.234500
C2431	C243	0.905300	0.999200	0.948900
C2441	C244	0.711300	0.345400	0.670900
C2451	C245	0.901500	0.283000	0.721800
C2461	C246	0.214800	0.668400	0.674800
C2471	C247	0.482900	0.424400	0.920300
C2481	C248	0.203200	0.761000	0.275700
C2491	C249	0.181800	0.785000	0.729400
C2501	C250	0.121500	0.518400	0.956200
C2511	C251	0.723600	0.749600	0.629400
C2521	C252	0.168900	0.578200	0.304100
C2531	C253	0.453600	0.668400	0.174800
C2541	C254	0.502400	0.437000	0.963800
C2551	C255	0.217500	0.747000	0.576100
C2561	C256	0.469800	0.378000	0.734400
C2571	C257	0.969400	0.537000	0.226800
C2581	C258	0.944100	0.687200	0.160700
C2591	C259	0.791200	0.916600	0.382300
C2601	C260	0.329700	0.219000	0.331500
C2611	C261	0.478200	0.280400	0.612700
C2621	C262	0.065900	0.437800	0.830400
C2631	C263	0.329500	0.906000	0.506600
C2641	C264	0.802200	0.280400	0.112700
C2651	C265	0.011000	0.479800	0.357800
C2661	C266	0.808100	0.868200	0.265500
C2671	C267	0.765800	0.078800	0.408000
C2681	C268	0.444800	0.617600	0.388300
C2691	C269	0.855900	0.055400	0.205100
C2701	C270	0.567600	0.537000	0.726800
C2711	C271	0.157700	0.133400	0.283600
C2721	C272	0.157100	0.100000	0.383900
C2731	C273	0.234200	0.921200	0.592000
C2741	C274	0.432400	0.463000	0.273200
C2751	C275	0.813700	0.923400	0.893400
C2761	C276	0.603100	0.481600	0.543800
C2771	C277	0.641000	0.725200	0.231800
C2781	C278	0.470500	0.253000	0.923900
C2791	C279	0.975600	0.185200	0.708900
C2801	C280	0.548000	0.321000	0.266900
C2811	C281	0.555200	0.382400	0.611700
C2821	C282	0.090400	0.986200	0.485100
C2831	C283	0.476200	0.536400	0.714400
C2841	C284	0.249400	0.696800	0.200800
C2851	C285	0.670500	0.094000	0.493400
C2861	C286	0.388300	0.179400	0.100800
C2871	C287	0.065400	0.563000	0.536200
C2881	C288	0.006600	0.971400	0.130700
C2891	C289	0.094700	0.000800	0.051100
C2901	C290	0.607700	0.281200	0.157100
C2911	C291	0.035200	0.028600	0.369300
C2921	C292	0.840900	0.313400	0.479600
C2931	C293	0.906100	0.000800	0.551100
C2941	C294	0.172800	0.617600	0.888300
C2951	C295	0.603200	0.785000	0.229400
C2961	C296	0.081900	0.574400	0.957600
C2971	C297	0.516800	0.715400	0.168300
C2981	C298	0.635300	0.182600	0.600500
C2991	C299	0.200800	0.681200	0.169800
C3001	C300	0.423500	0.094000	0.993400
C3011	C301	0.710900	0.852000	0.086700
C3021	C302	0.942300	0.941000	0.144200
C3031	C303	0.483200	0.284600	0.831700
C3041	C304	0.304300	0.376600	0.358700
N11	N1	0.538400	0.748600	0.357400
N21	N2	0.563000	0.677400	0.753000
N31	N3	0.611200	0.448000	0.560700
N41	N4	0.270100	0.105400	0.637900
N51	N5	0.461600	0.251400	0.642600
N61	N6	0.266500	0.770000	0.842900
N71	N7	0.850900	0.909000	0.256700
N81	N8	0.656000	0.048200	0.504300
N91	N9	0.158500	0.025800	0.078000
N101	N10	0.821800	0.374800	0.257800
N111	N11	0.155200	0.658600	0.769400
N121	N12	0.907400	0.213800	0.864900
N131	N13	0.333700	0.135600	0.927000
N141	N14	0.842200	0.045400	0.082600
N151	N15	0.892900	0.950400	0.636100
N161	N16	0.826500	0.819000	0.758400
N171	N17	0.071400	0.532400	0.970200
N181	N18	0.201200	0.695000	0.578100
N191	N19	0.754200	0.843000	0.797500
N201	N20	0.460900	0.348000	0.404200
N211	N21	0.789800	0.251400	0.142600
N221	N22	0.202100	0.946000	0.618300
N231	N23	0.183400	0.666800	0.338900
N241	N24	0.505500	0.551000	0.686400
N251	N25	0.344000	0.951800	0.495700
N261	N26	0.494500	0.449000	0.313600
N271	N27	0.477500	0.170800	0.106300
N281	N28	0.493800	0.695000	0.078100
N291	N29	0.022600	0.450800	0.376000
N301	N30	0.840800	0.266800	0.301800
N311	N31	0.926400	0.433000	0.261000
N321	N32	0.115300	0.964600	0.775100
N331	N33	0.884700	0.035400	0.224900
N341	N34	0.632300	0.583800	0.147600
N351	N35	0.166100	0.658000	0.540800
N361	N36	0.443300	0.187000	0.084300
N371	N37	0.798800	0.305000	0.421900
N381	N38	0.849300	0.964600	0.275100
N391	N39	0.693300	0.170800	0.606300
N401	N40	0.799900	0.996400	0.575900
N411	N41	0.392200	0.048200	0.004300
N421	N42	0.735000	0.955800	0.422500
N431	N43	0.150700	0.035400	0.724900
N441	N44	0.279800	0.271200	0.343700
N451	N45	0.539100	0.652000	0.595800
N461	N46	0.284600	0.955400	0.489200
N471	N47	0.132700	0.587400	0.939500
N481	N48	0.539000	0.467600	0.529800
N491	N49	0.839900	0.085000	0.623100
N501	N50	0.936600	0.256000	0.818400
N511	N51	0.729900	0.894600	0.362100
N521	N52	0.243300	0.101600	0.886200
N531	N53	0.159200	0.733200	0.698200
N541	N54	0.680600	0.744000	0.681600
N551	N55	0.784300	0.368200	0.675600
N561	N56	0.532700	0.427000	0.192700
N571	N57	0.319400	0.256000	0.318400
N581	N58	0.870200	0.987000	0.663800
N591	N59	0.951500	0.583800	0.647600
N601	N60	0.508100	0.342000	0.959200
N611	N61	0.114400	0.677400	0.253000
N621	N62	0.116800	0.987000	0.163800
N631	N63	0.393800	0.201600	0.675100
N641	N64	0.200100	0.003600	0.424100
N651	N65	0.048500	0.416200	0.352400
N661	N66	0.447000	0.625200	0.242200
N671	N67	0.196500	0.996400	0.075900
N681	N68	0.496500	0.230000	0.657100
N691	N69	0.133200	0.611200	0.101600
N701	N70	0.223400	0.839600	0.370200
N711	N71	0.522000	0.388800	0.398400
N721	N72	0.941900	0.091000	0.243300
N731	N73	0.522500	0.829200	0.893700
N741	N74	0.987100	0.475200	0.762800
N751	N75	0.516600	0.333200	0.161100
N761	N76	0.227500	0.114600	0.713100
N771	N77	0.478000	0.611200	0.601600
N781	N78	0.454700	0.587400	0.439500
N791	N79	0.467300	0.573000	0.807300
N801	N80	0.105700	0.573000	0.307300
N811	N81	0.506600	0.433000	0.761000
N821	N82	0.901300	0.304000	0.300400
N831	N83	0.437000	0.322600	0.247000
N841	N84	0.754900	0.915000	0.876900
N851	N85	0.432900	0.450800	0.306100
N861	N86	0.844800	0.341400	0.230600
N871	N87	0.192200	0.798400	0.824900
N881	N88	0.416100	0.631800	0.824400
N891	N89	0.616200	0.839600	0.870200
N901	N90	0.887100	0.348000	0.904200
N911	N91	0.073600	0.567000	0.739000
N921	N92	0.496600	0.341400	0.730600
N931	N93	0.803500	0.003600	0.924100
N941	N94	0.164700	0.894600	0.862100
N951	N95	0.733500	0.230000	0.157100
N961	N96	0.188300	0.142200	0.249000
N971	N97	0.810300	0.254600	0.458000
N981	N98	0.183900	0.707400	0.254000
N991	N99	0.888400	0.102800	0.869200
N1001	N100	0.836800	0.448000	0.060700
N1011	N101	0.503400	0.658600	0.269400
N1021	N102	0.306700	0.829200	0.393700
N1031	N103	0.779200	0.044200	0.077500
N1041	N104	0.833900	0.342000	0.459200
N1051	N105	0.571800	0.549200	0.124000
N1061	N106	0.129800	0.013000	0.336200
N1071	N107	0.149100	0.091000	0.743300
N1081	N108	0.112900	0.652000	0.095800
N1091	N109	0.157800	0.954600	0.917400
N1101	N110	0.928600	0.467600	0.029800
N1111	N111	0.189700	0.745400	0.542000
N1121	N112	0.245800	0.157000	0.202500
N1131	N113	0.555700	0.745400	0.042000
N1141	N114	0.885600	0.322600	0.747000
N1151	N115	0.835300	0.105400	0.137900
N1161	N116	0.693600	0.786200	0.635100
N1171	N117	0.506200	0.305000	0.921900
N1181	N118	0.092600	0.786200	0.135100
N1191	N119	0.797900	0.054000	0.381700
N1201	N120	0.351800	0.217600	0.747900
N1211	N121	0.057500	0.950400	0.136100
N1221	N122	0.017900	0.450800	0.806100
N1231	N123	0.264000	0.881000	0.509000
N1241	N124	0.553000	0.374800	0.757800
N1251	N125	0.743700	0.187000	0.584300
N1261	N126	0.132700	0.974200	0.422000
N1271	N127	0.954500	0.449000	0.813600
N1281	N128	0.027000	0.469000	0.322700
N1291	N129	0.982100	0.549200	0.193900
N1301	N130	0.617000	0.881000	0.009000
N1311	N131	0.866800	0.388800	0.898400
N1321	N132	0.816600	0.333200	0.661100
N1331	N133	0.402700	0.304000	0.800400
N1341	N134	0.503500	0.563600	0.550600
N1351	N135	0.442000	0.469000	0.822700
N1361	N136	0.491900	0.658000	0.040800
N1371	N137	0.953900	0.142200	0.749000
N1381	N138	0.367700	0.416200	0.852400
N1391	N139	0.556700	0.813000	0.915700
N1401	N140	0.214400	0.102800	0.369200
N1411	N141	0.796800	0.954600	0.417400
N1421	N142	0.063400	0.744000	0.181600
N1431	N143	0.939900	0.436400	0.949400
N1441	N144	0.203200	0.045400	0.582600
N1451	N145	0.198100	0.864400	0.573000
N1461	N146	0.801900	0.135600	0.427000
N1471	N147	0.715400	0.044600	0.510800
N1481	N148	0.558000	0.531000	0.177300
N1491	N149	0.785600	0.897200	0.630800
N1501	N150	0.845600	0.229600	0.707400
N1511	N151	0.045500	0.551000	0.186400
N1521	N152	0.088800	0.843000	0.297500
N1531	N153	0.772500	0.885400	0.286900
N1541	N154	0.511900	0.524800	0.737200
N1551	N155	0.583900	0.368200	0.175600
N1561	N156	0.306400	0.213800	0.364900
N1571	N157	0.496500	0.436400	0.449400
N1581	N158	0.743900	0.946000	0.118300
N1591	N159	0.567100	0.549200	0.693900
N1601	N160	0.811700	0.857800	0.751000
N1611	N161	0.008600	0.728800	0.156300
N1621	N162	0.163200	0.552000	0.939300
N1631	N163	0.488100	0.475200	0.262800
N1641	N164	0.265000	0.044200	0.577500
N1651	N165	0.607800	0.951800	0.995700
N1661	N166	0.329200	0.044600	0.010800
N1671	N167	0.154400	0.770400	0.292600
N1681	N168	0.807800	0.201600	0.175100
N1691	N169	0.012900	0.524800	0.237200
N1701	N170	0.007500	0.181000	0.741600
N1711	N171	0.384000	0.229600	0.207400
N1721	N172	0.648200	0.782400	0.252100
N1731	N173	0.720200	0.728800	0.656300
N1741	N174	0.493400	0.567000	0.239000
N1751	N175	0.111600	0.897200	0.130800
N1761	N176	0.256300	0.813000	0.415700
N1771	N177	0.991400	0.271200	0.843700
N1781	N178	0.942500	0.049600	0.863900
N1791	N179	0.210200	0.748600	0.857400
N1801	N180	0.160100	0.915000	0.376900
N1811	N181	0.736000	0.119000	0.491000
N1821	N182	0.597300	0.696000	0.199600
N1831	N183	0.816100	0.292600	0.746000
N1841	N184	0.776600	0.160400	0.629800
N1851	N185	0.256100	0.054000	0.881700
N1861	N186	0.141700	0.898400	0.613800
N1871	N187	0.883200	0.013000	0.836200
N1881	N188	0.867300	0.025800	0.578000
N1891	N189	0.444300	0.254600	0.958000
N1901	N190	0.841500	0.974200	0.922000
N1911	N191	0.428200	0.450800	0.876000
N1921	N192	0.666300	0.864400	0.073000
N1931	N193	0.383000	0.119000	0.991000
N1941	N194	0.606200	0.798400	0.324900
N1951	N195	0.426000	0.266800	0.801800
N1961	N196	0.046100	0.857800	0.251000
N1971	N197	0.977400	0.549200	0.624000
N1981	N198	0.616000	0.770400	0.792600
N1991	N199	0.245100	0.085000	0.123100
N2001	N200	0.178200	0.625200	0.742200
N2011	N201	0.483400	0.666800	0.838900
N2021	N202	0.107100	0.049600	0.363900
N2031	N203	0.911200	0.157000	0.702500
N2041	N204	0.756700	0.898400	0.113800
N2051	N205	0.858300	0.101600	0.386200
N2061	N206	0.545300	0.412600	0.560500
N2071	N207	0.388800	0.552000	0.439300
N2081	N208	0.383800	0.160400	0.129800
N2091	N209	0.973000	0.531000	0.677300
N2101	N210	0.173500	0.181000	0.241600
N2111	N211	0.215700	0.631800	0.324400
N2121	N212	0.867300	0.412600	0.060500
N2131	N213	0.058100	0.909000	0.756700
N2141	N214	0.220800	0.955800	0.922500
N2151	N215	0.670800	0.955400	0.989200
N2161	N216	0.060100	0.563600	0.050600
N2171	N217	0.574000	0.733200	0.198200
N2181	N218	0.461000	0.532400	0.470200
N2191	N219	0.112900	0.885400	0.786900
N2201	N220	0.992500	0.819000	0.258400
N2211	N221	0.887100	0.114600	0.213100
N2221	N222	0.894300	0.427000	0.692700
N2231	N223	0.134200	0.782400	0.752100
N2241	N224	0.476500	0.292600	0.246000
N2251	N225	0.098700	0.696000	0.699600
N2261	N226	0.503500	0.770000	0.342900
N2271	N227	0.865800	0.217600	0.247900
N2281	N228	0.523500	0.707400	0.754000
O11	O1	0.530500	0.921400	0.406000
O21	O2	0.204900	0.889400	0.082500
O31	O3	0.569000	0.149000	0.873000
O41	O4	0.494500	0.840600	0.059100
O51	O5	0.245200	0.908200	0.299000
O61	O6	0.349500	0.117600	0.329800
O71	O7	0.660000	0.135000	0.711300
O81	O8	0.383700	0.065800	0.759200
O91	O9	0.423700	0.081400	0.363300
O101	O10	0.346100	0.840600	0.559100
O111	O11	0.334500	0.958400	0.075500
O121	O12	0.597400	0.158000	0.773500
O131	O13	0.597600	0.209000	0.720100
O141	O14	0.795100	0.110600	0.917500
O151	O15	0.431000	0.851000	0.127000
O161	O16	0.633000	0.030200	0.652900
O171	O17	0.432000	0.935800	0.198400
O181	O18	0.753100	0.234200	0.523300
O191	O19	0.420000	0.851000	0.627000
O201	O20	0.252500	0.898800	0.796900
O211	O21	0.475000	0.135000	0.211300
O221	O22	0.487900	0.902800	0.580100
O231	O23	0.632100	0.115400	0.223700
O241	O24	0.439400	0.842000	0.726500
O251	O25	0.818900	0.223800	0.919800
O261	O26	0.754800	0.091800	0.701000
O271	O27	0.609100	0.078600	0.094000
O281	O28	0.483300	0.115400	0.723700
O291	O29	0.580000	0.149000	0.373000
O301	O30	0.404900	0.223800	0.419800
O311	O31	0.586300	0.957000	0.344500
O321	O32	0.505500	0.159400	0.940900
O331	O33	0.658500	0.009600	0.794200
O341	O34	0.653900	0.159400	0.440900
O351	O35	0.232900	0.863400	0.669400
O361	O36	0.315500	0.110600	0.417500
O371	O37	0.685700	0.092600	0.763600
O381	O38	0.312500	0.983000	0.690000
O391	O39	0.747500	0.101200	0.203100
O401	O40	0.616300	0.934200	0.240800
O411	O41	0.545400	0.018000	0.596700
O421	O42	0.625500	0.241800	0.347400
O431	O43	0.648900	0.990400	0.705800
O441	O44	0.367000	0.969800	0.347100
O451	O45	0.559600	0.989800	0.206800
O461	O46	0.505500	0.862600	0.187200
O471	O47	0.469500	0.078600	0.594000
O481	O48	0.337000	0.091800	0.201000
O491	O49	0.665500	0.041600	0.924500
O501	O50	0.351100	0.009600	0.294200
O511	O51	0.670500	0.983000	0.190000
O521	O52	0.545500	0.101000	0.663300
O531	O53	0.768100	0.117600	0.829800
O541	O54	0.489900	0.976600	0.648200
O551	O55	0.516700	0.884600	0.276300
O561	O56	0.512100	0.097200	0.419900
O571	O57	0.486700	0.976600	0.148200
O581	O58	0.383700	0.758200	0.152600
O591	O59	0.569800	0.010200	0.293200
O601	O60	0.481100	0.234200	0.023300
O611	O61	0.511800	0.836200	0.667400
O621	O62	0.402600	0.842000	0.226500
O631	O63	0.439100	0.094400	0.863900
O641	O64	0.388600	0.791000	0.779900
O651	O65	0.496200	0.064200	0.301600
O661	O66	0.454600	0.982000	0.403300
O671	O67	0.314300	0.907400	0.236400
O681	O68	0.369500	0.136600	0.830600
O691	O69	0.611400	0.209000	0.220100
O701	O70	0.675600	0.163800	0.832600
O711	O71	0.402400	0.791000	0.279900
O721	O72	0.410400	0.961400	0.589700
O731	O73	0.589600	0.038600	0.410300
O741	O74	0.341500	0.990400	0.205800
O751	O75	0.558600	0.044400	0.714100
O761	O76	0.317900	0.934200	0.740800
O771	O77	0.629300	0.043000	0.155500
O781	O78	0.616300	0.241800	0.847400
O791	O79	0.518900	0.765800	0.976700
O801	O80	0.682100	0.065800	0.259200
O811	O81	0.551000	0.961400	0.089700
O821	O82	0.472600	0.018000	0.096700
O831	O83	0.342300	0.918600	0.136700
O841	O84	0.576300	0.918600	0.636700
O851	O85	0.454500	0.899000	0.336700
O861	O86	0.655300	0.094400	0.363900
O871	O87	0.623900	0.958400	0.575500
O881	O88	0.514200	0.955600	0.785900
O891	O89	0.414900	0.902800	0.080100
O901	O90	0.568000	0.064200	0.801600
O911	O91	0.440400	0.010200	0.793200
O921	O92	0.642900	0.137400	0.312800
O931	O93	0.246900	0.765800	0.476700
O941	O94	0.397200	0.030200	0.152900
O951	O95	0.657700	0.081400	0.863300
O961	O96	0.344700	0.905600	0.636100
O971	O97	0.687500	0.017000	0.310000
O981	O98	0.585100	0.097200	0.919900
O991	O99	0.513300	0.023400	0.851800
O1001	O100	0.663000	0.908200	0.799000
O1011	O101	0.595100	0.776200	0.580200
O1021	O102	0.527400	0.982000	0.903300
O1031	O103	0.441400	0.955600	0.285900
O1041	O104	0.367900	0.884600	0.776300
O1051	O105	0.181100	0.776200	0.080200
O1061	O106	0.510100	0.023400	0.351800
O1071	O107	0.353700	0.101200	0.703100
O1081	O108	0.684500	0.889400	0.582500
O1091	O109	0.376100	0.041600	0.424500
O1101	O110	0.430200	0.989800	0.706800
O1111	O111	0.374500	0.758200	0.652600
O1121	O112	0.488200	0.163800	0.332600
O1131	O113	0.560600	0.158000	0.273500
O1141	O114	0.560900	0.905600	0.136100
O1151	O115	0.494500	0.137400	0.812800
O1161	O116	0.646300	0.898800	0.296900
O1171	O117	0.449000	0.038600	0.910300
O1181	O118	0.329500	0.017000	0.810000
O1191	O119	0.602800	0.969800	0.847100
O1201	O120	0.357100	0.862600	0.687200
O1211	O121	0.555500	0.101000	0.163300
O1221	O122	0.485800	0.044400	0.214100
O1231	O123	0.340000	0.865000	0.288700
O1241	O124	0.370700	0.957000	0.844500
O1251	O125	0.406900	0.092600	0.263600
O1261	O126	0.324400	0.836200	0.167400
O1271	O127	0.525000	0.865000	0.788700
O1281	O128	0.231900	0.882400	0.170200
O1291	O129	0.503800	0.935800	0.698400
O1301	O130	0.390900	0.921400	0.906000
O1311	O131	0.413700	0.043000	0.655500
O1321	O132	0.444500	0.899000	0.836700
O1331	O133	0.630500	0.863400	0.169400
O1341	O134	0.767100	0.136600	0.330600
O1351	O135	0.593100	0.907400	0.736400
O1361	O136	0.650500	0.882400	0.670200
