data_LOWQIX_freeONLY_PM
_symmetry_space_group_name_H-M	'P1'
_cell_length_a	11.983800
_cell_length_b	13.509000
_cell_length_c	27.039000
_cell_angle_alpha	93.459000
_cell_angle_beta	90.000000
_cell_angle_gamma	90.000000
_symmetry_Int_Tables_number 1

loop_
_symmetry_equiv_pos_as_xyz
'x,y,z'

loop_
_atom_site_label
_atom_site_type_symbol
_atom_site_fract_x
_atom_site_fract_y
_atom_site_fract_z
Zn11	Zn1	0.173490	0.823050	0.542040
Zn21	Zn2	0.826830	0.801520	0.443620
Zn31	Zn3	0.924060	0.988440	0.388950
Zn41	Zn4	0.173490	0.176950	0.957960
Zn51	Zn5	0.826830	0.198480	0.056380
Zn61	Zn6	0.924060	0.011560	0.111050
Zn71	Zn7	0.826510	0.176950	0.457960
Zn81	Zn8	0.173170	0.198480	0.556380
Zn91	Zn9	0.075940	0.011560	0.611050
Zn101	Zn10	0.826510	0.823050	0.042040
Zn111	Zn11	0.173170	0.801520	0.943620
Zn121	Zn12	0.075940	0.988440	0.888950
Zn131	Zn13	0.000000	0.000000	0.500000
Zn141	Zn14	0.000000	0.000000	0.000000
H11	H1	0.124600	0.861200	0.746100
H21	H2	0.282400	0.638900	0.807400
H31	H3	0.349300	0.588300	0.731900
H41	H4	0.305100	0.666500	0.660400
H51	H5	0.477000	0.891200	0.464500
H61	H6	0.277600	0.109500	0.418500
H71	H7	0.425100	0.183500	0.381900
H81	H8	0.603000	0.099400	0.377800
H91	H9	0.196800	0.502500	0.494100
H101	H10	0.032200	0.319600	0.390400
H111	H11	0.939900	0.452200	0.353000
H121	H12	0.008400	0.614400	0.384900
H131	H13	0.124600	0.138800	0.753900
H141	H14	0.282400	0.361100	0.692600
H151	H15	0.349300	0.411700	0.768100
H161	H16	0.305100	0.333500	0.839600
H171	H17	0.477000	0.108800	0.035500
H181	H18	0.277600	0.890500	0.081500
H191	H19	0.425100	0.816500	0.118100
H201	H20	0.603000	0.900600	0.122200
H211	H21	0.196800	0.497500	0.005900
H221	H22	0.032200	0.680400	0.109600
H231	H23	0.939900	0.547800	0.147000
H241	H24	0.008400	0.385600	0.115100
H251	H25	0.875400	0.138800	0.253900
H261	H26	0.717600	0.361100	0.192600
H271	H27	0.650700	0.411700	0.268100
H281	H28	0.694900	0.333500	0.339600
H291	H29	0.523000	0.108800	0.535500
H301	H30	0.722400	0.890500	0.581500
H311	H31	0.574900	0.816500	0.618100
H321	H32	0.397000	0.900600	0.622200
H331	H33	0.803200	0.497500	0.505900
H341	H34	0.967800	0.680400	0.609600
H351	H35	0.060100	0.547800	0.647000
H361	H36	0.991600	0.385600	0.615100
H371	H37	0.875400	0.861200	0.246100
H381	H38	0.717600	0.638900	0.307400
H391	H39	0.650700	0.588300	0.231900
H401	H40	0.694900	0.666500	0.160400
H411	H41	0.523000	0.891200	0.964500
H421	H42	0.722400	0.109500	0.918500
H431	H43	0.574900	0.183500	0.881900
H441	H44	0.397000	0.099400	0.877800
H451	H45	0.803200	0.502500	0.994100
H461	H46	0.967800	0.319600	0.890400
H471	H47	0.060100	0.452200	0.853000
H481	H48	0.991600	0.614400	0.884900
C11	C1	0.206600	0.776500	0.694600
C21	C2	0.171200	0.804300	0.742600
C31	C3	0.195300	0.760200	0.784500
C41	C4	0.264000	0.674600	0.779300
C51	C5	0.302000	0.644700	0.734500
C61	C6	0.276000	0.691300	0.691400
C71	C7	0.173200	0.827600	0.651700
C81	C8	0.157700	0.798100	0.835700
C91	C9	0.556800	0.988800	0.420400
C101	C10	0.466800	0.948500	0.446400
C111	C11	0.361500	0.994900	0.444800
C121	C12	0.349300	0.079800	0.419700
C131	C13	0.434900	0.122300	0.396900
C141	C14	0.542700	0.073200	0.395700
C151	C15	0.670300	0.943100	0.424200
C161	C16	0.269100	0.952600	0.473900
C171	C17	0.079000	0.568000	0.444400
C181	C18	0.139200	0.492400	0.470200
C191	C19	0.088000	0.390000	0.449800
C201	C20	0.037000	0.384000	0.406300
C211	C21	0.989000	0.461000	0.380600
C221	C22	0.025000	0.557000	0.402100
C231	C23	0.131100	0.682500	0.465400
C241	C24	0.143100	0.307500	0.474300
C251	C25	0.206600	0.223500	0.805400
C261	C26	0.171200	0.195700	0.757400
C271	C27	0.195300	0.239800	0.715500
C281	C28	0.264000	0.325400	0.720700
C291	C29	0.302000	0.355300	0.765500
C301	C30	0.276000	0.308700	0.808600
C311	C31	0.173200	0.172400	0.848300
C321	C32	0.157700	0.201900	0.664300
C331	C33	0.556800	0.011200	0.079600
C341	C34	0.466800	0.051500	0.053600
C351	C35	0.361500	0.005100	0.055200
C361	C36	0.349300	0.920200	0.080300
C371	C37	0.434900	0.877700	0.103100
C381	C38	0.542700	0.926800	0.104300
C391	C39	0.670300	0.056900	0.075800
C401	C40	0.269100	0.047400	0.026100
C411	C41	0.079000	0.432000	0.055600
C421	C42	0.139200	0.507600	0.029800
C431	C43	0.088000	0.610000	0.050200
C441	C44	0.037000	0.616000	0.093700
C451	C45	0.989000	0.539000	0.119400
C461	C46	0.025000	0.443000	0.097900
C471	C47	0.131100	0.317500	0.034600
C481	C48	0.143100	0.692500	0.025700
C491	C49	0.793400	0.223500	0.305400
C501	C50	0.828800	0.195700	0.257400
C511	C51	0.804700	0.239800	0.215500
C521	C52	0.736000	0.325400	0.220700
C531	C53	0.698000	0.355300	0.265500
C541	C54	0.724000	0.308700	0.308600
C551	C55	0.826800	0.172400	0.348300
C561	C56	0.842300	0.201900	0.164300
C571	C57	0.443200	0.011200	0.579600
C581	C58	0.533200	0.051500	0.553600
C591	C59	0.638500	0.005100	0.555200
C601	C60	0.650700	0.920200	0.580300
C611	C61	0.565100	0.877700	0.603100
C621	C62	0.457300	0.926800	0.604300
C631	C63	0.329700	0.056900	0.575800
C641	C64	0.730900	0.047400	0.526100
C651	C65	0.921000	0.432000	0.555600
C661	C66	0.860800	0.507600	0.529800
C671	C67	0.912000	0.610000	0.550200
C681	C68	0.963000	0.616000	0.593700
C691	C69	0.011000	0.539000	0.619400
C701	C70	0.975000	0.443000	0.597900
C711	C71	0.868900	0.317500	0.534600
C721	C72	0.856900	0.692500	0.525700
C731	C73	0.793400	0.776500	0.194600
C741	C74	0.828800	0.804300	0.242600
C751	C75	0.804700	0.760200	0.284500
C761	C76	0.736000	0.674600	0.279300
C771	C77	0.698000	0.644700	0.234500
C781	C78	0.724000	0.691300	0.191400
C791	C79	0.826800	0.827600	0.151700
C801	C80	0.842300	0.798100	0.335700
C811	C81	0.443200	0.988800	0.920400
C821	C82	0.533200	0.948500	0.946400
C831	C83	0.638500	0.994900	0.944800
C841	C84	0.650700	0.079800	0.919700
C851	C85	0.565100	0.122300	0.896900
C861	C86	0.457300	0.073200	0.895700
C871	C87	0.329700	0.943100	0.924200
C881	C88	0.730900	0.952600	0.973900
C891	C89	0.921000	0.568000	0.944400
C901	C90	0.860800	0.492400	0.970200
C911	C91	0.912000	0.390000	0.949800
C921	C92	0.963000	0.384000	0.906300
C931	C93	0.011000	0.461000	0.880600
C941	C94	0.975000	0.557000	0.902100
C951	C95	0.868900	0.682500	0.965400
C961	C96	0.856900	0.307500	0.974300
O11	O1	0.110500	0.901900	0.656600
O21	O2	0.208700	0.791800	0.609600
O31	O3	0.096100	0.873900	0.835000
O41	O4	0.183700	0.753900	0.872600
O51	O5	0.680000	0.864400	0.447800
O61	O6	0.750700	0.986000	0.402300
O71	O7	0.290800	0.886700	0.503400
O81	O8	0.171400	0.988600	0.467700
O91	O9	0.147700	0.689000	0.511300
O101	O10	0.118700	0.751000	0.438700
O111	O11	0.162900	0.321500	0.522900
O121	O12	0.135000	0.224900	0.450800
O131	O13	0.954300	0.893000	0.446200
O141	O14	0.042400	0.904300	0.552600
O151	O15	0.110500	0.098100	0.843400
O161	O16	0.208700	0.208200	0.890400
O171	O17	0.096100	0.126100	0.665000
O181	O18	0.183700	0.246100	0.627400
O191	O19	0.680000	0.135600	0.052200
O201	O20	0.750700	0.014000	0.097700
O211	O21	0.290800	0.113300	0.996600
O221	O22	0.171400	0.011400	0.032300
O231	O23	0.147700	0.311000	0.988700
O241	O24	0.118700	0.249000	0.061300
O251	O25	0.162900	0.678500	0.977100
O261	O26	0.135000	0.775100	0.049200
O271	O27	0.954300	0.107000	0.053800
O281	O28	0.042400	0.095700	0.947400
O291	O29	0.889500	0.098100	0.343400
O301	O30	0.791300	0.208200	0.390400
O311	O31	0.903900	0.126100	0.165000
O321	O32	0.816300	0.246100	0.127400
O331	O33	0.320000	0.135600	0.552200
O341	O34	0.249300	0.014000	0.597700
O351	O35	0.709200	0.113300	0.496600
O361	O36	0.828600	0.011400	0.532300
O371	O37	0.852300	0.311000	0.488700
O381	O38	0.881300	0.249000	0.561300
O391	O39	0.837100	0.678500	0.477100
O401	O40	0.865000	0.775100	0.549200
O411	O41	0.045700	0.107000	0.553800
O421	O42	0.957600	0.095700	0.447400
O431	O43	0.889500	0.901900	0.156600
O441	O44	0.791300	0.791800	0.109600
O451	O45	0.903900	0.873900	0.335000
O461	O46	0.816300	0.753900	0.372600
O471	O47	0.320000	0.864400	0.947800
O481	O48	0.249300	0.986000	0.902300
O491	O49	0.709200	0.886700	0.003400
O501	O50	0.828600	0.988600	0.967700
O511	O51	0.852300	0.689000	0.011300
O521	O52	0.881300	0.751000	0.938700
O531	O53	0.837100	0.321500	0.022900
O541	O54	0.865000	0.224900	0.950800
O551	O55	0.045700	0.893000	0.946200
O561	O56	0.957600	0.904300	0.052600
