data_LOXBEH_freeONLY_PM
_symmetry_space_group_name_H-M	'P1'
_cell_length_a	29.595500
_cell_length_b	29.595500
_cell_length_c	29.595500
_cell_angle_alpha	90.000000
_cell_angle_beta	90.000000
_cell_angle_gamma	90.000000
_symmetry_Int_Tables_number 1

loop_
_symmetry_equiv_pos_as_xyz
'x,y,z'

loop_
_atom_site_label
_atom_site_type_symbol
_atom_site_fract_x
_atom_site_fract_y
_atom_site_fract_z
Cd11	Cd1	0.973930	0.228130	0.752070
Cd21	Cd2	0.776070	0.997930	0.521870
Cd31	Cd3	0.223930	0.497930	0.978130
Cd41	Cd4	0.526070	0.771870	0.252070
Cd51	Cd5	0.978130	0.223930	0.497930
Cd61	Cd6	0.747930	0.026070	0.728130
Cd71	Cd7	0.247930	0.473930	0.271870
Cd81	Cd8	0.563240	0.375000	0.186760
Cd91	Cd9	0.473930	0.271870	0.247930
Cd101	Cd10	0.997930	0.521870	0.776070
Cd111	Cd11	0.723930	0.002070	0.021870
Cd121	Cd12	0.625000	0.686760	0.936760
Cd131	Cd13	0.228130	0.752070	0.973930
Cd141	Cd14	0.502070	0.478130	0.276070
Cd151	Cd15	0.021870	0.723930	0.002070
Cd161	Cd16	0.813240	0.063240	0.125000
Cd171	Cd17	0.686760	0.936760	0.625000
Cd181	Cd18	0.026070	0.728130	0.747930
Cd191	Cd19	0.125000	0.813240	0.063240
Cd201	Cd20	0.478130	0.276070	0.502070
Cd211	Cd21	0.002070	0.021870	0.723930
Cd221	Cd22	0.728130	0.747930	0.026070
Cd231	Cd23	0.771870	0.252070	0.526070
Cd241	Cd24	0.521870	0.776070	0.997930
Cd251	Cd25	0.276070	0.502070	0.478130
Cd261	Cd26	0.875000	0.313240	0.436760
Cd271	Cd27	0.186760	0.563240	0.375000
Cd281	Cd28	0.271870	0.247930	0.473930
Cd291	Cd29	0.752070	0.973930	0.228130
Cd301	Cd30	0.436760	0.875000	0.313240
Cd311	Cd31	0.063240	0.125000	0.813240
Cd321	Cd32	0.936760	0.625000	0.686760
Cd331	Cd33	0.375000	0.186760	0.563240
Cd341	Cd34	0.497930	0.978130	0.223930
Cd351	Cd35	0.313240	0.436760	0.875000
Cd361	Cd36	0.252070	0.526070	0.771870
H11	H1	0.932400	0.047100	0.190200
H21	H2	0.722500	0.112100	0.344700
H31	H3	0.360100	0.795200	0.303000
H41	H4	0.309800	0.067600	0.547100
H51	H5	0.074900	0.627200	0.158800
H61	H6	0.481800	0.759400	0.470800
H71	H7	0.809800	0.432400	0.452900
H81	H8	0.995500	0.331900	0.635500
H91	H9	0.998000	0.692100	0.595800
H101	H10	0.887900	0.844700	0.777500
H111	H11	0.610100	0.947000	0.545200
H121	H12	0.790000	0.180500	0.269100
H131	H13	0.110100	0.553000	0.454800
H141	H14	0.748100	0.433500	0.517900
H151	H15	0.917700	0.710900	0.629000
H161	H16	0.668100	0.135500	0.504500
H171	H17	0.596900	0.949900	0.280400
H181	H18	0.425100	0.372800	0.658800
H191	H19	0.572700	0.620100	0.200500
H201	H20	0.795100	0.898800	0.627300
H211	H21	0.530400	0.300100	0.346900
H221	H22	0.729000	0.830400	0.437300
H231	H23	0.303000	0.360100	0.795200
H241	H24	0.824900	0.408800	0.622800
H251	H25	0.732100	0.183500	0.998100
H261	H26	0.853900	0.143700	0.779500
H271	H27	0.521000	0.187300	0.080400
H281	H28	0.449900	0.219600	0.403100
H291	H29	0.029500	0.106300	0.603900
H301	H30	0.622700	0.648800	0.045100
H311	H31	0.187300	0.080400	0.521000
H321	H32	0.364500	0.495500	0.168100
H331	H33	0.748000	0.845800	0.557900
H341	H34	0.777500	0.887900	0.844700
H351	H35	0.700500	0.927300	0.379900
H361	H36	0.135500	0.504500	0.668100
H371	H37	0.704700	0.448700	0.437800
H381	H38	0.330400	0.062700	0.271000
H391	H39	0.549500	0.129900	0.177300
H401	H40	0.096900	0.550100	0.719600
H411	H41	0.550100	0.719600	0.096900
H421	H42	0.245500	0.614500	0.081900
H431	H43	0.198700	0.954700	0.812200
H441	H44	0.595800	0.998000	0.692100
H451	H45	0.404200	0.498000	0.807900
H461	H46	0.980900	0.930500	0.040000
H471	H47	0.066500	0.482100	0.248100
H481	H48	0.675600	0.156700	0.180900
H491	H49	0.698700	0.545300	0.187800
H501	H50	0.927300	0.379900	0.700500
H511	H51	0.933500	0.982100	0.251900
H521	H52	0.495500	0.168100	0.364500
H531	H53	0.021000	0.312700	0.919600
H541	H54	0.606300	0.896100	0.970500
H551	H55	0.322700	0.450500	0.629900
H561	H56	0.803000	0.139900	0.204800
H571	H57	0.872700	0.204900	0.398800
H581	H58	0.001900	0.232100	0.316500
H591	H59	0.581900	0.254500	0.385500
H601	H60	0.681200	0.008200	0.464900
H611	H61	0.846900	0.969600	0.699900
H621	H62	0.387900	0.655300	0.222500
H631	H63	0.830400	0.437300	0.729000
H641	H64	0.856300	0.279500	0.646100
H651	H65	0.220500	0.353900	0.356300
H661	H66	0.344700	0.722500	0.112100
H671	H67	0.710000	0.819500	0.769100
H681	H68	0.094700	0.362100	0.527500
H691	H69	0.687800	0.801300	0.454700
H701	H70	0.801300	0.454700	0.687800
H711	H71	0.594700	0.137900	0.472500
H721	H72	0.646100	0.856300	0.279500
H731	H73	0.795300	0.551300	0.937800
H741	H74	0.332300	0.379000	0.960900
H751	H75	0.432400	0.452900	0.809800
H761	H76	0.498100	0.767900	0.816500
H771	H77	0.271000	0.330400	0.062700
H781	H78	0.148800	0.454900	0.377300
H791	H79	0.621000	0.460900	0.167700
H801	H80	0.454800	0.110100	0.553000
H811	H81	0.960900	0.332300	0.379000
H821	H82	0.529500	0.393700	0.396100
H831	H83	0.614500	0.081900	0.245500
H841	H84	0.818800	0.991800	0.964900
H851	H85	0.680900	0.824400	0.843300
H861	H86	0.797100	0.182400	0.059800
H871	H87	0.372700	0.295100	0.601200
H881	H88	0.949900	0.280400	0.596900
H891	H89	0.517900	0.748100	0.433500
H901	H90	0.822700	0.049500	0.370100
H911	H91	0.454900	0.377300	0.148800
H921	H92	0.403100	0.449900	0.219600
H931	H93	0.591200	0.122800	0.675100
H941	H94	0.501900	0.267900	0.683500
H951	H95	0.045200	0.889900	0.053000
H961	H96	0.741800	0.068800	0.285100
H971	H97	0.182400	0.059800	0.797100
H981	H98	0.658800	0.425100	0.372800
H991	H99	0.122800	0.675100	0.591200
H1001	H100	0.389900	0.447000	0.954800
H1011	H101	0.580400	0.979000	0.812700
H1021	H102	0.769100	0.710000	0.819500
H1031	H103	0.860100	0.704800	0.697000
H1041	H104	0.289100	0.129000	0.582300
H1051	H105	0.789100	0.371000	0.417700
H1061	H106	0.879900	0.799500	0.072700
H1071	H107	0.210000	0.680500	0.230900
H1081	H108	0.745500	0.885500	0.918100
H1091	H109	0.930500	0.040000	0.980900
H1101	H110	0.699900	0.846900	0.969600
H1111	H111	0.220800	0.009400	0.768200
H1121	H112	0.122700	0.851200	0.954900
H1131	H113	0.408800	0.622800	0.824900
H1141	H114	0.062700	0.271000	0.330400
H1151	H115	0.047100	0.190200	0.932400
H1161	H116	0.731800	0.779200	0.509400
H1171	H117	0.430500	0.460000	0.019100
H1181	H118	0.277500	0.612100	0.155300
H1191	H119	0.862100	0.972500	0.905300
H1201	H120	0.155300	0.277500	0.612100
H1211	H121	0.318800	0.508200	0.035100
H1221	H122	0.137900	0.472500	0.594700
H1231	H123	0.780400	0.903100	0.050100
H1241	H124	0.948700	0.062200	0.295300
H1251	H125	0.904200	0.002000	0.192100
H1261	H126	0.004500	0.831900	0.864500
H1271	H127	0.370100	0.822700	0.049500
H1281	H128	0.192100	0.904200	0.002000
H1291	H129	0.183500	0.998100	0.732100
H1301	H130	0.574900	0.872800	0.841200
H1311	H131	0.190200	0.932400	0.047100
H1321	H132	0.372800	0.658800	0.425100
H1331	H133	0.285100	0.741800	0.068800
H1341	H134	0.319500	0.730900	0.290000
H1351	H135	0.680500	0.230900	0.210000
H1361	H136	0.627200	0.158800	0.074900
H1371	H137	0.490600	0.231800	0.720800
H1381	H138	0.204700	0.051300	0.562200
H1391	H139	0.702900	0.817600	0.559800
H1401	H140	0.393700	0.396100	0.529500
H1411	H141	0.331900	0.635500	0.995500
H1421	H142	0.896100	0.970500	0.606300
H1431	H143	0.540000	0.519100	0.069500
H1441	H144	0.919600	0.021000	0.312700
H1451	H145	0.767900	0.816500	0.498100
H1461	H146	0.669600	0.562700	0.229000
H1471	H147	0.127200	0.341200	0.925100
H1481	H148	0.324400	0.656700	0.319100
H1491	H149	0.175600	0.343300	0.819100
H1501	H150	0.279200	0.990600	0.268200
H1511	H151	0.379000	0.960900	0.332300
H1521	H152	0.654200	0.442100	0.248000
H1531	H153	0.448700	0.437800	0.704700
H1541	H154	0.168100	0.364500	0.495500
H1551	H155	0.545200	0.610100	0.947000
H1561	H156	0.082300	0.210900	0.871000
H1571	H157	0.960000	0.480900	0.569500
H1581	H158	0.508200	0.035100	0.318800
H1591	H159	0.371000	0.417700	0.789100
H1601	H160	0.812700	0.580400	0.979000
H1611	H161	0.504500	0.668100	0.135500
H1621	H162	0.937300	0.771000	0.169600
H1631	H163	0.240600	0.970800	0.018200
H1641	H164	0.230900	0.210000	0.680500
H1651	H165	0.377200	0.324900	0.091200
H1661	H166	0.629000	0.917700	0.710900
H1671	H167	0.480900	0.569500	0.960000
H1681	H168	0.180900	0.675600	0.156700
H1691	H169	0.251900	0.933500	0.982100
H1701	H170	0.280400	0.596900	0.949900
H1711	H171	0.259400	0.029200	0.518200
H1721	H172	0.248000	0.654200	0.442100
H1731	H173	0.970500	0.606300	0.896100
H1741	H174	0.832300	0.121000	0.039100
H1751	H175	0.143700	0.779500	0.853900
H1761	H176	0.930900	0.406700	0.574400
H1771	H177	0.844700	0.777500	0.887900
H1781	H178	0.129000	0.582300	0.289100
H1791	H179	0.871000	0.082300	0.210900
H1801	H180	0.795200	0.303000	0.360100
H1811	H181	0.430900	0.093300	0.425600
H1821	H182	0.979000	0.812700	0.580400
H1831	H183	0.002000	0.192100	0.904200
H1841	H184	0.379900	0.700500	0.927300
H1851	H185	0.620100	0.200500	0.572700
H1861	H186	0.872800	0.841200	0.574900
H1871	H187	0.845800	0.557900	0.748000
H1881	H188	0.491800	0.535100	0.181200
H1891	H189	0.248100	0.066500	0.482100
H1901	H190	0.362100	0.527500	0.094700
H1911	H191	0.819100	0.175600	0.343300
H1921	H192	0.241800	0.431200	0.714900
H1931	H193	0.981800	0.740600	0.529200
H1941	H194	0.127300	0.704900	0.101200
H1951	H195	0.454700	0.687800	0.801300
H1961	H196	0.682400	0.440200	0.202900
H1971	H197	0.405300	0.637900	0.027500
H1981	H198	0.316500	0.001900	0.232100
H1991	H199	0.187800	0.698700	0.545300
H2001	H200	0.710900	0.629000	0.917700
H2011	H201	0.502000	0.307900	0.095800
H2021	H202	0.622800	0.824900	0.408800
H2031	H203	0.603900	0.029500	0.106300
H2041	H204	0.990600	0.268200	0.279200
H2051	H205	0.258200	0.568800	0.214900
H2061	H206	0.545300	0.187800	0.698700
H2071	H207	0.498000	0.807900	0.404200
H2081	H208	0.648800	0.045100	0.622700
H2091	H209	0.120100	0.299500	0.427300
H2101	H210	0.231800	0.720800	0.490600
H2111	H211	0.418100	0.754500	0.114500
H2121	H212	0.254500	0.385500	0.581900
H2131	H213	0.535100	0.181200	0.491800
H2141	H214	0.812200	0.198700	0.954700
H2151	H215	0.307900	0.095800	0.502000
H2161	H216	0.081900	0.245500	0.614500
H2171	H217	0.452900	0.809800	0.432400
H2181	H218	0.906700	0.925600	0.069100
H2191	H219	0.029200	0.518200	0.259400
H2201	H220	0.343300	0.819100	0.175600
H2211	H221	0.154200	0.057900	0.752000
H2221	H222	0.396100	0.529500	0.393700
H2231	H223	0.030400	0.199900	0.653100
H2241	H224	0.229000	0.669600	0.562700
H2251	H225	0.210900	0.871000	0.082300
H2261	H226	0.697000	0.860100	0.704800
H2271	H227	0.204800	0.803000	0.139900
H2281	H228	0.095800	0.502000	0.307900
H2291	H229	0.692100	0.595800	0.998000
H2301	H230	0.569100	0.593300	0.074400
H2311	H231	0.040000	0.980900	0.930500
H2321	H232	0.799500	0.072700	0.879900
H2331	H233	0.545100	0.877300	0.351200
H2341	H234	0.559800	0.702900	0.817600
H2351	H235	0.301300	0.045300	0.312200
H2361	H236	0.440200	0.202900	0.682400
H2371	H237	0.931200	0.785100	0.758200
H2381	H238	0.027500	0.405300	0.637900
H2391	H239	0.690200	0.567600	0.952900
H2401	H240	0.017900	0.751900	0.566500
H2411	H241	0.714900	0.241800	0.431200
H2421	H242	0.204900	0.398800	0.872700
H2431	H243	0.539100	0.667700	0.879000
H2441	H244	0.518200	0.259400	0.029200
H2451	H245	0.991800	0.964900	0.818800
H2461	H246	0.720800	0.490600	0.231800
H2471	H247	0.942100	0.252000	0.345800
H2481	H248	0.637900	0.027500	0.405300
H2491	H249	0.918100	0.745500	0.885500
H2501	H250	0.843300	0.680900	0.824400
H2511	H251	0.779200	0.509400	0.731800
H2521	H252	0.800100	0.153100	0.469600
H2531	H253	0.008200	0.464900	0.681200
H2541	H254	0.816500	0.498100	0.767900
H2551	H255	0.057900	0.752000	0.154200
H2561	H256	0.824400	0.843300	0.680900
H2571	H257	0.112100	0.344700	0.722500
H2581	H258	0.290000	0.319500	0.730900
H2591	H259	0.547100	0.309800	0.067600
H2601	H260	0.053000	0.045200	0.889900
H2611	H261	0.593300	0.074400	0.569100
H2621	H262	0.267900	0.683500	0.501900
H2631	H263	0.819500	0.769100	0.710000
H2641	H264	0.346900	0.530400	0.300100
H2651	H265	0.431200	0.714900	0.241800
H2661	H266	0.317600	0.940200	0.297100
H2671	H267	0.667700	0.879000	0.539100
H2681	H268	0.877200	0.175100	0.908800
H2691	H269	0.312700	0.919600	0.021000
H2701	H270	0.807900	0.404200	0.498000
H2711	H271	0.954700	0.812200	0.198700
H2721	H272	0.319100	0.324400	0.656700
H2731	H273	0.460900	0.167700	0.621000
H2741	H274	0.954800	0.389900	0.447000
H2751	H275	0.905300	0.862100	0.972500
H2761	H276	0.050100	0.780400	0.903100
H2771	H277	0.566500	0.017900	0.751900
H2781	H278	0.470800	0.481800	0.759400
H2791	H279	0.450500	0.629900	0.322700
H2801	H280	0.719600	0.096900	0.550100
H2811	H281	0.019100	0.430500	0.460000
H2821	H282	0.952900	0.690200	0.567600
H2831	H283	0.442100	0.248000	0.654200
H2841	H284	0.908800	0.877200	0.175100
H2851	H285	0.300100	0.346900	0.530400
H2861	H286	0.519100	0.069500	0.540000
H2871	H287	0.529200	0.981800	0.740600
H2881	H288	0.509400	0.731800	0.779200
H2891	H289	0.101200	0.127300	0.704900
H2901	H290	0.049500	0.370100	0.822700
H2911	H291	0.356300	0.220500	0.353900
H2921	H292	0.851200	0.954900	0.122700
H2931	H293	0.175100	0.908800	0.877200
H2941	H294	0.197000	0.639900	0.295200
H2951	H295	0.106300	0.603900	0.029500
H2961	H296	0.351200	0.545100	0.877300
H2971	H297	0.479000	0.687300	0.419600
H2981	H298	0.324900	0.091200	0.377200
H2991	H299	0.653100	0.030400	0.199900
H3001	H300	0.643700	0.720500	0.146100
H3011	H301	0.295100	0.601200	0.372700
H3021	H302	0.068800	0.285100	0.741800
H3031	H303	0.433500	0.517900	0.748100
H3041	H304	0.460000	0.019100	0.430500
H3051	H305	0.156700	0.180900	0.675600
H3061	H306	0.759400	0.470800	0.481800
H3071	H307	0.252000	0.345800	0.942100
H3081	H308	0.169600	0.937300	0.771000
H3091	H309	0.200500	0.572700	0.620100
H3101	H310	0.232100	0.316500	0.001900
H3111	H311	0.181200	0.491800	0.535100
H3121	H312	0.469600	0.800100	0.153100
H3131	H313	0.551300	0.937800	0.795300
H3141	H314	0.427300	0.120100	0.299500
H3151	H315	0.419600	0.479000	0.687300
H3161	H316	0.417700	0.789100	0.371000
H3171	H317	0.482100	0.248100	0.066500
H3181	H318	0.740600	0.529200	0.981800
H3191	H319	0.768200	0.220800	0.009400
H3201	H320	0.103900	0.470500	0.893700
H3211	H321	0.998100	0.732100	0.183500
H3221	H322	0.557900	0.748000	0.845800
H3231	H323	0.675100	0.591200	0.122800
H3241	H324	0.730900	0.290000	0.319500
H3251	H325	0.553000	0.454800	0.110100
H3261	H326	0.385500	0.581900	0.254500
H3271	H327	0.567600	0.952900	0.690200
H3281	H328	0.629900	0.322700	0.450500
H3291	H329	0.177300	0.549500	0.129900
H3301	H330	0.751900	0.566500	0.017900
H3311	H331	0.051300	0.562200	0.204700
H3321	H332	0.889900	0.053000	0.045200
H3331	H333	0.970800	0.018200	0.240600
H3341	H334	0.704900	0.101200	0.127300
H3351	H335	0.841200	0.574900	0.872800
H3361	H336	0.091200	0.377200	0.324900
H3371	H337	0.074400	0.569100	0.593300
H3381	H338	0.069100	0.906700	0.925600
H3391	H339	0.655300	0.222500	0.387900
H3401	H340	0.219600	0.403100	0.449900
H3411	H341	0.268200	0.279200	0.990600
H3421	H342	0.114500	0.418100	0.754500
H3431	H343	0.377300	0.148800	0.454900
H3441	H344	0.312200	0.301300	0.045300
H3451	H345	0.831900	0.864500	0.004500
H3461	H346	0.139900	0.204800	0.803000
H3471	H347	0.214900	0.258200	0.568800
H3481	H348	0.018200	0.240600	0.970800
H3491	H349	0.635500	0.995500	0.331900
H3501	H350	0.062200	0.295300	0.948700
H3511	H351	0.752000	0.154200	0.057900
H3521	H352	0.969600	0.699900	0.846900
H3531	H353	0.437800	0.704700	0.448700
H3541	H354	0.771000	0.169600	0.937300
H3551	H355	0.398800	0.872700	0.204900
H3561	H356	0.864500	0.004500	0.831900
H3571	H357	0.925600	0.069100	0.906700
H3581	H358	0.612100	0.155300	0.277500
H3591	H359	0.167700	0.621000	0.460900
H3601	H360	0.720500	0.146100	0.643700
H3611	H361	0.779500	0.853900	0.143700
H3621	H362	0.562700	0.229000	0.669600
H3631	H363	0.885500	0.918100	0.745500
H3641	H364	0.080400	0.521000	0.187300
H3651	H365	0.341200	0.925100	0.127200
H3661	H366	0.683500	0.501900	0.267900
H3671	H367	0.817600	0.559800	0.702900
H3681	H368	0.297100	0.317600	0.940200
H3691	H369	0.146100	0.643700	0.720500
H3701	H370	0.950500	0.870100	0.677300
H3711	H371	0.870100	0.677300	0.950500
H3721	H372	0.758200	0.931200	0.785100
H3731	H373	0.954900	0.122700	0.851200
H3741	H374	0.180500	0.269100	0.790000
H3751	H375	0.470500	0.893700	0.103900
H3761	H376	0.568800	0.214900	0.258200
H3771	H377	0.601200	0.372700	0.295100
H3781	H378	0.754500	0.114500	0.418100
H3791	H379	0.893700	0.103900	0.470500
H3801	H380	0.295300	0.948700	0.062200
H3811	H381	0.925100	0.127200	0.341200
H3821	H382	0.972500	0.905300	0.862100
H3831	H383	0.072700	0.879900	0.799500
H3841	H384	0.093300	0.425600	0.430900
H3851	H385	0.279500	0.646100	0.856300
H3861	H386	0.569500	0.960000	0.480900
H3871	H387	0.045100	0.622700	0.648800
H3881	H388	0.059800	0.797100	0.182400
H3891	H389	0.199900	0.653100	0.030400
H3901	H390	0.785100	0.758200	0.931200
H3911	H391	0.269100	0.790000	0.180500
H3921	H392	0.067600	0.547100	0.309800
H3931	H393	0.704800	0.697000	0.860100
H3941	H394	0.527500	0.094700	0.362100
H3951	H395	0.153100	0.469600	0.800100
H3961	H396	0.158800	0.074900	0.627200
H3971	H397	0.295200	0.197000	0.639900
H3981	H398	0.425600	0.430900	0.093300
H3991	H399	0.069500	0.540000	0.519100
H4001	H400	0.687300	0.419600	0.479000
H4011	H401	0.121000	0.039100	0.832300
H4021	H402	0.345800	0.942100	0.252000
H4031	H403	0.406700	0.574400	0.930900
H4041	H404	0.472500	0.594700	0.137900
H4051	H405	0.045300	0.312200	0.301300
H4061	H406	0.574400	0.930900	0.406700
H4071	H407	0.947000	0.545200	0.610100
H4081	H408	0.627300	0.795100	0.898800
H4091	H409	0.129900	0.177300	0.549500
H4101	H410	0.964900	0.818800	0.991800
H4111	H411	0.677300	0.950500	0.870100
H4121	H412	0.940200	0.297100	0.317600
H4131	H413	0.009400	0.768200	0.220800
H4141	H414	0.898800	0.627300	0.795100
H4151	H415	0.202900	0.682400	0.440200
H4161	H416	0.582300	0.289100	0.129000
H4171	H417	0.903100	0.050100	0.780400
H4181	H418	0.877300	0.351200	0.545100
H4191	H419	0.879000	0.539100	0.667700
H4201	H420	0.464900	0.681200	0.008200
H4211	H421	0.035100	0.318800	0.508200
H4221	H422	0.639900	0.295200	0.197000
H4231	H423	0.656700	0.319100	0.324400
H4241	H424	0.562200	0.204700	0.051300
H4251	H425	0.937800	0.795300	0.551300
H4261	H426	0.039100	0.832300	0.121000
H4271	H427	0.353900	0.356300	0.220500
H4281	H428	0.437300	0.729000	0.830400
H4291	H429	0.299500	0.427300	0.120100
H4301	H430	0.447000	0.954800	0.389900
H4311	H431	0.222500	0.387900	0.655300
H4321	H432	0.982100	0.251900	0.933500
C11	C1	0.275000	0.334100	0.544300
C21	C2	0.119400	0.420000	0.555200
C31	C3	0.824300	0.101500	0.826400
C41	C4	0.414200	0.472100	0.790500
C51	C5	0.225000	0.665900	0.044300
C61	C6	0.572100	0.601400	0.044100
C71	C7	0.610800	0.975200	0.559100
C81	C8	0.580300	0.474900	0.221400
C91	C9	0.540700	0.212800	0.074700
C101	C10	0.334700	0.156600	0.374300
C111	C11	0.155200	0.569600	0.119900
C121	C12	0.982000	0.482800	0.547200
C131	C13	0.061200	0.514000	0.253600
C141	C14	0.851400	0.677900	0.794100
C151	C15	0.612900	0.133900	0.655300
C161	C16	0.894900	0.002400	0.824300
C171	C17	0.790500	0.414200	0.472100
C181	C18	0.232800	0.232000	0.702800
C191	C19	0.702000	0.926700	0.291800
C201	C20	0.626100	0.946200	0.727500
C211	C21	0.794300	0.915900	0.025000
C221	C22	0.714500	0.065700	0.269800
C231	C23	0.730200	0.214500	0.434300
C241	C24	0.584100	0.975000	0.294300
C251	C25	0.100700	0.866300	0.971500
C261	C26	0.974900	0.278600	0.419700
C271	C27	0.724900	0.669700	0.971400
C281	C28	0.664200	0.459500	0.222100
C291	C29	0.323300	0.599900	0.794700
C301	C30	0.971400	0.724900	0.669700
C311	C31	0.656600	0.125700	0.665300
C321	C32	0.712800	0.425300	0.459300
C331	C33	0.247600	0.644900	0.074300
C341	C34	0.640200	0.911700	0.800200
C351	C35	0.553800	0.272500	0.126100
C361	C36	0.176700	0.548000	0.041800
C371	C37	0.565700	0.230200	0.285500
C381	C38	0.126100	0.553800	0.272500
C391	C39	0.810200	0.851200	0.137800
C401	C40	0.180400	0.594800	0.630100
C411	C41	0.426700	0.208200	0.298000
C421	C42	0.830000	0.869400	0.805200
C431	C43	0.222100	0.664200	0.459500
C441	C44	0.202800	0.267200	0.768000
C451	C45	0.464500	0.519800	0.184300
C461	C46	0.905200	0.369900	0.680400
C471	C47	0.746400	0.561200	0.986000
C481	C48	0.915900	0.025000	0.794300
C491	C49	0.866500	0.840400	0.800100
C501	C50	0.721400	0.919700	0.525100
C511	C51	0.156400	0.619700	0.598900
C521	C52	0.625700	0.834700	0.343400
C531	C53	0.630100	0.180400	0.594800
C541	C54	0.585800	0.972100	0.709500
C551	C55	0.777900	0.164200	0.040500
C561	C56	0.612200	0.898800	0.939800
C571	C57	0.655300	0.612900	0.133900
C581	C58	0.900100	0.205300	0.823300
C591	C59	0.344700	0.112900	0.366100
C601	C60	0.221500	0.383700	0.850700
C611	C61	0.175300	0.962800	0.790700
C621	C62	0.883700	0.649300	0.778500
C631	C63	0.573300	0.455300	0.349900
C641	C64	0.175700	0.394900	0.497600
C651	C65	0.205900	0.351400	0.822100
C661	C66	0.800100	0.866500	0.840400
C671	C67	0.600700	0.633700	0.028500
C681	C68	0.911700	0.800200	0.640200
C691	C69	0.037200	0.290700	0.324700
C701	C70	0.725200	0.860800	0.690900
C711	C71	0.601500	0.673600	0.175700
C721	C72	0.090400	0.383500	0.550100
C731	C73	0.926700	0.544700	0.849900
C741	C74	0.094800	0.869900	0.819600
C751	C75	0.699800	0.359800	0.411700
C761	C76	0.955700	0.725000	0.834100
C771	C77	0.398600	0.544100	0.927900
C781	C78	0.809100	0.274800	0.360800
C791	C79	0.705700	0.084100	0.525000
C801	C80	0.264000	0.311200	0.996400
C811	C81	0.290700	0.324700	0.037200
C821	C82	0.873900	0.053800	0.227500
C831	C83	0.855100	0.925700	0.747600
C841	C84	0.525000	0.705700	0.084100
C851	C85	0.272500	0.126100	0.553800
C861	C86	0.330000	0.630600	0.194800
C871	C87	0.898800	0.939800	0.612200
C881	C88	0.214500	0.434300	0.730200
C891	C89	0.294300	0.584100	0.975000
C901	C90	0.324300	0.398500	0.173600
C911	C91	0.387100	0.633900	0.844700
C921	C92	0.208200	0.298000	0.426700
C931	C93	0.278500	0.616300	0.350700
C941	C94	0.116100	0.362900	0.905300
C951	C95	0.326400	0.675700	0.898500
C961	C96	0.383700	0.850700	0.221500
C971	C97	0.601200	0.060200	0.112200
C981	C98	0.040700	0.287200	0.925300
C991	C99	0.175700	0.601500	0.673600
C1001	C100	0.736800	0.201800	0.233500
C1011	C101	0.483500	0.048200	0.486800
C1021	C102	0.675300	0.537200	0.209300
C1031	C103	0.514000	0.253600	0.061200
C1041	C104	0.619700	0.598900	0.156400
C1051	C105	0.688800	0.496400	0.236000
C1061	C106	0.880600	0.920000	0.944800
C1071	C107	0.659600	0.199900	0.366500
C1081	C108	0.277900	0.335800	0.959500
C1091	C109	0.798000	0.073300	0.791800
C1101	C110	0.376100	0.977500	0.303800
C1111	C111	0.409600	0.616500	0.050100
C1121	C112	0.073300	0.791800	0.798000
C1131	C113	0.439800	0.887800	0.101200
C1141	C114	0.958200	0.676700	0.952000
C1151	C115	0.805200	0.830000	0.869400
C1161	C116	0.775000	0.165900	0.455700
C1171	C117	0.101500	0.826400	0.824300
C1181	C118	0.362900	0.905300	0.116100
C1191	C119	0.267200	0.768000	0.202800
C1201	C120	0.133900	0.655300	0.612900
C1211	C121	0.763200	0.798200	0.733500
C1221	C122	0.550200	0.161700	0.609800
C1231	C123	0.794100	0.851400	0.677900
C1241	C124	0.955300	0.150100	0.426700
C1251	C125	0.774800	0.139200	0.190900
C1261	C126	0.651100	0.369700	0.406400
C1271	C127	0.701800	0.266500	0.263200
C1281	C128	0.028600	0.224900	0.830300
C1291	C129	0.291800	0.702000	0.926700
C1301	C130	0.246400	0.938800	0.014000
C1311	C131	0.375700	0.593400	0.415300
C1321	C132	0.452000	0.541800	0.323300
C1331	C133	0.574300	0.252400	0.355100
C1341	C134	0.369400	0.694800	0.170000
C1351	C135	0.130100	0.319600	0.405200
C1361	C136	0.644900	0.074300	0.247600
C1371	C137	0.133700	0.471500	0.399300
C1381	C138	0.415900	0.475000	0.205700
C1391	C139	0.775100	0.330300	0.471400
C1401	C140	0.080300	0.025100	0.778600
C1411	C141	0.769800	0.785500	0.934300
C1421	C142	0.398800	0.560200	0.387800
C1431	C143	0.797200	0.767200	0.732000
C1441	C144	0.164200	0.040500	0.777900
C1451	C145	0.383500	0.550100	0.090400
C1461	C146	0.486000	0.753600	0.438800
C1471	C147	0.330300	0.471400	0.775100
C1481	C148	0.275100	0.169700	0.528600
C1491	C149	0.971500	0.100700	0.866300
C1501	C150	0.472100	0.790500	0.414200
C1511	C151	0.569600	0.119900	0.155200
C1521	C152	0.584700	0.875700	0.906600
C1531	C153	0.940900	0.389200	0.475200
C1541	C154	0.794700	0.323300	0.599900
C1551	C155	0.233500	0.736800	0.201800
C1561	C156	0.224900	0.830300	0.028600
C1571	C157	0.541800	0.323300	0.452000
C1581	C158	0.017200	0.452800	0.482000
C1591	C159	0.309100	0.225200	0.639200
C1601	C160	0.176700	0.400100	0.294700
C1611	C161	0.633700	0.028500	0.600700
C1621	C162	0.290500	0.085800	0.527900
C1631	C163	0.889200	0.024800	0.059100
C1641	C164	0.850700	0.221500	0.383700
C1651	C165	0.535500	0.019800	0.315700
C1661	C166	0.366100	0.344700	0.112900
C1671	C167	0.876100	0.522500	0.696200
C1681	C168	0.834700	0.343400	0.625700
C1691	C169	0.949900	0.909600	0.883500
C1701	C170	0.349900	0.573300	0.455300
C1711	C171	0.875700	0.906600	0.584700
C1721	C172	0.221400	0.580300	0.474900
C1731	C173	0.996400	0.264000	0.311200
C1741	C174	0.109800	0.949800	0.838300
C1751	C175	0.040500	0.777900	0.164200
C1761	C176	0.359800	0.411700	0.699800
C1771	C177	0.736000	0.811200	0.503600
C1781	C178	0.709300	0.824700	0.462800
C1791	C179	0.528500	0.899300	0.366300
C1801	C180	0.462800	0.709300	0.824700
C1811	C181	0.074300	0.423600	0.851500
C1821	C182	0.705900	0.148600	0.177900
C1831	C183	0.689800	0.148800	0.637800
C1841	C184	0.116500	0.449900	0.590400
C1851	C185	0.022500	0.803800	0.123900
C1861	C186	0.125700	0.665300	0.656600
C1871	C187	0.939800	0.612200	0.898800
C1881	C188	0.205700	0.415900	0.475000
C1891	C189	0.355100	0.574300	0.252400
C1901	C190	0.405300	0.383900	0.637100
C1911	C191	0.555200	0.119400	0.420000
C1921	C192	0.919700	0.525100	0.721400
C1931	C193	0.883500	0.949900	0.909600
C1941	C194	0.425300	0.459300	0.712800
C1951	C195	0.665300	0.656600	0.125700
C1961	C196	0.159600	0.300100	0.633500
C1971	C197	0.843600	0.119700	0.901100
C1981	C198	0.482000	0.017200	0.452800
C1991	C199	0.369700	0.406400	0.651100
C2001	C200	0.446200	0.772500	0.373900
C2011	C201	0.044700	0.650100	0.073300
C2021	C202	0.815700	0.964500	0.980200
C2031	C203	0.906600	0.584700	0.875700
C2041	C204	0.519800	0.184300	0.464500
C2051	C205	0.609800	0.550200	0.161700
C2061	C206	0.594800	0.630100	0.180400
C2071	C207	0.650100	0.073300	0.044700
C2081	C208	0.419700	0.974900	0.278600
C2091	C209	0.477500	0.196200	0.623900
C2101	C210	0.869900	0.819600	0.094800
C2111	C211	0.901100	0.843600	0.119700
C2121	C212	0.369900	0.680400	0.905200
C2131	C213	0.148600	0.177900	0.705900
C2141	C214	0.548000	0.041800	0.176700
C2151	C215	0.269800	0.714500	0.065700
C2161	C216	0.753600	0.438800	0.486000
C2171	C217	0.946200	0.727500	0.626100
C2181	C218	0.518000	0.517200	0.047200
C2191	C219	0.380100	0.844800	0.069600
C2201	C220	0.225200	0.639200	0.309100
C2211	C221	0.069600	0.380100	0.844800
C2221	C222	0.390200	0.050200	0.338300
C2231	C223	0.482800	0.547200	0.982000
C2241	C224	0.190900	0.774800	0.139200
C2251	C225	0.130300	0.593600	0.151100
C2261	C226	0.835800	0.540500	0.722100
C2271	C227	0.676700	0.099900	0.705300
C2281	C228	0.150100	0.426700	0.955300
C2291	C229	0.593600	0.151100	0.130300
C2301	C230	0.787200	0.574700	0.959300
C2311	C231	0.161700	0.609800	0.550200
C2321	C232	0.119900	0.155200	0.569600
C2331	C233	0.898500	0.326400	0.675700
C2341	C234	0.601400	0.044100	0.572100
C2351	C235	0.300100	0.633500	0.159600
C2361	C236	0.925700	0.747600	0.855100
C2371	C237	0.869700	0.093600	0.348900
C2381	C238	0.452800	0.482000	0.017200
C2391	C239	0.915300	0.124300	0.406600
C2401	C240	0.616500	0.050100	0.409600
C2411	C241	0.528600	0.275100	0.169700
C2421	C242	0.733500	0.763200	0.798200
C2431	C243	0.455900	0.427900	0.101400
C2441	C244	0.972100	0.709500	0.585800
C2451	C245	0.311200	0.996400	0.264000
C2461	C246	0.705300	0.676700	0.099900
C2471	C247	0.101200	0.439800	0.887800
C2481	C248	0.025000	0.794300	0.915900
C2491	C249	0.550100	0.090400	0.383500
C2501	C250	0.709500	0.585800	0.972100
C2511	C251	0.455700	0.775000	0.165900
C2521	C252	0.189800	0.351200	0.362200
C2531	C253	0.544300	0.275000	0.334100
C2541	C254	0.548200	0.013200	0.516500
C2551	C255	0.648500	0.925700	0.923600
C2561	C256	0.098900	0.343600	0.380300
C2571	C257	0.438800	0.486000	0.753600
C2581	C258	0.859800	0.088300	0.300200
C2591	C259	0.486800	0.483500	0.048200
C2601	C260	0.580000	0.055200	0.380600
C2611	C261	0.047200	0.518000	0.517200
C2621	C262	0.866300	0.971500	0.100700
C2631	C263	0.544100	0.927900	0.398600
C2641	C264	0.294700	0.176700	0.400100
C2651	C265	0.300200	0.859800	0.088300
C2661	C266	0.866100	0.155300	0.887100
C2671	C267	0.480200	0.684300	0.035500
C2681	C268	0.980200	0.815700	0.964500
C2691	C269	0.201800	0.233500	0.736800
C2701	C270	0.766500	0.236800	0.298200
C2711	C271	0.411700	0.699800	0.359800
C2721	C272	0.702800	0.232800	0.232000
C2731	C273	0.656400	0.880300	0.401100
C2741	C274	0.383900	0.637100	0.405300
C2751	C275	0.266500	0.263200	0.701800
C2761	C276	0.944800	0.880600	0.920000
C2771	C277	0.722100	0.835800	0.540500
C2781	C278	0.323300	0.452000	0.541800
C2791	C279	0.305200	0.670000	0.130600
C2801	C280	0.423600	0.851500	0.074300
C2811	C281	0.205300	0.823300	0.900100
C2821	C282	0.887800	0.101200	0.439800
C2831	C283	0.297200	0.732800	0.268000
C2841	C284	0.373900	0.446200	0.772500
C2851	C285	0.173600	0.324300	0.398500
C2861	C286	0.430400	0.619900	0.344800
C2871	C287	0.471400	0.775100	0.330300
C2881	C288	0.474900	0.221400	0.580300
C2891	C289	0.785500	0.934300	0.769800
C2901	C290	0.633900	0.844700	0.387100
C2911	C291	0.116300	0.149300	0.721500
C2921	C292	0.811200	0.503600	0.736000
C2931	C293	0.202000	0.573300	0.708200
C2941	C294	0.869400	0.805200	0.830000
C2951	C295	0.110800	0.524800	0.440900
C2961	C296	0.400100	0.294700	0.176700
C2971	C297	0.860800	0.690900	0.725200
C2981	C298	0.149300	0.721500	0.116300
C2991	C299	0.986800	0.016500	0.951800
C3001	C300	0.851500	0.074300	0.423600
C3011	C301	0.088300	0.300200	0.859800
C3021	C302	0.434300	0.730200	0.214500
C3031	C303	0.074300	0.247600	0.644900
C3041	C304	0.920000	0.944800	0.880600
C3051	C305	0.014000	0.246400	0.938800
C3061	C306	0.576400	0.351500	0.425700
C3071	C307	0.619900	0.344800	0.430400
C3081	C308	0.059100	0.889200	0.024800
C3091	C309	0.525100	0.721400	0.919700
C3101	C310	0.834100	0.955700	0.725000
C3111	C311	0.294100	0.648600	0.322100
C3121	C312	0.405200	0.130100	0.319600
C3131	C313	0.298000	0.426700	0.208200
C3141	C314	0.348900	0.869700	0.093600
C3151	C315	0.387800	0.398800	0.560200
C3161	C316	0.639200	0.309100	0.225200
C3171	C317	0.380300	0.098900	0.343600
C3181	C318	0.319600	0.405200	0.130100
C3191	C319	0.458200	0.823300	0.048000
C3201	C320	0.444800	0.619400	0.080000
C3211	C321	0.648800	0.862200	0.310200
C3221	C322	0.633500	0.159600	0.300100
C3231	C323	0.890200	0.449800	0.661700
C3241	C324	0.843400	0.874300	0.165300
C3251	C325	0.680400	0.905200	0.369900
C3261	C326	0.561200	0.986000	0.746400
C3271	C327	0.616100	0.137100	0.094700
C3281	C328	0.513200	0.983500	0.451800
C3291	C329	0.727500	0.626100	0.946200
C3301	C330	0.590400	0.116500	0.449900
C3311	C331	0.952000	0.958200	0.676700
C3321	C332	0.949800	0.838300	0.109800
C3331	C333	0.975000	0.294300	0.584100
C3341	C334	0.303800	0.376100	0.977500
C3351	C335	0.094700	0.616100	0.137100
C3361	C336	0.848900	0.630300	0.906400
C3371	C337	0.170000	0.369400	0.694800
C3381	C338	0.401100	0.656400	0.880300
C3391	C339	0.725000	0.834100	0.955700
C3401	C340	0.013200	0.516500	0.548200
C3411	C341	0.598900	0.156400	0.619700
C3421	C342	0.196200	0.623900	0.477500
C3431	C343	0.925300	0.040700	0.287200
C3441	C344	0.227500	0.873900	0.053800
C3451	C345	0.964500	0.980200	0.815700
C3461	C346	0.252400	0.355100	0.574300
C3471	C347	0.747600	0.855100	0.925700
C3481	C348	0.310200	0.648800	0.862200
C3491	C349	0.798200	0.733500	0.763200
C3501	C350	0.236800	0.298200	0.766500
C3511	C351	0.616300	0.350700	0.278500
C3521	C352	0.449800	0.661700	0.890200
C3531	C353	0.209300	0.675300	0.537200
C3541	C354	0.287200	0.925300	0.040700
C3551	C355	0.874300	0.165300	0.843400
C3561	C356	0.955900	0.072100	0.898600
C3571	C357	0.165900	0.455700	0.775000
C3581	C358	0.574700	0.959300	0.787200
C3591	C359	0.425700	0.576400	0.351500
C3601	C360	0.209500	0.914200	0.027900
C3611	C361	0.351500	0.425700	0.576400
C3621	C362	0.044300	0.225000	0.665900
C3631	C363	0.426700	0.955300	0.150100
C3641	C364	0.025100	0.778600	0.080300
C3651	C365	0.232000	0.702800	0.232800
C3661	C366	0.544700	0.849900	0.926700
C3671	C367	0.800200	0.640200	0.911700
C3681	C368	0.838300	0.109800	0.949800
C3691	C369	0.278600	0.419700	0.974900
C3701	C370	0.048000	0.458200	0.823300
C3711	C371	0.016500	0.951800	0.986800
C3721	C372	0.694800	0.170000	0.369400
C3731	C373	0.721500	0.116300	0.149300
C3741	C374	0.148800	0.637800	0.689800
C3751	C375	0.101400	0.455900	0.427900
C3761	C376	0.844700	0.387100	0.633900
C3771	C377	0.822100	0.205900	0.351400
C3781	C378	0.934300	0.769800	0.785500
C3791	C379	0.003600	0.764000	0.188800
C3801	C380	0.862900	0.594700	0.883900
C3811	C381	0.137100	0.094700	0.616100
C3821	C382	0.350700	0.278500	0.616300
C3831	C383	0.344800	0.430400	0.619900
C3841	C384	0.085800	0.527900	0.290500
C3851	C385	0.155300	0.887100	0.866100
C3861	C386	0.060200	0.112200	0.601200
C3871	C387	0.690900	0.725200	0.860800
C3881	C388	0.959500	0.277900	0.335800
C3891	C389	0.684300	0.035500	0.480200
C3901	C390	0.019800	0.315700	0.535500
C3911	C391	0.619400	0.080000	0.444800
C3921	C392	0.982800	0.952800	0.018000
C3931	C393	0.140200	0.588300	0.199800
C3941	C394	0.362200	0.189800	0.351200
C3951	C395	0.696200	0.876100	0.522500
C3961	C396	0.768000	0.202800	0.267200
C3971	C397	0.099900	0.705300	0.676700
C3981	C398	0.263200	0.701800	0.266500
C3991	C399	0.420000	0.555200	0.119400
C4001	C400	0.830300	0.028600	0.224900
C4011	C401	0.194800	0.330000	0.630600
C4021	C402	0.177900	0.705900	0.148600
C4031	C403	0.824700	0.462800	0.709300
C4041	C404	0.496400	0.236000	0.688800
C4051	C405	0.675700	0.898500	0.326400
C4061	C406	0.524800	0.440900	0.110800
C4071	C407	0.285500	0.565700	0.230200
C4081	C408	0.112200	0.601200	0.060200
C4091	C409	0.502400	0.675700	0.105100
C4101	C410	0.778600	0.080300	0.025100
C4111	C411	0.471500	0.399300	0.133700
C4121	C412	0.123900	0.022500	0.803800
C4131	C413	0.427900	0.101400	0.455900
C4141	C414	0.791800	0.798000	0.073300
C4151	C415	0.322100	0.294100	0.648600
C4161	C416	0.084700	0.624300	0.093400
C4171	C417	0.983500	0.451800	0.513200
C4181	C418	0.018000	0.982800	0.952800
C4191	C419	0.137800	0.810200	0.851200
C4201	C420	0.050100	0.409600	0.616500
C4211	C421	0.675700	0.105100	0.502400
C4221	C422	0.938800	0.014000	0.246400
C4231	C423	0.048200	0.486800	0.483500
C4241	C424	0.451800	0.513200	0.983500
C4251	C425	0.673600	0.175700	0.601500
C4261	C426	0.887100	0.866100	0.155300
C4271	C427	0.914200	0.027900	0.209500
C4281	C428	0.661700	0.890200	0.449800
C4291	C429	0.962800	0.790700	0.175300
C4301	C430	0.073300	0.044700	0.650100
C4311	C431	0.997600	0.324300	0.605100
C4321	C432	0.883900	0.862900	0.594700
C4331	C433	0.772500	0.373900	0.446200
C4341	C434	0.699900	0.133500	0.340400
C4351	C435	0.343600	0.380300	0.098900
C4361	C436	0.844800	0.069600	0.380100
C4371	C437	0.230200	0.285500	0.565700
C4381	C438	0.324700	0.037200	0.290700
C4391	C439	0.677900	0.794100	0.851400
C4401	C440	0.298200	0.766500	0.236800
C4411	C441	0.637800	0.689800	0.148800
C4421	C442	0.425700	0.752400	0.144900
C4431	C443	0.389200	0.475200	0.940900
C4441	C444	0.398500	0.173600	0.324300
C4451	C445	0.380600	0.580000	0.055200
C4461	C446	0.926700	0.291800	0.702000
C4471	C447	0.315700	0.535500	0.019800
C4481	C448	0.527900	0.290500	0.085800
C4491	C449	0.074700	0.540700	0.212800
C4501	C450	0.669700	0.971400	0.724900
C4511	C451	0.862200	0.310200	0.648800
C4521	C452	0.537200	0.209300	0.675300
C4531	C453	0.906400	0.848900	0.630300
C4541	C454	0.767200	0.732000	0.797200
C4551	C455	0.951800	0.986800	0.016500
C4561	C456	0.274800	0.360800	0.809100
C4571	C457	0.084100	0.525000	0.705700
C4581	C458	0.169700	0.528600	0.275100
C4591	C459	0.593400	0.415300	0.375700
C4601	C460	0.343400	0.625700	0.834700
C4611	C461	0.752400	0.144900	0.425700
C4621	C462	0.055200	0.380600	0.580000
C4631	C463	0.415300	0.375700	0.593400
C4641	C464	0.905300	0.116100	0.362900
C4651	C465	0.351400	0.822100	0.205900
C4661	C466	0.899300	0.366300	0.528500
C4671	C467	0.574300	0.076400	0.148500
C4681	C468	0.925700	0.923600	0.648500
C4691	C469	0.374300	0.334700	0.156600
C4701	C470	0.823300	0.048000	0.458200
C4711	C471	0.093600	0.348900	0.869700
C4721	C472	0.053800	0.227500	0.873900
C4731	C473	0.144900	0.425700	0.752400
C4741	C474	0.559100	0.610800	0.975200
C4751	C475	0.655200	0.930400	0.880100
C4761	C476	0.236000	0.688800	0.496400
C4771	C477	0.630300	0.906400	0.848900
C4781	C478	0.124300	0.406600	0.915300
C4791	C479	0.849900	0.926700	0.544700
C4801	C480	0.151100	0.130300	0.593600
C4811	C481	0.406600	0.915300	0.124300
C4821	C482	0.212800	0.074700	0.540700
C4831	C483	0.819600	0.094800	0.869900
C4841	C484	0.732800	0.268000	0.297200
C4851	C485	0.041800	0.176700	0.548000
C4861	C486	0.764000	0.188800	0.003600
C4871	C487	0.708200	0.202000	0.573300
C4881	C488	0.360800	0.809100	0.274800
C4891	C489	0.133500	0.340400	0.699900
C4901	C490	0.516500	0.548200	0.013200
C4911	C491	0.028500	0.600700	0.633700
C4921	C492	0.459300	0.712800	0.425300
C4931	C493	0.093400	0.084700	0.624300
C4941	C494	0.648600	0.322100	0.294100
C4951	C495	0.459500	0.222100	0.664200
C4961	C496	0.105100	0.502400	0.675700
C4971	C497	0.119700	0.901100	0.843600
C4981	C498	0.670000	0.130600	0.305200
C4991	C499	0.952800	0.018000	0.982800
C5001	C500	0.594700	0.883900	0.862900
C5011	C501	0.184300	0.464500	0.519800
C5021	C502	0.027900	0.209500	0.914200
C5031	C503	0.394900	0.497600	0.175700
C5041	C504	0.826400	0.824300	0.101500
C5051	C505	0.335800	0.959500	0.277900
C5061	C506	0.035500	0.480200	0.684300
C5071	C507	0.139200	0.190900	0.774800
C5081	C508	0.165300	0.843400	0.874300
C5091	C509	0.977500	0.303800	0.376100
C5101	C510	0.503600	0.736000	0.811200
C5111	C511	0.522500	0.696200	0.876100
C5121	C512	0.573300	0.708200	0.202000
C5131	C513	0.440900	0.110800	0.524800
C5141	C514	0.366300	0.528500	0.899300
C5151	C515	0.324300	0.605100	0.997600
C5161	C516	0.024800	0.059100	0.889200
C5171	C517	0.199900	0.366500	0.659600
C5181	C518	0.540500	0.722100	0.835800
C5191	C519	0.880300	0.401100	0.656400
C5201	C520	0.975200	0.559100	0.610800
C5211	C521	0.840400	0.800100	0.866500
C5221	C522	0.076400	0.148500	0.574300
C5231	C523	0.399300	0.133700	0.471500
C5241	C524	0.824300	0.894900	0.002400
C5251	C525	0.475000	0.205700	0.415900
C5261	C526	0.927900	0.398600	0.544100
C5271	C527	0.072100	0.898600	0.955900
C5281	C528	0.130600	0.305200	0.670000
C5291	C529	0.665900	0.044300	0.225000
C5301	C530	0.732000	0.797200	0.767200
C5311	C531	0.630600	0.194800	0.330000
C5321	C532	0.959300	0.787200	0.574700
C5331	C533	0.050200	0.338300	0.390200
C5341	C534	0.156600	0.374300	0.334700
C5351	C535	0.649300	0.778500	0.883700
C5361	C536	0.676700	0.952000	0.958200
C5371	C537	0.497600	0.175700	0.394900
C5381	C538	0.366500	0.659600	0.199900
C5391	C539	0.930400	0.880100	0.655200
C5401	C540	0.199800	0.140200	0.588300
C5411	C541	0.334100	0.544300	0.275000
C5421	C542	0.080000	0.444800	0.619400
C5431	C543	0.778500	0.883700	0.649300
C5441	C544	0.547200	0.982000	0.482800
C5451	C545	0.475200	0.940900	0.389200
C5461	C546	0.455300	0.349900	0.573300
C5471	C547	0.790700	0.175300	0.962800
C5481	C548	0.588300	0.199800	0.140200
C5491	C549	0.599900	0.794700	0.323300
C5501	C550	0.112900	0.366100	0.344700
C5511	C551	0.898600	0.955900	0.072100
C5521	C552	0.268000	0.297200	0.732800
C5531	C553	0.637100	0.405300	0.383900
C5541	C554	0.880100	0.655200	0.930400
C5551	C555	0.605100	0.997600	0.324300
C5561	C556	0.623900	0.477500	0.196200
C5571	C557	0.986000	0.746400	0.561200
C5581	C558	0.065700	0.269800	0.714500
C5591	C559	0.851200	0.137800	0.810200
C5601	C560	0.823300	0.900100	0.205300
C5611	C561	0.188800	0.003600	0.764000
C5621	C562	0.517200	0.047200	0.518000
C5631	C563	0.148500	0.574300	0.076400
C5641	C564	0.340400	0.699900	0.133500
C5651	C565	0.351200	0.362200	0.189800
C5661	C566	0.624300	0.093400	0.084700
C5671	C567	0.044100	0.572100	0.601400
C5681	C568	0.253600	0.061200	0.514000
C5691	C569	0.002400	0.824300	0.894900
C5701	C570	0.560200	0.387800	0.398800
C5711	C571	0.923600	0.648500	0.925700
C5721	C572	0.803800	0.123900	0.022500
C5731	C573	0.338300	0.390200	0.050200
C5741	C574	0.406400	0.651100	0.369700
C5751	C575	0.449900	0.590400	0.116500
C5761	C576	0.909600	0.883500	0.949900
N11	N1	0.976200	0.813100	0.135800
N21	N2	0.740400	0.167600	0.201800
N31	N3	0.582400	0.009600	0.548200
N41	N4	0.408400	0.139600	0.513800
N51	N5	0.813100	0.135800	0.976200
N61	N6	0.526100	0.156900	0.427000
N71	N7	0.701800	0.759600	0.832400
N81	N8	0.860400	0.013800	0.091600
N91	N9	0.456100	0.488700	0.215700
N101	N10	0.043900	0.511300	0.715700
N111	N11	0.761300	0.206100	0.465700
N121	N12	0.284300	0.543900	0.988700
N131	N13	0.009600	0.548200	0.582400
N141	N14	0.177000	0.406900	0.723900
N151	N15	0.841600	0.263800	0.389600
N161	N16	0.726200	0.385800	0.436900
N171	N17	0.759600	0.832400	0.701800
N181	N18	0.738700	0.793900	0.965700
N191	N19	0.927000	0.973900	0.843100
N201	N20	0.656900	0.073000	0.473900
N211	N21	0.048200	0.917600	0.990400
N221	N22	0.509600	0.951800	0.417600
N231	N23	0.406900	0.723900	0.177000
N241	N24	0.908400	0.360400	0.486200
N251	N25	0.658400	0.736200	0.889600
N261	N26	0.610400	0.341600	0.236200
N271	N27	0.293900	0.534300	0.261300
N281	N28	0.773800	0.614200	0.936900
N291	N29	0.965700	0.738700	0.793900
N301	N30	0.273800	0.885800	0.063100
N311	N31	0.723900	0.177000	0.406900
N321	N32	0.476200	0.686900	0.864200
N331	N33	0.988700	0.284300	0.543900
N341	N34	0.261300	0.293900	0.534300
N351	N35	0.956100	0.011300	0.784300
N361	N36	0.276100	0.677000	0.093100
N371	N37	0.563100	0.226200	0.114200
N381	N38	0.843100	0.927000	0.973900
N391	N39	0.548200	0.582400	0.009600
N401	N40	0.364200	0.023800	0.313100
N411	N41	0.139600	0.513800	0.408400
N421	N42	0.990400	0.048200	0.917600
N431	N43	0.023800	0.313100	0.364200
N441	N44	0.091600	0.860400	0.013800
N451	N45	0.082400	0.490400	0.451800
N461	N46	0.793900	0.965700	0.738700
N471	N47	0.784300	0.956100	0.011300
N481	N48	0.332400	0.798200	0.240400
N491	N49	0.013800	0.091600	0.860400
N501	N50	0.011300	0.784300	0.956100
N511	N51	0.513800	0.408400	0.139600
N521	N52	0.635800	0.523800	0.186900
N531	N53	0.593100	0.223900	0.323000
N541	N54	0.488700	0.215700	0.456100
N551	N55	0.343100	0.573000	0.026100
N561	N56	0.534300	0.261300	0.293900
N571	N57	0.298200	0.259600	0.667600
N581	N58	0.885800	0.063100	0.273800
N591	N59	0.063100	0.273800	0.885800
N601	N60	0.263800	0.389600	0.841600
N611	N61	0.776100	0.823000	0.906900
N621	N62	0.385800	0.436900	0.726200
N631	N63	0.238700	0.706100	0.034300
N641	N64	0.832400	0.701800	0.759600
N651	N65	0.614200	0.936900	0.773800
N661	N66	0.206100	0.465700	0.761300
N671	N67	0.236200	0.610400	0.341600
N681	N68	0.110400	0.158400	0.763800
N691	N69	0.823000	0.906900	0.776100
N701	N70	0.677000	0.093100	0.276100
N711	N71	0.490400	0.451800	0.082400
N721	N72	0.639600	0.986200	0.591600
N731	N73	0.736200	0.889600	0.658400
N741	N74	0.360400	0.486200	0.908400
N751	N75	0.706100	0.034300	0.238700
N761	N76	0.313100	0.364200	0.023800
N771	N77	0.034300	0.238700	0.706100
N781	N78	0.240400	0.332400	0.798200
N791	N79	0.686900	0.864200	0.476200
N801	N80	0.323000	0.593100	0.223900
N811	N81	0.951800	0.417600	0.509600
N821	N82	0.936900	0.773800	0.614200
N831	N83	0.486200	0.908400	0.360400
N841	N84	0.186900	0.635800	0.523800
N851	N85	0.389600	0.841600	0.263800
N861	N86	0.763800	0.110400	0.158400
N871	N87	0.135800	0.976200	0.813100
N881	N88	0.543900	0.988700	0.284300
N891	N89	0.451800	0.082400	0.490400
N901	N90	0.114200	0.563100	0.226200
N911	N91	0.156900	0.427000	0.526100
N921	N92	0.158400	0.763800	0.110400
N931	N93	0.864200	0.476200	0.686900
N941	N94	0.465700	0.761300	0.206100
N951	N95	0.715700	0.043900	0.511300
N961	N96	0.201800	0.740400	0.167600
N971	N97	0.986200	0.591600	0.639600
N981	N98	0.073000	0.473900	0.656900
N991	N99	0.026100	0.343100	0.573000
N1001	N100	0.917600	0.990400	0.048200
N1011	N101	0.573000	0.026100	0.343100
N1021	N102	0.798200	0.240400	0.332400
N1031	N103	0.511300	0.715700	0.043900
N1041	N104	0.341600	0.236200	0.610400
N1051	N105	0.215700	0.456100	0.488700
N1061	N106	0.093100	0.276100	0.677000
N1071	N107	0.259600	0.667600	0.298200
N1081	N108	0.226200	0.114200	0.563100
N1091	N109	0.667600	0.298200	0.259600
N1101	N110	0.167600	0.201800	0.740400
N1111	N111	0.427000	0.526100	0.156900
N1121	N112	0.436900	0.726200	0.385800
N1131	N113	0.889600	0.658400	0.736200
N1141	N114	0.523800	0.186900	0.635800
N1151	N115	0.223900	0.323000	0.593100
N1161	N116	0.591600	0.639600	0.986200
N1171	N117	0.417600	0.509600	0.951800
N1181	N118	0.973900	0.843100	0.927000
N1191	N119	0.473900	0.656900	0.073000
N1201	N120	0.906900	0.776100	0.823000
O11	O1	0.687300	0.977200	0.686900
O21	O2	0.063100	0.772800	0.062700
O31	O3	0.103200	0.016200	0.661000
O41	O4	0.307600	0.422000	0.248900
O51	O5	0.240800	0.565500	0.509800
O61	O6	0.463600	0.953800	0.163000
O71	O7	0.464400	0.640500	0.923400
O81	O8	0.536400	0.453800	0.337000
O91	O9	0.937300	0.563100	0.727200
O101	O10	0.828000	0.057600	0.498900
O111	O11	0.516200	0.839000	0.896800
O121	O12	0.813100	0.312700	0.477200
O131	O13	0.557300	0.297400	0.483500
O141	O14	0.733800	0.646800	0.089000
O151	O15	0.589000	0.766200	0.353200
O161	O16	0.990200	0.759200	0.065500
O171	O17	0.509800	0.240800	0.565500
O181	O18	0.036400	0.046200	0.663000
O191	O19	0.266500	0.452600	0.192700
O201	O20	0.078000	0.751100	0.807600
O211	O21	0.483500	0.557300	0.297400
O221	O22	0.740200	0.315500	0.490800
O231	O23	0.640500	0.923400	0.464400
O241	O24	0.047400	0.807300	0.766500
O251	O25	0.296200	0.213600	0.413000
O261	O26	0.890500	0.785600	0.673400
O271	O27	0.173400	0.609500	0.214400
O281	O28	0.016500	0.442700	0.797400
O291	O29	0.477200	0.813100	0.312700
O301	O30	0.807600	0.078000	0.751100
O311	O31	0.046200	0.663000	0.036400
O321	O32	0.922000	0.251100	0.692400
O331	O33	0.434500	0.009800	0.259200
O341	O34	0.087000	0.703800	0.713600
O351	O35	0.546200	0.837000	0.963600
O361	O36	0.609500	0.214400	0.173400
O371	O37	0.035600	0.359500	0.423400
O381	O38	0.192700	0.266500	0.452600
O391	O39	0.286400	0.587000	0.796200
O401	O40	0.953800	0.163000	0.463600
O411	O41	0.353200	0.589000	0.766200
O421	O42	0.442400	0.501100	0.328000
O431	O43	0.326600	0.390500	0.714400
O441	O44	0.339000	0.603200	0.483800
O451	O45	0.714400	0.326600	0.390500
O461	O46	0.214400	0.173400	0.609500
O471	O47	0.702600	0.983500	0.942700
O481	O48	0.964400	0.859500	0.076600
O491	O49	0.740800	0.934500	0.490200
O501	O50	0.009200	0.259800	0.815500
O511	O51	0.796200	0.286400	0.587000
O521	O52	0.396800	0.983800	0.161000
O531	O53	0.146800	0.411000	0.266200
O541	O54	0.759200	0.065500	0.990200
O551	O55	0.259800	0.815500	0.009200
O561	O56	0.535600	0.140500	0.576600
O571	O57	0.509200	0.240200	0.184500
O581	O58	0.807300	0.766500	0.047400
O591	O59	0.977200	0.686900	0.687300
O601	O60	0.672000	0.942400	0.998900
O611	O61	0.437300	0.936900	0.272800
O621	O62	0.452600	0.192700	0.266500
O631	O63	0.703800	0.713600	0.087000
O641	O64	0.562700	0.436900	0.227200
O651	O65	0.853200	0.911000	0.233800
O661	O66	0.663000	0.036400	0.046200
O671	O67	0.203800	0.786400	0.913000
O681	O68	0.422000	0.248900	0.307600
O691	O69	0.936900	0.272800	0.437300
O701	O70	0.751100	0.807600	0.078000
O711	O71	0.001100	0.172000	0.557600
O721	O72	0.285600	0.826600	0.109500
O731	O73	0.786400	0.913000	0.203800
O741	O74	0.498900	0.828000	0.057600
O751	O75	0.826600	0.109500	0.285600
O761	O76	0.934500	0.490200	0.740800
O771	O77	0.359500	0.423400	0.035600
O781	O78	0.140500	0.576600	0.535600
O791	O79	0.172000	0.557600	0.001100
O801	O80	0.727200	0.937300	0.563100
O811	O81	0.272800	0.437300	0.936900
O821	O82	0.161000	0.396800	0.983800
O831	O83	0.983500	0.942700	0.702600
O841	O84	0.942700	0.702600	0.983500
O851	O85	0.328000	0.442400	0.501100
O861	O86	0.057600	0.498900	0.828000
O871	O87	0.661000	0.103200	0.016200
O881	O88	0.213600	0.413000	0.296200
O891	O89	0.913000	0.203800	0.786400
O901	O90	0.186900	0.812700	0.022800
O911	O91	0.516500	0.057300	0.202600
O921	O92	0.603200	0.483800	0.339000
O931	O93	0.766200	0.353200	0.589000
O941	O94	0.942400	0.998900	0.672000
O951	O95	0.578000	0.748900	0.192400
O961	O96	0.522800	0.313100	0.187300
O971	O97	0.772800	0.062700	0.063100
O981	O98	0.297400	0.483500	0.557300
O991	O99	0.312700	0.477200	0.813100
O1001	O100	0.436900	0.227200	0.562700
O1011	O101	0.748900	0.192400	0.578000
O1021	O102	0.313100	0.187300	0.522800
O1031	O103	0.759800	0.684500	0.990800
O1041	O104	0.557600	0.001100	0.172000
O1051	O105	0.109500	0.285600	0.826600
O1061	O106	0.413000	0.296200	0.213600
O1071	O107	0.785600	0.673400	0.890500
O1081	O108	0.016200	0.661000	0.103200
O1091	O109	0.251100	0.692400	0.922000
O1101	O110	0.983800	0.161000	0.396800
O1111	O111	0.733500	0.952600	0.307300
O1121	O112	0.713600	0.087000	0.703800
O1131	O113	0.062700	0.063100	0.772800
O1141	O114	0.797400	0.016500	0.442700
O1151	O115	0.184500	0.509200	0.240200
O1161	O116	0.896800	0.516200	0.839000
O1171	O117	0.227200	0.562700	0.436900
O1181	O118	0.390500	0.714400	0.326600
O1191	O119	0.692700	0.233500	0.547400
O1201	O120	0.248900	0.307600	0.422000
O1211	O121	0.686900	0.687300	0.977200
O1221	O122	0.673400	0.890500	0.785600
O1231	O123	0.501100	0.328000	0.442400
O1241	O124	0.576600	0.535600	0.140500
O1251	O125	0.490800	0.740200	0.315500
O1261	O126	0.202600	0.516500	0.057300
O1271	O127	0.089000	0.733800	0.646800
O1281	O128	0.963600	0.546200	0.837000
O1291	O129	0.442700	0.797400	0.016500
O1301	O130	0.490200	0.740800	0.934500
O1311	O131	0.057300	0.202600	0.516500
O1321	O132	0.837000	0.963600	0.546200
O1331	O133	0.065500	0.990200	0.759200
O1341	O134	0.009800	0.259200	0.434500
O1351	O135	0.337000	0.536400	0.453800
O1361	O136	0.646800	0.089000	0.733800
O1371	O137	0.423400	0.035600	0.359500
O1381	O138	0.812700	0.022800	0.186900
O1391	O139	0.022800	0.186900	0.812700
O1401	O140	0.187300	0.522800	0.313100
O1411	O141	0.587000	0.796200	0.286400
O1421	O142	0.563100	0.727200	0.937300
O1431	O143	0.233500	0.547400	0.692700
O1441	O144	0.859500	0.076600	0.964400
O1451	O145	0.911000	0.233800	0.853200
O1461	O146	0.684500	0.990800	0.759800
O1471	O147	0.692400	0.922000	0.251100
O1481	O148	0.990800	0.759800	0.684500
O1491	O149	0.163000	0.463600	0.953800
O1501	O150	0.240200	0.184500	0.509200
O1511	O151	0.411000	0.266200	0.146800
O1521	O152	0.192400	0.578000	0.748900
O1531	O153	0.815500	0.009200	0.259800
O1541	O154	0.766500	0.047400	0.807300
O1551	O155	0.998900	0.672000	0.942400
O1561	O156	0.266200	0.146800	0.411000
O1571	O157	0.565500	0.509800	0.240800
O1581	O158	0.923400	0.464400	0.640500
O1591	O159	0.259200	0.434500	0.009800
O1601	O160	0.076600	0.964400	0.859500
O1611	O161	0.952600	0.307300	0.733500
O1621	O162	0.839000	0.896800	0.516200
O1631	O163	0.315500	0.490800	0.740200
O1641	O164	0.483800	0.339000	0.603200
O1651	O165	0.307300	0.733500	0.952600
O1661	O166	0.547400	0.692700	0.233500
O1671	O167	0.453800	0.337000	0.536400
O1681	O168	0.233800	0.853200	0.911000
