data_LOXWAY_freeONLY_PM
_symmetry_space_group_name_H-M	'P1'
_cell_length_a	8.577100
_cell_length_b	13.248300
_cell_length_c	13.812500
_cell_angle_alpha	118.658000
_cell_angle_beta	90.070200
_cell_angle_gamma	90.000000
_symmetry_Int_Tables_number 1

loop_
_symmetry_equiv_pos_as_xyz
'x,y,z'

loop_
_atom_site_label
_atom_site_type_symbol
_atom_site_fract_x
_atom_site_fract_y
_atom_site_fract_z
Cu11	Cu1	0.949920	0.001480	0.590900
Cu21	Cu2	0.050080	0.998520	0.409100
Cu31	Cu3	0.550080	0.410580	0.409100
Cu41	Cu4	0.449920	0.589420	0.590900
H11	H1	0.910100	0.581700	0.357000
H21	H2	0.274900	0.261800	0.599000
H31	H3	0.514500	0.881700	0.942600
H41	H4	0.410100	0.775300	0.357000
H51	H5	0.592100	0.843600	0.273000
H61	H6	0.632800	0.659400	0.289400
H71	H7	0.312100	0.197700	0.215000
H81	H8	0.995000	0.579100	0.628800
H91	H9	0.985500	0.939100	0.057400
H101	H10	0.008200	0.375600	0.525400
H111	H11	0.601700	0.145000	0.931000
H121	H12	0.991800	0.624400	0.474600
H131	H13	0.101700	0.786000	0.931000
H141	H14	0.265100	0.647900	0.802800
H151	H15	0.687900	0.802300	0.785000
H161	H16	0.765100	0.154900	0.802800
H171	H17	0.898300	0.214000	0.069000
H181	H18	0.491800	0.850200	0.474600
H191	H19	0.089900	0.418300	0.643000
H201	H20	0.398300	0.855000	0.069000
H211	H21	0.225100	0.662800	0.401000
H221	H22	0.014500	0.060900	0.942600
H231	H23	0.005000	0.420900	0.371200
H241	H24	0.848600	0.822600	0.661000
H251	H25	0.734900	0.352100	0.197200
H261	H26	0.589900	0.224700	0.643000
H271	H27	0.812100	0.017300	0.215000
H281	H28	0.151400	0.177400	0.339000
H291	H29	0.132800	0.630000	0.289400
H301	H30	0.907900	0.570600	0.727000
H311	H31	0.505000	0.950300	0.371200
H321	H32	0.508200	0.149800	0.525400
H331	H33	0.651400	0.161600	0.339000
H341	H34	0.867200	0.370000	0.710600
H351	H35	0.407900	0.156400	0.727000
H361	H36	0.495000	0.049700	0.628800
H371	H37	0.234900	0.845100	0.197200
H381	H38	0.485500	0.118300	0.057400
H391	H39	0.092100	0.429400	0.273000
H401	H40	0.187900	0.982700	0.785000
H411	H41	0.367200	0.340600	0.710600
H421	H42	0.348600	0.838400	0.661000
H431	H43	0.774900	0.337200	0.599000
H441	H44	0.725100	0.738200	0.401000
C11	C1	0.621200	0.706330	0.370420
C21	C2	0.750200	0.082600	0.800200
C31	C3	0.967700	0.002380	0.044440
C41	C4	0.847600	0.200350	0.122740
C51	C5	0.652400	0.077610	0.877260
C61	C6	0.296900	0.123760	0.208620
C71	C7	0.571000	0.627920	0.416240
C81	C8	0.929000	0.211680	0.583760
C91	C9	0.703100	0.876240	0.791380
C101	C10	0.378800	0.293670	0.629580
C111	C11	0.235500	0.470470	0.407120
C121	C12	0.264500	0.063350	0.592880
C131	C13	0.071000	0.788320	0.416240
C141	C14	0.467700	0.042060	0.044440
C151	C15	0.878800	0.335910	0.629580
C161	C16	0.796900	0.084860	0.208620
C171	C17	0.764500	0.529530	0.592880
C181	C18	0.429000	0.372080	0.583760
C191	C19	0.249800	0.917400	0.199800
C201	C20	0.079200	0.467380	0.354040
C211	C21	0.299100	0.828460	0.717380
C221	C22	0.200900	0.111080	0.282620
C231	C23	0.128900	0.903400	0.875000
C241	C24	0.532300	0.957940	0.955560
C251	C25	0.735500	0.936650	0.407120
C261	C26	0.032300	0.997620	0.955560
C271	C27	0.871100	0.096600	0.125000
C281	C28	0.152400	0.799650	0.877260
C291	C29	0.920800	0.532620	0.645960
C301	C30	0.799100	0.888920	0.717380
C311	C31	0.488800	0.193900	0.605800
C321	C32	0.420800	0.113340	0.645960
C331	C33	0.628900	0.971600	0.875000
C341	C34	0.121200	0.664090	0.370420
C351	C35	0.250200	0.717600	0.800200
C361	C36	0.988800	0.411900	0.605800
C371	C37	0.511200	0.806100	0.394200
C381	C38	0.700900	0.171540	0.282620
C391	C39	0.579200	0.886660	0.354040
C401	C40	0.011200	0.588100	0.394200
C411	C41	0.371100	0.028400	0.125000
C421	C42	0.749800	0.282400	0.199800
C431	C43	0.347600	0.922390	0.122740
C441	C44	0.203100	0.915140	0.791380
N11	N1	0.824940	0.990950	0.722080
N21	N2	0.675060	0.268870	0.277920
N31	N3	0.175060	0.009050	0.277920
N41	N4	0.324940	0.731130	0.722080
O11	O1	0.094400	0.834350	0.356520
O21	O2	0.162270	0.049790	0.651280
O31	O3	0.747150	0.454520	0.493820
O41	O4	0.405600	0.477830	0.643480
O51	O5	0.905600	0.165650	0.643480
O61	O6	0.594400	0.522170	0.356520
O71	O7	0.986660	0.162180	0.488140
O81	O8	0.513340	0.674040	0.511860
O91	O9	0.013340	0.837820	0.511860
O101	O10	0.752850	0.960700	0.506180
O111	O11	0.337730	0.398510	0.348720
O121	O12	0.252850	0.545480	0.506180
O131	O13	0.247150	0.039300	0.493820
O141	O14	0.837730	0.950210	0.348720
O151	O15	0.486660	0.325960	0.488140
O161	O16	0.662270	0.601490	0.651280
