data_LUDRUZ_freeONLY_PM
_symmetry_space_group_name_H-M	'P1'
_cell_length_a	13.318000
_cell_length_b	13.318000
_cell_length_c	13.278000
_cell_angle_alpha	90.000000
_cell_angle_beta	90.000000
_cell_angle_gamma	120.000000
_symmetry_Int_Tables_number 1

loop_
_symmetry_equiv_pos_as_xyz
'x,y,z'

loop_
_atom_site_label
_atom_site_type_symbol
_atom_site_fract_x
_atom_site_fract_y
_atom_site_fract_z
N11	N1	0.255900	0.333900	0.733800
N21	N2	0.127700	0.159000	0.781500
N31	N3	0.696200	0.604300	0.604200
N41	N4	0.704600	0.494600	0.484400
N51	N5	0.001100	0.589600	0.233300
N61	N6	0.824200	0.460900	0.281700
N71	N7	0.270900	0.029400	0.104600
N81	N8	0.159800	0.036300	0.983600
C11	C1	0.340800	0.458200	0.739200
H11	H1	0.338700	0.487500	0.807200
H21	H2	0.319800	0.500500	0.689800
C21	C2	0.461600	0.481500	0.717400
H31	H3	0.462500	0.447500	0.651300
H41	H4	0.484700	0.443800	0.769500
C31	C3	0.548700	0.611900	0.715900
H51	H5	0.528900	0.648300	0.660200
H61	H6	0.542800	0.646800	0.779900
C41	C4	0.671500	0.637400	0.702600
H71	H7	0.724600	0.721500	0.712600
H81	H8	0.688800	0.596000	0.755700
C51	C5	0.192600	0.266400	0.810300
H91	H9	0.194600	0.293300	0.876900
C61	C6	0.154200	0.157100	0.681900
H101	H10	0.121800	0.090000	0.640400
C71	C7	0.232500	0.263900	0.652000
H111	H11	0.265200	0.286600	0.586600
C81	C8	0.672900	0.496200	0.578600
H121	H12	0.638700	0.430900	0.622100
C91	C9	0.747500	0.605200	0.449700
H131	H13	0.777200	0.630900	0.383900
C101	C10	0.741500	0.672400	0.522300
H141	H14	0.764600	0.752200	0.516900
C111	C11	0.125100	0.673100	0.239000
H151	H15	0.167100	0.652000	0.189600
H161	H16	0.154200	0.670700	0.307100
C121	C12	0.148400	0.795400	0.217100
H171	H17	0.111000	0.818500	0.269400
H181	H18	0.114100	0.796300	0.151200
C131	C13	0.279100	0.882700	0.215200
H191	H19	0.314500	0.875900	0.278600
H201	H20	0.315100	0.863400	0.158800
C141	C14	0.304300	0.005200	0.203500
H211	H21	0.262400	0.021600	0.256700
H221	H22	0.388300	0.058400	0.213800
C151	C15	0.933300	0.525900	0.310600
H231	H23	0.960300	0.527600	0.377100
C161	C16	0.823900	0.487300	0.182100
H241	H24	0.757100	0.454700	0.140100
C171	C17	0.931200	0.565700	0.152100
H251	H25	0.953800	0.598200	0.086600
C181	C18	0.163000	0.006200	0.078600
H261	H26	0.098000	0.972800	0.122600
C191	C19	0.271900	0.081100	0.949800
H271	H27	0.297900	0.111400	0.884200
C201	C20	0.339700	0.076100	0.022600
H281	H28	0.419800	0.100300	0.017500
N91	N9	0.666100	0.922000	0.733800
N101	N10	0.841000	0.968700	0.781500
N111	N11	0.395700	0.091900	0.604200
N121	N12	0.505400	0.210000	0.484400
N131	N13	0.410400	0.411500	0.233300
N141	N14	0.539100	0.363300	0.281700
N151	N15	0.970600	0.241500	0.104600
N161	N16	0.963700	0.123500	0.983600
C211	C21	0.541800	0.882600	0.739200
H291	H29	0.512500	0.851200	0.807200
H301	H30	0.499500	0.819300	0.689800
C221	C22	0.518500	0.980100	0.717400
H311	H31	0.552500	0.015000	0.651300
H321	H32	0.556200	0.040900	0.769500
C231	C23	0.388100	0.936800	0.715900
H331	H33	0.351700	0.880600	0.660200
H341	H34	0.353200	0.896000	0.779900
C241	C24	0.362600	0.034100	0.702600
H351	H35	0.278500	0.003100	0.712600
H361	H36	0.404000	0.092800	0.755700
C251	C25	0.733600	0.926200	0.810300
H371	H37	0.706700	0.901300	0.876900
C261	C26	0.842900	0.997100	0.681900
H381	H38	0.910000	0.031800	0.640400
C271	C27	0.736100	0.968600	0.652000
H391	H39	0.713400	0.978600	0.586600
C281	C28	0.503800	0.176700	0.578600
H401	H40	0.569100	0.207800	0.622100
C291	C29	0.394800	0.142300	0.449700
H411	H41	0.369100	0.146300	0.383900
C301	C30	0.327600	0.069100	0.522300
H421	H42	0.247800	0.012400	0.516900
C311	C31	0.326900	0.452000	0.239000
H431	H43	0.348000	0.515100	0.189600
H441	H44	0.329300	0.483500	0.307100
C321	C32	0.204600	0.353000	0.217100
H451	H45	0.181500	0.292500	0.269400
H461	H46	0.203700	0.317800	0.151200
C331	C33	0.117300	0.396400	0.215200
H471	H47	0.124100	0.438600	0.278600
H481	H48	0.136600	0.451700	0.158800
C341	C34	0.994800	0.299100	0.203500
H491	H49	0.978400	0.240800	0.256700
H501	H50	0.941600	0.329900	0.213800
C351	C35	0.474100	0.407400	0.310600
H511	H51	0.472400	0.432700	0.377100
C361	C36	0.512700	0.336600	0.182100
H521	H52	0.545300	0.302400	0.140100
C371	C37	0.434300	0.365500	0.152100
H531	H53	0.401800	0.355600	0.086600
C381	C38	0.993800	0.156800	0.078600
H541	H54	0.027200	0.125200	0.122600
C391	C39	0.918900	0.190800	0.949800
H551	H55	0.888600	0.186500	0.884200
C401	C40	0.923900	0.263600	0.022600
H561	H56	0.899700	0.319500	0.017500
N171	N17	0.078000	0.744100	0.733800
N181	N18	0.031300	0.872300	0.781500
N191	N19	0.908100	0.303800	0.604200
N201	N20	0.790000	0.295400	0.484400
N211	N21	0.588500	0.998900	0.233300
N221	N22	0.636700	0.175800	0.281700
N231	N23	0.758500	0.729100	0.104600
N241	N24	0.876500	0.840200	0.983600
C411	C41	0.117400	0.659200	0.739200
H571	H57	0.148800	0.661300	0.807200
H581	H58	0.180700	0.680200	0.689800
C421	C42	0.019900	0.538400	0.717400
H591	H59	0.985000	0.537500	0.651300
H601	H60	0.959100	0.515300	0.769500
C431	C43	0.063200	0.451300	0.715900
H611	H61	0.119400	0.471100	0.660200
H621	H62	0.104000	0.457200	0.779900
C441	C44	0.965900	0.328500	0.702600
H631	H63	0.996900	0.275400	0.712600
H641	H64	0.907200	0.311200	0.755700
C451	C45	0.073800	0.807400	0.810300
H651	H65	0.098700	0.805400	0.876900
C461	C46	0.002900	0.845800	0.681900
H661	H66	0.968200	0.878200	0.640400
C471	C47	0.031400	0.767500	0.652000
H671	H67	0.021400	0.734800	0.586600
C481	C48	0.823300	0.327100	0.578600
H681	H68	0.792200	0.361300	0.622100
C491	C49	0.857700	0.252500	0.449700
H691	H69	0.853700	0.222800	0.383900
C501	C50	0.930900	0.258500	0.522300
H701	H70	0.987600	0.235400	0.516900
C511	C51	0.548000	0.874900	0.239000
H711	H71	0.484900	0.832900	0.189600
H721	H72	0.516500	0.845800	0.307100
C521	C52	0.647000	0.851600	0.217100
H731	H73	0.707500	0.889000	0.269400
H741	H74	0.682200	0.885900	0.151200
C531	C53	0.603600	0.720900	0.215200
H751	H75	0.561400	0.685500	0.278600
H761	H76	0.548300	0.684900	0.158800
C541	C54	0.700900	0.695700	0.203500
H771	H77	0.759200	0.737600	0.256700
H781	H78	0.670100	0.611700	0.213800
C551	C55	0.592600	0.066700	0.310600
H791	H79	0.567300	0.039700	0.377100
C561	C56	0.663400	0.176100	0.182100
H801	H80	0.697600	0.242900	0.140100
C571	C57	0.634500	0.068800	0.152100
H811	H81	0.644400	0.046200	0.086600
C581	C58	0.843200	0.837000	0.078600
H821	H82	0.874800	0.902000	0.122600
C591	C59	0.809200	0.728100	0.949800
H831	H83	0.813500	0.702100	0.884200
C601	C60	0.736400	0.660300	0.022600
H841	H84	0.680500	0.580200	0.017500
Cd11	Cd1	0.000000	0.000000	0.884230
Cd21	Cd2	0.666670	0.333330	0.384090
