data_LUFCAS_freeONLY_PM
_symmetry_space_group_name_H-M	'P1'
_cell_length_a	15.629000
_cell_length_b	15.991000
_cell_length_c	9.234300
_cell_angle_alpha	90.000000
_cell_angle_beta	102.774000
_cell_angle_gamma	90.000000
_symmetry_Int_Tables_number 1

loop_
_symmetry_equiv_pos_as_xyz
'x,y,z'

loop_
_atom_site_label
_atom_site_type_symbol
_atom_site_fract_x
_atom_site_fract_y
_atom_site_fract_z
O11	O1	0.889820	0.578550	0.572000
O21	O2	0.901200	0.501320	0.774300
N11	N1	0.540960	0.863860	0.950500
N21	N2	0.559300	0.724670	0.973900
N31	N3	0.611110	0.757560	0.886700
C11	C1	0.518700	0.791200	0.007500
H11	H1	0.477500	0.788600	0.066200
C21	C2	0.599500	0.839600	0.875300
H21	H2	0.628400	0.875000	0.822100
C31	C3	0.672400	0.706700	0.831700
C41	C4	0.694200	0.628900	0.892100
H31	H3	0.667400	0.608400	0.965300
C51	C5	0.712800	0.737500	0.725100
H41	H4	0.698900	0.790700	0.686100
C61	C6	0.755700	0.581800	0.843600
H51	H5	0.769600	0.528800	0.883600
C71	C7	0.774400	0.689000	0.675700
H61	H6	0.800300	0.709100	0.601100
C81	C8	0.797400	0.611360	0.736700
C91	C9	0.868100	0.560500	0.690200
O31	O3	0.389820	0.078550	0.572000
O41	O4	0.401200	0.001320	0.774300
N41	N4	0.040960	0.363860	0.950500
N51	N5	0.059300	0.224670	0.973900
N61	N6	0.111110	0.257560	0.886700
C101	C10	0.018700	0.291200	0.007500
H71	H7	0.977500	0.288600	0.066200
C111	C11	0.099500	0.339600	0.875300
H81	H8	0.128400	0.375000	0.822100
C121	C12	0.172400	0.206700	0.831700
C131	C13	0.194200	0.128900	0.892100
H91	H9	0.167400	0.108400	0.965300
C141	C14	0.212800	0.237500	0.725100
H101	H10	0.198900	0.290700	0.686100
C151	C15	0.255700	0.081800	0.843600
H111	H11	0.269600	0.028800	0.883600
C161	C16	0.274400	0.189000	0.675700
H121	H12	0.300300	0.209100	0.601100
C171	C17	0.297400	0.111360	0.736700
C181	C18	0.368100	0.060500	0.690200
O51	O5	0.110180	0.578550	0.928000
O61	O6	0.098800	0.501320	0.725700
N71	N7	0.459040	0.863860	0.549500
N81	N8	0.440700	0.724670	0.526100
N91	N9	0.388890	0.757560	0.613300
C191	C19	0.481300	0.791200	0.492500
H131	H13	0.522500	0.788600	0.433800
C201	C20	0.400500	0.839600	0.624700
H141	H14	0.371600	0.875000	0.677900
C211	C21	0.327600	0.706700	0.668300
C221	C22	0.305800	0.628900	0.607900
H151	H15	0.332600	0.608400	0.534700
C231	C23	0.287200	0.737500	0.774900
H161	H16	0.301100	0.790700	0.813900
C241	C24	0.244300	0.581800	0.656400
H171	H17	0.230400	0.528800	0.616400
C251	C25	0.225600	0.689000	0.824300
H181	H18	0.199700	0.709100	0.898900
C261	C26	0.202600	0.611360	0.763300
C271	C27	0.131900	0.560500	0.809800
O71	O7	0.610180	0.078550	0.928000
O81	O8	0.598800	0.001320	0.725700
N101	N10	0.959040	0.363860	0.549500
N111	N11	0.940700	0.224670	0.526100
N121	N12	0.888890	0.257560	0.613300
C281	C28	0.981300	0.291200	0.492500
H191	H19	0.022500	0.288600	0.433800
C291	C29	0.900500	0.339600	0.624700
H201	H20	0.871600	0.375000	0.677900
C301	C30	0.827600	0.206700	0.668300
C311	C31	0.805800	0.128900	0.607900
H211	H21	0.832600	0.108400	0.534700
C321	C32	0.787200	0.237500	0.774900
H221	H22	0.801100	0.290700	0.813900
C331	C33	0.744300	0.081800	0.656400
H231	H23	0.730400	0.028800	0.616400
C341	C34	0.725600	0.189000	0.824300
H241	H24	0.699700	0.209100	0.898900
C351	C35	0.702600	0.111360	0.763300
C361	C36	0.631900	0.060500	0.809800
O91	O9	0.110180	0.421450	0.428000
O101	O10	0.098800	0.498680	0.225700
N131	N13	0.459040	0.136140	0.049500
N141	N14	0.440700	0.275330	0.026100
N151	N15	0.388890	0.242440	0.113300
C371	C37	0.481300	0.208800	0.992500
H251	H25	0.522500	0.211400	0.933800
C381	C38	0.400500	0.160400	0.124700
H261	H26	0.371600	0.125000	0.177900
C391	C39	0.327600	0.293300	0.168300
C401	C40	0.305800	0.371100	0.107900
H271	H27	0.332600	0.391600	0.034700
C411	C41	0.287200	0.262500	0.274900
H281	H28	0.301100	0.209300	0.313900
C421	C42	0.244300	0.418200	0.156400
H291	H29	0.230400	0.471200	0.116400
C431	C43	0.225600	0.311000	0.324300
H301	H30	0.199700	0.290900	0.398900
C441	C44	0.202600	0.388640	0.263300
C451	C45	0.131900	0.439500	0.309800
O111	O11	0.610180	0.921450	0.428000
O121	O12	0.598800	0.998680	0.225700
N161	N16	0.959040	0.636140	0.049500
N171	N17	0.940700	0.775330	0.026100
N181	N18	0.888890	0.742440	0.113300
C461	C46	0.981300	0.708800	0.992500
H311	H31	0.022500	0.711400	0.933800
C471	C47	0.900500	0.660400	0.124700
H321	H32	0.871600	0.625000	0.177900
C481	C48	0.827600	0.793300	0.168300
C491	C49	0.805800	0.871100	0.107900
H331	H33	0.832600	0.891600	0.034700
C501	C50	0.787200	0.762500	0.274900
H341	H34	0.801100	0.709300	0.313900
C511	C51	0.744300	0.918200	0.156400
H351	H35	0.730400	0.971200	0.116400
C521	C52	0.725600	0.811000	0.324300
H361	H36	0.699700	0.790900	0.398900
C531	C53	0.702600	0.888640	0.263300
C541	C54	0.631900	0.939500	0.309800
O131	O13	0.889820	0.421450	0.072000
O141	O14	0.901200	0.498680	0.274300
N191	N19	0.540960	0.136140	0.450500
N201	N20	0.559300	0.275330	0.473900
N211	N21	0.611110	0.242440	0.386700
C551	C55	0.518700	0.208800	0.507500
H371	H37	0.477500	0.211400	0.566200
C561	C56	0.599500	0.160400	0.375300
H381	H38	0.628400	0.125000	0.322100
C571	C57	0.672400	0.293300	0.331700
C581	C58	0.694200	0.371100	0.392100
H391	H39	0.667400	0.391600	0.465300
C591	C59	0.712800	0.262500	0.225100
H401	H40	0.698900	0.209300	0.186100
C601	C60	0.755700	0.418200	0.343600
H411	H41	0.769600	0.471200	0.383600
C611	C61	0.774400	0.311000	0.175700
H421	H42	0.800300	0.290900	0.101100
C621	C62	0.797400	0.388640	0.236700
C631	C63	0.868100	0.439500	0.190200
O151	O15	0.389820	0.921450	0.072000
O161	O16	0.401200	0.998680	0.274300
N221	N22	0.040960	0.636140	0.450500
N231	N23	0.059300	0.775330	0.473900
N241	N24	0.111110	0.742440	0.386700
C641	C64	0.018700	0.708800	0.507500
H431	H43	0.977500	0.711400	0.566200
C651	C65	0.099500	0.660400	0.375300
H441	H44	0.128400	0.625000	0.322100
C661	C66	0.172400	0.793300	0.331700
C671	C67	0.194200	0.871100	0.392100
H451	H45	0.167400	0.891600	0.465300
C681	C68	0.212800	0.762500	0.225100
H461	H46	0.198900	0.709300	0.186100
C691	C69	0.255700	0.918200	0.343600
H471	H47	0.269600	0.971200	0.383600
C701	C70	0.274400	0.811000	0.175700
H481	H48	0.300300	0.790900	0.101100
C711	C71	0.297400	0.888640	0.236700
C721	C72	0.368100	0.939500	0.190200
Cd11	Cd1	0.500000	0.000000	0.000000
Cd21	Cd2	0.000000	0.500000	0.000000
Cd31	Cd3	0.500000	0.000000	0.500000
Cd41	Cd4	0.000000	0.500000	0.500000
