data_LUFNAC03_freeONLY_PM
_symmetry_space_group_name_H-M	'P1'
_cell_length_a	11.884500
_cell_length_b	11.884500
_cell_length_c	16.357000
_cell_angle_alpha	73.454200
_cell_angle_beta	73.454200
_cell_angle_gamma	78.488900
_symmetry_Int_Tables_number 1

loop_
_symmetry_equiv_pos_as_xyz
'x,y,z'

loop_
_atom_site_label
_atom_site_type_symbol
_atom_site_fract_x
_atom_site_fract_y
_atom_site_fract_z
Mn11	Mn1	0.832520	0.615620	0.546780
Mn21	Mn2	0.384380	0.167480	0.953220
Mn31	Mn3	0.167480	0.384380	0.453220
Mn41	Mn4	0.615620	0.832520	0.046780
H11	H1	0.165600	0.454000	0.036400
H21	H2	0.811900	0.661100	0.274800
H31	H3	0.142900	0.488100	0.244800
H41	H4	0.981000	0.574400	0.046800
H51	H5	0.327200	0.360200	0.079200
H61	H6	0.265400	0.378800	0.173500
H71	H7	0.292700	0.634700	0.002100
H81	H8	0.460600	0.423200	0.180100
H91	H9	0.578900	0.564100	0.150900
H101	H10	0.413900	0.773700	0.981900
H111	H11	0.546000	0.834400	0.463600
H121	H12	0.338900	0.188100	0.225200
H131	H13	0.511900	0.857100	0.255200
H141	H14	0.425600	0.019000	0.453200
H151	H15	0.639800	0.672800	0.420800
H161	H16	0.621200	0.734600	0.326500
H171	H17	0.365300	0.707300	0.497900
H181	H18	0.576800	0.539400	0.319900
H191	H19	0.435900	0.421100	0.349100
H201	H20	0.226300	0.586100	0.518100
H211	H21	0.834400	0.546000	0.963600
H221	H22	0.188100	0.338900	0.725200
H231	H23	0.857100	0.511900	0.755200
H241	H24	0.019000	0.425600	0.953200
H251	H25	0.672800	0.639800	0.920800
H261	H26	0.734600	0.621200	0.826500
H271	H27	0.707300	0.365300	0.997900
H281	H28	0.539400	0.576800	0.819900
H291	H29	0.421100	0.435900	0.849100
H301	H30	0.586100	0.226300	0.018100
H311	H31	0.454000	0.165600	0.536400
H321	H32	0.661100	0.811900	0.774800
H331	H33	0.488100	0.142900	0.744800
H341	H34	0.574400	0.981000	0.546800
H351	H35	0.360200	0.327200	0.579200
H361	H36	0.378800	0.265400	0.673500
H371	H37	0.634700	0.292700	0.502100
H381	H38	0.423200	0.460600	0.680100
H391	H39	0.564100	0.578900	0.650900
H401	H40	0.773700	0.413900	0.481900
C11	C1	0.077600	0.519000	0.136400
C21	C2	0.976400	0.573800	0.274000
C31	C3	0.878700	0.626700	0.240300
C41	C4	0.881400	0.627800	0.154100
C51	C5	0.778400	0.690600	0.116300
C61	C6	0.359900	0.512500	0.096500
C71	C7	0.076800	0.521400	0.222500
C81	C8	0.975300	0.573100	0.367200
C91	C9	0.980300	0.573700	0.104000
C101	C10	0.283000	0.418600	0.111500
C111	C11	0.348600	0.619200	0.035000
C121	C12	0.448200	0.494400	0.139400
C131	C13	0.518000	0.580600	0.122400
C141	C14	0.422500	0.702500	0.023400
C151	C15	0.481000	0.922400	0.363600
C161	C16	0.426200	0.023600	0.226000
C171	C17	0.373300	0.121300	0.259700
C181	C18	0.372200	0.118600	0.345900
C191	C19	0.309400	0.221600	0.383700
C201	C20	0.487500	0.640100	0.403500
C211	C21	0.478600	0.923200	0.277500
C221	C22	0.426900	0.024700	0.132800
C231	C23	0.426300	0.019700	0.396000
C241	C24	0.581400	0.717000	0.388500
C251	C25	0.380800	0.651400	0.465000
C261	C26	0.505600	0.551800	0.360600
C271	C27	0.419400	0.482000	0.377600
C281	C28	0.297500	0.577500	0.476600
C291	C29	0.922400	0.481000	0.863600
C301	C30	0.023600	0.426200	0.726000
C311	C31	0.121300	0.373300	0.759700
C321	C32	0.118600	0.372200	0.845900
C331	C33	0.221600	0.309400	0.883700
C341	C34	0.640100	0.487500	0.903500
C351	C35	0.923200	0.478600	0.777500
C361	C36	0.024700	0.426900	0.632800
C371	C37	0.019700	0.426300	0.896000
C381	C38	0.717000	0.581400	0.888500
C391	C39	0.651400	0.380800	0.965000
C401	C40	0.551800	0.505600	0.860600
C411	C41	0.482000	0.419400	0.877600
C421	C42	0.577500	0.297500	0.976600
C431	C43	0.519000	0.077600	0.636400
C441	C44	0.573800	0.976400	0.774000
C451	C45	0.626700	0.878700	0.740300
C461	C46	0.627800	0.881400	0.654100
C471	C47	0.690600	0.778400	0.616300
C481	C48	0.512500	0.359900	0.596500
C491	C49	0.521400	0.076800	0.722500
C501	C50	0.573100	0.975300	0.867200
C511	C51	0.573700	0.980300	0.604000
C521	C52	0.418600	0.283000	0.611500
C531	C53	0.619200	0.348600	0.535000
C541	C54	0.494400	0.448200	0.639400
C551	C55	0.580600	0.518000	0.622400
C561	C56	0.702500	0.422500	0.523400
N11	N1	0.504900	0.687100	0.067700
N21	N2	0.172100	0.462900	0.085100
N31	N3	0.312900	0.495100	0.432300
N41	N4	0.537100	0.827900	0.414900
N51	N5	0.495100	0.312900	0.932300
N61	N6	0.827900	0.537100	0.914900
N71	N7	0.687100	0.504900	0.567700
N81	N8	0.462900	0.172100	0.585100
O11	O1	0.687800	0.737400	0.164200
O21	O2	0.069600	0.535400	0.392100
O31	O3	0.784300	0.697700	0.036400
O41	O4	0.880200	0.614000	0.412200
O51	O5	0.968400	0.727600	0.527200
O61	O6	0.262600	0.312200	0.335800
O71	O7	0.464600	0.930400	0.107900
O81	O8	0.302300	0.215700	0.463600
O91	O9	0.386000	0.119800	0.087800
O101	O10	0.272400	0.031600	0.972800
O111	O11	0.312200	0.262600	0.835800
O121	O12	0.930400	0.464600	0.607900
O131	O13	0.215700	0.302300	0.963600
O141	O14	0.119800	0.386000	0.587800
O151	O15	0.031600	0.272400	0.472800
O161	O16	0.737400	0.687800	0.664200
O171	O17	0.535400	0.069600	0.892100
O181	O18	0.697700	0.784300	0.536400
O191	O19	0.614000	0.880200	0.912200
O201	O20	0.727600	0.968400	0.027200
