data_LUFNAC_freeONLY_PM
_symmetry_space_group_name_H-M	'P1'
_cell_length_a	11.832600
_cell_length_b	11.832600
_cell_length_c	16.444000
_cell_angle_alpha	73.158300
_cell_angle_beta	73.158300
_cell_angle_gamma	78.868400
_symmetry_Int_Tables_number 1

loop_
_symmetry_equiv_pos_as_xyz
'x,y,z'

loop_
_atom_site_label
_atom_site_type_symbol
_atom_site_fract_x
_atom_site_fract_y
_atom_site_fract_z
Mn11	Mn1	0.836110	0.619850	0.044140
Mn21	Mn2	0.380150	0.163890	0.455860
Mn31	Mn3	0.163890	0.380150	0.955860
Mn41	Mn4	0.619850	0.836110	0.544140
H11	H1	0.664500	0.813500	0.273100
H21	H2	0.451900	0.166500	0.038200
H31	H3	0.572300	0.981300	0.047800
H41	H4	0.374200	0.267800	0.172500
H51	H5	0.361700	0.329900	0.077000
H61	H6	0.484600	0.140000	0.247200
H71	H7	0.639000	0.288600	0.009800
H81	H8	0.421800	0.463200	0.177300
H91	H9	0.774600	0.416000	0.984200
H101	H10	0.564900	0.583300	0.149200
H111	H11	0.021000	0.767000	0.968000
H121	H12	0.907000	0.793000	0.033000
H131	H13	0.186500	0.335500	0.226900
H141	H14	0.833500	0.548100	0.461800
H151	H15	0.018700	0.427700	0.452200
H161	H16	0.732200	0.625800	0.327500
H171	H17	0.670100	0.638300	0.423000
H181	H18	0.860000	0.515400	0.252800
H191	H19	0.711400	0.361000	0.490200
H201	H20	0.536800	0.578200	0.322700
H211	H21	0.584000	0.225400	0.515800
H221	H22	0.416700	0.435100	0.350800
H231	H23	0.233000	0.979000	0.532000
H241	H24	0.207000	0.093000	0.467000
H251	H25	0.335500	0.186500	0.726900
H261	H26	0.548100	0.833500	0.961800
H271	H27	0.427700	0.018700	0.952200
H281	H28	0.625800	0.732200	0.827500
H291	H29	0.638300	0.670100	0.923000
H301	H30	0.515400	0.860000	0.752800
H311	H31	0.361000	0.711400	0.990200
H321	H32	0.578200	0.536800	0.822700
H331	H33	0.225400	0.584000	0.015800
H341	H34	0.435100	0.416700	0.850800
H351	H35	0.979000	0.233000	0.032000
H361	H36	0.093000	0.207000	0.967000
H371	H37	0.813500	0.664500	0.773100
H381	H38	0.166500	0.451900	0.538200
H391	H39	0.981300	0.572300	0.547800
H401	H40	0.267800	0.374200	0.672500
H411	H41	0.329900	0.361700	0.577000
H421	H42	0.140000	0.484600	0.747200
H431	H43	0.288600	0.639000	0.509800
H441	H44	0.463200	0.421800	0.677300
H451	H45	0.416000	0.774600	0.484200
H461	H46	0.583300	0.564900	0.649200
H471	H47	0.767000	0.021000	0.468000
H481	H48	0.793000	0.907000	0.533000
C11	C1	0.570700	0.973700	0.274600
C21	C2	0.515700	0.077700	0.138200
C31	C3	0.628800	0.882600	0.153400
C41	C4	0.627200	0.879400	0.239600
C51	C5	0.569700	0.972700	0.366700
C61	C6	0.693500	0.782700	0.114600
C71	C7	0.513000	0.359800	0.098300
C81	C8	0.572400	0.980400	0.104500
C91	C9	0.417400	0.284600	0.111200
C101	C10	0.518200	0.074600	0.224200
C111	C11	0.621200	0.347600	0.040100
C121	C12	0.494500	0.449500	0.138300
C131	C13	0.703800	0.423400	0.026600
C141	C14	0.582600	0.521200	0.121900
C151	C15	0.026300	0.429300	0.225400
C161	C16	0.922300	0.484300	0.361800
C171	C17	0.117400	0.371200	0.346600
C181	C18	0.120600	0.372800	0.260400
C191	C19	0.027300	0.430300	0.133300
C201	C20	0.217300	0.306500	0.385400
C211	C21	0.640200	0.487000	0.401700
C221	C22	0.019600	0.427600	0.395500
C231	C23	0.715400	0.582600	0.388800
C241	C24	0.925400	0.481800	0.275800
C251	C25	0.652400	0.378800	0.459900
C261	C26	0.550500	0.505500	0.361700
C271	C27	0.576600	0.296200	0.473400
C281	C28	0.478800	0.417400	0.378100
C291	C29	0.429300	0.026300	0.725400
C301	C30	0.484300	0.922300	0.861800
C311	C31	0.371200	0.117400	0.846600
C321	C32	0.372800	0.120600	0.760400
C331	C33	0.430300	0.027300	0.633300
C341	C34	0.306500	0.217300	0.885400
C351	C35	0.487000	0.640200	0.901700
C361	C36	0.427600	0.019600	0.895500
C371	C37	0.582600	0.715400	0.888800
C381	C38	0.481800	0.925400	0.775800
C391	C39	0.378800	0.652400	0.959900
C401	C40	0.505500	0.550500	0.861700
C411	C41	0.296200	0.576600	0.973400
C421	C42	0.417400	0.478800	0.878100
C431	C43	0.973700	0.570700	0.774600
C441	C44	0.077700	0.515700	0.638200
C451	C45	0.882600	0.628800	0.653400
C461	C46	0.879400	0.627200	0.739600
C471	C47	0.972700	0.569700	0.866700
C481	C48	0.782700	0.693500	0.614600
C491	C49	0.359800	0.513000	0.598300
C501	C50	0.980400	0.572400	0.604500
C511	C51	0.284600	0.417400	0.611200
C521	C52	0.074600	0.518200	0.724200
C531	C53	0.347600	0.621200	0.540100
C541	C54	0.449500	0.494500	0.638300
C551	C55	0.423400	0.703800	0.526600
C561	C56	0.521200	0.582600	0.621900
N11	N1	0.688700	0.506900	0.070500
N21	N2	0.460700	0.173300	0.086600
N31	N3	0.493100	0.311300	0.429500
N41	N4	0.826700	0.539300	0.413400
N51	N5	0.311300	0.493100	0.929500
N61	N6	0.539300	0.826700	0.913400
N71	N7	0.506900	0.688700	0.570500
N81	N8	0.173300	0.460700	0.586600
O11	O1	0.744300	0.692900	0.160700
O21	O2	0.699500	0.788100	0.035100
O31	O3	0.615700	0.877700	0.410900
O41	O4	0.529100	0.064700	0.392900
O51	O5	0.971600	0.735200	0.020100
O61	O6	0.307100	0.255700	0.339300
O71	O7	0.211900	0.300500	0.464900
O81	O8	0.122300	0.384300	0.089100
O91	O9	0.935300	0.470900	0.107100
O101	O10	0.264800	0.028400	0.479900
O111	O11	0.255700	0.307100	0.839300
O121	O12	0.300500	0.211900	0.964900
O131	O13	0.384300	0.122300	0.589100
O141	O14	0.470900	0.935300	0.607100
O151	O15	0.028400	0.264800	0.979900
O161	O16	0.692900	0.744300	0.660700
O171	O17	0.788100	0.699500	0.535100
O181	O18	0.877700	0.615700	0.910900
O191	O19	0.064700	0.529100	0.892900
O201	O20	0.735200	0.971600	0.520100
