data_LUFNAC02_freeONLY_PM
_symmetry_space_group_name_H-M	'P1'
_cell_length_a	11.876000
_cell_length_b	11.876000
_cell_length_c	16.341000
_cell_angle_alpha	73.360700
_cell_angle_beta	73.360700
_cell_angle_gamma	78.381300
_symmetry_Int_Tables_number 1

loop_
_symmetry_equiv_pos_as_xyz
'x,y,z'

loop_
_atom_site_label
_atom_site_type_symbol
_atom_site_fract_x
_atom_site_fract_y
_atom_site_fract_z
Mn11	Mn1	0.832440	0.615960	0.546760
Mn21	Mn2	0.384040	0.167560	0.953240
Mn31	Mn3	0.167560	0.384040	0.453240
Mn41	Mn4	0.615960	0.832440	0.046760
H11	H1	0.453000	0.167000	0.537000
H21	H2	0.662800	0.813400	0.773400
H31	H3	0.573300	0.982100	0.547000
H41	H4	0.486700	0.143700	0.744700
H51	H5	0.378000	0.267000	0.672600
H61	H6	0.361200	0.328400	0.577600
H71	H7	0.633500	0.293500	0.501800
H81	H8	0.423000	0.459600	0.680400
H91	H9	0.563500	0.578300	0.651800
H101	H10	0.775200	0.412800	0.484100
H111	H11	0.833000	0.547000	0.963000
H121	H12	0.186600	0.337200	0.726600
H131	H13	0.017900	0.426700	0.953000
H141	H14	0.856300	0.513300	0.755300
H151	H15	0.733000	0.622000	0.827400
H161	H16	0.671600	0.638800	0.922400
H171	H17	0.706500	0.366500	0.998200
H181	H18	0.540400	0.577000	0.819600
H191	H19	0.421700	0.436500	0.848200
H201	H20	0.587200	0.224800	0.015900
H211	H21	0.547000	0.833000	0.463000
H221	H22	0.337200	0.186600	0.226600
H231	H23	0.426700	0.017900	0.453000
H241	H24	0.513300	0.856300	0.255300
H251	H25	0.622000	0.733000	0.327400
H261	H26	0.638800	0.671600	0.422400
H271	H27	0.366500	0.706500	0.498200
H281	H28	0.577000	0.540400	0.319600
H291	H29	0.436500	0.421700	0.348200
H301	H30	0.224800	0.587200	0.515900
H311	H31	0.167000	0.453000	0.037000
H321	H32	0.813400	0.662800	0.273400
H331	H33	0.982100	0.573300	0.047000
H341	H34	0.143700	0.486700	0.244700
H351	H35	0.267000	0.378000	0.172600
H361	H36	0.328400	0.361200	0.077600
H371	H37	0.293500	0.633500	0.001800
H381	H38	0.459600	0.423000	0.180400
H391	H39	0.578300	0.563500	0.151800
H401	H40	0.412800	0.775200	0.984100
C11	C1	0.517600	0.079200	0.637400
C21	C2	0.572900	0.976700	0.774500
C31	C3	0.625500	0.881500	0.654600
C41	C4	0.626300	0.879700	0.739600
C51	C5	0.690000	0.778200	0.616400
C61	C6	0.572400	0.981000	0.604400
C71	C7	0.520200	0.077400	0.722300
C81	C8	0.513500	0.359700	0.595800
C91	C9	0.572700	0.975700	0.866400
C101	C10	0.418700	0.283900	0.610600
C111	C11	0.618100	0.348700	0.535400
C121	C12	0.494400	0.447800	0.639700
C131	C13	0.580400	0.517400	0.623000
C141	C14	0.703100	0.422500	0.524700
C151	C15	0.920800	0.482400	0.862600
C161	C16	0.023300	0.427100	0.725500
C171	C17	0.118500	0.374500	0.845400
C181	C18	0.120300	0.373700	0.760400
C191	C19	0.221800	0.310000	0.883600
C201	C20	0.019000	0.427600	0.895600
C211	C21	0.922600	0.479800	0.777700
C221	C22	0.640300	0.486500	0.904200
C231	C23	0.024300	0.427300	0.633600
C241	C24	0.716100	0.581300	0.889400
C251	C25	0.651300	0.381900	0.964600
C261	C26	0.552200	0.505600	0.860300
C271	C27	0.482600	0.419600	0.877000
C281	C28	0.577500	0.296900	0.975300
C291	C29	0.482400	0.920800	0.362600
C301	C30	0.427100	0.023300	0.225500
C311	C31	0.374500	0.118500	0.345400
C321	C32	0.373700	0.120300	0.260400
C331	C33	0.310000	0.221800	0.383600
C341	C34	0.427600	0.019000	0.395600
C351	C35	0.479800	0.922600	0.277700
C361	C36	0.486500	0.640300	0.404200
C371	C37	0.427300	0.024300	0.133600
C381	C38	0.581300	0.716100	0.389400
C391	C39	0.381900	0.651300	0.464600
C401	C40	0.505600	0.552200	0.360300
C411	C41	0.419600	0.482600	0.377000
C421	C42	0.296900	0.577500	0.475300
C431	C43	0.079200	0.517600	0.137400
C441	C44	0.976700	0.572900	0.274500
C451	C45	0.881500	0.625500	0.154600
C461	C46	0.879700	0.626300	0.239600
C471	C47	0.778200	0.690000	0.116400
C481	C48	0.981000	0.572400	0.104400
C491	C49	0.077400	0.520200	0.222300
C501	C50	0.359700	0.513500	0.095800
C511	C51	0.975700	0.572700	0.366400
C521	C52	0.283900	0.418700	0.110600
C531	C53	0.348700	0.618100	0.035400
C541	C54	0.447800	0.494400	0.139700
C551	C55	0.517400	0.580400	0.123000
C561	C56	0.422500	0.703100	0.024700
N11	N1	0.462000	0.174000	0.585600
N21	N2	0.687200	0.504600	0.568300
N31	N3	0.826000	0.538000	0.914400
N41	N4	0.495400	0.312800	0.931700
N51	N5	0.538000	0.826000	0.414400
N61	N6	0.312800	0.495400	0.431700
N71	N7	0.174000	0.462000	0.085600
N81	N8	0.504600	0.687200	0.068300
O11	O1	0.736900	0.689300	0.664200
O21	O2	0.696200	0.785200	0.536500
O31	O3	0.536300	0.070100	0.891700
O41	O4	0.614600	0.879800	0.911900
O51	O5	0.968300	0.727500	0.526500
O61	O6	0.310700	0.263100	0.835800
O71	O7	0.214800	0.303800	0.963500
O81	O8	0.929900	0.463700	0.608300
O91	O9	0.120200	0.385400	0.588100
O101	O10	0.272500	0.031700	0.973500
O111	O11	0.263100	0.310700	0.335800
O121	O12	0.303800	0.214800	0.463500
O131	O13	0.463700	0.929900	0.108300
O141	O14	0.385400	0.120200	0.088100
O151	O15	0.031700	0.272500	0.473500
O161	O16	0.689300	0.736900	0.164200
O171	O17	0.785200	0.696200	0.036500
O181	O18	0.070100	0.536300	0.391700
O191	O19	0.879800	0.614600	0.411900
O201	O20	0.727500	0.968300	0.026500
