data_LUFQUZ_freeONLY_PM
_symmetry_space_group_name_H-M	'P1'
_cell_length_a	7.113900
_cell_length_b	6.910900
_cell_length_c	6.779900
_cell_angle_alpha	90.000000
_cell_angle_beta	90.000000
_cell_angle_gamma	90.000000
_symmetry_Int_Tables_number 1

loop_
_symmetry_equiv_pos_as_xyz
'x,y,z'

loop_
_atom_site_label
_atom_site_type_symbol
_atom_site_fract_x
_atom_site_fract_y
_atom_site_fract_z
Ni11	Ni1	0.500000	0.500000	0.000000
Fe11	Fe1	0.000000	0.000000	0.000000
N11	N1	0.194800	0.197300	0.000000
C11	C1	0.312500	0.311100	0.000000
N21	N2	0.805200	0.802700	0.000000
C21	C2	0.687500	0.688900	0.000000
N31	N3	0.805200	0.197300	0.000000
C31	C3	0.687500	0.311100	0.000000
N41	N4	0.194800	0.802700	0.000000
C41	C4	0.312500	0.688900	0.000000
N51	N5	0.000000	0.000000	0.292900
N61	N6	0.000000	0.000000	0.707100
C51	C5	0.000000	0.164100	0.397200
H11	H1	0.000000	0.284300	0.329200
C61	C6	0.000000	0.835900	0.397200
H21	H2	0.000000	0.715700	0.329200
C71	C7	0.000000	0.164100	0.602800
H31	H3	0.000000	0.284300	0.670800
C81	C8	0.000000	0.835900	0.602800
H41	H4	0.000000	0.715700	0.670800
