data_LUMDEC_freeONLY_PM
_symmetry_space_group_name_H-M	'P1'
_cell_length_a	17.468200
_cell_length_b	17.468200
_cell_length_c	17.468200
_cell_angle_alpha	97.470100
_cell_angle_beta	115.785000
_cell_angle_gamma	115.785000
_symmetry_Int_Tables_number 1

loop_
_symmetry_equiv_pos_as_xyz
'x,y,z'

loop_
_atom_site_label
_atom_site_type_symbol
_atom_site_fract_x
_atom_site_fract_y
_atom_site_fract_z
Cd11	Cd1	0.455210	0.049390	0.163420
Cd21	Cd2	0.955210	0.791790	0.405820
H11	H1	0.649000	0.034100	0.325100
H21	H2	0.453000	0.884800	0.065200
H31	H3	0.755200	0.947400	0.368400
H41	H4	0.694300	0.820800	0.209700
H51	H5	0.594000	0.284100	0.284500
H61	H6	0.614600	0.160500	0.100700
H71	H7	0.708400	0.462200	0.309800
H81	H8	0.814000	0.486600	0.227200
H91	H9	0.560100	0.828900	0.122400
H101	H10	0.715000	0.321900	0.142100
H111	H11	0.149000	0.823900	0.614900
H121	H12	0.953000	0.887800	0.568200
H131	H13	0.255200	0.886800	0.807800
H141	H14	0.194300	0.984600	0.873500
H151	H15	0.094000	0.809500	0.309900
H161	H16	0.114600	0.013900	0.454100
H171	H17	0.208400	0.898600	0.246200
H181	H18	0.314000	0.086800	0.327400
H191	H19	0.060100	0.937700	0.731200
H201	H20	0.215000	0.072900	0.393100
C11	C1	0.632800	0.924800	0.247200
C21	C2	0.612600	0.987800	0.267200
C31	C3	0.506300	0.907800	0.126300
C41	C4	0.714800	0.912600	0.305000
C51	C5	0.734900	0.856000	0.272900
C61	C6	0.817300	0.845400	0.331100
C71	C7	0.672600	0.341600	0.229400
C81	C8	0.612000	0.274400	0.243000
C91	C9	0.622700	0.206100	0.143200
C101	C10	0.726100	0.440700	0.272800
C111	C11	0.797000	0.504900	0.266500
C121	C12	0.850800	0.605600	0.320400
C131	C13	0.132800	0.885600	0.708000
C141	C14	0.112600	0.845400	0.624800
C151	C15	0.006300	0.880000	0.598500
C161	C16	0.214800	0.909800	0.802200
C171	C17	0.234900	0.962000	0.878900
C181	C18	0.317300	0.986200	0.971900
C191	C19	0.172600	0.943200	0.331000
C201	C20	0.112000	0.869000	0.337600
C211	C21	0.122700	0.979500	0.416600
C221	C22	0.226100	0.953300	0.285400
C231	C23	0.297000	0.030500	0.292100
C241	C24	0.350800	0.030400	0.245200
N11	N1	0.565000	0.873900	0.155500
N21	N2	0.531100	0.973500	0.190000
N31	N3	0.680100	0.296600	0.164500
N41	N4	0.579500	0.189600	0.188900
N51	N5	0.065000	0.909500	0.691100
N61	N6	0.031100	0.841100	0.557600
N71	N7	0.180100	0.015600	0.383500
N81	N8	0.079500	0.890600	0.389900
O11	O1	0.929400	0.660400	0.322400
O21	O2	0.820600	0.632800	0.364400
O31	O3	0.832200	0.794800	0.289200
O41	O4	0.869100	0.882400	0.415900
O51	O5	0.429400	0.107000	0.269000
O61	O6	0.320600	0.956200	0.187800
O71	O7	0.332200	0.043000	0.037400
O81	O8	0.369100	0.953200	0.986700
Cd31	Cd3	0.044790	0.208210	0.594180
Cd41	Cd4	0.544790	0.950610	0.836580
H211	H21	0.851000	0.176100	0.385100
H221	H22	0.047000	0.112200	0.431800
H231	H23	0.744800	0.113200	0.192200
H241	H24	0.805700	0.015400	0.126500
H251	H25	0.906000	0.190500	0.690100
H261	H26	0.885400	0.986100	0.545900
H271	H27	0.791600	0.101400	0.753800
H281	H28	0.686000	0.913200	0.672600
H291	H29	0.939900	0.062300	0.268800
H301	H30	0.785000	0.927100	0.606900
H311	H31	0.351000	0.965900	0.674900
H321	H32	0.547000	0.115200	0.934800
H331	H33	0.244800	0.052600	0.631600
H341	H34	0.305700	0.179200	0.790300
H351	H35	0.406000	0.715900	0.715500
H361	H36	0.385400	0.839500	0.899300
H371	H37	0.291600	0.537800	0.690200
H381	H38	0.186000	0.513400	0.772800
H391	H39	0.439900	0.171100	0.877600
H401	H40	0.285000	0.678100	0.857900
C251	C25	0.867200	0.114400	0.292000
C261	C26	0.887400	0.154600	0.375200
C271	C27	0.993700	0.120000	0.401500
C281	C28	0.785200	0.090200	0.197800
C291	C29	0.765100	0.038000	0.121100
C301	C30	0.682700	0.013800	0.028100
C311	C31	0.827400	0.056800	0.669000
C321	C32	0.888000	0.131000	0.662400
C331	C33	0.877300	0.020500	0.583400
C341	C34	0.773900	0.046700	0.714600
C351	C35	0.703000	0.969500	0.707900
C361	C36	0.649200	0.969600	0.754800
C371	C37	0.367200	0.075200	0.752800
C381	C38	0.387400	0.012200	0.732800
C391	C39	0.493700	0.092200	0.873700
C401	C40	0.285200	0.087400	0.695000
C411	C41	0.265100	0.144000	0.727100
C421	C42	0.182700	0.154600	0.668900
C431	C43	0.327400	0.658400	0.770600
C441	C44	0.388000	0.725600	0.757000
C451	C45	0.377300	0.793900	0.856800
C461	C46	0.273900	0.559300	0.727200
C471	C47	0.203000	0.495100	0.733500
C481	C48	0.149200	0.394400	0.679600
N91	N9	0.935000	0.090500	0.308900
N101	N10	0.968900	0.158900	0.442400
N111	N11	0.819900	0.984400	0.616500
N121	N12	0.920500	0.109400	0.610100
N131	N13	0.435000	0.126100	0.844500
N141	N14	0.468900	0.026500	0.810000
N151	N15	0.319900	0.703400	0.835500
N161	N16	0.420500	0.810400	0.811100
O91	O9	0.570600	0.893000	0.731000
O101	O10	0.679400	0.043800	0.812200
O111	O11	0.667800	0.957000	0.962600
O121	O12	0.630900	0.046800	0.013300
O131	O13	0.070600	0.339600	0.677600
O141	O14	0.179400	0.367200	0.635600
O151	O15	0.167800	0.205200	0.710800
O161	O16	0.130900	0.117600	0.584100
Cd51	Cd5	0.114030	0.163420	0.208210
Cd61	Cd6	0.614030	0.405820	0.950610
H411	H41	0.291000	0.325100	0.176100
H421	H42	0.180400	0.065200	0.112200
H431	H43	0.421000	0.368400	0.113200
H441	H44	0.388900	0.209700	0.015400
H451	H45	0.000400	0.284500	0.190500
H461	H46	0.940200	0.100700	0.986100
H471	H47	0.847600	0.309800	0.101400
H481	H48	0.740600	0.227200	0.913200
H491	H49	0.293500	0.122400	0.062300
H501	H50	0.820200	0.142100	0.927100
H511	H51	0.791000	0.614900	0.965900
H521	H52	0.680400	0.568200	0.115200
H531	H53	0.921000	0.807800	0.052600
H541	H54	0.888900	0.873500	0.179200
H551	H55	0.500400	0.309900	0.715900
H561	H56	0.440200	0.454100	0.839500
H571	H57	0.347600	0.246200	0.537800
H581	H58	0.240600	0.327400	0.513400
H591	H59	0.793500	0.731200	0.171100
H601	H60	0.320200	0.393100	0.678100
C491	C49	0.322400	0.247200	0.114400
C501	C50	0.279400	0.267200	0.154600
C511	C51	0.218500	0.126300	0.120000
C521	C52	0.392400	0.305000	0.090200
C531	C53	0.416900	0.272900	0.038000
C541	C54	0.485700	0.331100	0.013800
C551	C55	0.887800	0.229400	0.056800
C561	C56	0.968600	0.243000	0.131000
C571	C57	0.937100	0.143200	0.020500
C581	C58	0.832100	0.272800	0.046700
C591	C59	0.761600	0.266500	0.969500
C601	C60	0.714800	0.320400	0.969600
C611	C61	0.822400	0.708000	0.075200
C621	C62	0.779400	0.624800	0.012200
C631	C63	0.718500	0.598500	0.092200
C641	C64	0.892400	0.802200	0.087400
C651	C65	0.916900	0.878900	0.144000
C661	C66	0.985700	0.971900	0.154600
C671	C67	0.387800	0.331000	0.658400
C681	C68	0.468600	0.337600	0.725600
C691	C69	0.437100	0.416600	0.793900
C701	C70	0.332100	0.285400	0.559300
C711	C71	0.261600	0.292100	0.495100
C721	C72	0.214800	0.245200	0.394400
N171	N17	0.281600	0.155500	0.090500
N181	N18	0.216500	0.190000	0.158900
N191	N19	0.867900	0.164500	0.984400
N201	N20	0.999300	0.188900	0.109400
N211	N21	0.781600	0.691100	0.126100
N221	N22	0.716500	0.557600	0.026500
N231	N23	0.367900	0.383500	0.703400
N241	N24	0.499300	0.389900	0.810400
O171	O17	0.662000	0.322400	0.893000
O181	O18	0.731600	0.364400	0.043800
O191	O19	0.494400	0.289200	0.957000
O201	O20	0.533500	0.415900	0.046800
O211	O21	0.162000	0.269000	0.339600
O221	O22	0.231600	0.187800	0.367200
O231	O23	0.994400	0.037400	0.205200
O241	O24	0.033500	0.986700	0.117600
Cd71	Cd7	0.385970	0.594180	0.049390
Cd81	Cd8	0.885970	0.836580	0.791790
H611	H61	0.209000	0.385100	0.034100
H621	H62	0.319600	0.431800	0.884800
H631	H63	0.079000	0.192200	0.947400
H641	H64	0.111100	0.126500	0.820800
H651	H65	0.499600	0.690100	0.284100
H661	H66	0.559800	0.545900	0.160500
H671	H67	0.652400	0.753800	0.462200
H681	H68	0.759400	0.672600	0.486600
H691	H69	0.206500	0.268800	0.828900
H701	H70	0.679800	0.606900	0.321900
H711	H71	0.709000	0.674900	0.823900
H721	H72	0.819600	0.934800	0.887800
H731	H73	0.579000	0.631600	0.886800
H741	H74	0.611100	0.790300	0.984600
H751	H75	0.999600	0.715500	0.809500
H761	H76	0.059800	0.899300	0.013900
H771	H77	0.152400	0.690200	0.898600
H781	H78	0.259400	0.772800	0.086800
H791	H79	0.706500	0.877600	0.937700
H801	H80	0.179800	0.857900	0.072900
C731	C73	0.177600	0.292000	0.924800
C741	C74	0.220600	0.375200	0.987800
C751	C75	0.281500	0.401500	0.907800
C761	C76	0.107600	0.197800	0.912600
C771	C77	0.083100	0.121100	0.856000
C781	C78	0.014300	0.028100	0.845400
C791	C79	0.612200	0.669000	0.341600
C801	C80	0.531400	0.662400	0.274400
C811	C81	0.562900	0.583400	0.206100
C821	C82	0.667900	0.714600	0.440700
C831	C83	0.738400	0.707900	0.504900
C841	C84	0.785200	0.754800	0.605600
C851	C85	0.677600	0.752800	0.885600
C861	C86	0.720600	0.732800	0.845400
C871	C87	0.781500	0.873700	0.880000
C881	C88	0.607600	0.695000	0.909800
C891	C89	0.583100	0.727100	0.962000
C901	C90	0.514300	0.668900	0.986200
C911	C91	0.112200	0.770600	0.943200
C921	C92	0.031400	0.757000	0.869000
C931	C93	0.062900	0.856800	0.979500
C941	C94	0.167900	0.727200	0.953300
C951	C95	0.238400	0.733500	0.030500
C961	C96	0.285200	0.679600	0.030400
N251	N25	0.218400	0.308900	0.873900
N261	N26	0.283500	0.442400	0.973500
N271	N27	0.632100	0.616500	0.296600
N281	N28	0.500700	0.610100	0.189600
N291	N29	0.718400	0.844500	0.909500
N301	N30	0.783500	0.810000	0.841100
N311	N31	0.132100	0.835500	0.015600
N321	N32	0.000700	0.811100	0.890600
O251	O25	0.838000	0.731000	0.660400
O261	O26	0.768400	0.812200	0.632800
O271	O27	0.005600	0.962600	0.794800
O281	O28	0.966500	0.013300	0.882400
O291	O29	0.338000	0.677600	0.107000
O301	O30	0.268400	0.635600	0.956200
O311	O31	0.505600	0.710800	0.043000
O321	O32	0.466500	0.584100	0.953200
