data_LUMYOJ_freeONLY_PM
_symmetry_space_group_name_H-M	'P1'
_cell_length_a	24.338000
_cell_length_b	9.487700
_cell_length_c	16.502000
_cell_angle_alpha	90.000000
_cell_angle_beta	119.890000
_cell_angle_gamma	90.000000
_symmetry_Int_Tables_number 1

loop_
_symmetry_equiv_pos_as_xyz
'x,y,z'

loop_
_atom_site_label
_atom_site_type_symbol
_atom_site_fract_x
_atom_site_fract_y
_atom_site_fract_z
Cu11	Cu1	0.042720	0.823610	0.039630
Cu21	Cu2	0.957200	0.614930	0.122250
N11	N1	0.863060	0.982300	0.970630
N21	N2	0.920870	0.993500	0.978450
N31	N3	0.953590	0.878900	0.016900
N41	N4	0.918010	0.789700	0.036130
N51	N5	0.917640	0.682200	0.200980
N61	N6	0.951870	0.698900	0.292790
N71	N7	0.917790	0.764500	0.323420
N81	N8	0.860000	0.791300	0.252170
C11	C1	0.043750	0.668600	0.964140
C21	C2	0.749180	0.697900	0.077080
H11	H1	0.749200	0.662500	0.129600
C31	C3	0.806030	0.743800	0.084910
C41	C4	0.807150	0.796300	0.006810
C51	C5	0.863300	0.855500	0.007060
C61	C6	0.861850	0.740100	0.178760
N91	N9	0.044570	0.566600	0.929330
Cu31	Cu3	0.542720	0.323610	0.039630
Cu41	Cu4	0.457200	0.114930	0.122250
N101	N10	0.363060	0.482300	0.970630
N111	N11	0.420870	0.493500	0.978450
N121	N12	0.453590	0.378900	0.016900
N131	N13	0.418010	0.289700	0.036130
N141	N14	0.417640	0.182200	0.200980
N151	N15	0.451870	0.198900	0.292790
N161	N16	0.417790	0.264500	0.323420
N171	N17	0.360000	0.291300	0.252170
C71	C7	0.543750	0.168600	0.964140
C81	C8	0.249180	0.197900	0.077080
H21	H2	0.249200	0.162500	0.129600
C91	C9	0.306030	0.243800	0.084910
C101	C10	0.307150	0.296300	0.006810
C111	C11	0.363300	0.355500	0.007060
C121	C12	0.361850	0.240100	0.178760
N181	N18	0.544570	0.066600	0.929330
Cu51	Cu5	0.957280	0.823610	0.460370
Cu61	Cu6	0.042800	0.614930	0.377750
N191	N19	0.136940	0.982300	0.529370
N201	N20	0.079130	0.993500	0.521550
N211	N21	0.046410	0.878900	0.483100
N221	N22	0.081990	0.789700	0.463870
N231	N23	0.082360	0.682200	0.299020
N241	N24	0.048130	0.698900	0.207210
N251	N25	0.082210	0.764500	0.176580
N261	N26	0.140000	0.791300	0.247830
C131	C13	0.956250	0.668600	0.535860
C141	C14	0.250820	0.697900	0.422920
H31	H3	0.250800	0.662500	0.370400
C151	C15	0.193970	0.743800	0.415090
C161	C16	0.192850	0.796300	0.493190
C171	C17	0.136700	0.855500	0.492940
C181	C18	0.138150	0.740100	0.321240
N271	N27	0.955430	0.566600	0.570670
Cu71	Cu7	0.457280	0.323610	0.460370
Cu81	Cu8	0.542800	0.114930	0.377750
N281	N28	0.636940	0.482300	0.529370
N291	N29	0.579130	0.493500	0.521550
N301	N30	0.546410	0.378900	0.483100
N311	N31	0.581990	0.289700	0.463870
N321	N32	0.582360	0.182200	0.299020
N331	N33	0.548130	0.198900	0.207210
N341	N34	0.582210	0.264500	0.176580
N351	N35	0.640000	0.291300	0.247830
C191	C19	0.456250	0.168600	0.535860
C201	C20	0.750820	0.197900	0.422920
H41	H4	0.750800	0.162500	0.370400
C211	C21	0.693970	0.243800	0.415090
C221	C22	0.692850	0.296300	0.493190
C231	C23	0.636700	0.355500	0.492940
C241	C24	0.638150	0.240100	0.321240
N361	N36	0.455430	0.066600	0.570670
Cu91	Cu9	0.957280	0.176390	0.960370
Cu101	Cu10	0.042800	0.385070	0.877750
N371	N37	0.136940	0.017700	0.029370
N381	N38	0.079130	0.006500	0.021550
N391	N39	0.046410	0.121100	0.983100
N401	N40	0.081990	0.210300	0.963870
N411	N41	0.082360	0.317800	0.799020
N421	N42	0.048130	0.301100	0.707210
N431	N43	0.082210	0.235500	0.676580
N441	N44	0.140000	0.208700	0.747830
C251	C25	0.956250	0.331400	0.035860
C261	C26	0.250820	0.302100	0.922920
H51	H5	0.250800	0.337500	0.870400
C271	C27	0.193970	0.256200	0.915090
C281	C28	0.192850	0.203700	0.993190
C291	C29	0.136700	0.144500	0.992940
C301	C30	0.138150	0.259900	0.821240
N451	N45	0.955430	0.433400	0.070670
Cu111	Cu11	0.457280	0.676390	0.960370
Cu121	Cu12	0.542800	0.885070	0.877750
N461	N46	0.636940	0.517700	0.029370
N471	N47	0.579130	0.506500	0.021550
N481	N48	0.546410	0.621100	0.983100
N491	N49	0.581990	0.710300	0.963870
N501	N50	0.582360	0.817800	0.799020
N511	N51	0.548130	0.801100	0.707210
N521	N52	0.582210	0.735500	0.676580
N531	N53	0.640000	0.708700	0.747830
C311	C31	0.456250	0.831400	0.035860
C321	C32	0.750820	0.802100	0.922920
H61	H6	0.750800	0.837500	0.870400
C331	C33	0.693970	0.756200	0.915090
C341	C34	0.692850	0.703700	0.993190
C351	C35	0.636700	0.644500	0.992940
C361	C36	0.638150	0.759900	0.821240
N541	N54	0.455430	0.933400	0.070670
Cu131	Cu13	0.042720	0.176390	0.539630
Cu141	Cu14	0.957200	0.385070	0.622250
N551	N55	0.863060	0.017700	0.470630
N561	N56	0.920870	0.006500	0.478450
N571	N57	0.953590	0.121100	0.516900
N581	N58	0.918010	0.210300	0.536130
N591	N59	0.917640	0.317800	0.700980
N601	N60	0.951870	0.301100	0.792790
N611	N61	0.917790	0.235500	0.823420
N621	N62	0.860000	0.208700	0.752170
C371	C37	0.043750	0.331400	0.464140
C381	C38	0.749180	0.302100	0.577080
H71	H7	0.749200	0.337500	0.629600
C391	C39	0.806030	0.256200	0.584910
C401	C40	0.807150	0.203700	0.506810
C411	C41	0.863300	0.144500	0.507060
C421	C42	0.861850	0.259900	0.678760
N631	N63	0.044570	0.433400	0.429330
Cu151	Cu15	0.542720	0.676390	0.539630
Cu161	Cu16	0.457200	0.885070	0.622250
N641	N64	0.363060	0.517700	0.470630
N651	N65	0.420870	0.506500	0.478450
N661	N66	0.453590	0.621100	0.516900
N671	N67	0.418010	0.710300	0.536130
N681	N68	0.417640	0.817800	0.700980
N691	N69	0.451870	0.801100	0.792790
N701	N70	0.417790	0.735500	0.823420
N711	N71	0.360000	0.708700	0.752170
C431	C43	0.543750	0.831400	0.464140
C441	C44	0.249180	0.802100	0.577080
H81	H8	0.249200	0.837500	0.629600
C451	C45	0.306030	0.756200	0.584910
C461	C46	0.307150	0.703700	0.506810
C471	C47	0.363300	0.644500	0.507060
C481	C48	0.361850	0.759900	0.678760
N721	N72	0.544570	0.933400	0.429330
