data_LUMZEA_freeONLY_PM
_symmetry_space_group_name_H-M	'P1'
_cell_length_a	8.105000
_cell_length_b	16.969000
_cell_length_c	17.666000
_cell_angle_alpha	90.000000
_cell_angle_beta	102.495000
_cell_angle_gamma	90.000000
_symmetry_Int_Tables_number 1

loop_
_symmetry_equiv_pos_as_xyz
'x,y,z'

loop_
_atom_site_label
_atom_site_type_symbol
_atom_site_fract_x
_atom_site_fract_y
_atom_site_fract_z
Cu11	Cu1	0.005770	0.704290	0.287830
Cu21	Cu2	0.205350	0.602670	0.170020
Cu31	Cu3	0.535580	0.667370	0.972930
Cu41	Cu4	0.407620	0.580830	0.797560
C11	C1	0.891500	0.655700	0.058600
H11	H1	0.926100	0.636700	0.013900
C21	C2	0.742100	0.702100	0.133800
H21	H2	0.650000	0.722800	0.152900
C31	C3	0.720100	0.827500	0.278300
H31	H3	0.718400	0.845500	0.227300
C41	C4	0.782400	0.765900	0.383900
H41	H4	0.834600	0.730900	0.423900
C51	C5	0.304700	0.697800	0.397400
C61	C6	0.348200	0.654300	0.326800
H51	H5	0.447800	0.681400	0.313400
C71	C7	0.396500	0.570400	0.346200
H61	H6	0.298100	0.542300	0.358100
H71	H7	0.488400	0.569100	0.393300
C81	C8	0.454100	0.527600	0.282000
C91	C9	0.288400	0.587200	0.023700
C101	C10	0.271100	0.555300	0.941200
H81	H8	0.308900	0.499100	0.942900
C111	C11	0.113500	0.562200	0.895000
H91	H9	0.087300	0.619100	0.888500
H101	H10	0.032100	0.539200	0.923300
C121	C12	0.079600	0.524800	0.813700
N11	N1	0.658000	0.813900	0.389800
N21	N2	0.618000	0.854000	0.320600
N31	N3	0.827800	0.772000	0.314600
N41	N4	0.895000	0.687600	0.177800
N51	N5	0.989700	0.658300	0.129100
N61	N6	0.734800	0.683700	0.058900
O11	O1	0.155700	0.723400	0.389700
O21	O2	0.885600	0.595700	0.337900
O31	O3	0.418700	0.706500	0.456700
O41	O4	0.209900	0.662300	0.262600
O51	O5	0.417600	0.551200	0.211800
O61	O6	0.537000	0.463700	0.299400
O71	O7	0.194700	0.557800	0.065600
O81	O8	0.401200	0.637800	0.047200
O91	O9	0.382400	0.605900	0.901100
O101	O10	0.197900	0.520800	0.777300
O111	O11	0.937300	0.504400	0.785700
Cu51	Cu5	0.994230	0.204290	0.212170
Cu61	Cu6	0.794650	0.102670	0.329980
Cu71	Cu7	0.464420	0.167370	0.527070
Cu81	Cu8	0.592380	0.080830	0.702440
C131	C13	0.108500	0.155700	0.441400
H111	H11	0.073900	0.136700	0.486100
C141	C14	0.257900	0.202100	0.366200
H121	H12	0.350000	0.222800	0.347100
C151	C15	0.279900	0.327500	0.221700
H131	H13	0.281600	0.345500	0.272700
C161	C16	0.217600	0.265900	0.116100
H141	H14	0.165400	0.230900	0.076100
C171	C17	0.695300	0.197800	0.102600
C181	C18	0.651800	0.154300	0.173200
H151	H15	0.552200	0.181400	0.186600
C191	C19	0.603500	0.070400	0.153800
H161	H16	0.701900	0.042300	0.141900
H171	H17	0.511600	0.069100	0.106700
C201	C20	0.545900	0.027600	0.218000
C211	C21	0.711600	0.087200	0.476300
C221	C22	0.728900	0.055300	0.558800
H181	H18	0.691100	0.999100	0.557100
C231	C23	0.886500	0.062200	0.605000
H191	H19	0.912700	0.119100	0.611500
H201	H20	0.967900	0.039200	0.576700
C241	C24	0.920400	0.024800	0.686300
N71	N7	0.342000	0.313900	0.110200
N81	N8	0.382000	0.354000	0.179400
N91	N9	0.172200	0.272000	0.185400
N101	N10	0.105000	0.187600	0.322200
N111	N11	0.010300	0.158300	0.370900
N121	N12	0.265200	0.183700	0.441100
O121	O12	0.844300	0.223400	0.110300
O131	O13	0.114400	0.095700	0.162100
O141	O14	0.581300	0.206500	0.043300
O151	O15	0.790100	0.162300	0.237400
O161	O16	0.582400	0.051200	0.288200
O171	O17	0.463000	0.963700	0.200600
O181	O18	0.805300	0.057800	0.434400
O191	O19	0.598800	0.137800	0.452800
O201	O20	0.617600	0.105900	0.598900
O211	O21	0.802100	0.020800	0.722700
O221	O22	0.062700	0.004400	0.714300
Cu91	Cu9	0.994230	0.295710	0.712170
Cu101	Cu10	0.794650	0.397330	0.829980
Cu111	Cu11	0.464420	0.332630	0.027070
Cu121	Cu12	0.592380	0.419170	0.202440
C251	C25	0.108500	0.344300	0.941400
H211	H21	0.073900	0.363300	0.986100
C261	C26	0.257900	0.297900	0.866200
H221	H22	0.350000	0.277200	0.847100
C271	C27	0.279900	0.172500	0.721700
H231	H23	0.281600	0.154500	0.772700
C281	C28	0.217600	0.234100	0.616100
H241	H24	0.165400	0.269100	0.576100
C291	C29	0.695300	0.302200	0.602600
C301	C30	0.651800	0.345700	0.673200
H251	H25	0.552200	0.318600	0.686600
C311	C31	0.603500	0.429600	0.653800
H261	H26	0.701900	0.457700	0.641900
H271	H27	0.511600	0.430900	0.606700
C321	C32	0.545900	0.472400	0.718000
C331	C33	0.711600	0.412800	0.976300
C341	C34	0.728900	0.444700	0.058800
H281	H28	0.691100	0.500900	0.057100
C351	C35	0.886500	0.437800	0.105000
H291	H29	0.912700	0.380900	0.111500
H301	H30	0.967900	0.460800	0.076700
C361	C36	0.920400	0.475200	0.186300
N131	N13	0.342000	0.186100	0.610200
N141	N14	0.382000	0.146000	0.679400
N151	N15	0.172200	0.228000	0.685400
N161	N16	0.105000	0.312400	0.822200
N171	N17	0.010300	0.341700	0.870900
N181	N18	0.265200	0.316300	0.941100
O231	O23	0.844300	0.276600	0.610300
O241	O24	0.114400	0.404300	0.662100
O251	O25	0.581300	0.293500	0.543300
O261	O26	0.790100	0.337700	0.737400
O271	O27	0.582400	0.448800	0.788200
O281	O28	0.463000	0.536300	0.700600
O291	O29	0.805300	0.442200	0.934400
O301	O30	0.598800	0.362200	0.952800
O311	O31	0.617600	0.394100	0.098900
O321	O32	0.802100	0.479200	0.222700
O331	O33	0.062700	0.495600	0.214300
Cu131	Cu13	0.005770	0.795710	0.787830
Cu141	Cu14	0.205350	0.897330	0.670020
Cu151	Cu15	0.535580	0.832630	0.472930
Cu161	Cu16	0.407620	0.919170	0.297560
C371	C37	0.891500	0.844300	0.558600
H311	H31	0.926100	0.863300	0.513900
C381	C38	0.742100	0.797900	0.633800
H321	H32	0.650000	0.777200	0.652900
C391	C39	0.720100	0.672500	0.778300
H331	H33	0.718400	0.654500	0.727300
C401	C40	0.782400	0.734100	0.883900
H341	H34	0.834600	0.769100	0.923900
C411	C41	0.304700	0.802200	0.897400
C421	C42	0.348200	0.845700	0.826800
H351	H35	0.447800	0.818600	0.813400
C431	C43	0.396500	0.929600	0.846200
H361	H36	0.298100	0.957700	0.858100
H371	H37	0.488400	0.930900	0.893300
C441	C44	0.454100	0.972400	0.782000
C451	C45	0.288400	0.912800	0.523700
C461	C46	0.271100	0.944700	0.441200
H381	H38	0.308900	0.000900	0.442900
C471	C47	0.113500	0.937800	0.395000
H391	H39	0.087300	0.880900	0.388500
H401	H40	0.032100	0.960800	0.423300
C481	C48	0.079600	0.975200	0.313700
N191	N19	0.658000	0.686100	0.889800
N201	N20	0.618000	0.646000	0.820600
N211	N21	0.827800	0.728000	0.814600
N221	N22	0.895000	0.812400	0.677800
N231	N23	0.989700	0.841700	0.629100
N241	N24	0.734800	0.816300	0.558900
O341	O34	0.155700	0.776600	0.889700
O351	O35	0.885600	0.904300	0.837900
O361	O36	0.418700	0.793500	0.956700
O371	O37	0.209900	0.837700	0.762600
O381	O38	0.417600	0.948800	0.711800
O391	O39	0.537000	0.036300	0.799400
O401	O40	0.194700	0.942200	0.565600
O411	O41	0.401200	0.862200	0.547200
O421	O42	0.382400	0.894100	0.401100
O431	O43	0.197900	0.979200	0.277300
O441	O44	0.937300	0.995600	0.285700
