data_LUNWEW_freeONLY_PM
_symmetry_space_group_name_H-M	'P1'
_cell_length_a	10.685000
_cell_length_b	11.821000
_cell_length_c	36.625000
_cell_angle_alpha	90.000000
_cell_angle_beta	90.000000
_cell_angle_gamma	90.000000
_symmetry_Int_Tables_number 1

loop_
_symmetry_equiv_pos_as_xyz
'x,y,z'

loop_
_atom_site_label
_atom_site_type_symbol
_atom_site_fract_x
_atom_site_fract_y
_atom_site_fract_z
Ag11	Ag1	0.403180	0.439740	0.709890
Ag21	Ag2	0.105950	0.670550	0.859670
Ag31	Ag3	0.360500	0.861990	0.556540
C11	C1	0.218500	0.271500	0.779300
N11	N1	0.342400	0.226700	0.773300
N21	N2	0.409300	0.253200	0.742900
C21	C2	0.501800	0.181900	0.744100
N31	N3	0.498200	0.109600	0.772600
C31	C3	0.398600	0.139900	0.790600
N41	N4	0.218500	0.389500	0.789500
N51	N5	0.243500	0.470200	0.763800
C41	C4	0.219100	0.562900	0.782500
N61	N6	0.180900	0.546300	0.817700
C51	C5	0.180200	0.436500	0.820400
C61	C6	0.644800	0.278100	0.578200
N71	N7	0.629900	0.314500	0.615500
N81	N8	0.722400	0.297700	0.640800
C71	C7	0.672900	0.338900	0.670300
N91	N9	0.556300	0.381700	0.666900
C81	C8	0.533200	0.364700	0.631600
N101	N10	0.612000	0.157900	0.574700
N111	N11	0.692400	0.077400	0.586500
C91	C9	0.631500	0.983800	0.579700
N121	N12	0.511800	0.999700	0.565200
C101	C10	0.509000	0.109900	0.562600
C111	C11	0.153400	0.587800	0.673800
N131	N13	0.127300	0.468800	0.669500
N141	N14	0.216300	0.391100	0.678000
C121	C12	0.158900	0.295400	0.670700
N151	N15	0.041500	0.307600	0.658000
C131	C13	0.023700	0.416900	0.658300
N161	N16	0.234500	0.632100	0.645600
N171	N17	0.356200	0.596700	0.643400
C141	C14	0.398000	0.657300	0.616500
N181	N18	0.317300	0.727500	0.601500
C151	C15	0.212900	0.709600	0.619900
C161	C16	0.873400	0.508700	0.989600
N191	N19	0.897400	0.529500	0.951400
N201	N20	0.810300	0.502200	0.925800
C171	C17	0.869500	0.524800	0.895900
N211	N21	0.986600	0.568400	0.900300
C181	C18	0.002200	0.568100	0.934700
N221	N22	0.905800	0.395500	0.998700
N231	N23	0.834700	0.307200	0.987000
C191	C19	0.892100	0.217700	0.000600
N241	N24	0.998100	0.243600	0.019200
C201	C20	0.003000	0.354500	0.017500
H11	H1	0.172000	0.263560	0.757120
H21	H2	0.179670	0.229140	0.797930
H31	H3	0.566430	0.180590	0.726260
H41	H4	0.370390	0.105680	0.812840
H51	H5	0.227810	0.636650	0.772300
H61	H6	0.155340	0.396780	0.841820
H71	H7	0.591360	0.321460	0.562840
H81	H8	0.729090	0.288360	0.570920
H91	H9	0.716700	0.339240	0.693010
H101	H10	0.457530	0.385890	0.619760
H111	H11	0.665230	0.910570	0.584440
H121	H12	0.439750	0.150750	0.553000
H131	H13	0.075840	0.629680	0.673710
H141	H14	0.191930	0.600430	0.697330
H151	H15	0.196920	0.223930	0.674250
H161	H16	0.947560	0.453540	0.651540
H171	H17	0.481810	0.649950	0.608120
H181	H18	0.135180	0.746280	0.615820
H191	H19	0.920450	0.561170	0.004490
H201	H20	0.785780	0.521980	0.994960
H211	H21	0.833900	0.511360	0.872600
H221	H22	0.075900	0.592170	0.947020
H231	H23	0.861980	0.142910	0.997600
H241	H24	0.066690	0.400220	0.028090
Ag41	Ag4	0.096820	0.560260	0.209890
Ag51	Ag5	0.394050	0.329450	0.359670
Ag61	Ag6	0.139500	0.138010	0.056540
C211	C21	0.281500	0.728500	0.279300
N251	N25	0.157600	0.773300	0.273300
N261	N26	0.090700	0.746800	0.242900
C221	C22	0.998200	0.818100	0.244100
N271	N27	0.001800	0.890400	0.272600
C231	C23	0.101400	0.860100	0.290600
N281	N28	0.281500	0.610500	0.289500
N291	N29	0.256500	0.529800	0.263800
C241	C24	0.280900	0.437100	0.282500
N301	N30	0.319100	0.453700	0.317700
C251	C25	0.319800	0.563500	0.320400
C261	C26	0.855200	0.721900	0.078200
N311	N31	0.870100	0.685500	0.115500
N321	N32	0.777600	0.702300	0.140800
C271	C27	0.827100	0.661100	0.170300
N331	N33	0.943700	0.618300	0.166900
C281	C28	0.966800	0.635300	0.131600
N341	N34	0.888000	0.842100	0.074700
N351	N35	0.807600	0.922600	0.086500
C291	C29	0.868500	0.016200	0.079700
N361	N36	0.988200	0.000300	0.065200
C301	C30	0.991000	0.890100	0.062600
C311	C31	0.346600	0.412200	0.173800
N371	N37	0.372700	0.531200	0.169500
N381	N38	0.283700	0.608900	0.178000
C321	C32	0.341100	0.704600	0.170700
N391	N39	0.458500	0.692400	0.158000
C331	C33	0.476300	0.583100	0.158300
N401	N40	0.265500	0.367900	0.145600
N411	N41	0.143800	0.403300	0.143400
C341	C34	0.102000	0.342700	0.116500
N421	N42	0.182700	0.272500	0.101500
C351	C35	0.287100	0.290400	0.119900
C361	C36	0.626600	0.491300	0.489600
N431	N43	0.602600	0.470500	0.451400
N441	N44	0.689700	0.497800	0.425800
C371	C37	0.630500	0.475200	0.395900
N451	N45	0.513400	0.431600	0.400300
C381	C38	0.497800	0.431900	0.434700
N461	N46	0.594200	0.604500	0.498700
N471	N47	0.665300	0.692800	0.487000
C391	C39	0.607900	0.782300	0.500600
N481	N48	0.501900	0.756400	0.519200
C401	C40	0.497000	0.645500	0.517500
H251	H25	0.328000	0.736440	0.257120
H261	H26	0.320330	0.770860	0.297930
H271	H27	0.933570	0.819410	0.226260
H281	H28	0.129610	0.894320	0.312840
H291	H29	0.272190	0.363350	0.272300
H301	H30	0.344660	0.603220	0.341820
H311	H31	0.908640	0.678540	0.062840
H321	H32	0.770910	0.711640	0.070920
H331	H33	0.783300	0.660760	0.193010
H341	H34	0.042470	0.614110	0.119760
H351	H35	0.834770	0.089430	0.084440
H361	H36	0.060250	0.849250	0.053000
H371	H37	0.424160	0.370320	0.173710
H381	H38	0.308070	0.399570	0.197330
H391	H39	0.303080	0.776070	0.174250
H401	H40	0.552440	0.546460	0.151540
H411	H41	0.018190	0.350050	0.108120
H421	H42	0.364820	0.253720	0.115820
H431	H43	0.579550	0.438830	0.504490
H441	H44	0.714220	0.478020	0.494960
H451	H45	0.666100	0.488640	0.372600
H461	H46	0.424100	0.407830	0.447020
H471	H47	0.638020	0.857090	0.497600
H481	H48	0.433310	0.599780	0.528090
Ag71	Ag7	0.596820	0.939740	0.790110
Ag81	Ag8	0.894050	0.170550	0.640330
Ag91	Ag9	0.639500	0.361990	0.943460
C411	C41	0.781500	0.771500	0.720700
N491	N49	0.657600	0.726700	0.726700
N501	N50	0.590700	0.753200	0.757100
C421	C42	0.498200	0.681900	0.755900
N511	N51	0.501800	0.609600	0.727400
C431	C43	0.601400	0.639900	0.709400
N521	N52	0.781500	0.889500	0.710500
N531	N53	0.756500	0.970200	0.736200
C441	C44	0.780900	0.062900	0.717500
N541	N54	0.819100	0.046300	0.682300
C451	C45	0.819800	0.936500	0.679600
C461	C46	0.355200	0.778100	0.921800
N551	N55	0.370100	0.814500	0.884500
N561	N56	0.277600	0.797700	0.859200
C471	C47	0.327100	0.838900	0.829700
N571	N57	0.443700	0.881700	0.833100
C481	C48	0.466800	0.864700	0.868400
N581	N58	0.388000	0.657900	0.925300
N591	N59	0.307600	0.577400	0.913500
C491	C49	0.368500	0.483800	0.920300
N601	N60	0.488200	0.499700	0.934800
C501	C50	0.491000	0.609900	0.937400
C511	C51	0.846600	0.087800	0.826200
N611	N61	0.872700	0.968800	0.830500
N621	N62	0.783700	0.891100	0.822000
C521	C52	0.841100	0.795400	0.829300
N631	N63	0.958500	0.807600	0.842000
C531	C53	0.976300	0.916900	0.841700
N641	N64	0.765500	0.132100	0.854400
N651	N65	0.643800	0.096700	0.856600
C541	C54	0.602000	0.157300	0.883500
N661	N66	0.682700	0.227500	0.898500
C551	C55	0.787100	0.209600	0.880100
C561	C56	0.126600	0.008700	0.510400
N671	N67	0.102600	0.029500	0.548600
N681	N68	0.189700	0.002200	0.574200
C571	C57	0.130500	0.024800	0.604100
N691	N69	0.013400	0.068400	0.599700
C581	C58	0.997800	0.068100	0.565300
N701	N70	0.094200	0.895500	0.501300
N711	N71	0.165300	0.807200	0.513000
C591	C59	0.107900	0.717700	0.499400
N721	N72	0.001900	0.743600	0.480800
C601	C60	0.997000	0.854500	0.482500
H491	H49	0.828000	0.763560	0.742880
H501	H50	0.820330	0.729140	0.702070
H511	H51	0.433570	0.680590	0.773740
H521	H52	0.629610	0.605680	0.687160
H531	H53	0.772190	0.136650	0.727700
H541	H54	0.844660	0.896780	0.658180
H551	H55	0.408640	0.821460	0.937160
H561	H56	0.270910	0.788360	0.929080
H571	H57	0.283300	0.839240	0.806990
H581	H58	0.542470	0.885890	0.880240
H591	H59	0.334770	0.410570	0.915560
H601	H60	0.560250	0.650750	0.947000
H611	H61	0.924160	0.129680	0.826290
H621	H62	0.808070	0.100430	0.802670
H631	H63	0.803080	0.723930	0.825750
H641	H64	0.052440	0.953540	0.848460
H651	H65	0.518190	0.149950	0.891880
H661	H66	0.864820	0.246280	0.884180
H671	H67	0.079550	0.061170	0.495510
H681	H68	0.214220	0.021980	0.505040
H691	H69	0.166100	0.011360	0.627400
H701	H70	0.924100	0.092170	0.552980
H711	H71	0.138020	0.642910	0.502400
H721	H72	0.933310	0.900220	0.471910
Ag101	Ag10	0.903180	0.060260	0.290110
Ag111	Ag11	0.605950	0.829450	0.140330
Ag121	Ag12	0.860500	0.638010	0.443460
C611	C61	0.718500	0.228500	0.220700
N731	N73	0.842400	0.273300	0.226700
N741	N74	0.909300	0.246800	0.257100
C621	C62	0.001800	0.318100	0.255900
N751	N75	0.998200	0.390400	0.227400
C631	C63	0.898600	0.360100	0.209400
N761	N76	0.718500	0.110500	0.210500
N771	N77	0.743500	0.029800	0.236200
C641	C64	0.719100	0.937100	0.217500
N781	N78	0.680900	0.953700	0.182300
C651	C65	0.680200	0.063500	0.179600
C661	C66	0.144800	0.221900	0.421800
N791	N79	0.129900	0.185500	0.384500
N801	N80	0.222400	0.202300	0.359200
C671	C67	0.172900	0.161100	0.329700
N811	N81	0.056300	0.118300	0.333100
C681	C68	0.033200	0.135300	0.368400
N821	N82	0.112000	0.342100	0.425300
N831	N83	0.192400	0.422600	0.413500
C691	C69	0.131500	0.516200	0.420300
N841	N84	0.011800	0.500300	0.434800
C701	C70	0.009000	0.390100	0.437400
C711	C71	0.653400	0.912200	0.326200
N851	N85	0.627300	0.031200	0.330500
N861	N86	0.716300	0.108900	0.322000
C721	C72	0.658900	0.204600	0.329300
N871	N87	0.541500	0.192400	0.342000
C731	C73	0.523700	0.083100	0.341700
N881	N88	0.734500	0.867900	0.354400
N891	N89	0.856200	0.903300	0.356600
C741	C74	0.898000	0.842700	0.383500
N901	N90	0.817300	0.772500	0.398500
C751	C75	0.712900	0.790400	0.380100
C761	C76	0.373400	0.991300	0.010400
N911	N91	0.397400	0.970500	0.048600
N921	N92	0.310300	0.997800	0.074200
C771	C77	0.369500	0.975200	0.104100
N931	N93	0.486600	0.931600	0.099700
C781	C78	0.502200	0.931900	0.065300
N941	N94	0.405800	0.104500	0.001300
N951	N95	0.334700	0.192800	0.013000
C791	C79	0.392100	0.282300	0.999400
N961	N96	0.498100	0.256400	0.980800
C801	C80	0.503000	0.145500	0.982500
H731	H73	0.672000	0.236440	0.242880
H741	H74	0.679670	0.270860	0.202070
H751	H75	0.066430	0.319410	0.273740
H761	H76	0.870390	0.394320	0.187160
H771	H77	0.727810	0.863350	0.227700
H781	H78	0.655340	0.103220	0.158180
H791	H79	0.091360	0.178540	0.437160
H801	H80	0.229090	0.211640	0.429080
H811	H81	0.216700	0.160760	0.306990
H821	H82	0.957530	0.114110	0.380240
H831	H83	0.165230	0.589430	0.415560
H841	H84	0.939750	0.349250	0.447000
H851	H85	0.575840	0.870320	0.326290
H861	H86	0.691930	0.899570	0.302670
H871	H87	0.696920	0.276070	0.325750
H881	H88	0.447560	0.046460	0.348460
H891	H89	0.981810	0.850050	0.391880
H901	H90	0.635180	0.753720	0.384180
H911	H91	0.420450	0.938830	0.995510
H921	H92	0.285780	0.978020	0.005040
H931	H93	0.333900	0.988640	0.127400
H941	H94	0.575900	0.907830	0.052980
H951	H95	0.361980	0.357090	0.002400
H961	H96	0.566690	0.099780	0.971910
