data_LUSHUD_freeONLY_PM
_symmetry_space_group_name_H-M	'P1'
_cell_length_a	12.564000
_cell_length_b	12.646100
_cell_length_c	12.646100
_cell_angle_alpha	91.637100
_cell_angle_beta	113.870000
_cell_angle_gamma	113.870000
_symmetry_Int_Tables_number 1

loop_
_symmetry_equiv_pos_as_xyz
'x,y,z'

loop_
_atom_site_label
_atom_site_type_symbol
_atom_site_fract_x
_atom_site_fract_y
_atom_site_fract_z
Mn11	Mn1	0.250000	0.696100	0.303900
Mn21	Mn2	0.750000	0.303900	0.696100
Mn31	Mn3	0.000000	0.500000	0.000000
Mn41	Mn4	0.500000	0.000000	0.500000
H11	H1	0.504800	0.577200	0.345400
H21	H2	0.600600	0.467100	0.450900
H31	H3	0.276900	0.167600	0.246000
H41	H4	0.187600	0.277100	0.134300
H51	H5	0.136600	0.785100	0.964300
H61	H6	0.091300	0.939100	0.907300
H71	H7	0.953400	0.926200	0.143400
H81	H8	0.004500	0.774600	0.199000
H91	H9	0.995200	0.654600	0.422800
H101	H10	0.899400	0.549100	0.532900
H111	H11	0.223100	0.754000	0.832400
H121	H12	0.312400	0.865700	0.722900
H131	H13	0.363400	0.035700	0.214900
H141	H14	0.408700	0.092700	0.060900
H151	H15	0.546600	0.856600	0.073800
H161	H16	0.495500	0.801000	0.225400
H171	H17	0.495200	0.422800	0.654600
H181	H18	0.399400	0.532900	0.549100
H191	H19	0.723100	0.832400	0.754000
H201	H20	0.812400	0.722900	0.865700
H211	H21	0.863400	0.214900	0.035700
H221	H22	0.908700	0.060900	0.092700
H231	H23	0.046600	0.073800	0.856600
H241	H24	0.995500	0.225400	0.801000
H251	H25	0.004800	0.345400	0.577200
H261	H26	0.100600	0.450900	0.467100
H271	H27	0.776900	0.246000	0.167600
H281	H28	0.687600	0.134300	0.277100
H291	H29	0.636600	0.964300	0.785100
H301	H30	0.591300	0.907300	0.939100
H311	H31	0.453400	0.143400	0.926200
H321	H32	0.504500	0.199000	0.774600
C11	C1	0.268400	0.510400	0.167200
C21	C2	0.333900	0.438950	0.229650
C31	C3	0.458900	0.494700	0.324900
C41	C4	0.515800	0.428700	0.389500
C51	C5	0.446700	0.305500	0.362900
C61	C6	0.323400	0.250100	0.266300
C71	C7	0.269300	0.315900	0.200100
C81	C8	0.506300	0.236400	0.441000
C91	C9	0.100900	0.815200	0.001400
C101	C10	0.072700	0.906900	0.966500
C111	C11	0.016600	0.951900	0.018900
C121	C12	0.991600	0.899500	0.106500
C131	C13	0.022200	0.808500	0.140100
C141	C14	0.231600	0.832800	0.489600
C151	C15	0.166100	0.770350	0.561050
C161	C16	0.041100	0.675100	0.505300
C171	C17	0.984200	0.610500	0.571300
C181	C18	0.053300	0.637100	0.694500
C191	C19	0.176600	0.733700	0.749900
C201	C20	0.230700	0.799900	0.684100
C211	C21	0.993700	0.559000	0.763600
C221	C22	0.399100	0.998600	0.184800
C231	C23	0.427300	0.033500	0.093100
C241	C24	0.483400	0.981100	0.048100
C251	C25	0.508400	0.893500	0.100500
C261	C26	0.477800	0.859900	0.191500
C271	C27	0.731600	0.489600	0.832800
C281	C28	0.666100	0.561050	0.770350
C291	C29	0.541100	0.505300	0.675100
C301	C30	0.484200	0.571300	0.610500
C311	C31	0.553300	0.694500	0.637100
C321	C32	0.676600	0.749900	0.733700
C331	C33	0.730700	0.684100	0.799900
C341	C34	0.493700	0.763600	0.559000
C351	C35	0.899100	0.184800	0.998600
C361	C36	0.927300	0.093100	0.033500
C371	C37	0.983400	0.048100	0.981100
C381	C38	0.008400	0.100500	0.893500
C391	C39	0.977800	0.191500	0.859900
C401	C40	0.768400	0.167200	0.510400
C411	C41	0.833900	0.229650	0.438950
C421	C42	0.958900	0.324900	0.494700
C431	C43	0.015800	0.389500	0.428700
C441	C44	0.946700	0.362900	0.305500
C451	C45	0.823400	0.266300	0.250100
C461	C46	0.769300	0.200100	0.315900
C471	C47	0.006300	0.441000	0.236400
C481	C48	0.600900	0.001400	0.815200
C491	C49	0.572700	0.966500	0.906900
C501	C50	0.516600	0.018900	0.951900
C511	C51	0.491600	0.106500	0.899500
C521	C52	0.522200	0.140100	0.808500
N11	N1	0.077300	0.769380	0.088020
N21	N2	0.422700	0.911980	0.230620
N31	N3	0.922700	0.230620	0.911980
N41	N4	0.577300	0.088020	0.769380
O11	O1	0.323000	0.620020	0.213220
O21	O2	0.162600	0.457600	0.072480
O31	O3	0.618700	0.295520	0.524060
O41	O4	0.436900	0.124590	0.417290
O51	O5	0.107000	0.682090	0.121890
O61	O6	0.177000	0.786780	0.379980
O71	O7	0.337400	0.927520	0.542400
O81	O8	0.881300	0.475940	0.704480
O91	O9	0.063100	0.582710	0.875410
O101	O10	0.393000	0.878110	0.317910
O111	O11	0.677000	0.379980	0.786780
O121	O12	0.837400	0.542400	0.927520
O131	O13	0.381300	0.704480	0.475940
O141	O14	0.563100	0.875410	0.582710
O151	O15	0.893000	0.317910	0.878110
O161	O16	0.823000	0.213220	0.620020
O171	O17	0.662600	0.072480	0.457600
O181	O18	0.118700	0.524060	0.295520
O191	O19	0.936900	0.417290	0.124590
O201	O20	0.607000	0.121890	0.682090
