data_LUSJEP_freeONLY_PM
_symmetry_space_group_name_H-M	'P1'
_cell_length_a	12.711200
_cell_length_b	12.711200
_cell_length_c	13.756800
_cell_angle_alpha	67.850300
_cell_angle_beta	65.187800
_cell_angle_gamma	97.920300
_symmetry_Int_Tables_number 1

loop_
_symmetry_equiv_pos_as_xyz
'x,y,z'

loop_
_atom_site_label
_atom_site_type_symbol
_atom_site_fract_x
_atom_site_fract_y
_atom_site_fract_z
Mn11	Mn1	0.500000	0.000000	0.500000
Mn21	Mn2	0.000000	0.000000	0.000000
Mn31	Mn3	0.687310	0.937310	0.250000
Mn41	Mn4	0.312690	0.062690	0.750000
H11	H1	0.237200	0.613300	0.723500
H21	H2	0.134300	0.406500	0.824200
H31	H3	0.347800	0.391500	0.524500
H41	H4	0.446200	0.598100	0.421900
H51	H5	0.250000	0.177000	0.524400
H61	H6	0.099900	0.176000	0.473700
H71	H7	0.028500	0.827200	0.579500
H81	H8	0.184500	0.834400	0.622300
H91	H9	0.836800	0.960700	0.776500
H101	H10	0.730700	0.958500	0.675800
H111	H11	0.416000	0.872300	0.975500
H121	H12	0.520000	0.868100	0.078100
H131	H13	0.201400	0.774400	0.975600
H141	H14	0.149700	0.573600	0.026300
H151	H15	0.906700	0.608000	0.920500
H161	H16	0.956700	0.806800	0.877700
H171	H17	0.762800	0.386700	0.276500
H181	H18	0.865700	0.593500	0.175800
H191	H19	0.652200	0.608500	0.475500
H201	H20	0.553800	0.401900	0.578100
H211	H21	0.750000	0.823000	0.475600
H221	H22	0.900100	0.824000	0.526300
H231	H23	0.971500	0.172800	0.420500
H241	H24	0.815500	0.165600	0.377700
H251	H25	0.163200	0.039300	0.223500
H261	H26	0.269300	0.041500	0.324200
H271	H27	0.584000	0.127700	0.024500
H281	H28	0.480000	0.131900	0.921900
H291	H29	0.798600	0.225600	0.024400
H301	H30	0.850300	0.426400	0.973700
H311	H31	0.093300	0.392000	0.079500
H321	H32	0.043300	0.193200	0.122300
C11	C1	0.429000	0.760200	0.496800
C21	C2	0.355000	0.626900	0.562500
C31	C3	0.260400	0.568900	0.682700
C41	C4	0.199200	0.444400	0.743400
C51	C5	0.232200	0.376500	0.686900
C61	C6	0.325100	0.435800	0.565500
C71	C7	0.384700	0.559700	0.504200
C81	C8	0.174600	0.239600	0.755800
C91	C9	0.204700	0.105100	0.535600
C101	C10	0.115000	0.104700	0.504500
C111	C11	0.047600	0.001100	0.517900
C121	C12	0.073900	0.900500	0.565600
C131	C13	0.165800	0.904000	0.594000
C141	C14	0.757000	0.925800	0.003200
C151	C15	0.689400	0.917500	0.937500
C161	C16	0.751600	0.943100	0.817300
C171	C17	0.687800	0.942600	0.756600
C181	C18	0.563400	0.919100	0.813100
C191	C19	0.501300	0.890600	0.934500
C201	C20	0.563900	0.888900	0.995800
C211	C21	0.495400	0.930400	0.744200
C221	C22	0.140700	0.740300	0.964400
C231	C23	0.109200	0.619500	0.995500
C241	C24	0.019000	0.565500	0.982100
C251	C25	0.966100	0.639500	0.934400
C261	C26	0.998000	0.759800	0.906000
C271	C27	0.571000	0.239800	0.503200
C281	C28	0.645000	0.373100	0.437500
C291	C29	0.739600	0.431100	0.317300
C301	C30	0.800800	0.555600	0.256600
C311	C31	0.767800	0.623500	0.313100
C321	C32	0.674900	0.564200	0.434500
C331	C33	0.615300	0.440300	0.495800
C341	C34	0.825400	0.760400	0.244200
C351	C35	0.795300	0.894900	0.464400
C361	C36	0.885000	0.895300	0.495500
C371	C37	0.952400	0.998900	0.482100
C381	C38	0.926100	0.099500	0.434400
C391	C39	0.834200	0.096000	0.406000
C401	C40	0.243000	0.074200	0.996800
C411	C41	0.310600	0.082500	0.062500
C421	C42	0.248400	0.056900	0.182700
C431	C43	0.312200	0.057400	0.243400
C441	C44	0.436600	0.080900	0.186900
C451	C45	0.498700	0.109400	0.065500
C461	C46	0.436100	0.111100	0.004200
C471	C47	0.504600	0.069600	0.255800
C481	C48	0.859300	0.259700	0.035600
C491	C49	0.890800	0.380500	0.004500
C501	C50	0.981000	0.434500	0.017900
C511	C51	0.033900	0.360500	0.065600
C521	C52	0.002000	0.240200	0.094000
N11	N1	0.227300	0.005400	0.581100
N21	N2	0.086500	0.808400	0.918900
N31	N3	0.772700	0.994600	0.418900
N41	N4	0.913500	0.191600	0.081100
O11	O1	0.407100	0.814600	0.559500
O21	O2	0.508000	0.807300	0.385300
O31	O3	0.084300	0.190800	0.862700
O41	O4	0.223320	0.184220	0.700900
O51	O5	0.312400	0.005800	0.613800
O61	O6	0.874100	0.966600	0.940500
O71	O7	0.692600	0.893300	0.114700
O81	O8	0.553500	0.947000	0.637300
O91	O9	0.385120	0.924220	0.799100
O101	O10	0.119600	0.926200	0.886200
O111	O11	0.592900	0.185400	0.440500
O121	O12	0.492000	0.192700	0.614700
O131	O13	0.915700	0.809200	0.137300
O141	O14	0.776680	0.815780	0.299100
O151	O15	0.687600	0.994200	0.386200
O161	O16	0.125900	0.033400	0.059500
O171	O17	0.307400	0.106700	0.885300
O181	O18	0.446500	0.053000	0.362700
O191	O19	0.614880	0.075780	0.200900
O201	O20	0.880400	0.073800	0.113800
