data_LUSZOP01_freeONLY_PM
_symmetry_space_group_name_H-M	'P1'
_cell_length_a	7.335400
_cell_length_b	10.179000
_cell_length_c	18.140000
_cell_angle_alpha	90.000000
_cell_angle_beta	90.000000
_cell_angle_gamma	94.337000
_symmetry_Int_Tables_number 1

loop_
_symmetry_equiv_pos_as_xyz
'x,y,z'

loop_
_atom_site_label
_atom_site_type_symbol
_atom_site_fract_x
_atom_site_fract_y
_atom_site_fract_z
Cu11	Cu1	0.865430	0.216960	0.905510
Cu21	Cu2	0.043210	0.931550	0.931500
Cu31	Cu3	0.634570	0.283040	0.405510
Cu41	Cu4	0.456790	0.568450	0.431500
Cu51	Cu5	0.134570	0.783040	0.094490
Cu61	Cu6	0.956790	0.068450	0.068500
Cu71	Cu7	0.365430	0.716960	0.594490
Cu81	Cu8	0.543210	0.431550	0.568500
H11	H1	0.782400	0.165900	0.692300
H21	H2	0.937300	0.796200	0.706800
H31	H3	0.780600	0.938600	0.511100
H41	H4	0.717600	0.334100	0.192300
H51	H5	0.562700	0.703800	0.206800
H61	H6	0.719400	0.561400	0.011100
H71	H7	0.217600	0.834100	0.307700
H81	H8	0.062700	0.203800	0.293200
H91	H9	0.219400	0.061400	0.488900
H101	H10	0.282400	0.665900	0.807700
H111	H11	0.437300	0.296200	0.793200
H121	H12	0.280600	0.438600	0.988900
C11	C1	0.861500	0.849600	0.604100
C21	C2	0.771000	0.069100	0.595000
C31	C3	0.803600	0.086100	0.670000
C41	C4	0.867900	0.984800	0.712400
C51	C5	0.902000	0.009100	0.792900
C61	C6	0.896000	0.865100	0.679200
C71	C7	0.800900	0.950400	0.561300
C81	C8	0.698700	0.182100	0.553400
C91	C9	0.638500	0.650400	0.104100
C101	C10	0.729000	0.430900	0.095000
C111	C11	0.696400	0.413900	0.170000
C121	C12	0.632100	0.515200	0.212400
C131	C13	0.598000	0.490900	0.292900
C141	C14	0.604000	0.634900	0.179200
C151	C15	0.699100	0.549600	0.061300
C161	C16	0.801300	0.317900	0.053400
C171	C17	0.138500	0.150400	0.395900
C181	C18	0.229000	0.930900	0.405000
C191	C19	0.196400	0.913900	0.330000
C201	C20	0.132100	0.015200	0.287600
C211	C21	0.098000	0.990900	0.207100
C221	C22	0.104000	0.134900	0.320800
C231	C23	0.199100	0.049600	0.438700
C241	C24	0.301300	0.817900	0.446600
C251	C25	0.361500	0.349600	0.895900
C261	C26	0.271000	0.569100	0.905000
C271	C27	0.303600	0.586100	0.830000
C281	C28	0.367900	0.484800	0.787600
C291	C29	0.402000	0.509100	0.707100
C301	C30	0.396000	0.365100	0.820800
C311	C31	0.300900	0.450400	0.938700
C321	C32	0.198700	0.682100	0.946600
S11	S1	0.879400	0.690950	0.565370
S21	S2	0.620600	0.809050	0.065370
S31	S3	0.120600	0.309050	0.434630
S41	S4	0.379400	0.190950	0.934630
O11	O1	0.947400	0.914400	0.831960
O21	O2	0.870600	0.057400	0.965210
O31	O3	0.658800	0.163300	0.486470
O41	O4	0.881200	0.125200	0.813930
O51	O5	0.870300	0.701900	0.487200
O61	O6	0.685600	0.285900	0.589600
O71	O7	0.726300	0.612100	0.597300
O81	O8	0.049200	0.645100	0.592700
O91	O9	0.881900	0.377400	0.844400
O101	O10	0.552600	0.585600	0.331960
O111	O11	0.629400	0.442600	0.465210
O121	O12	0.841200	0.336700	0.986470
O131	O13	0.618800	0.374800	0.313930
O141	O14	0.629700	0.798100	0.987200
O151	O15	0.814400	0.214100	0.089600
O161	O16	0.773700	0.887900	0.097300
O171	O17	0.450800	0.854900	0.092700
O181	O18	0.618100	0.122600	0.344400
O191	O19	0.052600	0.085600	0.168040
O201	O20	0.129400	0.942600	0.034790
O211	O21	0.341200	0.836700	0.513530
O221	O22	0.118800	0.874800	0.186070
O231	O23	0.129700	0.298100	0.512800
O241	O24	0.314400	0.714100	0.410400
O251	O25	0.273700	0.387900	0.402700
O261	O26	0.950800	0.354900	0.407300
O271	O27	0.118100	0.622600	0.155600
O281	O28	0.447400	0.414400	0.668040
O291	O29	0.370600	0.557400	0.534790
O301	O30	0.158800	0.663300	0.013530
O311	O31	0.381200	0.625200	0.686070
O321	O32	0.370300	0.201900	0.012800
O331	O33	0.185600	0.785900	0.910400
O341	O34	0.226300	0.112100	0.902700
O351	O35	0.549200	0.145100	0.907300
O361	O36	0.381900	0.877400	0.655600
