data_LUSZUV_freeONLY_PM
_symmetry_space_group_name_H-M	'P1'
_cell_length_a	7.335400
_cell_length_b	10.179000
_cell_length_c	18.140000
_cell_angle_alpha	90.000000
_cell_angle_beta	90.000000
_cell_angle_gamma	94.337000
_symmetry_Int_Tables_number 1

loop_
_symmetry_equiv_pos_as_xyz
'x,y,z'

loop_
_atom_site_label
_atom_site_type_symbol
_atom_site_fract_x
_atom_site_fract_y
_atom_site_fract_z
Cu11	Cu1	0.865410	0.216960	0.905510
Cu21	Cu2	0.043180	0.931540	0.931500
Cu31	Cu3	0.634590	0.283040	0.405510
Cu41	Cu4	0.456820	0.568460	0.431500
Cu51	Cu5	0.134590	0.783040	0.094490
Cu61	Cu6	0.956820	0.068460	0.068500
Cu71	Cu7	0.365410	0.716960	0.594490
Cu81	Cu8	0.543180	0.431540	0.568500
H11	H1	0.781700	0.165700	0.692300
H21	H2	0.936600	0.796000	0.706700
H31	H3	0.780700	0.938400	0.511100
H41	H4	0.718300	0.334300	0.192300
H51	H5	0.563400	0.704000	0.206700
H61	H6	0.719300	0.561600	0.011100
H71	H7	0.218300	0.834300	0.307700
H81	H8	0.063400	0.204000	0.293300
H91	H9	0.219300	0.061600	0.488900
H101	H10	0.281700	0.665700	0.807700
H111	H11	0.436600	0.296000	0.793300
H121	H12	0.280700	0.438400	0.988900
C11	C1	0.861400	0.849600	0.604100
C21	C2	0.770900	0.069300	0.595000
C31	C3	0.803400	0.086100	0.670100
C41	C4	0.868000	0.984900	0.712400
C51	C5	0.902100	0.009100	0.792800
C61	C6	0.895700	0.865000	0.679200
C71	C7	0.800900	0.950300	0.561400
C81	C8	0.699000	0.182100	0.553500
C91	C9	0.638600	0.650400	0.104100
C101	C10	0.729100	0.430700	0.095000
C111	C11	0.696600	0.413900	0.170100
C121	C12	0.632000	0.515100	0.212400
C131	C13	0.597900	0.490900	0.292800
C141	C14	0.604300	0.635000	0.179200
C151	C15	0.699100	0.549700	0.061400
C161	C16	0.801000	0.317900	0.053500
C171	C17	0.138600	0.150400	0.395900
C181	C18	0.229100	0.930700	0.405000
C191	C19	0.196600	0.913900	0.329900
C201	C20	0.132000	0.015100	0.287600
C211	C21	0.097900	0.990900	0.207200
C221	C22	0.104300	0.135000	0.320800
C231	C23	0.199100	0.049700	0.438600
C241	C24	0.301000	0.817900	0.446500
C251	C25	0.361400	0.349600	0.895900
C261	C26	0.270900	0.569300	0.905000
C271	C27	0.303400	0.586100	0.829900
C281	C28	0.368000	0.484900	0.787600
C291	C29	0.402100	0.509100	0.707200
C301	C30	0.395700	0.365000	0.820800
C311	C31	0.300900	0.450300	0.938600
C321	C32	0.199000	0.682100	0.946500
S11	S1	0.879400	0.690960	0.565380
S21	S2	0.620600	0.809040	0.065380
S31	S3	0.120600	0.309040	0.434620
S41	S4	0.379400	0.190960	0.934620
O11	O1	0.947600	0.914400	0.831970
O21	O2	0.870600	0.057300	0.965200
O31	O3	0.659000	0.163400	0.486480
O41	O4	0.881200	0.125300	0.813920
O51	O5	0.870300	0.702000	0.487200
O61	O6	0.685500	0.285900	0.589740
O71	O7	0.726100	0.612300	0.597200
O81	O8	0.049100	0.645000	0.592600
O91	O9	0.882100	0.377400	0.844400
O101	O10	0.552400	0.585600	0.331970
O111	O11	0.629400	0.442700	0.465200
O121	O12	0.841000	0.336600	0.986480
O131	O13	0.618800	0.374700	0.313920
O141	O14	0.629700	0.798000	0.987200
O151	O15	0.814500	0.214100	0.089740
O161	O16	0.773900	0.887700	0.097200
O171	O17	0.450900	0.855000	0.092600
O181	O18	0.617900	0.122600	0.344400
O191	O19	0.052400	0.085600	0.168030
O201	O20	0.129400	0.942700	0.034800
O211	O21	0.341000	0.836600	0.513520
O221	O22	0.118800	0.874700	0.186080
O231	O23	0.129700	0.298000	0.512800
O241	O24	0.314500	0.714100	0.410260
O251	O25	0.273900	0.387700	0.402800
O261	O26	0.950900	0.355000	0.407400
O271	O27	0.117900	0.622600	0.155600
O281	O28	0.447600	0.414400	0.668030
O291	O29	0.370600	0.557300	0.534800
O301	O30	0.159000	0.663400	0.013520
O311	O31	0.381200	0.625300	0.686080
O321	O32	0.370300	0.202000	0.012800
O331	O33	0.185500	0.785900	0.910260
O341	O34	0.226100	0.112300	0.902800
O351	O35	0.549100	0.145000	0.907400
O361	O36	0.382100	0.877400	0.655600
