data_LUTCEJ_freeONLY_PM
_symmetry_space_group_name_H-M	'P1'
_cell_length_a	7.283000
_cell_length_b	10.262000
_cell_length_c	18.119000
_cell_angle_alpha	90.000000
_cell_angle_beta	90.000000
_cell_angle_gamma	94.119000
_symmetry_Int_Tables_number 1

loop_
_symmetry_equiv_pos_as_xyz
'x,y,z'

loop_
_atom_site_label
_atom_site_type_symbol
_atom_site_fract_x
_atom_site_fract_y
_atom_site_fract_z
Cu11	Cu1	0.862480	0.214240	0.905740
Cu21	Cu2	0.036350	0.929230	0.931560
Cu31	Cu3	0.637520	0.285760	0.405740
Cu41	Cu4	0.463650	0.570770	0.431560
Cu51	Cu5	0.137520	0.785760	0.094260
Cu61	Cu6	0.963650	0.070770	0.068440
Cu71	Cu7	0.362480	0.714240	0.594260
Cu81	Cu8	0.536350	0.429230	0.568440
H11	H1	0.775400	0.164000	0.691700
H21	H2	0.932800	0.799700	0.706400
H31	H3	0.771000	0.938000	0.511900
H41	H4	0.724600	0.336000	0.191700
H51	H5	0.567200	0.700300	0.206400
H61	H6	0.729000	0.562000	0.011900
H71	H7	0.224600	0.836000	0.308300
H81	H8	0.067200	0.200300	0.293600
H91	H9	0.229000	0.062000	0.488100
H101	H10	0.275400	0.664000	0.808300
H111	H11	0.432800	0.299700	0.793600
H121	H12	0.271000	0.438000	0.988100
C11	C1	0.854400	0.849600	0.604000
C21	C2	0.764700	0.068900	0.594900
C31	C3	0.796900	0.084700	0.669600
C41	C4	0.860800	0.985100	0.712500
C51	C5	0.895800	0.008200	0.792000
C61	C6	0.889500	0.867500	0.678700
C71	C7	0.793100	0.950100	0.562100
C81	C8	0.690500	0.180000	0.553100
C91	C9	0.645600	0.650400	0.104000
C101	C10	0.735300	0.431100	0.094900
C111	C11	0.703100	0.415300	0.169600
C121	C12	0.639200	0.514900	0.212500
C131	C13	0.604200	0.491800	0.292000
C141	C14	0.610500	0.632500	0.178700
C151	C15	0.706900	0.549900	0.062100
C161	C16	0.809500	0.320000	0.053100
C171	C17	0.145600	0.150400	0.396000
C181	C18	0.235300	0.931100	0.405100
C191	C19	0.203100	0.915300	0.330400
C201	C20	0.139200	0.014900	0.287500
C211	C21	0.104200	0.991800	0.208000
C221	C22	0.110500	0.132500	0.321300
C231	C23	0.206900	0.049900	0.437900
C241	C24	0.309500	0.820000	0.446900
C251	C25	0.354400	0.349600	0.896000
C261	C26	0.264700	0.568900	0.905100
C271	C27	0.296900	0.584700	0.830400
C281	C28	0.360800	0.485100	0.787500
C291	C29	0.395800	0.508200	0.708000
C301	C30	0.389500	0.367500	0.821300
C311	C31	0.293100	0.450100	0.937900
C321	C32	0.190500	0.680000	0.946900
S11	S1	0.871400	0.692430	0.564870
S21	S2	0.628600	0.807570	0.064870
S31	S3	0.128600	0.307570	0.435130
S41	S4	0.371400	0.192430	0.935130
O11	O1	0.941800	0.915900	0.832200
O21	O2	0.868200	0.057700	0.966000
O31	O3	0.654000	0.163200	0.486300
O41	O4	0.872400	0.123500	0.813800
O51	O5	0.849500	0.702800	0.487000
O61	O6	0.671600	0.282200	0.589600
O71	O7	0.723500	0.613800	0.599100
O81	O8	0.043800	0.649800	0.589200
O91	O9	0.876600	0.374400	0.844100
O101	O10	0.558200	0.584100	0.332200
O111	O11	0.631800	0.442300	0.466000
O121	O12	0.846000	0.336800	0.986300
O131	O13	0.627600	0.376500	0.313800
O141	O14	0.650500	0.797200	0.987000
O151	O15	0.828400	0.217800	0.089600
O161	O16	0.776500	0.886200	0.099100
O171	O17	0.456200	0.850200	0.089200
O181	O18	0.623400	0.125600	0.344100
O191	O19	0.058200	0.084100	0.167800
O201	O20	0.131800	0.942300	0.034000
O211	O21	0.346000	0.836800	0.513700
O221	O22	0.127600	0.876500	0.186200
O231	O23	0.150500	0.297200	0.513000
O241	O24	0.328400	0.717800	0.410400
O251	O25	0.276500	0.386200	0.400900
O261	O26	0.956200	0.350200	0.410800
O271	O27	0.123400	0.625600	0.155900
O281	O28	0.441800	0.415900	0.667800
O291	O29	0.368200	0.557700	0.534000
O301	O30	0.154000	0.663200	0.013700
O311	O31	0.372400	0.623500	0.686200
O321	O32	0.349500	0.202800	0.013000
O331	O33	0.171600	0.782200	0.910400
O341	O34	0.223500	0.113800	0.900900
O351	O35	0.543800	0.149800	0.910800
O361	O36	0.376600	0.874400	0.655900
