data_LUTCIN_freeONLY_PM
_symmetry_space_group_name_H-M	'P1'
_cell_length_a	7.252000
_cell_length_b	10.230000
_cell_length_c	18.068000
_cell_angle_alpha	90.000000
_cell_angle_beta	90.000000
_cell_angle_gamma	94.216000
_symmetry_Int_Tables_number 1

loop_
_symmetry_equiv_pos_as_xyz
'x,y,z'

loop_
_atom_site_label
_atom_site_type_symbol
_atom_site_fract_x
_atom_site_fract_y
_atom_site_fract_z
Cu11	Cu1	0.862220	0.214010	0.905870
Cu21	Cu2	0.036280	0.929580	0.931490
Cu31	Cu3	0.637780	0.285990	0.405870
Cu41	Cu4	0.463720	0.570420	0.431490
Cu51	Cu5	0.137780	0.785990	0.094130
Cu61	Cu6	0.963720	0.070420	0.068510
Cu71	Cu7	0.362220	0.714010	0.594130
Cu81	Cu8	0.536280	0.429580	0.568510
H11	H1	0.778700	0.165000	0.691500
H21	H2	0.932900	0.799700	0.707300
H31	H3	0.770500	0.938300	0.511800
H41	H4	0.721300	0.335000	0.191500
H51	H5	0.567100	0.700300	0.207300
H61	H6	0.729500	0.561700	0.011800
H71	H7	0.221300	0.835000	0.308500
H81	H8	0.067100	0.200300	0.292700
H91	H9	0.229500	0.061700	0.488200
H101	H10	0.278700	0.665000	0.808500
H111	H11	0.432900	0.299700	0.792700
H121	H12	0.270500	0.438300	0.988200
C11	C1	0.852500	0.849200	0.603900
C21	C2	0.764000	0.070700	0.594800
C31	C3	0.797900	0.085200	0.669300
C41	C4	0.859400	0.986100	0.712200
C51	C5	0.895300	0.008000	0.792500
C61	C6	0.889000	0.867200	0.679400
C71	C7	0.792400	0.950400	0.562200
C81	C8	0.690000	0.182400	0.553100
C91	C9	0.647500	0.650800	0.103900
C101	C10	0.736000	0.429300	0.094800
C111	C11	0.702100	0.414800	0.169300
C121	C12	0.640600	0.513900	0.212200
C131	C13	0.604700	0.492000	0.292500
C141	C14	0.611000	0.632800	0.179400
C151	C15	0.707600	0.549600	0.062200
C161	C16	0.810000	0.317600	0.053100
C171	C17	0.147500	0.150800	0.396100
C181	C18	0.236000	0.929300	0.405200
C191	C19	0.202100	0.914800	0.330700
C201	C20	0.140600	0.013900	0.287800
C211	C21	0.104700	0.992000	0.207500
C221	C22	0.111000	0.132800	0.320600
C231	C23	0.207600	0.049600	0.437800
C241	C24	0.310000	0.817600	0.446900
C251	C25	0.352500	0.349200	0.896100
C261	C26	0.264000	0.570700	0.905200
C271	C27	0.297900	0.585200	0.830700
C281	C28	0.359400	0.486100	0.787800
C291	C29	0.395300	0.508000	0.707500
C301	C30	0.389000	0.367200	0.820600
C311	C31	0.292400	0.450400	0.937800
C321	C32	0.190000	0.682400	0.946900
S11	S1	0.870700	0.693200	0.564760
S21	S2	0.629300	0.806800	0.064760
S31	S3	0.129300	0.306800	0.435240
S41	S4	0.370700	0.193200	0.935240
O11	O1	0.940700	0.915600	0.832900
O21	O2	0.868500	0.057600	0.966400
O31	O3	0.656200	0.163200	0.486400
O41	O4	0.873900	0.123400	0.814000
O51	O5	0.850100	0.702600	0.487500
O61	O6	0.671300	0.284100	0.589900
O71	O7	0.722300	0.611900	0.599800
O81	O8	0.043100	0.649300	0.590000
O91	O9	0.875500	0.373800	0.845200
O101	O10	0.559300	0.584400	0.332900
O111	O11	0.631500	0.442400	0.466400
O121	O12	0.843800	0.336800	0.986400
O131	O13	0.626100	0.376600	0.314000
O141	O14	0.649900	0.797400	0.987500
O151	O15	0.828700	0.215900	0.089900
O161	O16	0.777700	0.888100	0.099800
O171	O17	0.456900	0.850700	0.090000
O181	O18	0.624500	0.126200	0.345200
O191	O19	0.059300	0.084400	0.167100
O201	O20	0.131500	0.942400	0.033600
O211	O21	0.343800	0.836800	0.513600
O221	O22	0.126100	0.876600	0.186000
O231	O23	0.149900	0.297400	0.512500
O241	O24	0.328700	0.715900	0.410100
O251	O25	0.277700	0.388100	0.400200
O261	O26	0.956900	0.350700	0.410000
O271	O27	0.124500	0.626200	0.154800
O281	O28	0.440700	0.415600	0.667100
O291	O29	0.368500	0.557600	0.533600
O301	O30	0.156200	0.663200	0.013600
O311	O31	0.373900	0.623400	0.686000
O321	O32	0.350100	0.202600	0.012500
O331	O33	0.171300	0.784100	0.910100
O341	O34	0.222300	0.111900	0.900200
O351	O35	0.543100	0.149300	0.910000
O361	O36	0.375500	0.873800	0.654800
