data_LUTCAF_freeONLY_PM
_symmetry_space_group_name_H-M	'P1'
_cell_length_a	7.271000
_cell_length_b	10.212000
_cell_length_c	18.061000
_cell_angle_alpha	90.000000
_cell_angle_beta	90.000000
_cell_angle_gamma	94.234000
_symmetry_Int_Tables_number 1

loop_
_symmetry_equiv_pos_as_xyz
'x,y,z'

loop_
_atom_site_label
_atom_site_type_symbol
_atom_site_fract_x
_atom_site_fract_y
_atom_site_fract_z
Cu11	Cu1	0.863150	0.214540	0.905550
Cu21	Cu2	0.036550	0.929170	0.931600
Cu31	Cu3	0.636850	0.285460	0.405550
Cu41	Cu4	0.463450	0.570830	0.431600
Cu51	Cu5	0.136850	0.785460	0.094450
Cu61	Cu6	0.963450	0.070830	0.068400
Cu71	Cu7	0.363150	0.714540	0.594450
Cu81	Cu8	0.536550	0.429170	0.568400
H11	H1	0.777600	0.164800	0.691600
H21	H2	0.933500	0.798400	0.706500
H31	H3	0.772900	0.937500	0.511300
H41	H4	0.722400	0.335200	0.191600
H51	H5	0.566500	0.701600	0.206500
H61	H6	0.727100	0.562500	0.011300
H71	H7	0.222400	0.835200	0.308400
H81	H8	0.066500	0.201600	0.293500
H91	H9	0.227100	0.062500	0.488700
H101	H10	0.277600	0.664800	0.808400
H111	H11	0.433500	0.298400	0.793500
H121	H12	0.272900	0.437500	0.988700
C11	C1	0.854700	0.849500	0.604100
C21	C2	0.765400	0.069300	0.594900
C31	C3	0.798300	0.084900	0.669500
C41	C4	0.861200	0.985700	0.712600
C51	C5	0.896500	0.008300	0.792200
C61	C6	0.890300	0.866500	0.678900
C71	C7	0.794300	0.949600	0.561700
C81	C8	0.691500	0.179100	0.553200
C91	C9	0.645300	0.650500	0.104100
C101	C10	0.734600	0.430700	0.094900
C111	C11	0.701700	0.415100	0.169500
C121	C12	0.638800	0.514300	0.212600
C131	C13	0.603500	0.491700	0.292200
C141	C14	0.609700	0.633500	0.178900
C151	C15	0.705700	0.550400	0.061700
C161	C16	0.808500	0.320900	0.053200
C171	C17	0.145300	0.150500	0.395900
C181	C18	0.234600	0.930700	0.405100
C191	C19	0.201700	0.915100	0.330500
C201	C20	0.138800	0.014300	0.287400
C211	C21	0.103500	0.991700	0.207800
C221	C22	0.109700	0.133500	0.321100
C231	C23	0.205700	0.050400	0.438300
C241	C24	0.308500	0.820900	0.446800
C251	C25	0.354700	0.349500	0.895900
C261	C26	0.265400	0.569300	0.905100
C271	C27	0.298300	0.584900	0.830500
C281	C28	0.361200	0.485700	0.787400
C291	C29	0.396500	0.508300	0.707800
C301	C30	0.390300	0.366500	0.821100
C311	C31	0.294300	0.449600	0.938300
C321	C32	0.191500	0.679100	0.946800
S11	S1	0.872200	0.691890	0.564840
S21	S2	0.627800	0.808110	0.064840
S31	S3	0.127800	0.308110	0.435160
S41	S4	0.372200	0.191890	0.935160
O11	O1	0.942900	0.915600	0.832000
O21	O2	0.868900	0.057300	0.965800
O31	O3	0.655000	0.162500	0.485800
O41	O4	0.873900	0.122900	0.813900
O51	O5	0.852700	0.702000	0.486800
O61	O6	0.672000	0.282200	0.589400
O71	O7	0.724400	0.613300	0.598500
O81	O8	0.045000	0.649100	0.589500
O91	O9	0.877600	0.374800	0.843700
O101	O10	0.557100	0.584400	0.332000
O111	O11	0.631100	0.442700	0.465800
O121	O12	0.845000	0.337500	0.985800
O131	O13	0.626100	0.377100	0.313900
O141	O14	0.647300	0.798000	0.986800
O151	O15	0.828000	0.217800	0.089400
O161	O16	0.775600	0.886700	0.098500
O171	O17	0.455000	0.850900	0.089500
O181	O18	0.622400	0.125200	0.343700
O191	O19	0.057100	0.084400	0.168000
O201	O20	0.131100	0.942700	0.034200
O211	O21	0.345000	0.837500	0.514200
O221	O22	0.126100	0.877100	0.186100
O231	O23	0.147300	0.298000	0.513200
O241	O24	0.328000	0.717800	0.410600
O251	O25	0.275600	0.386700	0.401500
O261	O26	0.955000	0.350900	0.410500
O271	O27	0.122400	0.625200	0.156300
O281	O28	0.442900	0.415600	0.668000
O291	O29	0.368900	0.557300	0.534200
O301	O30	0.155000	0.662500	0.014200
O311	O31	0.373900	0.622900	0.686100
O321	O32	0.352700	0.202000	0.013200
O331	O33	0.172000	0.782200	0.910600
O341	O34	0.224400	0.113300	0.901500
O351	O35	0.545000	0.149100	0.910500
O361	O36	0.377600	0.874800	0.656300
