data_LUYHAP_freeONLY_PM
_symmetry_space_group_name_H-M	'P1'
_cell_length_a	17.531100
_cell_length_b	17.531100
_cell_length_c	17.531100
_cell_angle_alpha	62.688400
_cell_angle_beta	62.688400
_cell_angle_gamma	62.688400
_symmetry_Int_Tables_number 1

loop_
_symmetry_equiv_pos_as_xyz
'x,y,z'

loop_
_atom_site_label
_atom_site_type_symbol
_atom_site_fract_x
_atom_site_fract_y
_atom_site_fract_z
Cu11	Cu1	0.922720	0.500640	0.500640
Cu21	Cu2	0.500640	0.922720	0.500640
Cu31	Cu3	0.500640	0.500640	0.922720
Cu41	Cu4	0.499360	0.077280	0.499360
Cu51	Cu5	0.077280	0.499360	0.499360
Cu61	Cu6	0.499360	0.499360	0.077280
H11	H1	0.000900	0.475000	0.779400
H21	H2	0.779400	0.000900	0.475000
H31	H3	0.475000	0.779400	0.000900
H41	H4	0.525000	0.999100	0.220600
H51	H5	0.999100	0.220600	0.525000
H61	H6	0.220600	0.525000	0.999100
H71	H7	0.999100	0.525000	0.220600
H81	H8	0.220600	0.999100	0.525000
H91	H9	0.525000	0.220600	0.999100
H101	H10	0.475000	0.000900	0.779400
H111	H11	0.000900	0.779400	0.475000
H121	H12	0.779400	0.475000	0.000900
H131	H13	0.740500	0.534950	0.534950
H141	H14	0.796800	0.479200	0.479200
H151	H15	0.534950	0.740500	0.534950
H161	H16	0.479200	0.796800	0.479200
H171	H17	0.534950	0.534950	0.740500
H181	H18	0.479200	0.479200	0.796800
H191	H19	0.465050	0.259500	0.465050
H201	H20	0.520800	0.203200	0.520800
H211	H21	0.259500	0.465050	0.465050
H221	H22	0.203200	0.520800	0.520800
H231	H23	0.465050	0.465050	0.259500
H241	H24	0.520800	0.520800	0.203200
H251	H25	0.775900	0.471300	0.775900
H261	H26	0.775900	0.775900	0.471300
H271	H27	0.471300	0.775900	0.775900
H281	H28	0.528700	0.224100	0.224100
H291	H29	0.224100	0.224100	0.528700
H301	H30	0.224100	0.528700	0.224100
C11	C1	0.939090	0.476990	0.666090
C21	C2	0.895060	0.472460	0.764060
C31	C3	0.940070	0.474470	0.809470
C41	C4	0.666090	0.939090	0.476990
C51	C5	0.764060	0.895060	0.472460
C61	C6	0.809470	0.940070	0.474470
C71	C7	0.476990	0.666090	0.939090
C81	C8	0.472460	0.764060	0.895060
C91	C9	0.474470	0.809470	0.940070
C101	C10	0.523010	0.060910	0.333910
C111	C11	0.527540	0.104940	0.235940
C121	C12	0.525530	0.059930	0.190530
C131	C13	0.060910	0.333910	0.523010
C141	C14	0.104940	0.235940	0.527540
C151	C15	0.059930	0.190530	0.525530
C161	C16	0.333910	0.523010	0.060910
C171	C17	0.235940	0.527540	0.104940
C181	C18	0.190530	0.525530	0.059930
C191	C19	0.060910	0.523010	0.333910
C201	C20	0.104940	0.527540	0.235940
C211	C21	0.059930	0.525530	0.190530
C221	C22	0.333910	0.060910	0.523010
C231	C23	0.235940	0.104940	0.527540
C241	C24	0.190530	0.059930	0.525530
C251	C25	0.523010	0.333910	0.060910
C261	C26	0.527540	0.235940	0.104940
C271	C27	0.525530	0.190530	0.059930
C281	C28	0.476990	0.939090	0.666090
C291	C29	0.472460	0.895060	0.764060
C301	C30	0.474470	0.940070	0.809470
C311	C31	0.939090	0.666090	0.476990
C321	C32	0.895060	0.764060	0.472460
C331	C33	0.940070	0.809470	0.474470
C341	C34	0.666090	0.476990	0.939090
C351	C35	0.764060	0.472460	0.895060
C361	C36	0.809470	0.474470	0.940070
C371	C37	0.807420	0.471920	0.807420
C381	C38	0.898900	0.475800	0.898900
C391	C39	0.943000	0.483300	0.943000
C401	C40	0.978900	0.496100	0.978900
C411	C41	0.807420	0.807420	0.471920
C421	C42	0.898900	0.898900	0.475800
C431	C43	0.943000	0.943000	0.483300
C441	C44	0.978900	0.978900	0.496100
C451	C45	0.471920	0.807420	0.807420
C461	C46	0.475800	0.898900	0.898900
C471	C47	0.483300	0.943000	0.943000
C481	C48	0.496100	0.978900	0.978900
C491	C49	0.528080	0.192580	0.192580
C501	C50	0.524200	0.101100	0.101100
C511	C51	0.516700	0.057000	0.057000
C521	C52	0.503900	0.021100	0.021100
C531	C53	0.192580	0.192580	0.528080
C541	C54	0.101100	0.101100	0.524200
C551	C55	0.057000	0.057000	0.516700
C561	C56	0.021100	0.021100	0.503900
C571	C57	0.192580	0.528080	0.192580
C581	C58	0.101100	0.524200	0.101100
C591	C59	0.057000	0.516700	0.057000
C601	C60	0.021100	0.503900	0.021100
O11	O1	0.018790	0.480540	0.629550
O21	O2	0.891880	0.478160	0.629150
O31	O3	0.629550	0.018790	0.480540
O41	O4	0.629150	0.891880	0.478160
O51	O5	0.480540	0.629550	0.018790
O61	O6	0.478160	0.629150	0.891880
O71	O7	0.519460	0.981210	0.370450
O81	O8	0.521840	0.108120	0.370850
O91	O9	0.981210	0.370450	0.519460
O101	O10	0.108120	0.370850	0.521840
O111	O11	0.370450	0.519460	0.981210
O121	O12	0.370850	0.521840	0.108120
O131	O13	0.981210	0.519460	0.370450
O141	O14	0.108120	0.521840	0.370850
O151	O15	0.370450	0.981210	0.519460
O161	O16	0.370850	0.108120	0.521840
O171	O17	0.519460	0.370450	0.981210
O181	O18	0.521840	0.370850	0.108120
O191	O19	0.480540	0.018790	0.629550
O201	O20	0.478160	0.891880	0.629150
O211	O21	0.018790	0.629550	0.480540
O221	O22	0.891880	0.629150	0.478160
O231	O23	0.629550	0.480540	0.018790
O241	O24	0.629150	0.478160	0.891880
O251	O25	0.794500	0.508250	0.508250
O261	O26	0.508250	0.794500	0.508250
O271	O27	0.508250	0.508250	0.794500
O281	O28	0.491750	0.205500	0.491750
O291	O29	0.205500	0.491750	0.491750
O301	O30	0.491750	0.491750	0.205500
