data_MABJUV01_freeONLY_PM
_symmetry_space_group_name_H-M	'P1'
_cell_length_a	8.521200
_cell_length_b	12.480300
_cell_length_c	12.480300
_cell_angle_alpha	116.201000
_cell_angle_beta	98.743000
_cell_angle_gamma	81.257000
_symmetry_Int_Tables_number 1

loop_
_symmetry_equiv_pos_as_xyz
'x,y,z'

loop_
_atom_site_label
_atom_site_type_symbol
_atom_site_fract_x
_atom_site_fract_y
_atom_site_fract_z
Cu11	Cu1	0.924700	0.596760	0.991600
Cu21	Cu2	0.575300	0.991600	0.596760
Cu31	Cu3	0.075300	0.403240	0.008400
Cu41	Cu4	0.424700	0.008400	0.403240
H11	H1	0.748500	0.265200	0.655200
H21	H2	0.804800	0.356300	0.613700
H31	H3	0.051100	0.239900	0.568300
H41	H4	0.005800	0.152000	0.619000
H51	H5	0.962000	0.060700	0.407700
H61	H6	0.848000	0.175600	0.408800
H71	H7	0.827200	0.857500	0.161100
H81	H8	0.650000	0.020500	0.171900
H91	H9	0.500500	0.833500	0.823700
H101	H10	0.680200	0.675400	0.823000
H111	H11	0.751500	0.655200	0.265200
H121	H12	0.695200	0.613700	0.356300
H131	H13	0.448900	0.568300	0.239900
H141	H14	0.494200	0.619000	0.152000
H151	H15	0.538000	0.407700	0.060700
H161	H16	0.652000	0.408800	0.175600
H171	H17	0.672800	0.161100	0.857500
H181	H18	0.850000	0.171900	0.020500
H191	H19	0.999500	0.823700	0.833500
H201	H20	0.819800	0.823000	0.675400
H211	H21	0.251500	0.734800	0.344800
H221	H22	0.195200	0.643700	0.386300
H231	H23	0.948900	0.760100	0.431700
H241	H24	0.994200	0.848000	0.381000
H251	H25	0.038000	0.939300	0.592300
H261	H26	0.152000	0.824400	0.591200
H271	H27	0.172800	0.142500	0.838900
H281	H28	0.350000	0.979500	0.828100
H291	H29	0.499500	0.166500	0.176300
H301	H30	0.319800	0.324600	0.177000
H311	H31	0.248500	0.344800	0.734800
H321	H32	0.304800	0.386300	0.643700
H331	H33	0.551100	0.431700	0.760100
H341	H34	0.505800	0.381000	0.848000
H351	H35	0.462000	0.592300	0.939300
H361	H36	0.348000	0.591200	0.824400
H371	H37	0.327200	0.838900	0.142500
H381	H38	0.150000	0.828100	0.979500
H391	H39	0.000500	0.176300	0.166500
H401	H40	0.180200	0.177000	0.324600
C11	C1	0.906300	0.377310	0.781290
C21	C2	0.842200	0.302420	0.653380
C31	C3	0.961600	0.203310	0.577490
C41	C4	0.882700	0.125690	0.453110
C51	C5	0.740300	0.071040	0.460720
C61	C6	0.760200	0.852550	0.091250
C71	C7	0.654700	0.950570	0.098030
C81	C8	0.556000	0.947760	0.998240
C91	C9	0.567000	0.841400	0.894600
C101	C10	0.674800	0.747300	0.895100
C111	C11	0.593700	0.781290	0.377310
C121	C12	0.657800	0.653380	0.302420
C131	C13	0.538400	0.577490	0.203310
C141	C14	0.617300	0.453110	0.125690
C151	C15	0.759700	0.460720	0.071040
C161	C16	0.739800	0.091250	0.852550
C171	C17	0.845300	0.098030	0.950570
C181	C18	0.944000	0.998240	0.947760
C191	C19	0.933000	0.894600	0.841400
C201	C20	0.825200	0.895100	0.747300
C211	C21	0.093700	0.622690	0.218710
C221	C22	0.157800	0.697580	0.346620
C231	C23	0.038400	0.796690	0.422510
C241	C24	0.117300	0.874310	0.546890
C251	C25	0.259700	0.928960	0.539280
C261	C26	0.239800	0.147450	0.908750
C271	C27	0.345300	0.049430	0.901970
C281	C28	0.444000	0.052240	0.001760
C291	C29	0.433000	0.158600	0.105400
C301	C30	0.325200	0.252700	0.104900
C311	C31	0.406300	0.218710	0.622690
C321	C32	0.342200	0.346620	0.697580
C331	C33	0.461600	0.422510	0.796690
C341	C34	0.382700	0.546890	0.874310
C351	C35	0.240300	0.539280	0.928960
C361	C36	0.260200	0.908750	0.147450
C371	C37	0.154700	0.901970	0.049430
C381	C38	0.056000	0.001760	0.052240
C391	C39	0.067000	0.105400	0.158600
C401	C40	0.174800	0.104900	0.252700
N11	N1	0.772000	0.751380	0.991020
N21	N2	0.728000	0.991020	0.751380
N31	N3	0.228000	0.248620	0.008980
N41	N4	0.272000	0.008980	0.248620
O11	O1	0.867300	0.488850	0.822670
O21	O2	0.989500	0.324320	0.838580
O31	O3	0.749600	0.038260	0.543540
O41	O4	0.621000	0.062680	0.384800
O51	O5	0.632700	0.822670	0.488850
O61	O6	0.510500	0.838580	0.324320
O71	O7	0.750400	0.543540	0.038260
O81	O8	0.879000	0.384800	0.062680
O91	O9	0.132700	0.511150	0.177330
O101	O10	0.010500	0.675680	0.161420
O111	O11	0.250400	0.961740	0.456460
O121	O12	0.379000	0.937320	0.615200
O131	O13	0.367300	0.177330	0.511150
O141	O14	0.489500	0.161420	0.675680
O151	O15	0.249600	0.456460	0.961740
O161	O16	0.121000	0.615200	0.937320
