data_MADVUJ_freeONLY_PM
_symmetry_space_group_name_H-M	'P1'
_cell_length_a	7.201000
_cell_length_b	12.400000
_cell_length_c	20.784000
_cell_angle_alpha	90.000000
_cell_angle_beta	90.000000
_cell_angle_gamma	90.000000
_symmetry_Int_Tables_number 1

loop_
_symmetry_equiv_pos_as_xyz
'x,y,z'

loop_
_atom_site_label
_atom_site_type_symbol
_atom_site_fract_x
_atom_site_fract_y
_atom_site_fract_z
Cu11	Cu1	0.236480	0.837810	0.750000
Cu21	Cu2	0.263520	0.337810	0.250000
Cu31	Cu3	0.763520	0.162190	0.250000
Cu41	Cu4	0.736480	0.662190	0.750000
H11	H1	0.355700	0.175700	0.899900
H21	H2	0.504900	0.248600	0.989700
H31	H3	0.289700	0.010800	0.100300
H41	H4	0.153600	0.934400	0.009900
H51	H5	0.101000	0.927400	0.899800
H61	H6	0.112300	0.033500	0.860500
H71	H7	0.371100	0.780100	0.905400
H81	H8	0.550000	0.780800	0.863800
H91	H9	0.144300	0.675700	0.100100
H101	H10	0.995100	0.748600	0.010300
H111	H11	0.210300	0.510800	0.899700
H121	H12	0.346400	0.434400	0.990100
H131	H13	0.399000	0.427400	0.100200
H141	H14	0.387700	0.533500	0.139500
H151	H15	0.128900	0.280100	0.094600
H161	H16	0.950000	0.280800	0.136200
H171	H17	0.644300	0.824300	0.399900
H181	H18	0.495100	0.751400	0.489700
H191	H19	0.710300	0.989200	0.600300
H201	H20	0.846400	0.065600	0.509900
H211	H21	0.899000	0.072600	0.399800
H221	H22	0.887700	0.966500	0.360500
H231	H23	0.628900	0.219900	0.405400
H241	H24	0.450000	0.219200	0.363800
H251	H25	0.855700	0.324300	0.600100
H261	H26	0.004900	0.251400	0.510300
H271	H27	0.789700	0.489200	0.399700
H281	H28	0.653600	0.565600	0.490100
H291	H29	0.601000	0.572600	0.600200
H301	H30	0.612300	0.466500	0.639500
H311	H31	0.871100	0.719900	0.594600
H321	H32	0.050000	0.719200	0.636200
H331	H33	0.644300	0.824300	0.100100
H341	H34	0.495100	0.751400	0.010300
H351	H35	0.710300	0.989200	0.899700
H361	H36	0.846400	0.065600	0.990100
H371	H37	0.899000	0.072600	0.100200
H381	H38	0.887700	0.966500	0.139500
H391	H39	0.628900	0.219900	0.094600
H401	H40	0.450000	0.219200	0.136200
H411	H41	0.855700	0.324300	0.899900
H421	H42	0.004900	0.251400	0.989700
H431	H43	0.789700	0.489200	0.100300
H441	H44	0.653600	0.565600	0.009900
H451	H45	0.601000	0.572600	0.899800
H461	H46	0.612300	0.466500	0.860500
H471	H47	0.871100	0.719900	0.905400
H481	H48	0.050000	0.719200	0.863800
H491	H49	0.355700	0.175700	0.600100
H501	H50	0.504900	0.248600	0.510300
H511	H51	0.289700	0.010800	0.399700
H521	H52	0.153600	0.934400	0.490100
H531	H53	0.101000	0.927400	0.600200
H541	H54	0.112300	0.033500	0.639500
H551	H55	0.371100	0.780100	0.594600
H561	H56	0.550000	0.780800	0.636200
H571	H57	0.144300	0.675700	0.399900
H581	H58	0.995100	0.748600	0.489700
H591	H59	0.210300	0.510800	0.600300
H601	H60	0.346400	0.434400	0.509900
H611	H61	0.399000	0.427400	0.399800
H621	H62	0.387700	0.533500	0.360500
H631	H63	0.128900	0.280100	0.405400
H641	H64	0.950000	0.280800	0.363800
C11	C1	0.348100	0.139800	0.940200
C21	C2	0.435200	0.183900	0.993900
C31	C3	0.421000	0.133900	0.053700
C41	C4	0.309400	0.042500	0.059200
C51	C5	0.227000	0.997600	0.005400
C61	C6	0.249600	0.043100	0.945200
C71	C7	0.180300	0.984300	0.886400
C81	C8	0.469200	0.823700	0.889300
C91	C9	0.151900	0.639800	0.059800
C101	C10	0.064800	0.683900	0.006100
C111	C11	0.079000	0.633900	0.946300
C121	C12	0.190600	0.542500	0.940800
C131	C13	0.273000	0.497600	0.994600
C141	C14	0.250400	0.543100	0.054800
C151	C15	0.319700	0.484300	0.113600
C161	C16	0.030800	0.323700	0.110700
C171	C17	0.651900	0.860200	0.440200
C181	C18	0.564800	0.816100	0.493900
C191	C19	0.579000	0.866100	0.553700
C201	C20	0.690600	0.957500	0.559200
C211	C21	0.773000	0.002400	0.505400
C221	C22	0.750400	0.956900	0.445200
C231	C23	0.819700	0.015700	0.386400
C241	C24	0.530800	0.176300	0.389300
C251	C25	0.848100	0.360200	0.559800
C261	C26	0.935200	0.316100	0.506100
C271	C27	0.921000	0.366100	0.446300
C281	C28	0.809400	0.457500	0.440800
C291	C29	0.727000	0.502400	0.494600
C301	C30	0.749600	0.456900	0.554800
C311	C31	0.680300	0.515700	0.613600
C321	C32	0.969200	0.676300	0.610700
C331	C33	0.651900	0.860200	0.059800
C341	C34	0.564800	0.816100	0.006100
C351	C35	0.579000	0.866100	0.946300
C361	C36	0.690600	0.957500	0.940800
C371	C37	0.773000	0.002400	0.994600
C381	C38	0.750400	0.956900	0.054800
C391	C39	0.819700	0.015700	0.113600
C401	C40	0.530800	0.176300	0.110700
C411	C41	0.848100	0.360200	0.940200
C421	C42	0.935200	0.316100	0.993900
C431	C43	0.921000	0.366100	0.053700
C441	C44	0.809400	0.457500	0.059200
C451	C45	0.727000	0.502400	0.005400
C461	C46	0.749600	0.456900	0.945200
C471	C47	0.680300	0.515700	0.886400
C481	C48	0.969200	0.676300	0.889300
C491	C49	0.348100	0.139800	0.559800
C501	C50	0.435200	0.183900	0.506100
C511	C51	0.421000	0.133900	0.446300
C521	C52	0.309400	0.042500	0.440800
C531	C53	0.227000	0.997600	0.494600
C541	C54	0.249600	0.043100	0.554800
C551	C55	0.180300	0.984300	0.613600
C561	C56	0.469200	0.823700	0.610700
C571	C57	0.151900	0.639800	0.440200
C581	C58	0.064800	0.683900	0.493900
C591	C59	0.079000	0.633900	0.553700
C601	C60	0.190600	0.542500	0.559200
C611	C61	0.273000	0.497600	0.505400
C621	C62	0.250400	0.543100	0.445200
C631	C63	0.319700	0.484300	0.386400
C641	C64	0.030800	0.323700	0.389300
S11	S1	0.368300	0.927020	0.837890
S21	S2	0.131700	0.427020	0.162110
S31	S3	0.631700	0.072980	0.337890
S41	S4	0.868300	0.572980	0.662110
S51	S5	0.631700	0.072980	0.162110
S61	S6	0.868300	0.572980	0.837890
S71	S7	0.368300	0.927020	0.662110
S81	S8	0.131700	0.427020	0.337890
I11	I1	0.871810	0.859350	0.750000
I21	I2	0.628190	0.359350	0.250000
I31	I3	0.128190	0.140650	0.250000
I41	I4	0.371810	0.640650	0.750000
