data_MAGBON_freeONLY_PM
_symmetry_space_group_name_H-M	'P1'
_cell_length_a	18.450000
_cell_length_b	18.450000
_cell_length_c	23.201000
_cell_angle_alpha	90.000000
_cell_angle_beta	90.000000
_cell_angle_gamma	90.000000
_symmetry_Int_Tables_number 1

loop_
_symmetry_equiv_pos_as_xyz
'x,y,z'

loop_
_atom_site_label
_atom_site_type_symbol
_atom_site_fract_x
_atom_site_fract_y
_atom_site_fract_z
Zn11	Zn1	0.730320	0.724820	0.973130
C11	C1	0.545300	0.735000	0.852800
C21	C2	0.502900	0.731100	0.903500
H11	H1	0.525600	0.732600	0.939300
C31	C3	0.428400	0.725100	0.900800
C41	C4	0.394600	0.724700	0.848400
H21	H2	0.344300	0.721400	0.846700
C51	C5	0.434200	0.729000	0.797600
C61	C6	0.509000	0.733400	0.800600
H31	H3	0.535500	0.735400	0.766600
C71	C7	0.386600	0.723000	0.956200
C81	C8	0.394800	0.728300	0.741000
O11	O1	0.658700	0.822200	0.861900
O21	O2	0.663600	0.702400	0.913500
O31	O3	0.672700	0.707100	0.804700
O41	O4	0.317700	0.721400	0.950900
O51	O5	0.417300	0.727400	0.002100
O61	O6	0.329200	0.720300	0.742400
O71	O7	0.432200	0.739600	0.695700
P11	P1	0.641340	0.742690	0.858340
Zn21	Zn2	0.230320	0.224820	0.473130
C91	C9	0.045300	0.235000	0.352800
C101	C10	0.002900	0.231100	0.403500
H41	H4	0.025600	0.232600	0.439300
C111	C11	0.928400	0.225100	0.400800
C121	C12	0.894600	0.224700	0.348400
H51	H5	0.844300	0.221400	0.346700
C131	C13	0.934200	0.229000	0.297600
C141	C14	0.009000	0.233400	0.300600
H61	H6	0.035500	0.235400	0.266600
C151	C15	0.886600	0.223000	0.456200
C161	C16	0.894800	0.228300	0.241000
O81	O8	0.158700	0.322200	0.361900
O91	O9	0.163600	0.202400	0.413500
O101	O10	0.172700	0.207100	0.304700
O111	O11	0.817700	0.221400	0.450900
O121	O12	0.917300	0.227400	0.502100
O131	O13	0.829200	0.220300	0.242400
O141	O14	0.932200	0.239600	0.195700
P21	P2	0.141340	0.242690	0.358340
Zn31	Zn3	0.269680	0.275180	0.973130
C171	C17	0.454700	0.265000	0.852800
C181	C18	0.497100	0.268900	0.903500
H71	H7	0.474400	0.267400	0.939300
C191	C19	0.571600	0.274900	0.900800
C201	C20	0.605400	0.275300	0.848400
H81	H8	0.655700	0.278600	0.846700
C211	C21	0.565800	0.271000	0.797600
C221	C22	0.491000	0.266600	0.800600
H91	H9	0.464500	0.264600	0.766600
C231	C23	0.613400	0.277000	0.956200
C241	C24	0.605200	0.271700	0.741000
O151	O15	0.341300	0.177800	0.861900
O161	O16	0.336400	0.297600	0.913500
O171	O17	0.327300	0.292900	0.804700
O181	O18	0.682300	0.278600	0.950900
O191	O19	0.582700	0.272600	0.002100
O201	O20	0.670800	0.279700	0.742400
O211	O21	0.567800	0.260400	0.695700
P31	P3	0.358660	0.257310	0.858340
Zn41	Zn4	0.769680	0.775180	0.473130
C251	C25	0.954700	0.765000	0.352800
C261	C26	0.997100	0.768900	0.403500
H101	H10	0.974400	0.767400	0.439300
C271	C27	0.071600	0.774900	0.400800
C281	C28	0.105400	0.775300	0.348400
H111	H11	0.155700	0.778600	0.346700
C291	C29	0.065800	0.771000	0.297600
C301	C30	0.991000	0.766600	0.300600
H121	H12	0.964500	0.764600	0.266600
C311	C31	0.113400	0.777000	0.456200
C321	C32	0.105200	0.771700	0.241000
O221	O22	0.841300	0.677800	0.361900
O231	O23	0.836400	0.797600	0.413500
O241	O24	0.827300	0.792900	0.304700
O251	O25	0.182300	0.778600	0.450900
O261	O26	0.082700	0.772600	0.502100
O271	O27	0.170800	0.779700	0.242400
O281	O28	0.067800	0.760400	0.195700
P41	P4	0.858660	0.757310	0.358340
Zn51	Zn5	0.724820	0.269680	0.026870
C331	C33	0.735000	0.454700	0.147200
C341	C34	0.731100	0.497100	0.096500
H131	H13	0.732600	0.474400	0.060700
C351	C35	0.725100	0.571600	0.099200
C361	C36	0.724700	0.605400	0.151600
H141	H14	0.721400	0.655700	0.153300
C371	C37	0.729000	0.565800	0.202400
C381	C38	0.733400	0.491000	0.199400
H151	H15	0.735400	0.464500	0.233400
C391	C39	0.723000	0.613400	0.043800
C401	C40	0.728300	0.605200	0.259000
O291	O29	0.822200	0.341300	0.138100
O301	O30	0.702400	0.336400	0.086500
O311	O31	0.707100	0.327300	0.195300
O321	O32	0.721400	0.682300	0.049100
O331	O33	0.727400	0.582700	0.997900
O341	O34	0.720300	0.670800	0.257600
O351	O35	0.739600	0.567800	0.304300
P51	P5	0.742690	0.358660	0.141660
Zn61	Zn6	0.224820	0.769680	0.526870
C411	C41	0.235000	0.954700	0.647200
C421	C42	0.231100	0.997100	0.596500
H161	H16	0.232600	0.974400	0.560700
C431	C43	0.225100	0.071600	0.599200
C441	C44	0.224700	0.105400	0.651600
H171	H17	0.221400	0.155700	0.653300
C451	C45	0.229000	0.065800	0.702400
C461	C46	0.233400	0.991000	0.699400
H181	H18	0.235400	0.964500	0.733400
C471	C47	0.223000	0.113400	0.543800
C481	C48	0.228300	0.105200	0.759000
O361	O36	0.322200	0.841300	0.638100
O371	O37	0.202400	0.836400	0.586500
O381	O38	0.207100	0.827300	0.695300
O391	O39	0.221400	0.182300	0.549100
O401	O40	0.227400	0.082700	0.497900
O411	O41	0.220300	0.170800	0.757600
O421	O42	0.239600	0.067800	0.804300
P61	P6	0.242690	0.858660	0.641660
Zn71	Zn7	0.275180	0.730320	0.026870
C491	C49	0.265000	0.545300	0.147200
C501	C50	0.268900	0.502900	0.096500
H191	H19	0.267400	0.525600	0.060700
C511	C51	0.274900	0.428400	0.099200
C521	C52	0.275300	0.394600	0.151600
H201	H20	0.278600	0.344300	0.153300
C531	C53	0.271000	0.434200	0.202400
C541	C54	0.266600	0.509000	0.199400
H211	H21	0.264600	0.535500	0.233400
C551	C55	0.277000	0.386600	0.043800
C561	C56	0.271700	0.394800	0.259000
O431	O43	0.177800	0.658700	0.138100
O441	O44	0.297600	0.663600	0.086500
O451	O45	0.292900	0.672700	0.195300
O461	O46	0.278600	0.317700	0.049100
O471	O47	0.272600	0.417300	0.997900
O481	O48	0.279700	0.329200	0.257600
O491	O49	0.260400	0.432200	0.304300
P71	P7	0.257310	0.641340	0.141660
Zn81	Zn8	0.775180	0.230320	0.526870
C571	C57	0.765000	0.045300	0.647200
C581	C58	0.768900	0.002900	0.596500
H221	H22	0.767400	0.025600	0.560700
C591	C59	0.774900	0.928400	0.599200
C601	C60	0.775300	0.894600	0.651600
H231	H23	0.778600	0.844300	0.653300
C611	C61	0.771000	0.934200	0.702400
C621	C62	0.766600	0.009000	0.699400
H241	H24	0.764600	0.035500	0.733400
C631	C63	0.777000	0.886600	0.543800
C641	C64	0.771700	0.894800	0.759000
O501	O50	0.677800	0.158700	0.638100
O511	O51	0.797600	0.163600	0.586500
O521	O52	0.792900	0.172700	0.695300
O531	O53	0.778600	0.817700	0.549100
O541	O54	0.772600	0.917300	0.497900
O551	O55	0.779700	0.829200	0.757600
O561	O56	0.760400	0.932200	0.804300
P81	P8	0.757310	0.141340	0.641660
Zn91	Zn9	0.769680	0.724820	0.776870
C651	C65	0.954700	0.735000	0.897200
C661	C66	0.997100	0.731100	0.846500
H251	H25	0.974400	0.732600	0.810700
C671	C67	0.071600	0.725100	0.849200
C681	C68	0.105400	0.724700	0.901600
H261	H26	0.155700	0.721400	0.903300
C691	C69	0.065800	0.729000	0.952400
C701	C70	0.991000	0.733400	0.949400
H271	H27	0.964500	0.735400	0.983400
C711	C71	0.113400	0.723000	0.793800
C721	C72	0.105200	0.728300	0.009000
O571	O57	0.841300	0.822200	0.888100
O581	O58	0.836400	0.702400	0.836500
O591	O59	0.827300	0.707100	0.945300
O601	O60	0.182300	0.721400	0.799100
O611	O61	0.082700	0.727400	0.747900
O621	O62	0.170800	0.720300	0.007600
O631	O63	0.067800	0.739600	0.054300
P91	P9	0.858660	0.742690	0.891660
Zn101	Zn10	0.269680	0.224820	0.276870
C731	C73	0.454700	0.235000	0.397200
C741	C74	0.497100	0.231100	0.346500
H281	H28	0.474400	0.232600	0.310700
C751	C75	0.571600	0.225100	0.349200
C761	C76	0.605400	0.224700	0.401600
H291	H29	0.655700	0.221400	0.403300
C771	C77	0.565800	0.229000	0.452400
C781	C78	0.491000	0.233400	0.449400
H301	H30	0.464500	0.235400	0.483400
C791	C79	0.613400	0.223000	0.293800
C801	C80	0.605200	0.228300	0.509000
O641	O64	0.341300	0.322200	0.388100
O651	O65	0.336400	0.202400	0.336500
O661	O66	0.327300	0.207100	0.445300
O671	O67	0.682300	0.221400	0.299100
O681	O68	0.582700	0.227400	0.247900
O691	O69	0.670800	0.220300	0.507600
O701	O70	0.567800	0.239600	0.554300
P101	P10	0.358660	0.242690	0.391660
Zn111	Zn11	0.230320	0.275180	0.776870
C811	C81	0.045300	0.265000	0.897200
C821	C82	0.002900	0.268900	0.846500
H311	H31	0.025600	0.267400	0.810700
C831	C83	0.928400	0.274900	0.849200
C841	C84	0.894600	0.275300	0.901600
H321	H32	0.844300	0.278600	0.903300
C851	C85	0.934200	0.271000	0.952400
C861	C86	0.009000	0.266600	0.949400
H331	H33	0.035500	0.264600	0.983400
C871	C87	0.886600	0.277000	0.793800
C881	C88	0.894800	0.271700	0.009000
O711	O71	0.158700	0.177800	0.888100
O721	O72	0.163600	0.297600	0.836500
O731	O73	0.172700	0.292900	0.945300
O741	O74	0.817700	0.278600	0.799100
O751	O75	0.917300	0.272600	0.747900
O761	O76	0.829200	0.279700	0.007600
O771	O77	0.932200	0.260400	0.054300
P111	P11	0.141340	0.257310	0.891660
Zn121	Zn12	0.730320	0.775180	0.276870
C891	C89	0.545300	0.765000	0.397200
C901	C90	0.502900	0.768900	0.346500
H341	H34	0.525600	0.767400	0.310700
C911	C91	0.428400	0.774900	0.349200
C921	C92	0.394600	0.775300	0.401600
H351	H35	0.344300	0.778600	0.403300
C931	C93	0.434200	0.771000	0.452400
C941	C94	0.509000	0.766600	0.449400
H361	H36	0.535500	0.764600	0.483400
C951	C95	0.386600	0.777000	0.293800
C961	C96	0.394800	0.771700	0.509000
O781	O78	0.658700	0.677800	0.388100
O791	O79	0.663600	0.797600	0.336500
O801	O80	0.672700	0.792900	0.445300
O811	O81	0.317700	0.778600	0.299100
O821	O82	0.417300	0.772600	0.247900
O831	O83	0.329200	0.779700	0.507600
O841	O84	0.432200	0.760400	0.554300
P121	P12	0.641340	0.757310	0.391660
Zn131	Zn13	0.775180	0.269680	0.723130
C971	C97	0.765000	0.454700	0.602800
C981	C98	0.768900	0.497100	0.653500
H371	H37	0.767400	0.474400	0.689300
C991	C99	0.774900	0.571600	0.650800
C1001	C100	0.775300	0.605400	0.598400
H381	H38	0.778600	0.655700	0.596700
C1011	C101	0.771000	0.565800	0.547600
C1021	C102	0.766600	0.491000	0.550600
H391	H39	0.764600	0.464500	0.516600
C1031	C103	0.777000	0.613400	0.706200
C1041	C104	0.771700	0.605200	0.491000
O851	O85	0.677800	0.341300	0.611900
O861	O86	0.797600	0.336400	0.663500
O871	O87	0.792900	0.327300	0.554700
O881	O88	0.778600	0.682300	0.700900
O891	O89	0.772600	0.582700	0.752100
O901	O90	0.779700	0.670800	0.492400
O911	O91	0.760400	0.567800	0.445700
P131	P13	0.757310	0.358660	0.608340
Zn141	Zn14	0.275180	0.769680	0.223130
C1051	C105	0.265000	0.954700	0.102800
C1061	C106	0.268900	0.997100	0.153500
H401	H40	0.267400	0.974400	0.189300
C1071	C107	0.274900	0.071600	0.150800
C1081	C108	0.275300	0.105400	0.098400
H411	H41	0.278600	0.155700	0.096700
C1091	C109	0.271000	0.065800	0.047600
C1101	C110	0.266600	0.991000	0.050600
H421	H42	0.264600	0.964500	0.016600
C1111	C111	0.277000	0.113400	0.206200
C1121	C112	0.271700	0.105200	0.991000
O921	O92	0.177800	0.841300	0.111900
O931	O93	0.297600	0.836400	0.163500
O941	O94	0.292900	0.827300	0.054700
O951	O95	0.278600	0.182300	0.200900
O961	O96	0.272600	0.082700	0.252100
O971	O97	0.279700	0.170800	0.992400
O981	O98	0.260400	0.067800	0.945700
P141	P14	0.257310	0.858660	0.108340
Zn151	Zn15	0.224820	0.730320	0.723130
C1131	C113	0.235000	0.545300	0.602800
C1141	C114	0.231100	0.502900	0.653500
H431	H43	0.232600	0.525600	0.689300
C1151	C115	0.225100	0.428400	0.650800
C1161	C116	0.224700	0.394600	0.598400
H441	H44	0.221400	0.344300	0.596700
C1171	C117	0.229000	0.434200	0.547600
C1181	C118	0.233400	0.509000	0.550600
H451	H45	0.235400	0.535500	0.516600
C1191	C119	0.223000	0.386600	0.706200
C1201	C120	0.228300	0.394800	0.491000
O991	O99	0.322200	0.658700	0.611900
O1001	O100	0.202400	0.663600	0.663500
O1011	O101	0.207100	0.672700	0.554700
O1021	O102	0.221400	0.317700	0.700900
O1031	O103	0.227400	0.417300	0.752100
O1041	O104	0.220300	0.329200	0.492400
O1051	O105	0.239600	0.432200	0.445700
P151	P15	0.242690	0.641340	0.608340
Zn161	Zn16	0.724820	0.230320	0.223130
C1211	C121	0.735000	0.045300	0.102800
C1221	C122	0.731100	0.002900	0.153500
H461	H46	0.732600	0.025600	0.189300
C1231	C123	0.725100	0.928400	0.150800
C1241	C124	0.724700	0.894600	0.098400
H471	H47	0.721400	0.844300	0.096700
C1251	C125	0.729000	0.934200	0.047600
C1261	C126	0.733400	0.009000	0.050600
H481	H48	0.735400	0.035500	0.016600
C1271	C127	0.723000	0.886600	0.206200
C1281	C128	0.728300	0.894800	0.991000
O1061	O106	0.822200	0.158700	0.111900
O1071	O107	0.702400	0.163600	0.163500
O1081	O108	0.707100	0.172700	0.054700
O1091	O109	0.721400	0.817700	0.200900
O1101	O110	0.727400	0.917300	0.252100
O1111	O111	0.720300	0.829200	0.992400
O1121	O112	0.739600	0.932200	0.945700
P161	P16	0.742690	0.141340	0.108340
Zn171	Zn17	0.750000	0.872950	0.875000
Zn181	Zn18	0.250000	0.372950	0.375000
Zn191	Zn19	0.250000	0.127050	0.875000
Zn201	Zn20	0.750000	0.627050	0.375000
Zn211	Zn21	0.872950	0.250000	0.125000
Zn221	Zn22	0.127050	0.750000	0.125000
Zn231	Zn23	0.627050	0.250000	0.625000
Zn241	Zn24	0.372950	0.750000	0.625000
