data_MAGBUT01_freeONLY_PM
_symmetry_space_group_name_H-M	'P1'
_cell_length_a	14.713000
_cell_length_b	14.713000
_cell_length_c	37.436000
_cell_angle_alpha	90.000000
_cell_angle_beta	90.000000
_cell_angle_gamma	120.000000
_symmetry_Int_Tables_number 1

loop_
_symmetry_equiv_pos_as_xyz
'x,y,z'

loop_
_atom_site_label
_atom_site_type_symbol
_atom_site_fract_x
_atom_site_fract_y
_atom_site_fract_z
N11	N1	0.420200	0.802500	0.699410
N21	N2	0.518900	0.023200	0.753930
N31	N3	0.426700	0.993600	0.748860
N41	N4	0.539400	0.214300	0.801290
C11	C1	0.476500	0.872500	0.715400
C21	C2	0.560200	0.964700	0.734300
C31	C3	0.386700	0.056600	0.767100
C41	C4	0.474700	0.147000	0.786210
C51	C5	0.611500	0.928400	0.761800
H11	H1	0.666100	0.988900	0.774300
H21	H2	0.642000	0.891600	0.749800
H31	H3	0.559100	0.881700	0.778800
C61	C6	0.636800	0.040900	0.706200
H41	H4	0.692400	0.102100	0.718100
H51	H5	0.599300	0.062500	0.690200
H61	H6	0.666800	0.006100	0.692700
C71	C7	0.343600	0.096100	0.737700
H71	H7	0.286300	0.036700	0.725600
H81	H8	0.398800	0.137000	0.720600
H91	H9	0.318200	0.139600	0.748100
C81	C8	0.304300	0.985700	0.793600
H101	H10	0.247200	0.927500	0.781000
H111	H11	0.277600	0.025000	0.806200
H121	H12	0.335100	0.958900	0.810500
N51	N5	0.086870	0.135830	0.032740
N61	N6	0.185570	0.356530	0.087260
N71	N7	0.093370	0.326930	0.082190
N81	N8	0.206070	0.547630	0.134620
C91	C9	0.143170	0.205830	0.048730
C101	C10	0.226870	0.298030	0.067630
C111	C11	0.053370	0.389930	0.100430
C121	C12	0.141370	0.480330	0.119540
C131	C13	0.278170	0.261730	0.095130
H131	H13	0.332770	0.322230	0.107630
H141	H14	0.308670	0.224930	0.083130
H151	H15	0.225770	0.215030	0.112130
C141	C14	0.303470	0.374230	0.039530
H161	H16	0.359070	0.435430	0.051430
H171	H17	0.265970	0.395830	0.023530
H181	H18	0.333470	0.339430	0.026030
C151	C15	0.010270	0.429430	0.071030
H191	H19	0.952970	0.370030	0.058930
H201	H20	0.065470	0.470330	0.053930
H211	H21	0.984870	0.472930	0.081430
C161	C16	0.970970	0.319030	0.126930
H221	H22	0.913870	0.260830	0.114330
H231	H23	0.944270	0.358330	0.139530
H241	H24	0.001770	0.292230	0.143830
N91	N9	0.753530	0.469170	0.366080
N101	N10	0.852230	0.689870	0.420600
N111	N11	0.760030	0.660270	0.415530
N121	N12	0.872730	0.880970	0.467960
C171	C17	0.809830	0.539170	0.382070
C181	C18	0.893530	0.631370	0.400970
C191	C19	0.720030	0.723270	0.433770
C201	C20	0.808030	0.813670	0.452880
C211	C21	0.944830	0.595070	0.428470
H251	H25	0.999430	0.655570	0.440970
H261	H26	0.975330	0.558270	0.416470
H271	H27	0.892430	0.548370	0.445470
C221	C22	0.970130	0.707570	0.372870
H281	H28	0.025730	0.768770	0.384770
H291	H29	0.932630	0.729170	0.356870
H301	H30	0.000130	0.672770	0.359370
C231	C23	0.676930	0.762770	0.404370
H311	H31	0.619630	0.703370	0.392270
H321	H32	0.732130	0.803670	0.387270
H331	H33	0.651530	0.806270	0.414770
C241	C24	0.637630	0.652370	0.460270
H341	H34	0.580530	0.594170	0.447670
H351	H35	0.610930	0.691670	0.472870
H361	H36	0.668430	0.625570	0.477170
N131	N13	0.197500	0.617700	0.699410
N141	N14	0.976800	0.495700	0.753930
N151	N15	0.006400	0.433100	0.748860
N161	N16	0.785700	0.325100	0.801290
C251	C25	0.127500	0.604000	0.715400
C261	C26	0.035300	0.595500	0.734300
C271	C27	0.943400	0.330100	0.767100
C281	C28	0.853000	0.327700	0.786210
C291	C29	0.071600	0.683100	0.761800
H371	H37	0.011100	0.677200	0.774300
H381	H38	0.108400	0.750400	0.749800
H391	H39	0.118300	0.677400	0.778800
C301	C30	0.959100	0.595900	0.706200
H401	H40	0.897900	0.590300	0.718100
H411	H41	0.937500	0.536800	0.690200
H421	H42	0.993900	0.660700	0.692700
C311	C31	0.903900	0.247500	0.737700
H431	H43	0.963300	0.249600	0.725600
H441	H44	0.863000	0.261800	0.720600
H451	H45	0.860400	0.178600	0.748100
C321	C32	0.014300	0.318600	0.793600
H461	H46	0.072500	0.319700	0.781000
H471	H47	0.975000	0.252600	0.806200
H481	H48	0.041100	0.376200	0.810500
N171	N17	0.864170	0.951030	0.032740
N181	N18	0.643470	0.829030	0.087260
N191	N19	0.673070	0.766430	0.082190
N201	N20	0.452370	0.658430	0.134620
C331	C33	0.794170	0.937330	0.048730
C341	C34	0.701970	0.928830	0.067630
C351	C35	0.610070	0.663430	0.100430
C361	C36	0.519670	0.661030	0.119540
C371	C37	0.738270	0.016430	0.095130
H491	H49	0.677770	0.010530	0.107630
H501	H50	0.775070	0.083730	0.083130
H511	H51	0.784970	0.010730	0.112130
C381	C38	0.625770	0.929230	0.039530
H521	H52	0.564570	0.923630	0.051430
H531	H53	0.604170	0.870130	0.023530
H541	H54	0.660570	0.994030	0.026030
C391	C39	0.570570	0.580830	0.071030
H551	H55	0.629970	0.582930	0.058930
H561	H56	0.529670	0.595130	0.053930
H571	H57	0.527070	0.511930	0.081430
C401	C40	0.680970	0.651930	0.126930
H581	H58	0.739170	0.653030	0.114330
H591	H59	0.641670	0.585930	0.139530
H601	H60	0.707770	0.709530	0.143830
N211	N21	0.530830	0.284370	0.366080
N221	N22	0.310130	0.162370	0.420600
N231	N23	0.339730	0.099770	0.415530
N241	N24	0.119030	0.991770	0.467960
C411	C41	0.460830	0.270670	0.382070
C421	C42	0.368630	0.262170	0.400970
C431	C43	0.276730	0.996770	0.433770
C441	C44	0.186330	0.994370	0.452880
C451	C45	0.404930	0.349770	0.428470
H611	H61	0.344430	0.343870	0.440970
H621	H62	0.441730	0.417070	0.416470
H631	H63	0.451630	0.344070	0.445470
C461	C46	0.292430	0.262570	0.372870
H641	H64	0.231230	0.256970	0.384770
H651	H65	0.270830	0.203470	0.356870
H661	H66	0.327230	0.327370	0.359370
C471	C47	0.237230	0.914170	0.404370
H671	H67	0.296630	0.916270	0.392270
H681	H68	0.196330	0.928470	0.387270
H691	H69	0.193730	0.845270	0.414770
C481	C48	0.347630	0.985270	0.460270
H701	H70	0.405830	0.986370	0.447670
H711	H71	0.308330	0.919270	0.472870
H721	H72	0.374430	0.042870	0.477170
N251	N25	0.382300	0.579800	0.699410
N261	N26	0.504300	0.481100	0.753930
N271	N27	0.566900	0.573300	0.748860
N281	N28	0.674900	0.460600	0.801290
C491	C49	0.396000	0.523500	0.715400
C501	C50	0.404500	0.439800	0.734300
C511	C51	0.669900	0.613300	0.767100
C521	C52	0.672300	0.525300	0.786210
C531	C53	0.316900	0.388500	0.761800
H731	H73	0.322800	0.333900	0.774300
H741	H74	0.249600	0.358000	0.749800
H751	H75	0.322600	0.440900	0.778800
C541	C54	0.404100	0.363200	0.706200
H761	H76	0.409700	0.307600	0.718100
H771	H77	0.463200	0.400700	0.690200
H781	H78	0.339300	0.333200	0.692700
C551	C55	0.752500	0.656400	0.737700
H791	H79	0.750400	0.713700	0.725600
H801	H80	0.738200	0.601200	0.720600
H811	H81	0.821400	0.681800	0.748100
C561	C56	0.681400	0.695700	0.793600
H821	H82	0.680300	0.752800	0.781000
H831	H83	0.747400	0.722400	0.806200
H841	H84	0.623800	0.664900	0.810500
N291	N29	0.048970	0.913130	0.032740
N301	N30	0.170970	0.814430	0.087260
N311	N31	0.233570	0.906630	0.082190
N321	N32	0.341570	0.793930	0.134620
C571	C57	0.062670	0.856830	0.048730
C581	C58	0.071170	0.773130	0.067630
C591	C59	0.336570	0.946630	0.100430
C601	C60	0.338970	0.858630	0.119540
C611	C61	0.983570	0.721830	0.095130
H851	H85	0.989470	0.667230	0.107630
H861	H86	0.916270	0.691330	0.083130
H871	H87	0.989270	0.774230	0.112130
C621	C62	0.070770	0.696530	0.039530
H881	H88	0.076370	0.640930	0.051430
H891	H89	0.129870	0.734030	0.023530
H901	H90	0.005970	0.666530	0.026030
C631	C63	0.419170	0.989730	0.071030
H911	H91	0.417070	0.047030	0.058930
H921	H92	0.404870	0.934530	0.053930
H931	H93	0.488070	0.015130	0.081430
C641	C64	0.348070	0.029030	0.126930
H941	H94	0.346970	0.086130	0.114330
H951	H95	0.414070	0.055730	0.139530
H961	H96	0.290470	0.998230	0.143830
N331	N33	0.715630	0.246470	0.366080
N341	N34	0.837630	0.147770	0.420600
N351	N35	0.900230	0.239970	0.415530
N361	N36	0.008230	0.127270	0.467960
C651	C65	0.729330	0.190170	0.382070
C661	C66	0.737830	0.106470	0.400970
C671	C67	0.003230	0.279970	0.433770
C681	C68	0.005630	0.191970	0.452880
C691	C69	0.650230	0.055170	0.428470
H971	H97	0.656130	0.000570	0.440970
H981	H98	0.582930	0.024670	0.416470
H991	H99	0.655930	0.107570	0.445470
C701	C70	0.737430	0.029870	0.372870
H1001	H100	0.743030	0.974270	0.384770
H1011	H101	0.796530	0.067370	0.356870
H1021	H102	0.672630	0.999870	0.359370
C711	C71	0.085830	0.323070	0.404370
H1031	H103	0.083730	0.380370	0.392270
H1041	H104	0.071530	0.267870	0.387270
H1051	H105	0.154730	0.348470	0.414770
C721	C72	0.014730	0.362370	0.460270
H1061	H106	0.013630	0.419470	0.447670
H1071	H107	0.080730	0.389070	0.472870
H1081	H108	0.957130	0.331570	0.477170
N371	N37	0.579800	0.197500	0.300590
N381	N38	0.481100	0.976800	0.246070
N391	N39	0.573300	0.006400	0.251140
N401	N40	0.460600	0.785700	0.198710
C731	C73	0.523500	0.127500	0.284600
C741	C74	0.439800	0.035300	0.265700
C751	C75	0.613300	0.943400	0.232900
C761	C76	0.525300	0.853000	0.213790
C771	C77	0.388500	0.071600	0.238200
H1091	H109	0.333900	0.011100	0.225700
H1101	H110	0.358000	0.108400	0.250200
H1111	H111	0.440900	0.118300	0.221200
C781	C78	0.363200	0.959100	0.293800
H1121	H112	0.307600	0.897900	0.281900
H1131	H113	0.400700	0.937500	0.309800
H1141	H114	0.333200	0.993900	0.307300
C791	C79	0.656400	0.903900	0.262300
H1151	H115	0.713700	0.963300	0.274400
H1161	H116	0.601200	0.863000	0.279400
H1171	H117	0.681800	0.860400	0.251900
C801	C80	0.695700	0.014300	0.206400
H1181	H118	0.752800	0.072500	0.219000
H1191	H119	0.722400	0.975000	0.193800
H1201	H120	0.664900	0.041100	0.189500
N411	N41	0.246470	0.530830	0.633920
N421	N42	0.147770	0.310130	0.579400
N431	N43	0.239970	0.339730	0.584470
N441	N44	0.127270	0.119030	0.532040
C811	C81	0.190170	0.460830	0.617930
C821	C82	0.106470	0.368630	0.599030
C831	C83	0.279970	0.276730	0.566230
C841	C84	0.191970	0.186330	0.547120
C851	C85	0.055170	0.404930	0.571530
H1211	H121	0.000570	0.344430	0.559030
H1221	H122	0.024670	0.441730	0.583530
H1231	H123	0.107570	0.451630	0.554530
C861	C86	0.029870	0.292430	0.627130
H1241	H124	0.974270	0.231230	0.615230
H1251	H125	0.067370	0.270830	0.643130
H1261	H126	0.999870	0.327230	0.640630
C871	C87	0.323070	0.237230	0.595630
H1271	H127	0.380370	0.296630	0.607730
H1281	H128	0.267870	0.196330	0.612730
H1291	H129	0.348470	0.193730	0.585230
C881	C88	0.362370	0.347630	0.539730
H1301	H130	0.419470	0.405830	0.552330
H1311	H131	0.389070	0.308330	0.527130
H1321	H132	0.331570	0.374430	0.522830
N451	N45	0.913130	0.864170	0.967260
N461	N46	0.814430	0.643470	0.912740
N471	N47	0.906630	0.673070	0.917810
N481	N48	0.793930	0.452370	0.865380
C891	C89	0.856830	0.794170	0.951270
C901	C90	0.773130	0.701970	0.932370
C911	C91	0.946630	0.610070	0.899570
C921	C92	0.858630	0.519670	0.880460
C931	C93	0.721830	0.738270	0.904870
H1331	H133	0.667230	0.677770	0.892370
H1341	H134	0.691330	0.775070	0.916870
H1351	H135	0.774230	0.784970	0.887870
C941	C94	0.696530	0.625770	0.960470
H1361	H136	0.640930	0.564570	0.948570
H1371	H137	0.734030	0.604170	0.976470
H1381	H138	0.666530	0.660570	0.973970
C951	C95	0.989730	0.570570	0.928970
H1391	H139	0.047030	0.629970	0.941070
H1401	H140	0.934530	0.529670	0.946070
H1411	H141	0.015130	0.527070	0.918570
C961	C96	0.029030	0.680970	0.873070
H1421	H142	0.086130	0.739170	0.885670
H1431	H143	0.055730	0.641670	0.860470
H1441	H144	0.998230	0.707770	0.856170
N491	N49	0.802500	0.382300	0.300590
N501	N50	0.023200	0.504300	0.246070
N511	N51	0.993600	0.566900	0.251140
N521	N52	0.214300	0.674900	0.198710
C971	C97	0.872500	0.396000	0.284600
C981	C98	0.964700	0.404500	0.265700
C991	C99	0.056600	0.669900	0.232900
C1001	C100	0.147000	0.672300	0.213790
C1011	C101	0.928400	0.316900	0.238200
H1451	H145	0.988900	0.322800	0.225700
H1461	H146	0.891600	0.249600	0.250200
H1471	H147	0.881700	0.322600	0.221200
C1021	C102	0.040900	0.404100	0.293800
H1481	H148	0.102100	0.409700	0.281900
H1491	H149	0.062500	0.463200	0.309800
H1501	H150	0.006100	0.339300	0.307300
C1031	C103	0.096100	0.752500	0.262300
H1511	H151	0.036700	0.750400	0.274400
H1521	H152	0.137000	0.738200	0.279400
H1531	H153	0.139600	0.821400	0.251900
C1041	C104	0.985700	0.681400	0.206400
H1541	H154	0.927500	0.680300	0.219000
H1551	H155	0.025000	0.747400	0.193800
H1561	H156	0.958900	0.623800	0.189500
N531	N53	0.469170	0.715630	0.633920
N541	N54	0.689870	0.837630	0.579400
N551	N55	0.660270	0.900230	0.584470
N561	N56	0.880970	0.008230	0.532040
C1051	C105	0.539170	0.729330	0.617930
C1061	C106	0.631370	0.737830	0.599030
C1071	C107	0.723270	0.003230	0.566230
C1081	C108	0.813670	0.005630	0.547120
C1091	C109	0.595070	0.650230	0.571530
H1571	H157	0.655570	0.656130	0.559030
H1581	H158	0.558270	0.582930	0.583530
H1591	H159	0.548370	0.655930	0.554530
C1101	C110	0.707570	0.737430	0.627130
H1601	H160	0.768770	0.743030	0.615230
H1611	H161	0.729170	0.796530	0.643130
H1621	H162	0.672770	0.672630	0.640630
C1111	C111	0.762770	0.085830	0.595630
H1631	H163	0.703370	0.083730	0.607730
H1641	H164	0.803670	0.071530	0.612730
H1651	H165	0.806270	0.154730	0.585230
C1121	C112	0.652370	0.014730	0.539730
H1661	H166	0.594170	0.013630	0.552330
H1671	H167	0.691670	0.080730	0.527130
H1681	H168	0.625570	0.957130	0.522830
N571	N57	0.135830	0.048970	0.967260
N581	N58	0.356530	0.170970	0.912740
N591	N59	0.326930	0.233570	0.917810
N601	N60	0.547630	0.341570	0.865380
C1131	C113	0.205830	0.062670	0.951270
C1141	C114	0.298030	0.071170	0.932370
C1151	C115	0.389930	0.336570	0.899570
C1161	C116	0.480330	0.338970	0.880460
C1171	C117	0.261730	0.983570	0.904870
H1691	H169	0.322230	0.989470	0.892370
H1701	H170	0.224930	0.916270	0.916870
H1711	H171	0.215030	0.989270	0.887870
C1181	C118	0.374230	0.070770	0.960470
H1721	H172	0.435430	0.076370	0.948570
H1731	H173	0.395830	0.129870	0.976470
H1741	H174	0.339430	0.005970	0.973970
C1191	C119	0.429430	0.419170	0.928970
H1751	H175	0.370030	0.417070	0.941070
H1761	H176	0.470330	0.404870	0.946070
H1771	H177	0.472930	0.488070	0.918570
C1201	C120	0.319030	0.348070	0.873070
H1781	H178	0.260830	0.346970	0.885670
H1791	H179	0.358330	0.414070	0.860470
H1801	H180	0.292230	0.290470	0.856170
N611	N61	0.617700	0.420200	0.300590
N621	N62	0.495700	0.518900	0.246070
N631	N63	0.433100	0.426700	0.251140
N641	N64	0.325100	0.539400	0.198710
C1211	C121	0.604000	0.476500	0.284600
C1221	C122	0.595500	0.560200	0.265700
C1231	C123	0.330100	0.386700	0.232900
C1241	C124	0.327700	0.474700	0.213790
C1251	C125	0.683100	0.611500	0.238200
H1811	H181	0.677200	0.666100	0.225700
H1821	H182	0.750400	0.642000	0.250200
H1831	H183	0.677400	0.559100	0.221200
C1261	C126	0.595900	0.636800	0.293800
H1841	H184	0.590300	0.692400	0.281900
H1851	H185	0.536800	0.599300	0.309800
H1861	H186	0.660700	0.666800	0.307300
C1271	C127	0.247500	0.343600	0.262300
H1871	H187	0.249600	0.286300	0.274400
H1881	H188	0.261800	0.398800	0.279400
H1891	H189	0.178600	0.318200	0.251900
C1281	C128	0.318600	0.304300	0.206400
H1901	H190	0.319700	0.247200	0.219000
H1911	H191	0.252600	0.277600	0.193800
H1921	H192	0.376200	0.335100	0.189500
N651	N65	0.284370	0.753530	0.633920
N661	N66	0.162370	0.852230	0.579400
N671	N67	0.099770	0.760030	0.584470
N681	N68	0.991770	0.872730	0.532040
C1291	C129	0.270670	0.809830	0.617930
C1301	C130	0.262170	0.893530	0.599030
C1311	C131	0.996770	0.720030	0.566230
C1321	C132	0.994370	0.808030	0.547120
C1331	C133	0.349770	0.944830	0.571530
H1931	H193	0.343870	0.999430	0.559030
H1941	H194	0.417070	0.975330	0.583530
H1951	H195	0.344070	0.892430	0.554530
C1341	C134	0.262570	0.970130	0.627130
H1961	H196	0.256970	0.025730	0.615230
H1971	H197	0.203470	0.932630	0.643130
H1981	H198	0.327370	0.000130	0.640630
C1351	C135	0.914170	0.676930	0.595630
H1991	H199	0.916270	0.619630	0.607730
H2001	H200	0.928470	0.732130	0.612730
H2011	H201	0.845270	0.651530	0.585230
C1361	C136	0.985270	0.637630	0.539730
H2021	H202	0.986370	0.580530	0.552330
H2031	H203	0.919270	0.610930	0.527130
H2041	H204	0.042870	0.668430	0.522830
N691	N69	0.951030	0.086870	0.967260
N701	N70	0.829030	0.185570	0.912740
N711	N71	0.766430	0.093370	0.917810
N721	N72	0.658430	0.206070	0.865380
C1371	C137	0.937330	0.143170	0.951270
C1381	C138	0.928830	0.226870	0.932370
C1391	C139	0.663430	0.053370	0.899570
C1401	C140	0.661030	0.141370	0.880460
C1411	C141	0.016430	0.278170	0.904870
H2051	H205	0.010530	0.332770	0.892370
H2061	H206	0.083730	0.308670	0.916870
H2071	H207	0.010730	0.225770	0.887870
C1421	C142	0.929230	0.303470	0.960470
H2081	H208	0.923630	0.359070	0.948570
H2091	H209	0.870130	0.265970	0.976470
H2101	H210	0.994030	0.333470	0.973970
C1431	C143	0.580830	0.010270	0.928970
H2111	H211	0.582930	0.952970	0.941070
H2121	H212	0.595130	0.065470	0.946070
H2131	H213	0.511930	0.984870	0.918570
C1441	C144	0.651930	0.970970	0.873070
H2141	H214	0.653030	0.913870	0.885670
H2151	H215	0.585930	0.944270	0.860470
H2161	H216	0.709530	0.001770	0.856170
Fe11	Fe1	0.333330	0.666670	0.666670
Fe21	Fe2	0.000000	0.000000	0.000000
Fe31	Fe3	0.666670	0.333330	0.333330
Fe41	Fe4	0.666670	0.333330	0.833330
Fe51	Fe5	0.333330	0.666670	0.166670
Fe61	Fe6	0.000000	0.000000	0.500000
