data_MAGNEQ03_freeONLY_PM
_symmetry_space_group_name_H-M	'P1'
_cell_length_a	10.165000
_cell_length_b	8.295500
_cell_length_c	11.181100
_cell_angle_alpha	90.000000
_cell_angle_beta	90.000000
_cell_angle_gamma	90.000000
_symmetry_Int_Tables_number 1

loop_
_symmetry_equiv_pos_as_xyz
'x,y,z'

loop_
_atom_site_label
_atom_site_type_symbol
_atom_site_fract_x
_atom_site_fract_y
_atom_site_fract_z
Cu11	Cu1	0.204860	0.000780	0.265900
O11	O1	0.461800	0.054400	0.327700
O21	O2	0.312500	0.187300	0.222300
O31	O3	0.014800	0.101500	0.186000
O41	O4	0.871100	0.300400	0.173400
O51	O5	0.183800	0.104400	0.426700
O61	O6	0.243500	0.112000	0.615900
C11	C1	0.424100	0.172100	0.267600
H11	H1	0.483900	0.255400	0.255500
C21	C2	0.968800	0.232500	0.217200
H21	H2	0.011300	0.285500	0.279500
C31	C3	0.230900	0.040500	0.518600
H31	H3	0.258100	0.933600	0.513900
Cu21	Cu2	0.295140	0.999220	0.765900
O71	O7	0.038200	0.945600	0.827700
O81	O8	0.187500	0.812700	0.722300
O91	O9	0.485200	0.898500	0.686000
O101	O10	0.628900	0.699600	0.673400
O111	O11	0.316200	0.895600	0.926700
O121	O12	0.256500	0.888000	0.115900
C41	C4	0.075900	0.827900	0.767600
H41	H4	0.016100	0.744600	0.755500
C51	C5	0.531200	0.767500	0.717200
H51	H5	0.488700	0.714500	0.779500
C61	C6	0.269100	0.959500	0.018600
H61	H6	0.241900	0.066400	0.013900
Cu31	Cu3	0.795140	0.500780	0.234100
O131	O13	0.538200	0.554400	0.172300
O141	O14	0.687500	0.687300	0.277700
O151	O15	0.985200	0.601500	0.314000
O161	O16	0.128900	0.800400	0.326600
O171	O17	0.816200	0.604400	0.073300
O181	O18	0.756500	0.612000	0.884100
C71	C7	0.575900	0.672100	0.232400
H71	H7	0.516100	0.755400	0.244500
C81	C8	0.031200	0.732500	0.282800
H81	H8	0.988700	0.785500	0.220500
C91	C9	0.769100	0.540500	0.981400
H91	H9	0.741900	0.433600	0.986100
Cu41	Cu4	0.704860	0.499220	0.734100
O191	O19	0.961800	0.445600	0.672300
O201	O20	0.812500	0.312700	0.777700
O211	O21	0.514800	0.398500	0.814000
O221	O22	0.371100	0.199600	0.826600
O231	O23	0.683800	0.395600	0.573300
O241	O24	0.743500	0.388000	0.384100
C101	C10	0.924100	0.327900	0.732400
H101	H10	0.983900	0.244600	0.744500
C111	C11	0.468800	0.267500	0.782800
H111	H11	0.511300	0.214500	0.720500
C121	C12	0.730900	0.459500	0.481400
H121	H12	0.758100	0.566400	0.486100
