data_MAGVOG35_freeONLY_PM
_symmetry_space_group_name_H-M	'P1'
_cell_length_a	10.430500
_cell_length_b	10.527200
_cell_length_c	6.295600
_cell_angle_alpha	90.000000
_cell_angle_beta	115.160000
_cell_angle_gamma	90.000000
_symmetry_Int_Tables_number 1

loop_
_symmetry_equiv_pos_as_xyz
'x,y,z'

loop_
_atom_site_label
_atom_site_type_symbol
_atom_site_fract_x
_atom_site_fract_y
_atom_site_fract_z
C11	C1	0.316400	0.210400	0.546100
H11	H1	0.397200	0.265200	0.577300
H21	H2	0.328600	0.171700	0.693300
N11	N1	0.313000	0.110400	0.381400
H31	H3	0.298700	0.146600	0.243600
H41	H4	0.239000	0.058800	0.355600
C21	C2	0.816400	0.710400	0.546100
H51	H5	0.897200	0.765200	0.577300
H61	H6	0.828600	0.671700	0.693300
N21	N2	0.813000	0.610400	0.381400
H71	H7	0.798700	0.646600	0.243600
H81	H8	0.739000	0.558800	0.355600
C31	C3	0.683600	0.210400	0.953900
H91	H9	0.602800	0.265200	0.922700
H101	H10	0.671400	0.171700	0.806700
N31	N3	0.687000	0.110400	0.118600
H111	H11	0.701300	0.146600	0.256400
H121	H12	0.761000	0.058800	0.144400
C41	C4	0.183600	0.710400	0.953900
H131	H13	0.102800	0.765200	0.922700
H141	H14	0.171400	0.671700	0.806700
N41	N4	0.187000	0.610400	0.118600
H151	H15	0.201300	0.646600	0.256400
H161	H16	0.261000	0.558800	0.144400
C51	C5	0.683600	0.789600	0.453900
H171	H17	0.602800	0.734800	0.422700
H181	H18	0.671400	0.828300	0.306700
N51	N5	0.687000	0.889600	0.618600
H191	H19	0.701300	0.853400	0.756400
H201	H20	0.761000	0.941200	0.644400
C61	C6	0.183600	0.289600	0.453900
H211	H21	0.102800	0.234800	0.422700
H221	H22	0.171400	0.328300	0.306700
N61	N6	0.187000	0.389600	0.618600
H231	H23	0.201300	0.353400	0.756400
H241	H24	0.261000	0.441200	0.644400
C71	C7	0.316400	0.789600	0.046100
H251	H25	0.397200	0.734800	0.077300
H261	H26	0.328600	0.828300	0.193300
N71	N7	0.313000	0.889600	0.881400
H271	H27	0.298700	0.853400	0.743600
H281	H28	0.239000	0.941200	0.855600
C81	C8	0.816400	0.289600	0.046100
H291	H29	0.897200	0.234800	0.077300
H301	H30	0.828600	0.328300	0.193300
N81	N8	0.813000	0.389600	0.881400
H311	H31	0.798700	0.353400	0.743600
H321	H32	0.739000	0.441200	0.855600
Ag11	Ag1	0.500000	0.000000	0.500000
Ag21	Ag2	0.000000	0.500000	0.500000
Ag31	Ag3	0.500000	0.000000	0.000000
Ag41	Ag4	0.000000	0.500000	0.000000
