data_MAGVOG04_freeONLY_PM
_symmetry_space_group_name_H-M	'P1'
_cell_length_a	10.574000
_cell_length_b	10.345000
_cell_length_c	6.166000
_cell_angle_alpha	90.000000
_cell_angle_beta	114.850000
_cell_angle_gamma	90.000000
_symmetry_Int_Tables_number 1

loop_
_symmetry_equiv_pos_as_xyz
'x,y,z'

loop_
_atom_site_label
_atom_site_type_symbol
_atom_site_fract_x
_atom_site_fract_y
_atom_site_fract_z
C11	C1	0.316100	0.211700	0.548000
H11	H1	0.332300	0.175700	0.702600
H21	H2	0.394200	0.267200	0.567600
N11	N1	0.303900	0.107300	0.379300
H31	H3	0.282900	0.140800	0.233500
H41	H4	0.234700	0.053400	0.368300
C21	C2	0.816100	0.711700	0.548000
H51	H5	0.832300	0.675700	0.702600
H61	H6	0.894200	0.767200	0.567600
N21	N2	0.803900	0.607300	0.379300
H71	H7	0.782900	0.640800	0.233500
H81	H8	0.734700	0.553400	0.368300
C31	C3	0.683900	0.211700	0.952000
H91	H9	0.667700	0.175700	0.797400
H101	H10	0.605800	0.267200	0.932400
N31	N3	0.696100	0.107300	0.120700
H111	H11	0.717100	0.140800	0.266500
H121	H12	0.765300	0.053400	0.131700
C41	C4	0.183900	0.711700	0.952000
H131	H13	0.167700	0.675700	0.797400
H141	H14	0.105800	0.767200	0.932400
N41	N4	0.196100	0.607300	0.120700
H151	H15	0.217100	0.640800	0.266500
H161	H16	0.265300	0.553400	0.131700
C51	C5	0.683900	0.788300	0.452000
H171	H17	0.667700	0.824300	0.297400
H181	H18	0.605800	0.732800	0.432400
N51	N5	0.696100	0.892700	0.620700
H191	H19	0.717100	0.859200	0.766500
H201	H20	0.765300	0.946600	0.631700
C61	C6	0.183900	0.288300	0.452000
H211	H21	0.167700	0.324300	0.297400
H221	H22	0.105800	0.232800	0.432400
N61	N6	0.196100	0.392700	0.620700
H231	H23	0.217100	0.359200	0.766500
H241	H24	0.265300	0.446600	0.631700
C71	C7	0.316100	0.788300	0.048000
H251	H25	0.332300	0.824300	0.202600
H261	H26	0.394200	0.732800	0.067600
N71	N7	0.303900	0.892700	0.879300
H271	H27	0.282900	0.859200	0.733500
H281	H28	0.234700	0.946600	0.868300
C81	C8	0.816100	0.288300	0.048000
H291	H29	0.832300	0.324300	0.202600
H301	H30	0.894200	0.232800	0.067600
N81	N8	0.803900	0.392700	0.879300
H311	H31	0.782900	0.359200	0.733500
H321	H32	0.734700	0.446600	0.868300
Ag11	Ag1	0.500000	0.000000	0.500000
Ag21	Ag2	0.000000	0.500000	0.500000
Ag31	Ag3	0.500000	0.000000	0.000000
Ag41	Ag4	0.000000	0.500000	0.000000
