data_MAGVOG08_freeONLY_PM
_symmetry_space_group_name_H-M	'P1'
_cell_length_a	20.878000
_cell_length_b	19.789000
_cell_length_c	6.165300
_cell_angle_alpha	90.000000
_cell_angle_beta	114.429000
_cell_angle_gamma	90.000000
_symmetry_Int_Tables_number 1

loop_
_symmetry_equiv_pos_as_xyz
'x,y,z'

loop_
_atom_site_label
_atom_site_type_symbol
_atom_site_fract_x
_atom_site_fract_y
_atom_site_fract_z
N11	N1	0.600400	0.047300	0.116000
H11	H1	0.615200	0.059600	0.269300
H21	H2	0.631700	0.017700	0.104900
N21	N2	0.666900	0.198800	0.898000
H31	H3	0.631500	0.226400	0.887300
H41	H4	0.657100	0.183300	0.750300
N31	N3	0.849400	0.196300	0.619200
H51	H5	0.883900	0.224700	0.627100
H61	H6	0.860500	0.178600	0.764800
N41	N4	0.909600	0.054600	0.388000
H71	H7	0.901100	0.072900	0.244600
H81	H8	0.873600	0.026800	0.369200
C11	C1	0.596800	0.106500	0.971000
H91	H9	0.563200	0.138400	0.983600
H101	H10	0.580500	0.093200	0.805700
C21	C2	0.667600	0.140300	0.050000
H111	H11	0.682600	0.155600	0.213300
H121	H12	0.701700	0.107400	0.047200
C31	C3	0.840700	0.141500	0.443000
H131	H13	0.831100	0.159400	0.286200
H141	H14	0.803900	0.110000	0.432000
C41	C4	0.912700	0.109500	0.557000
H151	H15	0.949200	0.142000	0.572700
H161	H16	0.921500	0.091300	0.712600
N51	N5	0.100400	0.547300	0.116000
H171	H17	0.115200	0.559600	0.269300
H181	H18	0.131700	0.517700	0.104900
N61	N6	0.166900	0.698800	0.898000
H191	H19	0.131500	0.726400	0.887300
H201	H20	0.157100	0.683300	0.750300
N71	N7	0.349400	0.696300	0.619200
H211	H21	0.383900	0.724700	0.627100
H221	H22	0.360500	0.678600	0.764800
N81	N8	0.409600	0.554600	0.388000
H231	H23	0.401100	0.572900	0.244600
H241	H24	0.373600	0.526800	0.369200
C51	C5	0.096800	0.606500	0.971000
H251	H25	0.063200	0.638400	0.983600
H261	H26	0.080500	0.593200	0.805700
C61	C6	0.167600	0.640300	0.050000
H271	H27	0.182600	0.655600	0.213300
H281	H28	0.201700	0.607400	0.047200
C71	C7	0.340700	0.641500	0.443000
H291	H29	0.331100	0.659400	0.286200
H301	H30	0.303900	0.610000	0.432000
C81	C8	0.412700	0.609500	0.557000
H311	H31	0.449200	0.642000	0.572700
H321	H32	0.421500	0.591300	0.712600
N91	N9	0.399600	0.047300	0.384000
H331	H33	0.384800	0.059600	0.230700
H341	H34	0.368300	0.017700	0.395100
N101	N10	0.333100	0.198800	0.602000
H351	H35	0.368500	0.226400	0.612700
H361	H36	0.342900	0.183300	0.749700
N111	N11	0.150600	0.196300	0.880800
H371	H37	0.116100	0.224700	0.872900
H381	H38	0.139500	0.178600	0.735200
N121	N12	0.090400	0.054600	0.112000
H391	H39	0.098900	0.072900	0.255400
H401	H40	0.126400	0.026800	0.130800
C91	C9	0.403200	0.106500	0.529000
H411	H41	0.436800	0.138400	0.516400
H421	H42	0.419500	0.093200	0.694300
C101	C10	0.332400	0.140300	0.450000
H431	H43	0.317400	0.155600	0.286700
H441	H44	0.298300	0.107400	0.452800
C111	C11	0.159300	0.141500	0.057000
H451	H45	0.168900	0.159400	0.213800
H461	H46	0.196100	0.110000	0.068000
C121	C12	0.087300	0.109500	0.943000
H471	H47	0.050800	0.142000	0.927300
H481	H48	0.078500	0.091300	0.787400
N131	N13	0.899600	0.547300	0.384000
H491	H49	0.884800	0.559600	0.230700
H501	H50	0.868300	0.517700	0.395100
N141	N14	0.833100	0.698800	0.602000
H511	H51	0.868500	0.726400	0.612700
H521	H52	0.842900	0.683300	0.749700
N151	N15	0.650600	0.696300	0.880800
H531	H53	0.616100	0.724700	0.872900
H541	H54	0.639500	0.678600	0.735200
N161	N16	0.590400	0.554600	0.112000
H551	H55	0.598900	0.572900	0.255400
H561	H56	0.626400	0.526800	0.130800
C131	C13	0.903200	0.606500	0.529000
H571	H57	0.936800	0.638400	0.516400
H581	H58	0.919500	0.593200	0.694300
C141	C14	0.832400	0.640300	0.450000
H591	H59	0.817400	0.655600	0.286700
H601	H60	0.798300	0.607400	0.452800
C151	C15	0.659300	0.641500	0.057000
H611	H61	0.668900	0.659400	0.213800
H621	H62	0.696100	0.610000	0.068000
C161	C16	0.587300	0.609500	0.943000
H631	H63	0.550800	0.642000	0.927300
H641	H64	0.578500	0.591300	0.787400
N171	N17	0.399600	0.952700	0.884000
H651	H65	0.384800	0.940400	0.730700
H661	H66	0.368300	0.982300	0.895100
N181	N18	0.333100	0.801200	0.102000
H671	H67	0.368500	0.773600	0.112700
H681	H68	0.342900	0.816700	0.249700
N191	N19	0.150600	0.803700	0.380800
H691	H69	0.116100	0.775300	0.372900
H701	H70	0.139500	0.821400	0.235200
N201	N20	0.090400	0.945400	0.612000
H711	H71	0.098900	0.927100	0.755400
H721	H72	0.126400	0.973200	0.630800
C171	C17	0.403200	0.893500	0.029000
H731	H73	0.436800	0.861600	0.016400
H741	H74	0.419500	0.906800	0.194300
C181	C18	0.332400	0.859700	0.950000
H751	H75	0.317400	0.844400	0.786700
H761	H76	0.298300	0.892600	0.952800
C191	C19	0.159300	0.858500	0.557000
H771	H77	0.168900	0.840600	0.713800
H781	H78	0.196100	0.890000	0.568000
C201	C20	0.087300	0.890500	0.443000
H791	H79	0.050800	0.858000	0.427300
H801	H80	0.078500	0.908700	0.287400
N211	N21	0.899600	0.452700	0.884000
H811	H81	0.884800	0.440400	0.730700
H821	H82	0.868300	0.482300	0.895100
N221	N22	0.833100	0.301200	0.102000
H831	H83	0.868500	0.273600	0.112700
H841	H84	0.842900	0.316700	0.249700
N231	N23	0.650600	0.303700	0.380800
H851	H85	0.616100	0.275300	0.372900
H861	H86	0.639500	0.321400	0.235200
N241	N24	0.590400	0.445400	0.612000
H871	H87	0.598900	0.427100	0.755400
H881	H88	0.626400	0.473200	0.630800
C211	C21	0.903200	0.393500	0.029000
H891	H89	0.936800	0.361600	0.016400
H901	H90	0.919500	0.406800	0.194300
C221	C22	0.832400	0.359700	0.950000
H911	H91	0.817400	0.344400	0.786700
H921	H92	0.798300	0.392600	0.952800
C231	C23	0.659300	0.358500	0.557000
H931	H93	0.668900	0.340600	0.713800
H941	H94	0.696100	0.390000	0.568000
C241	C24	0.587300	0.390500	0.443000
H951	H95	0.550800	0.358000	0.427300
H961	H96	0.578500	0.408700	0.287400
N251	N25	0.600400	0.952700	0.616000
H971	H97	0.615200	0.940400	0.769300
H981	H98	0.631700	0.982300	0.604900
N261	N26	0.666900	0.801200	0.398000
H991	H99	0.631500	0.773600	0.387300
H1001	H100	0.657100	0.816700	0.250300
N271	N27	0.849400	0.803700	0.119200
H1011	H101	0.883900	0.775300	0.127100
H1021	H102	0.860500	0.821400	0.264800
N281	N28	0.909600	0.945400	0.888000
H1031	H103	0.901100	0.927100	0.744600
H1041	H104	0.873600	0.973200	0.869200
C251	C25	0.596800	0.893500	0.471000
H1051	H105	0.563200	0.861600	0.483600
H1061	H106	0.580500	0.906800	0.305700
C261	C26	0.667600	0.859700	0.550000
H1071	H107	0.682600	0.844400	0.713300
H1081	H108	0.701700	0.892600	0.547200
C271	C27	0.840700	0.858500	0.943000
H1091	H109	0.831100	0.840600	0.786200
H1101	H110	0.803900	0.890000	0.932000
C281	C28	0.912700	0.890500	0.057000
H1111	H111	0.949200	0.858000	0.072700
H1121	H112	0.921500	0.908700	0.212600
N291	N29	0.100400	0.452700	0.616000
H1131	H113	0.115200	0.440400	0.769300
H1141	H114	0.131700	0.482300	0.604900
N301	N30	0.166900	0.301200	0.398000
H1151	H115	0.131500	0.273600	0.387300
H1161	H116	0.157100	0.316700	0.250300
N311	N31	0.349400	0.303700	0.119200
H1171	H117	0.383900	0.275300	0.127100
H1181	H118	0.360500	0.321400	0.264800
N321	N32	0.409600	0.445400	0.888000
H1191	H119	0.401100	0.427100	0.744600
H1201	H120	0.373600	0.473200	0.869200
C291	C29	0.096800	0.393500	0.471000
H1211	H121	0.063200	0.361600	0.483600
H1221	H122	0.080500	0.406800	0.305700
C301	C30	0.167600	0.359700	0.550000
H1231	H123	0.182600	0.344400	0.713300
H1241	H124	0.201700	0.392600	0.547200
C311	C31	0.340700	0.358500	0.943000
H1251	H125	0.331100	0.340600	0.786200
H1261	H126	0.303900	0.390000	0.932000
C321	C32	0.412700	0.390500	0.057000
H1271	H127	0.449200	0.358000	0.072700
H1281	H128	0.421500	0.408700	0.212600
Ag11	Ag1	0.500000	0.000000	0.000000
Ag21	Ag2	0.000000	0.500000	0.000000
Ag31	Ag3	0.500000	0.000000	0.500000
Ag41	Ag4	0.000000	0.500000	0.500000
Ag51	Ag5	0.750000	0.250000	0.000000
Ag61	Ag6	0.250000	0.250000	0.500000
Ag71	Ag7	0.250000	0.750000	0.000000
Ag81	Ag8	0.750000	0.750000	0.500000
Ag91	Ag9	0.750000	0.250000	0.500000
Ag101	Ag10	0.250000	0.250000	0.000000
Ag111	Ag11	0.250000	0.750000	0.500000
Ag121	Ag12	0.750000	0.750000	0.000000
Ag131	Ag13	0.000000	0.000000	0.500000
Ag141	Ag14	0.500000	0.500000	0.500000
Ag151	Ag15	0.000000	0.000000	0.000000
Ag161	Ag16	0.500000	0.500000	0.000000
