data_MAGVOG13_freeONLY_PM
_symmetry_space_group_name_H-M	'P1'
_cell_length_a	20.264000
_cell_length_b	19.640000
_cell_length_c	5.975700
_cell_angle_alpha	90.000000
_cell_angle_beta	113.840000
_cell_angle_gamma	90.000000
_symmetry_Int_Tables_number 1

loop_
_symmetry_equiv_pos_as_xyz
'x,y,z'

loop_
_atom_site_label
_atom_site_type_symbol
_atom_site_fract_x
_atom_site_fract_y
_atom_site_fract_z
N11	N1	0.603300	0.044100	0.134000
H11	H1	0.617000	0.058800	0.289000
H21	H2	0.636600	0.015100	0.125600
N21	N2	0.640000	0.209100	0.879000
H31	H3	0.610000	0.239200	0.902600
H41	H4	0.622200	0.196500	0.721100
N31	N3	0.851800	0.199800	0.624000
H51	H5	0.885900	0.227500	0.613100
H61	H6	0.865900	0.185800	0.779600
N41	N4	0.901500	0.051600	0.376900
H71	H7	0.890200	0.068300	0.225600
H81	H8	0.866000	0.023300	0.372800
C11	C1	0.590200	0.100500	0.963000
H91	H9	0.547200	0.124800	0.950400
H101	H10	0.582000	0.082800	0.802500
C21	C2	0.653200	0.149000	0.045000
H111	H11	0.662800	0.164800	0.209000
H121	H12	0.695700	0.125000	0.050900
C31	C3	0.838300	0.142300	0.458000
H131	H13	0.824000	0.157200	0.290200
H141	H14	0.801500	0.112500	0.468000
C41	C4	0.911000	0.107900	0.554000
H151	H15	0.948300	0.139200	0.556200
H161	H16	0.923400	0.090400	0.717500
N51	N5	0.103300	0.544100	0.134000
H171	H17	0.117000	0.558800	0.289000
H181	H18	0.136600	0.515100	0.125600
N61	N6	0.140000	0.709100	0.879000
H191	H19	0.110000	0.739200	0.902600
H201	H20	0.122200	0.696500	0.721100
N71	N7	0.351800	0.699800	0.624000
H211	H21	0.385900	0.727500	0.613100
H221	H22	0.365900	0.685800	0.779600
N81	N8	0.401500	0.551600	0.376900
H231	H23	0.390200	0.568300	0.225600
H241	H24	0.366000	0.523300	0.372800
C51	C5	0.090200	0.600500	0.963000
H251	H25	0.047200	0.624800	0.950400
H261	H26	0.082000	0.582800	0.802500
C61	C6	0.153200	0.649000	0.045000
H271	H27	0.162800	0.664800	0.209000
H281	H28	0.195700	0.625000	0.050900
C71	C7	0.338300	0.642300	0.458000
H291	H29	0.324000	0.657200	0.290200
H301	H30	0.301500	0.612500	0.468000
C81	C8	0.411000	0.607900	0.554000
H311	H31	0.448300	0.639200	0.556200
H321	H32	0.423400	0.590400	0.717500
N91	N9	0.396700	0.044100	0.366000
H331	H33	0.383000	0.058800	0.211000
H341	H34	0.363400	0.015100	0.374400
N101	N10	0.360000	0.209100	0.621000
H351	H35	0.390000	0.239200	0.597400
H361	H36	0.377800	0.196500	0.778900
N111	N11	0.148200	0.199800	0.876000
H371	H37	0.114100	0.227500	0.886900
H381	H38	0.134100	0.185800	0.720400
N121	N12	0.098500	0.051600	0.123100
H391	H39	0.109800	0.068300	0.274400
H401	H40	0.134000	0.023300	0.127200
C91	C9	0.409800	0.100500	0.537000
H411	H41	0.452800	0.124800	0.549600
H421	H42	0.418000	0.082800	0.697500
C101	C10	0.346800	0.149000	0.455000
H431	H43	0.337200	0.164800	0.291000
H441	H44	0.304300	0.125000	0.449100
C111	C11	0.161700	0.142300	0.042000
H451	H45	0.176000	0.157200	0.209800
H461	H46	0.198500	0.112500	0.032000
C121	C12	0.089000	0.107900	0.946000
H471	H47	0.051700	0.139200	0.943800
H481	H48	0.076600	0.090400	0.782500
N131	N13	0.896700	0.544100	0.366000
H491	H49	0.883000	0.558800	0.211000
H501	H50	0.863400	0.515100	0.374400
N141	N14	0.860000	0.709100	0.621000
H511	H51	0.890000	0.739200	0.597400
H521	H52	0.877800	0.696500	0.778900
N151	N15	0.648200	0.699800	0.876000
H531	H53	0.614100	0.727500	0.886900
H541	H54	0.634100	0.685800	0.720400
N161	N16	0.598500	0.551600	0.123100
H551	H55	0.609800	0.568300	0.274400
H561	H56	0.634000	0.523300	0.127200
C131	C13	0.909800	0.600500	0.537000
H571	H57	0.952800	0.624800	0.549600
H581	H58	0.918000	0.582800	0.697500
C141	C14	0.846800	0.649000	0.455000
H591	H59	0.837200	0.664800	0.291000
H601	H60	0.804300	0.625000	0.449100
C151	C15	0.661700	0.642300	0.042000
H611	H61	0.676000	0.657200	0.209800
H621	H62	0.698500	0.612500	0.032000
C161	C16	0.589000	0.607900	0.946000
H631	H63	0.551700	0.639200	0.943800
H641	H64	0.576600	0.590400	0.782500
N171	N17	0.396700	0.955900	0.866000
H651	H65	0.383000	0.941200	0.711000
H661	H66	0.363400	0.984900	0.874400
N181	N18	0.360000	0.790900	0.121000
H671	H67	0.390000	0.760800	0.097400
H681	H68	0.377800	0.803500	0.278900
N191	N19	0.148200	0.800200	0.376000
H691	H69	0.114100	0.772500	0.386900
H701	H70	0.134100	0.814200	0.220400
N201	N20	0.098500	0.948400	0.623100
H711	H71	0.109800	0.931700	0.774400
H721	H72	0.134000	0.976700	0.627200
C171	C17	0.409800	0.899500	0.037000
H731	H73	0.452800	0.875200	0.049600
H741	H74	0.418000	0.917200	0.197500
C181	C18	0.346800	0.851000	0.955000
H751	H75	0.337200	0.835200	0.791000
H761	H76	0.304300	0.875000	0.949100
C191	C19	0.161700	0.857700	0.542000
H771	H77	0.176000	0.842800	0.709800
H781	H78	0.198500	0.887500	0.532000
C201	C20	0.089000	0.892100	0.446000
H791	H79	0.051700	0.860800	0.443800
H801	H80	0.076600	0.909600	0.282500
N211	N21	0.896700	0.455900	0.866000
H811	H81	0.883000	0.441200	0.711000
H821	H82	0.863400	0.484900	0.874400
N221	N22	0.860000	0.290900	0.121000
H831	H83	0.890000	0.260800	0.097400
H841	H84	0.877800	0.303500	0.278900
N231	N23	0.648200	0.300200	0.376000
H851	H85	0.614100	0.272500	0.386900
H861	H86	0.634100	0.314200	0.220400
N241	N24	0.598500	0.448400	0.623100
H871	H87	0.609800	0.431700	0.774400
H881	H88	0.634000	0.476700	0.627200
C211	C21	0.909800	0.399500	0.037000
H891	H89	0.952800	0.375200	0.049600
H901	H90	0.918000	0.417200	0.197500
C221	C22	0.846800	0.351000	0.955000
H911	H91	0.837200	0.335200	0.791000
H921	H92	0.804300	0.375000	0.949100
C231	C23	0.661700	0.357700	0.542000
H931	H93	0.676000	0.342800	0.709800
H941	H94	0.698500	0.387500	0.532000
C241	C24	0.589000	0.392100	0.446000
H951	H95	0.551700	0.360800	0.443800
H961	H96	0.576600	0.409600	0.282500
N251	N25	0.603300	0.955900	0.634000
H971	H97	0.617000	0.941200	0.789000
H981	H98	0.636600	0.984900	0.625600
N261	N26	0.640000	0.790900	0.379000
H991	H99	0.610000	0.760800	0.402600
H1001	H100	0.622200	0.803500	0.221100
N271	N27	0.851800	0.800200	0.124000
H1011	H101	0.885900	0.772500	0.113100
H1021	H102	0.865900	0.814200	0.279600
N281	N28	0.901500	0.948400	0.876900
H1031	H103	0.890200	0.931700	0.725600
H1041	H104	0.866000	0.976700	0.872800
C251	C25	0.590200	0.899500	0.463000
H1051	H105	0.547200	0.875200	0.450400
H1061	H106	0.582000	0.917200	0.302500
C261	C26	0.653200	0.851000	0.545000
H1071	H107	0.662800	0.835200	0.709000
H1081	H108	0.695700	0.875000	0.550900
C271	C27	0.838300	0.857700	0.958000
H1091	H109	0.824000	0.842800	0.790200
H1101	H110	0.801500	0.887500	0.968000
C281	C28	0.911000	0.892100	0.054000
H1111	H111	0.948300	0.860800	0.056200
H1121	H112	0.923400	0.909600	0.217500
N291	N29	0.103300	0.455900	0.634000
H1131	H113	0.117000	0.441200	0.789000
H1141	H114	0.136600	0.484900	0.625600
N301	N30	0.140000	0.290900	0.379000
H1151	H115	0.110000	0.260800	0.402600
H1161	H116	0.122200	0.303500	0.221100
N311	N31	0.351800	0.300200	0.124000
H1171	H117	0.385900	0.272500	0.113100
H1181	H118	0.365900	0.314200	0.279600
N321	N32	0.401500	0.448400	0.876900
H1191	H119	0.390200	0.431700	0.725600
H1201	H120	0.366000	0.476700	0.872800
C291	C29	0.090200	0.399500	0.463000
H1211	H121	0.047200	0.375200	0.450400
H1221	H122	0.082000	0.417200	0.302500
C301	C30	0.153200	0.351000	0.545000
H1231	H123	0.162800	0.335200	0.709000
H1241	H124	0.195700	0.375000	0.550900
C311	C31	0.338300	0.357700	0.958000
H1251	H125	0.324000	0.342800	0.790200
H1261	H126	0.301500	0.387500	0.968000
C321	C32	0.411000	0.392100	0.054000
H1271	H127	0.448300	0.360800	0.056200
H1281	H128	0.423400	0.409600	0.217500
Ag11	Ag1	0.500000	0.000000	0.000000
Ag21	Ag2	0.000000	0.500000	0.000000
Ag31	Ag3	0.500000	0.000000	0.500000
Ag41	Ag4	0.000000	0.500000	0.500000
Ag51	Ag5	0.750000	0.250000	0.000000
Ag61	Ag6	0.250000	0.250000	0.500000
Ag71	Ag7	0.250000	0.750000	0.000000
Ag81	Ag8	0.750000	0.750000	0.500000
Ag91	Ag9	0.750000	0.250000	0.500000
Ag101	Ag10	0.250000	0.250000	0.000000
Ag111	Ag11	0.250000	0.750000	0.500000
Ag121	Ag12	0.750000	0.750000	0.000000
Ag131	Ag13	0.000000	0.000000	0.500000
Ag141	Ag14	0.500000	0.500000	0.500000
Ag151	Ag15	0.000000	0.000000	0.000000
Ag161	Ag16	0.500000	0.500000	0.000000
