data_MAGVOG27_freeONLY_PM
_symmetry_space_group_name_H-M	'P1'
_cell_length_a	10.287500
_cell_length_b	10.612500
_cell_length_c	6.240000
_cell_angle_alpha	90.000000
_cell_angle_beta	114.688000
_cell_angle_gamma	90.000000
_symmetry_Int_Tables_number 1

loop_
_symmetry_equiv_pos_as_xyz
'x,y,z'

loop_
_atom_site_label
_atom_site_type_symbol
_atom_site_fract_x
_atom_site_fract_y
_atom_site_fract_z
C11	C1	0.317400	0.210900	0.545200
H11	H1	0.400100	0.266100	0.570300
H21	H2	0.332400	0.173700	0.699200
N11	N1	0.311100	0.109300	0.380600
H31	H3	0.295400	0.144100	0.236800
H41	H4	0.234900	0.057500	0.359200
C21	C2	0.817400	0.710900	0.545200
H51	H5	0.900100	0.766100	0.570300
H61	H6	0.832400	0.673700	0.699200
N21	N2	0.811100	0.609300	0.380600
H71	H7	0.795400	0.644100	0.236800
H81	H8	0.734900	0.557500	0.359200
C31	C3	0.682600	0.210900	0.954800
H91	H9	0.599900	0.266100	0.929700
H101	H10	0.667600	0.173700	0.800800
N31	N3	0.688900	0.109300	0.119400
H111	H11	0.704600	0.144100	0.263200
H121	H12	0.765100	0.057500	0.140800
C41	C4	0.182600	0.710900	0.954800
H131	H13	0.099900	0.766100	0.929700
H141	H14	0.167600	0.673700	0.800800
N41	N4	0.188900	0.609300	0.119400
H151	H15	0.204600	0.644100	0.263200
H161	H16	0.265100	0.557500	0.140800
C51	C5	0.682600	0.789100	0.454800
H171	H17	0.599900	0.733900	0.429700
H181	H18	0.667600	0.826300	0.300800
N51	N5	0.688900	0.890700	0.619400
H191	H19	0.704600	0.855900	0.763200
H201	H20	0.765100	0.942500	0.640800
C61	C6	0.182600	0.289100	0.454800
H211	H21	0.099900	0.233900	0.429700
H221	H22	0.167600	0.326300	0.300800
N61	N6	0.188900	0.390700	0.619400
H231	H23	0.204600	0.355900	0.763200
H241	H24	0.265100	0.442500	0.640800
C71	C7	0.317400	0.789100	0.045200
H251	H25	0.400100	0.733900	0.070300
H261	H26	0.332400	0.826300	0.199200
N71	N7	0.311100	0.890700	0.880600
H271	H27	0.295400	0.855900	0.736800
H281	H28	0.234900	0.942500	0.859200
C81	C8	0.817400	0.289100	0.045200
H291	H29	0.900100	0.233900	0.070300
H301	H30	0.832400	0.326300	0.199200
N81	N8	0.811100	0.390700	0.880600
H311	H31	0.795400	0.355900	0.736800
H321	H32	0.734900	0.442500	0.859200
Ag11	Ag1	0.500000	0.000000	0.500000
Ag21	Ag2	0.000000	0.500000	0.500000
Ag31	Ag3	0.500000	0.000000	0.000000
Ag41	Ag4	0.000000	0.500000	0.000000
