data_MAGVOG33_freeONLY_PM
_symmetry_space_group_name_H-M	'P1'
_cell_length_a	10.402100
_cell_length_b	10.541000
_cell_length_c	6.283200
_cell_angle_alpha	90.000000
_cell_angle_beta	115.060000
_cell_angle_gamma	90.000000
_symmetry_Int_Tables_number 1

loop_
_symmetry_equiv_pos_as_xyz
'x,y,z'

loop_
_atom_site_label
_atom_site_type_symbol
_atom_site_fract_x
_atom_site_fract_y
_atom_site_fract_z
C11	C1	0.316700	0.210500	0.545900
H11	H1	0.397500	0.265200	0.575500
H21	H2	0.329500	0.172200	0.693900
N11	N1	0.312300	0.110200	0.380800
H31	H3	0.297800	0.146000	0.242400
H41	H4	0.238300	0.058800	0.356100
C21	C2	0.816700	0.710500	0.545900
H51	H5	0.897500	0.765200	0.575500
H61	H6	0.829500	0.672200	0.693900
N21	N2	0.812300	0.610200	0.380800
H71	H7	0.797800	0.646000	0.242400
H81	H8	0.738300	0.558800	0.356100
C31	C3	0.683300	0.210500	0.954100
H91	H9	0.602500	0.265200	0.924500
H101	H10	0.670500	0.172200	0.806100
N31	N3	0.687700	0.110200	0.119200
H111	H11	0.702200	0.146000	0.257600
H121	H12	0.761700	0.058800	0.143900
C41	C4	0.183300	0.710500	0.954100
H131	H13	0.102500	0.765200	0.924500
H141	H14	0.170500	0.672200	0.806100
N41	N4	0.187700	0.610200	0.119200
H151	H15	0.202200	0.646000	0.257600
H161	H16	0.261700	0.558800	0.143900
C51	C5	0.683300	0.789500	0.454100
H171	H17	0.602500	0.734800	0.424500
H181	H18	0.670500	0.827800	0.306100
N51	N5	0.687700	0.889800	0.619200
H191	H19	0.702200	0.854000	0.757600
H201	H20	0.761700	0.941200	0.643900
C61	C6	0.183300	0.289500	0.454100
H211	H21	0.102500	0.234800	0.424500
H221	H22	0.170500	0.327800	0.306100
N61	N6	0.187700	0.389800	0.619200
H231	H23	0.202200	0.354000	0.757600
H241	H24	0.261700	0.441200	0.643900
C71	C7	0.316700	0.789500	0.045900
H251	H25	0.397500	0.734800	0.075500
H261	H26	0.329500	0.827800	0.193900
N71	N7	0.312300	0.889800	0.880800
H271	H27	0.297800	0.854000	0.742400
H281	H28	0.238300	0.941200	0.856100
C81	C8	0.816700	0.289500	0.045900
H291	H29	0.897500	0.234800	0.075500
H301	H30	0.829500	0.327800	0.193900
N81	N8	0.812300	0.389800	0.880800
H311	H31	0.797800	0.354000	0.742400
H321	H32	0.738300	0.441200	0.856100
Ag11	Ag1	0.500000	0.000000	0.500000
Ag21	Ag2	0.000000	0.500000	0.500000
Ag31	Ag3	0.500000	0.000000	0.000000
Ag41	Ag4	0.000000	0.500000	0.000000
