data_MAGVOG21_freeONLY_PM
_symmetry_space_group_name_H-M	'P1'
_cell_length_a	10.508000
_cell_length_b	10.464000
_cell_length_c	6.336000
_cell_angle_alpha	90.000000
_cell_angle_beta	115.490000
_cell_angle_gamma	90.000000
_symmetry_Int_Tables_number 1

loop_
_symmetry_equiv_pos_as_xyz
'x,y,z'

loop_
_atom_site_label
_atom_site_type_symbol
_atom_site_fract_x
_atom_site_fract_y
_atom_site_fract_z
C11	C1	0.315100	0.209700	0.546100
H11	H1	0.396400	0.264600	0.583900
H21	H2	0.324600	0.168800	0.689600
N11	N1	0.315000	0.111600	0.382500
H31	H3	0.302100	0.149600	0.247400
H41	H4	0.241100	0.059300	0.351900
C21	C2	0.815100	0.709700	0.546100
H51	H5	0.896400	0.764600	0.583900
H61	H6	0.824600	0.668800	0.689600
N21	N2	0.815000	0.611600	0.382500
H71	H7	0.802100	0.649600	0.247400
H81	H8	0.741100	0.559300	0.351900
C31	C3	0.684900	0.209700	0.953900
H91	H9	0.603600	0.264600	0.916100
H101	H10	0.675400	0.168800	0.810400
N31	N3	0.685000	0.111600	0.117500
H111	H11	0.697900	0.149600	0.252600
H121	H12	0.758900	0.059300	0.148100
C41	C4	0.184900	0.709700	0.953900
H131	H13	0.103600	0.764600	0.916100
H141	H14	0.175400	0.668800	0.810400
N41	N4	0.185000	0.611600	0.117500
H151	H15	0.197900	0.649600	0.252600
H161	H16	0.258900	0.559300	0.148100
C51	C5	0.684900	0.790300	0.453900
H171	H17	0.603600	0.735400	0.416100
H181	H18	0.675400	0.831200	0.310400
N51	N5	0.685000	0.888400	0.617500
H191	H19	0.697900	0.850400	0.752600
H201	H20	0.758900	0.940700	0.648100
C61	C6	0.184900	0.290300	0.453900
H211	H21	0.103600	0.235400	0.416100
H221	H22	0.175400	0.331200	0.310400
N61	N6	0.185000	0.388400	0.617500
H231	H23	0.197900	0.350400	0.752600
H241	H24	0.258900	0.440700	0.648100
C71	C7	0.315100	0.790300	0.046100
H251	H25	0.396400	0.735400	0.083900
H261	H26	0.324600	0.831200	0.189600
N71	N7	0.315000	0.888400	0.882500
H271	H27	0.302100	0.850400	0.747400
H281	H28	0.241100	0.940700	0.851900
C81	C8	0.815100	0.290300	0.046100
H291	H29	0.896400	0.235400	0.083900
H301	H30	0.824600	0.331200	0.189600
N81	N8	0.815000	0.388400	0.882500
H311	H31	0.802100	0.350400	0.747400
H321	H32	0.741100	0.440700	0.851900
Ag11	Ag1	0.500000	0.000000	0.500000
Ag21	Ag2	0.000000	0.500000	0.500000
Ag31	Ag3	0.500000	0.000000	0.000000
Ag41	Ag4	0.000000	0.500000	0.000000
