data_MAJHOW_freeONLY_PM
_symmetry_space_group_name_H-M	'P1'
_cell_length_a	12.610000
_cell_length_b	18.003000
_cell_length_c	19.356000
_cell_angle_alpha	104.370000
_cell_angle_beta	90.000000
_cell_angle_gamma	90.000000
_symmetry_Int_Tables_number 1

loop_
_symmetry_equiv_pos_as_xyz
'x,y,z'

loop_
_atom_site_label
_atom_site_type_symbol
_atom_site_fract_x
_atom_site_fract_y
_atom_site_fract_z
Cu11	Cu1	0.742800	0.748490	0.010470
Cu21	Cu2	0.257900	0.757200	0.035270
Cu31	Cu3	0.242800	0.751510	0.489530
Cu41	Cu4	0.757900	0.742800	0.464730
Cu51	Cu5	0.257200	0.251510	0.989530
Cu61	Cu6	0.742100	0.242800	0.964730
Cu71	Cu7	0.757200	0.248490	0.510470
Cu81	Cu8	0.242100	0.257200	0.535270
H11	H1	0.038500	0.214200	0.587200
H21	H2	0.901400	0.130900	0.552500
H31	H3	0.066300	0.038200	0.373900
H41	H4	0.199100	0.122300	0.418400
H51	H5	0.808700	0.050300	0.437500
H61	H6	0.868000	0.985200	0.462400
H71	H7	0.940700	0.940500	0.348900
H81	H8	0.884400	0.007000	0.323600
H91	H9	0.717900	0.956400	0.349500
H101	H10	0.778800	0.886600	0.365200
H111	H11	0.621300	0.907800	0.242700
H121	H12	0.611100	0.842200	0.126700
H131	H13	0.923800	0.841800	0.243300
H141	H14	0.904700	0.780700	0.125300
H151	H15	0.678000	0.017800	0.984600
H161	H16	0.451200	0.280400	0.469300
H171	H17	0.586600	0.365700	0.486800
H181	H18	0.415000	0.499500	0.642700
H191	H19	0.285600	0.411800	0.619200
H201	H20	0.677200	0.473900	0.568000
H211	H21	0.600400	0.539300	0.559700
H221	H22	0.635000	0.498200	0.685800
H231	H23	0.560400	0.564500	0.677200
H241	H24	0.781100	0.567300	0.664300
H251	H25	0.706400	0.633700	0.655400
H261	H26	0.574000	0.670200	0.773400
H271	H27	0.585600	0.727800	0.892600
H281	H28	0.875200	0.600300	0.775100
H291	H29	0.876400	0.652800	0.895800
H301	H30	0.822700	0.477600	0.011300
H311	H31	0.538500	0.285800	0.912800
H321	H32	0.401400	0.369100	0.947500
H331	H33	0.566300	0.461800	0.126100
H341	H34	0.699100	0.377700	0.081600
H351	H35	0.308700	0.449700	0.062500
H361	H36	0.368000	0.514800	0.037600
H371	H37	0.440700	0.559500	0.151100
H381	H38	0.384400	0.493000	0.176400
H391	H39	0.217900	0.543600	0.150500
H401	H40	0.278800	0.613400	0.134800
H411	H41	0.121300	0.592200	0.257300
H421	H42	0.111100	0.657800	0.373300
H431	H43	0.423800	0.658200	0.256700
H441	H44	0.404700	0.719300	0.374700
H451	H45	0.178000	0.482200	0.515400
H461	H46	0.951200	0.219600	0.030700
H471	H47	0.086600	0.134300	0.013200
H481	H48	0.915000	0.000500	0.857300
H491	H49	0.785600	0.088200	0.880800
H501	H50	0.177200	0.026100	0.932000
H511	H51	0.100400	0.960700	0.940300
H521	H52	0.135000	0.001800	0.814200
H531	H53	0.060400	0.935500	0.822800
H541	H54	0.281100	0.932700	0.835700
H551	H55	0.206400	0.866300	0.844600
H561	H56	0.074000	0.829800	0.726600
H571	H57	0.085600	0.772200	0.607400
H581	H58	0.375200	0.899700	0.724900
H591	H59	0.376400	0.847200	0.604200
H601	H60	0.322700	0.022400	0.488700
H611	H61	0.961500	0.785800	0.412800
H621	H62	0.098600	0.869100	0.447500
H631	H63	0.933700	0.961800	0.626100
H641	H64	0.800900	0.877700	0.581600
H651	H65	0.191300	0.949700	0.562500
H661	H66	0.132000	0.014800	0.537600
H671	H67	0.059300	0.059500	0.651100
H681	H68	0.115600	0.993000	0.676400
H691	H69	0.282100	0.043600	0.650500
H701	H70	0.221200	0.113400	0.634800
H711	H71	0.378700	0.092200	0.757300
H721	H72	0.388900	0.157800	0.873300
H731	H73	0.076200	0.158200	0.756700
H741	H74	0.095300	0.219300	0.874700
H751	H75	0.322000	0.982200	0.015400
H761	H76	0.548800	0.719600	0.530700
H771	H77	0.413400	0.634300	0.513200
H781	H78	0.585000	0.500500	0.357300
H791	H79	0.714400	0.588200	0.380800
H801	H80	0.322800	0.526100	0.432000
H811	H81	0.399600	0.460700	0.440300
H821	H82	0.365000	0.501800	0.314200
H831	H83	0.439600	0.435500	0.322800
H841	H84	0.218900	0.432700	0.335700
H851	H85	0.293600	0.366300	0.344600
H861	H86	0.426000	0.329800	0.226600
H871	H87	0.414400	0.272200	0.107400
H881	H88	0.124800	0.399700	0.224900
H891	H89	0.123600	0.347200	0.104200
H901	H90	0.177300	0.522400	0.988700
H911	H91	0.461500	0.714200	0.087200
H921	H92	0.598600	0.630900	0.052500
H931	H93	0.433700	0.538200	0.873900
H941	H94	0.300900	0.622300	0.918400
H951	H95	0.691300	0.550300	0.937500
H961	H96	0.632000	0.485200	0.962400
H971	H97	0.559300	0.440500	0.848900
H981	H98	0.615600	0.507000	0.823600
H991	H99	0.782100	0.456400	0.849500
H1001	H100	0.721200	0.386600	0.865200
H1011	H101	0.878700	0.407800	0.742700
H1021	H102	0.888900	0.342200	0.626700
H1031	H103	0.576200	0.341800	0.743300
H1041	H104	0.595300	0.280700	0.625300
H1051	H105	0.822000	0.517800	0.484600
H1061	H106	0.048800	0.780400	0.969300
H1071	H107	0.913400	0.865700	0.986800
H1081	H108	0.085000	0.999500	0.142700
H1091	H109	0.214400	0.911800	0.119200
H1101	H110	0.822800	0.973900	0.068000
H1111	H111	0.899600	0.039300	0.059700
H1121	H112	0.865000	0.998200	0.185800
H1131	H113	0.939600	0.064500	0.177200
H1141	H114	0.718900	0.067300	0.164300
H1151	H115	0.793600	0.133700	0.155400
H1161	H116	0.926000	0.170200	0.273400
H1171	H117	0.914400	0.227800	0.392600
H1181	H118	0.624800	0.100300	0.275100
H1191	H119	0.623600	0.152800	0.395800
H1201	H120	0.677300	0.977600	0.511300
C11	C1	0.044000	0.177700	0.543900
C21	C2	0.960400	0.128300	0.523200
C31	C3	0.964800	0.073800	0.457200
C41	C4	0.058100	0.073100	0.417900
C51	C5	0.137200	0.124400	0.444900
C61	C6	0.873400	0.020200	0.431600
C71	C7	0.878400	0.973100	0.355300
C81	C8	0.779700	0.923900	0.336600
C91	C9	0.770800	0.881100	0.257700
C101	C10	0.680300	0.881200	0.220600
C111	C11	0.675400	0.842100	0.150200
C121	C12	0.859000	0.842500	0.220500
C131	C13	0.846500	0.806000	0.149900
C141	C14	0.648700	0.872500	0.977000
C151	C15	0.569300	0.937300	0.986600
C161	C16	0.605900	0.010800	0.990900
C171	C17	0.458900	0.926800	0.996000
C181	C18	0.408300	0.850600	0.986500
C191	C19	0.444500	0.325200	0.505400
C201	C20	0.526800	0.376300	0.515700
C211	C21	0.521600	0.443300	0.568600
C221	C22	0.425100	0.454700	0.607100
C231	C23	0.348200	0.401900	0.593100
C241	C24	0.611800	0.500300	0.585600
C251	C25	0.625700	0.537700	0.660200
C261	C26	0.715200	0.593700	0.680500
C271	C27	0.724300	0.629700	0.757300
C281	C28	0.637700	0.667700	0.796900
C291	C29	0.643800	0.701300	0.869000
C301	C30	0.815100	0.625200	0.797300
C311	C31	0.815600	0.657800	0.870200
C321	C32	0.850000	0.624400	0.047900
C331	C33	0.930400	0.561300	0.026000
C341	C34	0.894500	0.486900	0.006500
C351	C35	0.038200	0.575400	0.020300
C361	C36	0.086700	0.653500	0.050500
C371	C37	0.544000	0.322300	0.956100
C381	C38	0.460400	0.371700	0.976800
C391	C39	0.464800	0.426200	0.042800
C401	C40	0.558100	0.426900	0.082100
C411	C41	0.637200	0.375600	0.055100
C421	C42	0.373400	0.479800	0.068400
C431	C43	0.378400	0.526900	0.144700
C441	C44	0.279700	0.576100	0.163400
C451	C45	0.270800	0.618900	0.242300
C461	C46	0.180300	0.618800	0.279400
C471	C47	0.175400	0.657900	0.349800
C481	C48	0.359000	0.657500	0.279500
C491	C49	0.346500	0.694000	0.350100
C501	C50	0.148700	0.627500	0.523000
C511	C51	0.069300	0.562700	0.513400
C521	C52	0.105900	0.489200	0.509100
C531	C53	0.958900	0.573200	0.504000
C541	C54	0.908300	0.649400	0.513500
C551	C55	0.944500	0.174800	0.994600
C561	C56	0.026800	0.123700	0.984300
C571	C57	0.021600	0.056700	0.931400
C581	C58	0.925100	0.045300	0.892900
C591	C59	0.848200	0.098100	0.906900
C601	C60	0.111800	0.999700	0.914400
C611	C61	0.125700	0.962300	0.839800
C621	C62	0.215200	0.906300	0.819500
C631	C63	0.224300	0.870300	0.742700
C641	C64	0.137700	0.832300	0.703100
C651	C65	0.143800	0.798700	0.631000
C661	C66	0.315100	0.874800	0.702700
C671	C67	0.315600	0.842200	0.629800
C681	C68	0.350000	0.875600	0.452100
C691	C69	0.430400	0.938700	0.474000
C701	C70	0.394500	0.013100	0.493500
C711	C71	0.538200	0.924600	0.479700
C721	C72	0.586700	0.846500	0.449500
C731	C73	0.956000	0.822300	0.456100
C741	C74	0.039600	0.871700	0.476800
C751	C75	0.035200	0.926200	0.542800
C761	C76	0.941900	0.926900	0.582100
C771	C77	0.862800	0.875600	0.555100
C781	C78	0.126600	0.979800	0.568400
C791	C79	0.121600	0.026900	0.644700
C801	C80	0.220300	0.076100	0.663400
C811	C81	0.229200	0.118900	0.742300
C821	C82	0.319700	0.118800	0.779400
C831	C83	0.324600	0.157900	0.849800
C841	C84	0.141000	0.157500	0.779500
C851	C85	0.153500	0.194000	0.850100
C861	C86	0.351300	0.127500	0.023000
C871	C87	0.430700	0.062700	0.013400
C881	C88	0.394100	0.989200	0.009100
C891	C89	0.541100	0.073200	0.004000
C901	C90	0.591700	0.149400	0.013500
C911	C91	0.555500	0.674800	0.494600
C921	C92	0.473200	0.623700	0.484300
C931	C93	0.478400	0.556700	0.431400
C941	C94	0.574900	0.545300	0.392900
C951	C95	0.651800	0.598100	0.406900
C961	C96	0.388200	0.499700	0.414400
C971	C97	0.374300	0.462300	0.339800
C981	C98	0.284800	0.406300	0.319500
C991	C99	0.275700	0.370300	0.242700
C1001	C100	0.362300	0.332300	0.203100
C1011	C101	0.356200	0.298700	0.131000
C1021	C102	0.184900	0.374800	0.202700
C1031	C103	0.184400	0.342200	0.129800
C1041	C104	0.150000	0.375600	0.952100
C1051	C105	0.069600	0.438700	0.974000
C1061	C106	0.105500	0.513100	0.993500
C1071	C107	0.961800	0.424600	0.979700
C1081	C108	0.913300	0.346500	0.949500
C1091	C109	0.456000	0.677700	0.043900
C1101	C110	0.539600	0.628300	0.023200
C1111	C111	0.535200	0.573800	0.957200
C1121	C112	0.441900	0.573100	0.917900
C1131	C113	0.362800	0.624400	0.944900
C1141	C114	0.626600	0.520200	0.931600
C1151	C115	0.621600	0.473100	0.855300
C1161	C116	0.720300	0.423900	0.836600
C1171	C117	0.729200	0.381100	0.757700
C1181	C118	0.819700	0.381200	0.720600
C1191	C119	0.824600	0.342100	0.650200
C1201	C120	0.641000	0.342500	0.720500
C1211	C121	0.653500	0.306000	0.649900
C1221	C122	0.851300	0.372500	0.477000
C1231	C123	0.930700	0.437300	0.486600
C1241	C124	0.894100	0.510800	0.490900
C1251	C125	0.041100	0.426800	0.496000
C1261	C126	0.091700	0.350600	0.486500
C1271	C127	0.055500	0.825200	0.005400
C1281	C128	0.973200	0.876300	0.015700
C1291	C129	0.978400	0.943300	0.068600
C1301	C130	0.074900	0.954700	0.107100
C1311	C131	0.151800	0.901900	0.093100
C1321	C132	0.888200	0.000300	0.085600
C1331	C133	0.874300	0.037700	0.160200
C1341	C134	0.784800	0.093700	0.180500
C1351	C135	0.775700	0.129700	0.257300
C1361	C136	0.862300	0.167700	0.296900
C1371	C137	0.856200	0.201300	0.369000
C1381	C138	0.684900	0.125200	0.297300
C1391	C139	0.684400	0.157800	0.370200
C1401	C140	0.650000	0.124400	0.547900
C1411	C141	0.569600	0.061300	0.526000
C1421	C142	0.605500	0.986900	0.506500
C1431	C143	0.461800	0.075400	0.520300
C1441	C144	0.413300	0.153500	0.550500
N11	N1	0.130900	0.176700	0.506600
N21	N2	0.753800	0.804800	0.113900
N31	N3	0.733300	0.696200	0.905700
N41	N4	0.356600	0.335100	0.542900
N51	N5	0.630900	0.323300	0.993400
N61	N6	0.253800	0.695200	0.386100
N71	N7	0.233300	0.803800	0.594300
N81	N8	0.856600	0.164900	0.957100
N91	N9	0.869100	0.823300	0.493400
N101	N10	0.246200	0.195200	0.886100
N111	N11	0.266700	0.303800	0.094300
N121	N12	0.643400	0.664900	0.457100
N131	N13	0.369100	0.676700	0.006600
N141	N14	0.746200	0.304800	0.613900
N151	N15	0.766700	0.196200	0.405700
N161	N16	0.143400	0.835100	0.042900
O11	O1	0.624800	0.816200	0.002900
O21	O2	0.735400	0.878500	0.948000
O31	O3	0.404800	0.807200	0.926300
O41	O4	0.364300	0.838900	0.041700
O51	O5	0.857300	0.678100	0.017000
O61	O6	0.777000	0.618500	0.089500
O71	O7	0.152600	0.673000	0.009800
O81	O8	0.061900	0.691000	0.110500
O91	O9	0.124800	0.683800	0.497100
O101	O10	0.235400	0.621500	0.552000
O111	O11	0.904800	0.692800	0.573700
O121	O12	0.864300	0.661100	0.458300
O131	O13	0.357300	0.821900	0.483000
O141	O14	0.277000	0.881500	0.410500
O151	O15	0.652600	0.827000	0.490200
O161	O16	0.561900	0.809000	0.389500
O171	O17	0.375200	0.183800	0.997100
O181	O18	0.264600	0.121500	0.052000
O191	O19	0.595200	0.192800	0.073700
O201	O20	0.635700	0.161100	0.958300
O211	O21	0.142700	0.321900	0.983000
O221	O22	0.223000	0.381500	0.910500
O231	O23	0.847400	0.327000	0.990200
O241	O24	0.938100	0.309000	0.889500
O251	O25	0.875200	0.316200	0.502900
O261	O26	0.764600	0.378500	0.448000
O271	O27	0.095200	0.307200	0.426300
O281	O28	0.135700	0.338900	0.541700
O291	O29	0.642700	0.178100	0.517000
O301	O30	0.723000	0.118500	0.589500
O311	O31	0.347400	0.173000	0.509800
O321	O32	0.438100	0.191000	0.610500
