data_MAKFOW_freeONLY_PM
_symmetry_space_group_name_H-M	'P1'
_cell_length_a	15.097500
_cell_length_b	16.775200
_cell_length_c	16.901400
_cell_angle_alpha	110.493000
_cell_angle_beta	91.562000
_cell_angle_gamma	99.176000
_symmetry_Int_Tables_number 1

loop_
_symmetry_equiv_pos_as_xyz
'x,y,z'

loop_
_atom_site_label
_atom_site_type_symbol
_atom_site_fract_x
_atom_site_fract_y
_atom_site_fract_z
Gd11	Gd1	0.559880	0.122260	0.028720
Gd21	Gd2	0.514990	0.362490	0.146300
Gd31	Gd3	0.450860	0.470780	0.381900
O11	O1	0.435500	0.925300	0.856800
O21	O2	0.505200	0.061700	0.884000
O31	O3	0.373500	0.774900	0.024200
O41	O4	0.419200	0.647700	0.975500
O51	O5	0.466500	0.487000	0.155200
O61	O6	0.402900	0.519100	0.278900
O71	O7	0.307600	0.368600	0.313100
O81	O8	0.430100	0.334600	0.251900
O91	O9	0.420900	0.036500	0.032300
O101	O10	0.313300	0.934800	0.040400
O111	O11	0.634100	0.682400	0.927200
O121	O12	0.549800	0.784700	0.965200
O131	O13	0.584900	0.254600	0.164000
O141	O14	0.703600	0.194400	0.128500
O151	O15	0.577500	0.465300	0.461000
O161	O16	0.675400	0.462200	0.558400
O171	O17	0.332900	0.558000	0.809700
O181	O18	0.425700	0.527200	0.709000
O191	O19	0.513100	0.617900	0.438900
O201	O20	0.573900	0.650500	0.572100
N11	N1	0.399100	0.835700	0.423200
H11	H1	0.416500	0.793500	0.435500
N21	N2	0.358900	0.958700	0.438900
N31	N3	0.355100	0.909900	0.351400
N41	N4	0.015100	0.016300	0.121200
H21	H2	0.035800	0.970800	0.088700
N51	N5	0.005400	0.146300	0.206500
N61	N6	0.919800	0.098900	0.189500
N71	N7	0.971200	0.377200	0.478000
H31	H3	0.949100	0.411600	0.522200
N81	N8	0.984600	0.289600	0.350600
N91	N9	0.065100	0.304100	0.397400
C11	C1	0.466700	0.986700	0.835000
C21	C2	0.448300	0.973300	0.742300
C31	C3	0.442500	0.039000	0.712300
H41	H4	0.452100	0.097400	0.750400
C41	C4	0.422900	0.019800	0.627500
H51	H5	0.419000	0.064600	0.606100
C51	C5	0.408700	0.935100	0.573600
C61	C6	0.416200	0.869700	0.601000
H61	H6	0.408400	0.811900	0.561800
C71	C7	0.435400	0.887500	0.686900
H71	H7	0.439600	0.842100	0.707500
C81	C8	0.388500	0.913400	0.478100
C91	C9	0.378000	0.836100	0.347300
C101	C10	0.382300	0.762100	0.268500
C111	C11	0.378600	0.769400	0.189400
H81	H8	0.368600	0.821800	0.183800
C121	C12	0.389900	0.698900	0.117600
C131	C13	0.394300	0.708800	0.033500
C141	C14	0.407800	0.623400	0.125500
H91	H9	0.419100	0.577200	0.077200
C151	C15	0.409200	0.616000	0.205500
C161	C16	0.427800	0.534500	0.213400
C171	C17	0.396000	0.684700	0.276700
H101	H10	0.396100	0.679100	0.330700
C181	C18	0.347600	0.314400	0.262200
C191	C19	0.298700	0.224900	0.213500
C201	C20	0.206100	0.204600	0.215000
H111	H11	0.174100	0.247100	0.248300
C211	C21	0.159900	0.120700	0.167000
C221	C22	0.207000	0.060200	0.118400
H121	H12	0.175800	0.003900	0.085000
C231	C23	0.300300	0.080500	0.117500
C241	C24	0.347300	0.014300	0.060700
C251	C25	0.345700	0.162500	0.165700
H131	H13	0.409300	0.176200	0.166200
C261	C26	0.062800	0.095700	0.165700
C271	C27	0.929500	0.021800	0.137400
C281	C28	0.853600	0.950400	0.101100
C291	C29	0.766400	0.965600	0.120000
H141	H14	0.758000	0.019400	0.160000
C301	C30	0.692600	0.901300	0.079800
H151	H15	0.633600	0.911300	0.092900
C311	C31	0.703900	0.822700	0.020800
C321	C32	0.625400	0.757900	0.969900
C331	C33	0.793600	0.806700	0.007300
H161	H16	0.803000	0.751200	0.971800
C341	C34	0.865300	0.870500	0.045200
H171	H17	0.924400	0.860300	0.033100
C351	C35	0.664000	0.242900	0.182400
C361	C36	0.705600	0.288700	0.270500
C371	C37	0.655500	0.336000	0.334800
H181	H18	0.593900	0.336100	0.322100
C381	C38	0.696100	0.382000	0.416000
C391	C39	0.647500	0.439300	0.481800
C401	C40	0.785000	0.380600	0.435200
H191	H19	0.812300	0.413000	0.491000
C411	C41	0.834800	0.334000	0.375900
C421	C42	0.796100	0.287300	0.293000
H201	H20	0.830700	0.254500	0.251800
C431	C43	0.928000	0.331900	0.400200
C441	C44	0.054900	0.358900	0.474100
C451	C45	0.124700	0.392100	0.544000
C461	C46	0.109600	0.444600	0.624600
H211	H21	0.050500	0.455500	0.636000
C471	C47	0.179000	0.481400	0.688700
H221	H22	0.167000	0.515000	0.744200
C481	C48	0.267400	0.469000	0.671100
C491	C49	0.345100	0.519800	0.733700
C501	C50	0.282600	0.414500	0.589800
H231	H23	0.341600	0.403600	0.578200
C511	C51	0.212900	0.377100	0.527200
H241	H24	0.224100	0.341100	0.472300
C521	C52	0.547400	0.673000	0.512000
H251	H25	0.553300	0.733000	0.521500
Gd41	Gd4	0.440120	0.877740	0.971280
Gd51	Gd5	0.485010	0.637510	0.853700
Gd61	Gd6	0.549140	0.529220	0.618100
O211	O21	0.564500	0.074700	0.143200
O221	O22	0.494800	0.938300	0.116000
O231	O23	0.626500	0.225100	0.975800
O241	O24	0.580800	0.352300	0.024500
O251	O25	0.533500	0.513000	0.844800
O261	O26	0.597100	0.480900	0.721100
O271	O27	0.692400	0.631400	0.686900
O281	O28	0.569900	0.665400	0.748100
O291	O29	0.579100	0.963500	0.967700
O301	O30	0.686700	0.065200	0.959600
O311	O31	0.365900	0.317600	0.072800
O321	O32	0.450200	0.215300	0.034800
O331	O33	0.415100	0.745400	0.836000
O341	O34	0.296400	0.805600	0.871500
O351	O35	0.422500	0.534700	0.539000
O361	O36	0.324600	0.537800	0.441600
O371	O37	0.667100	0.442000	0.190300
O381	O38	0.574300	0.472800	0.291000
O391	O39	0.486900	0.382100	0.561100
O401	O40	0.426100	0.349500	0.427900
N101	N10	0.600900	0.164300	0.576800
H261	H26	0.583500	0.206500	0.564500
N111	N11	0.641100	0.041300	0.561100
N121	N12	0.644900	0.090100	0.648600
N131	N13	0.984900	0.983700	0.878800
H271	H27	0.964200	0.029200	0.911300
N141	N14	0.994600	0.853700	0.793500
N151	N15	0.080200	0.901100	0.810500
N161	N16	0.028800	0.622800	0.522000
H281	H28	0.050900	0.588400	0.477800
N171	N17	0.015400	0.710400	0.649400
N181	N18	0.934900	0.695900	0.602600
C531	C53	0.533300	0.013300	0.165000
C541	C54	0.551700	0.026700	0.257700
C551	C55	0.557500	0.961000	0.287700
H291	H29	0.547900	0.902600	0.249600
C561	C56	0.577100	0.980200	0.372500
H301	H30	0.581000	0.935400	0.393900
C571	C57	0.591300	0.064900	0.426400
C581	C58	0.583800	0.130300	0.399000
H311	H31	0.591600	0.188100	0.438200
C591	C59	0.564600	0.112500	0.313100
H321	H32	0.560400	0.157900	0.292500
C601	C60	0.611500	0.086600	0.521900
C611	C61	0.622000	0.163900	0.652700
C621	C62	0.617700	0.237900	0.731500
C631	C63	0.621400	0.230600	0.810600
H331	H33	0.631400	0.178200	0.816200
C641	C64	0.610100	0.301100	0.882400
C651	C65	0.605700	0.291200	0.966500
C661	C66	0.592200	0.376600	0.874500
H341	H34	0.580900	0.422800	0.922800
C671	C67	0.590800	0.384000	0.794500
C681	C68	0.572200	0.465500	0.786600
C691	C69	0.604000	0.315300	0.723300
H351	H35	0.603900	0.320900	0.669300
C701	C70	0.652400	0.685600	0.737800
C711	C71	0.701300	0.775100	0.786500
C721	C72	0.793900	0.795400	0.785000
H361	H36	0.825900	0.752900	0.751700
C731	C73	0.840100	0.879300	0.833000
C741	C74	0.793000	0.939800	0.881600
H371	H37	0.824200	0.996100	0.915000
C751	C75	0.699700	0.919500	0.882500
C761	C76	0.652700	0.985700	0.939300
C771	C77	0.654300	0.837500	0.834300
H381	H38	0.590700	0.823800	0.833800
C781	C78	0.937200	0.904300	0.834300
C791	C79	0.070500	0.978200	0.862600
C801	C80	0.146400	0.049600	0.898900
C811	C81	0.233600	0.034400	0.880000
H391	H39	0.242000	0.980600	0.840000
C821	C82	0.307400	0.098700	0.920200
H401	H40	0.366400	0.088700	0.907100
C831	C83	0.296100	0.177300	0.979200
C841	C84	0.374600	0.242100	0.030100
C851	C85	0.206400	0.193300	0.992700
H411	H41	0.197000	0.248800	0.028200
C861	C86	0.134700	0.129500	0.954800
H421	H42	0.075600	0.139700	0.966900
C871	C87	0.336000	0.757100	0.817600
C881	C88	0.294400	0.711300	0.729500
C891	C89	0.344500	0.664000	0.665200
H431	H43	0.406100	0.663900	0.677900
C901	C90	0.303900	0.618000	0.584000
C911	C91	0.352500	0.560700	0.518200
C921	C92	0.215000	0.619400	0.564800
H441	H44	0.187700	0.587000	0.509000
C931	C93	0.165200	0.666000	0.624100
C941	C94	0.203900	0.712700	0.707000
H451	H45	0.169300	0.745500	0.748200
C951	C95	0.072000	0.668100	0.599800
C961	C96	0.945100	0.641100	0.525900
C971	C97	0.875300	0.607900	0.456000
C981	C98	0.890400	0.555400	0.375400
H461	H46	0.949500	0.544500	0.364000
C991	C99	0.821000	0.518600	0.311300
H471	H47	0.833000	0.485000	0.255800
C1001	C100	0.732600	0.531000	0.328900
C1011	C101	0.654900	0.480200	0.266300
C1021	C102	0.717400	0.585500	0.410200
H481	H48	0.658400	0.596400	0.421800
C1031	C103	0.787100	0.622900	0.472800
H491	H49	0.775900	0.658900	0.527700
C1041	C104	0.452600	0.327000	0.488000
H501	H50	0.446700	0.267000	0.478500
