data_MAKGAJ_freeONLY_PM
_symmetry_space_group_name_H-M	'P1'
_cell_length_a	15.158900
_cell_length_b	16.860900
_cell_length_c	16.970000
_cell_angle_alpha	110.902000
_cell_angle_beta	92.490000
_cell_angle_gamma	98.552000
_symmetry_Int_Tables_number 1

loop_
_symmetry_equiv_pos_as_xyz
'x,y,z'

loop_
_atom_site_label
_atom_site_type_symbol
_atom_site_fract_x
_atom_site_fract_y
_atom_site_fract_z
Dy11	Dy1	0.058440	0.621890	0.028390
Dy21	Dy2	0.012320	0.861190	0.145830
Dy31	Dy3	0.950160	0.970720	0.381340
O11	O1	0.926800	0.028900	0.709130
O21	O2	0.835700	0.060800	0.809400
O31	O3	0.202400	0.695600	0.128000
O41	O4	0.082100	0.753400	0.164260
O51	O5	0.076600	0.964600	0.461700
O61	O6	0.175000	0.962500	0.560000
O71	O7	0.035500	0.014300	0.845000
O81	O8	0.097200	0.980300	0.722100
O91	O9	0.074100	0.850700	0.023880
O101	O10	0.121300	0.724000	0.974900
O111	O11	0.998300	0.439500	0.115900
O121	O12	0.066700	0.575400	0.142200
O131	O13	0.863400	0.815800	0.071500
O141	O14	0.947400	0.714600	0.034600
O151	O15	0.192400	0.131100	0.689900
O161	O16	0.070000	0.164400	0.748770
O171	O17	0.077900	0.463500	0.966500
O181	O18	0.184300	0.564700	0.960400
O191	O19	0.924100	0.849700	0.426600
O201	O20	0.987400	0.882500	0.559700
N11	N1	0.469700	0.877500	0.478900
H11	H1	0.448500	0.913300	0.522400
N21	N2	0.480500	0.785900	0.353200
N31	N3	0.561800	0.802100	0.399500
N41	N4	0.137200	0.543300	0.562100
N51	N5	0.144000	0.591300	0.648500
N61	N6	0.098900	0.666000	0.576500
H21	H2	0.081300	0.708200	0.564500
N71	N7	0.491600	0.352100	0.798900
N81	N8	0.577600	0.398200	0.816900
N91	N9	0.481500	0.482300	0.879500
H31	H3	0.460500	0.528400	0.910200
C11	C1	0.847000	0.021600	0.733200
C21	C2	0.768900	0.971400	0.670100
C31	C3	0.782500	0.916600	0.589800
H41	H4	0.841200	0.905700	0.578200
C41	C4	0.712000	0.878000	0.526800
H51	H5	0.721900	0.840800	0.472200
C51	C5	0.625300	0.894500	0.544500
C61	C6	0.611800	0.946900	0.625400
H61	H6	0.553000	0.956900	0.638000
C71	C7	0.682500	0.984700	0.687500
H71	H7	0.672300	0.020100	0.742800
C81	C8	0.551700	0.858000	0.475400
C91	C9	0.426400	0.830800	0.401900
C101	C10	0.333700	0.831700	0.377000
C111	C11	0.293600	0.786300	0.294200
H81	H8	0.327200	0.753700	0.252400
C121	C12	0.203800	0.788700	0.272500
C131	C13	0.163000	0.743400	0.183400
C141	C14	0.154100	0.835000	0.334800
H91	H9	0.092600	0.834600	0.320900
C151	C15	0.194200	0.881600	0.416800
C161	C16	0.146900	0.938500	0.483100
C171	C17	0.283500	0.879800	0.437600
H101	H10	0.310700	0.911700	0.493800
C181	C18	0.100500	0.790400	0.966200
C191	C19	0.104500	0.799700	0.881700
C201	C20	0.090700	0.875600	0.874200
H111	H11	0.080700	0.922300	0.922600
C211	C21	0.091400	0.883800	0.795300
C221	C22	0.073400	0.966100	0.787200
C231	C23	0.104200	0.816000	0.724200
H121	H12	0.104900	0.822200	0.670800
C241	C24	0.116300	0.737200	0.731300
C251	C25	0.117200	0.729700	0.810200
H131	H13	0.126400	0.677300	0.815700
C261	C26	0.121400	0.665100	0.653600
C271	C27	0.109200	0.588600	0.521800
C281	C28	0.091600	0.567500	0.429400
C291	C29	0.077400	0.481500	0.371300
H141	H14	0.080000	0.436000	0.391500
C301	C30	0.059700	0.462600	0.285900
H151	H15	0.050400	0.404500	0.247300
C311	C31	0.055500	0.528900	0.256400
C321	C32	0.038200	0.513600	0.165100
C331	C33	0.072100	0.614500	0.313500
H161	H16	0.071800	0.660000	0.292900
C341	C34	0.088800	0.633500	0.399800
H171	H17	0.098200	0.691700	0.438400
C351	C35	0.871200	0.739300	0.029700
C361	C36	0.792200	0.676700	0.978500
C371	C37	0.803200	0.595900	0.921300
H181	H18	0.861900	0.584900	0.909400
C381	C38	0.729300	0.531500	0.881800
H191	H19	0.737400	0.477100	0.842800
C391	C39	0.643700	0.547200	0.899700
C401	C40	0.632500	0.629400	0.954400
H201	H20	0.573900	0.641400	0.964600
C411	C41	0.706200	0.692700	0.993200
H211	H21	0.698000	0.747900	0.030400
C421	C42	0.567400	0.476100	0.864200
C431	C43	0.435900	0.403500	0.837800
C441	C44	0.338700	0.377800	0.835400
C451	C45	0.294600	0.295900	0.788300
H221	H22	0.326900	0.253600	0.755600
C461	C46	0.201100	0.274800	0.788700
C471	C47	0.153500	0.184700	0.739200
C481	C48	0.154200	0.337000	0.835000
H231	H23	0.090900	0.323200	0.833300
C491	C49	0.198500	0.419600	0.884000
C501	C50	0.151800	0.486600	0.939400
C511	C51	0.290800	0.439500	0.883200
H241	H24	0.321600	0.496100	0.915800
C521	C52	0.951700	0.830200	0.487500
H251	H25	0.944900	0.770500	0.478200
Dy41	Dy4	0.941560	0.378110	0.971610
Dy51	Dy5	0.987680	0.138810	0.854170
Dy61	Dy6	0.049840	0.029280	0.618660
O211	O21	0.073200	0.971100	0.290870
O221	O22	0.164300	0.939200	0.190600
O231	O23	0.797600	0.304400	0.872000
O241	O24	0.917900	0.246600	0.835740
O251	O25	0.923400	0.035400	0.538300
O261	O26	0.825000	0.037500	0.440000
O271	O27	0.964500	0.985700	0.155000
O281	O28	0.902800	0.019700	0.277900
O291	O29	0.925900	0.149300	0.976120
O301	O30	0.878700	0.276000	0.025100
O311	O31	0.001700	0.560500	0.884100
O321	O32	0.933300	0.424600	0.857800
O331	O33	0.136600	0.184200	0.928500
O341	O34	0.052600	0.285400	0.965400
O351	O35	0.807600	0.868900	0.310100
O361	O36	0.930000	0.835600	0.251230
O371	O37	0.922100	0.536500	0.033500
O381	O38	0.815700	0.435300	0.039600
O391	O39	0.075900	0.150300	0.573400
O401	O40	0.012600	0.117500	0.440300
N101	N10	0.530300	0.122500	0.521100
H261	H26	0.551500	0.086700	0.477600
N111	N11	0.519500	0.214100	0.646800
N121	N12	0.438200	0.197900	0.600500
N131	N13	0.862800	0.456700	0.437900
N141	N14	0.856000	0.408700	0.351500
N151	N15	0.901100	0.334000	0.423500
H271	H27	0.918700	0.291800	0.435500
N161	N16	0.508400	0.647900	0.201100
N171	N17	0.422400	0.601800	0.183100
N181	N18	0.518500	0.517700	0.120500
H281	H28	0.539500	0.471600	0.089800
C531	C53	0.153000	0.978400	0.266800
C541	C54	0.231100	0.028600	0.329900
C551	C55	0.217500	0.083400	0.410200
H291	H29	0.158800	0.094300	0.421800
C561	C56	0.288000	0.122000	0.473200
H301	H30	0.278100	0.159200	0.527800
C571	C57	0.374700	0.105500	0.455500
C581	C58	0.388200	0.053100	0.374600
H311	H31	0.447000	0.043100	0.362000
C591	C59	0.317500	0.015300	0.312500
H321	H32	0.327700	0.979900	0.257200
C601	C60	0.448300	0.142000	0.524600
C611	C61	0.573600	0.169200	0.598100
C621	C62	0.666300	0.168300	0.623000
C631	C63	0.706400	0.213700	0.705800
H331	H33	0.672800	0.246300	0.747600
C641	C64	0.796200	0.211300	0.727500
C651	C65	0.837000	0.256600	0.816600
C661	C66	0.845900	0.165000	0.665200
H341	H34	0.907400	0.165400	0.679100
C671	C67	0.805800	0.118400	0.583200
C681	C68	0.853100	0.061500	0.516900
C691	C69	0.716500	0.120200	0.562400
H351	H35	0.689300	0.088300	0.506200
C701	C70	0.899500	0.209600	0.033800
C711	C71	0.895500	0.200300	0.118300
C721	C72	0.909300	0.124400	0.125800
H361	H36	0.919300	0.077700	0.077400
C731	C73	0.908600	0.116200	0.204700
C741	C74	0.926600	0.033900	0.212800
C751	C75	0.895800	0.184000	0.275800
H371	H37	0.895100	0.177800	0.329200
C761	C76	0.883700	0.262800	0.268700
C771	C77	0.882800	0.270300	0.189800
H381	H38	0.873600	0.322700	0.184300
C781	C78	0.878600	0.334900	0.346400
C791	C79	0.890800	0.411400	0.478200
C801	C80	0.908400	0.432500	0.570600
C811	C81	0.922600	0.518500	0.628700
H391	H39	0.920000	0.564000	0.608500
C821	C82	0.940300	0.537400	0.714100
H401	H40	0.949600	0.595500	0.752700
C831	C83	0.944500	0.471100	0.743600
C841	C84	0.961800	0.486400	0.834900
C851	C85	0.927900	0.385500	0.686500
H411	H41	0.928200	0.340000	0.707100
C861	C86	0.911200	0.366500	0.600200
H421	H42	0.901800	0.308300	0.561600
C871	C87	0.128800	0.260700	0.970300
C881	C88	0.207800	0.323300	0.021500
C891	C89	0.196800	0.404100	0.078700
H431	H43	0.138100	0.415100	0.090600
C901	C90	0.270700	0.468500	0.118200
H441	H44	0.262600	0.522900	0.157200
C911	C91	0.356300	0.452800	0.100300
C921	C92	0.367500	0.370600	0.045600
H451	H45	0.426100	0.358600	0.035400
C931	C93	0.293800	0.307300	0.006800
H461	H46	0.302000	0.252100	0.969600
C941	C94	0.432600	0.523900	0.135800
C951	C95	0.564100	0.596500	0.162200
C961	C96	0.661300	0.622200	0.164600
C971	C97	0.705400	0.704100	0.211700
H471	H47	0.673100	0.746400	0.244400
C981	C98	0.798900	0.725200	0.211300
C991	C99	0.846500	0.815300	0.260800
C1001	C100	0.845800	0.663000	0.165000
H481	H48	0.909100	0.676800	0.166700
C1011	C101	0.801500	0.580400	0.116000
C1021	C102	0.848200	0.513400	0.060600
C1031	C103	0.709200	0.560500	0.116800
H491	H49	0.678400	0.503900	0.084200
C1041	C104	0.048300	0.169800	0.512500
H501	H50	0.055100	0.229500	0.521800
