data_MAKHAJ_freeONLY_PM
_symmetry_space_group_name_H-M	'P1'
_cell_length_a	9.677300
_cell_length_b	13.867600
_cell_length_c	15.448200
_cell_angle_alpha	90.000000
_cell_angle_beta	90.039000
_cell_angle_gamma	90.000000
_symmetry_Int_Tables_number 1

loop_
_symmetry_equiv_pos_as_xyz
'x,y,z'

loop_
_atom_site_label
_atom_site_type_symbol
_atom_site_fract_x
_atom_site_fract_y
_atom_site_fract_z
Zn11	Zn1	0.557460	0.397630	0.580030
Zn21	Zn2	0.467360	0.107240	0.585940
Zn31	Zn3	0.495780	0.245860	0.225300
P11	P1	0.751360	0.217720	0.596560
H11	H1	0.763100	0.229300	0.512100
P21	P2	0.274740	0.289100	0.622870
H21	H2	0.213600	0.274200	0.547600
P31	P3	0.513880	0.112810	0.380560
H31	H3	0.613900	0.176500	0.391000
P41	P4	0.466660	0.385850	0.383580
H41	H4	0.378900	0.316500	0.403700
O11	O1	0.662500	0.128420	0.610990
O21	O2	0.686800	0.309090	0.632070
O31	O3	0.895000	0.200280	0.631480
O41	O4	0.366400	0.377580	0.612710
O51	O5	0.349700	0.196890	0.646620
O61	O6	0.162400	0.315280	0.687550
O71	O7	0.430600	0.111820	0.463320
O81	O8	0.582200	0.015930	0.361110
O91	O9	0.424200	0.148030	0.305290
O101	O10	0.571900	0.392280	0.455530
O111	O11	0.383700	0.478920	0.372120
O121	O12	0.537200	0.357620	0.298950
Zn41	Zn4	0.942540	0.897630	0.919970
Zn51	Zn5	0.032640	0.607240	0.914060
Zn61	Zn6	0.004220	0.745860	0.274700
P51	P5	0.748640	0.717720	0.903440
H51	H5	0.736900	0.729300	0.987900
P61	P6	0.225260	0.789100	0.877130
H61	H6	0.286400	0.774200	0.952400
P71	P7	0.986120	0.612810	0.119440
H71	H7	0.886100	0.676500	0.109000
P81	P8	0.033340	0.885850	0.116420
H81	H8	0.121100	0.816500	0.096300
O131	O13	0.837500	0.628420	0.889010
O141	O14	0.813200	0.809090	0.867930
O151	O15	0.605000	0.700280	0.868520
O161	O16	0.133600	0.877580	0.887290
O171	O17	0.150300	0.696890	0.853380
O181	O18	0.337600	0.815280	0.812450
O191	O19	0.069400	0.611820	0.036680
O201	O20	0.917800	0.515930	0.138890
O211	O21	0.075800	0.648030	0.194710
O221	O22	0.928100	0.892280	0.044470
O231	O23	0.116300	0.978920	0.127880
O241	O24	0.962800	0.857620	0.201050
Zn71	Zn7	0.442540	0.602370	0.419970
Zn81	Zn8	0.532640	0.892760	0.414060
Zn91	Zn9	0.504220	0.754140	0.774700
P91	P9	0.248640	0.782280	0.403440
H91	H9	0.236900	0.770700	0.487900
P101	P10	0.725260	0.710900	0.377130
H101	H10	0.786400	0.725800	0.452400
P111	P11	0.486120	0.887190	0.619440
H111	H11	0.386100	0.823500	0.609000
P121	P12	0.533340	0.614150	0.616420
H121	H12	0.621100	0.683500	0.596300
O251	O25	0.337500	0.871580	0.389010
O261	O26	0.313200	0.690910	0.367930
O271	O27	0.105000	0.799720	0.368520
O281	O28	0.633600	0.622420	0.387290
O291	O29	0.650300	0.803110	0.353380
O301	O30	0.837600	0.684720	0.312450
O311	O31	0.569400	0.888180	0.536680
O321	O32	0.417800	0.984070	0.638890
O331	O33	0.575800	0.851970	0.694710
O341	O34	0.428100	0.607720	0.544470
O351	O35	0.616300	0.521080	0.627880
O361	O36	0.462800	0.642380	0.701050
Zn101	Zn10	0.057460	0.102370	0.080030
Zn111	Zn11	0.967360	0.392760	0.085940
Zn121	Zn12	0.995780	0.254140	0.725300
P131	P13	0.251360	0.282280	0.096560
H131	H13	0.263100	0.270700	0.012100
P141	P14	0.774740	0.210900	0.122870
H141	H14	0.713600	0.225800	0.047600
P151	P15	0.013880	0.387190	0.880560
H151	H15	0.113900	0.323500	0.891000
P161	P16	0.966660	0.114150	0.883580
H161	H16	0.878900	0.183500	0.903700
O371	O37	0.162500	0.371580	0.110990
O381	O38	0.186800	0.190910	0.132070
O391	O39	0.395000	0.299720	0.131480
O401	O40	0.866400	0.122420	0.112710
O411	O41	0.849700	0.303110	0.146620
O421	O42	0.662400	0.184720	0.187550
O431	O43	0.930600	0.388180	0.963320
O441	O44	0.082200	0.484070	0.861110
O451	O45	0.924200	0.351970	0.805290
O461	O46	0.071900	0.107720	0.955530
O471	O47	0.883700	0.021080	0.872120
O481	O48	0.037200	0.142380	0.798950
