data_MAKROG_freeONLY_PM
_symmetry_space_group_name_H-M	'P1'
_cell_length_a	29.476900
_cell_length_b	7.373500
_cell_length_c	17.463100
_cell_angle_alpha	90.000000
_cell_angle_beta	93.652000
_cell_angle_gamma	90.000000
_symmetry_Int_Tables_number 1

loop_
_symmetry_equiv_pos_as_xyz
'x,y,z'

loop_
_atom_site_label
_atom_site_type_symbol
_atom_site_fract_x
_atom_site_fract_y
_atom_site_fract_z
Co11	Co1	0.983350	0.121290	0.152310
O11	O1	0.269350	0.984200	0.036340
N11	N1	0.051840	0.143000	0.137840
N21	N2	0.129810	0.250100	0.149700
N31	N3	0.193410	0.245800	0.068200
N41	N4	0.965480	0.331100	0.080200
N51	N5	0.940060	0.623200	0.026300
N61	N6	0.971780	0.911400	0.075600
N71	N7	0.417060	0.594100	0.185130
N81	N8	0.335210	0.539600	0.187000
N91	N9	0.289010	0.365700	0.091400
C11	C1	0.088900	0.189900	0.138200
C21	C2	0.161850	0.240900	0.102700
C31	C3	0.955370	0.471700	0.057500
C41	C4	0.957860	0.774800	0.054000
C51	C5	0.378640	0.563400	0.183600
C61	C6	0.312270	0.445100	0.133500
H11	H1	0.020100	0.411300	0.236900
H21	H2	0.020800	0.859400	0.237900
H31	H3	0.248600	0.931200	0.066500
H41	H4	0.273700	0.920400	0.989300
Co21	Co2	0.483350	0.621290	0.152310
O21	O2	0.769350	0.484200	0.036340
N101	N10	0.551840	0.643000	0.137840
N111	N11	0.629810	0.750100	0.149700
N121	N12	0.693410	0.745800	0.068200
N131	N13	0.465480	0.831100	0.080200
N141	N14	0.440060	0.123200	0.026300
N151	N15	0.471780	0.411400	0.075600
N161	N16	0.917060	0.094100	0.185130
N171	N17	0.835210	0.039600	0.187000
N181	N18	0.789010	0.865700	0.091400
C71	C7	0.588900	0.689900	0.138200
C81	C8	0.661850	0.740900	0.102700
C91	C9	0.455370	0.971700	0.057500
C101	C10	0.457860	0.274800	0.054000
C111	C11	0.878640	0.063400	0.183600
C121	C12	0.812270	0.945100	0.133500
H51	H5	0.520100	0.911300	0.236900
H61	H6	0.520800	0.359400	0.237900
H71	H7	0.748600	0.431200	0.066500
H81	H8	0.773700	0.420400	0.989300
Co31	Co3	0.016650	0.121290	0.347690
O31	O3	0.730650	0.984200	0.463660
N191	N19	0.948160	0.143000	0.362160
N201	N20	0.870190	0.250100	0.350300
N211	N21	0.806590	0.245800	0.431800
N221	N22	0.034520	0.331100	0.419800
N231	N23	0.059940	0.623200	0.473700
N241	N24	0.028220	0.911400	0.424400
N251	N25	0.582940	0.594100	0.314870
N261	N26	0.664790	0.539600	0.313000
N271	N27	0.710990	0.365700	0.408600
C131	C13	0.911100	0.189900	0.361800
C141	C14	0.838150	0.240900	0.397300
C151	C15	0.044630	0.471700	0.442500
C161	C16	0.042140	0.774800	0.446000
C171	C17	0.621360	0.563400	0.316400
C181	C18	0.687730	0.445100	0.366500
H91	H9	0.979900	0.411300	0.263100
H101	H10	0.979200	0.859400	0.262100
H111	H11	0.751400	0.931200	0.433500
H121	H12	0.726300	0.920400	0.510700
Co41	Co4	0.516650	0.621290	0.347690
O41	O4	0.230650	0.484200	0.463660
N281	N28	0.448160	0.643000	0.362160
N291	N29	0.370190	0.750100	0.350300
N301	N30	0.306590	0.745800	0.431800
N311	N31	0.534520	0.831100	0.419800
N321	N32	0.559940	0.123200	0.473700
N331	N33	0.528220	0.411400	0.424400
N341	N34	0.082940	0.094100	0.314870
N351	N35	0.164790	0.039600	0.313000
N361	N36	0.210990	0.865700	0.408600
C191	C19	0.411100	0.689900	0.361800
C201	C20	0.338150	0.740900	0.397300
C211	C21	0.544630	0.971700	0.442500
C221	C22	0.542140	0.274800	0.446000
C231	C23	0.121360	0.063400	0.316400
C241	C24	0.187730	0.945100	0.366500
H131	H13	0.479900	0.911300	0.263100
H141	H14	0.479200	0.359400	0.262100
H151	H15	0.251400	0.431200	0.433500
H161	H16	0.226300	0.420400	0.510700
Co51	Co5	0.016650	0.878710	0.847690
O51	O5	0.730650	0.015800	0.963660
N371	N37	0.948160	0.857000	0.862160
N381	N38	0.870190	0.749900	0.850300
N391	N39	0.806590	0.754200	0.931800
N401	N40	0.034520	0.668900	0.919800
N411	N41	0.059940	0.376800	0.973700
N421	N42	0.028220	0.088600	0.924400
N431	N43	0.582940	0.405900	0.814870
N441	N44	0.664790	0.460400	0.813000
N451	N45	0.710990	0.634300	0.908600
C251	C25	0.911100	0.810100	0.861800
C261	C26	0.838150	0.759100	0.897300
C271	C27	0.044630	0.528300	0.942500
C281	C28	0.042140	0.225200	0.946000
C291	C29	0.621360	0.436600	0.816400
C301	C30	0.687730	0.554900	0.866500
H171	H17	0.979900	0.588700	0.763100
H181	H18	0.979200	0.140600	0.762100
H191	H19	0.751400	0.068800	0.933500
H201	H20	0.726300	0.079600	0.010700
Co61	Co6	0.516650	0.378710	0.847690
O61	O6	0.230650	0.515800	0.963660
N461	N46	0.448160	0.357000	0.862160
N471	N47	0.370190	0.249900	0.850300
N481	N48	0.306590	0.254200	0.931800
N491	N49	0.534520	0.168900	0.919800
N501	N50	0.559940	0.876800	0.973700
N511	N51	0.528220	0.588600	0.924400
N521	N52	0.082940	0.905900	0.814870
N531	N53	0.164790	0.960400	0.813000
N541	N54	0.210990	0.134300	0.908600
C311	C31	0.411100	0.310100	0.861800
C321	C32	0.338150	0.259100	0.897300
C331	C33	0.544630	0.028300	0.942500
C341	C34	0.542140	0.725200	0.946000
C351	C35	0.121360	0.936600	0.816400
C361	C36	0.187730	0.054900	0.866500
H211	H21	0.479900	0.088700	0.763100
H221	H22	0.479200	0.640600	0.762100
H231	H23	0.251400	0.568800	0.933500
H241	H24	0.226300	0.579600	0.010700
Co71	Co7	0.983350	0.878710	0.652310
O71	O7	0.269350	0.015800	0.536340
N551	N55	0.051840	0.857000	0.637840
N561	N56	0.129810	0.749900	0.649700
N571	N57	0.193410	0.754200	0.568200
N581	N58	0.965480	0.668900	0.580200
N591	N59	0.940060	0.376800	0.526300
N601	N60	0.971780	0.088600	0.575600
N611	N61	0.417060	0.405900	0.685130
N621	N62	0.335210	0.460400	0.687000
N631	N63	0.289010	0.634300	0.591400
C371	C37	0.088900	0.810100	0.638200
C381	C38	0.161850	0.759100	0.602700
C391	C39	0.955370	0.528300	0.557500
C401	C40	0.957860	0.225200	0.554000
C411	C41	0.378640	0.436600	0.683600
C421	C42	0.312270	0.554900	0.633500
H251	H25	0.020100	0.588700	0.736900
H261	H26	0.020800	0.140600	0.737900
H271	H27	0.248600	0.068800	0.566500
H281	H28	0.273700	0.079600	0.489300
Co81	Co8	0.483350	0.378710	0.652310
O81	O8	0.769350	0.515800	0.536340
N641	N64	0.551840	0.357000	0.637840
N651	N65	0.629810	0.249900	0.649700
N661	N66	0.693410	0.254200	0.568200
N671	N67	0.465480	0.168900	0.580200
N681	N68	0.440060	0.876800	0.526300
N691	N69	0.471780	0.588600	0.575600
N701	N70	0.917060	0.905900	0.685130
N711	N71	0.835210	0.960400	0.687000
N721	N72	0.789010	0.134300	0.591400
C431	C43	0.588900	0.310100	0.638200
C441	C44	0.661850	0.259100	0.602700
C451	C45	0.455370	0.028300	0.557500
C461	C46	0.457860	0.725200	0.554000
C471	C47	0.878640	0.936600	0.683600
C481	C48	0.812270	0.054900	0.633500
H291	H29	0.520100	0.088700	0.736900
H301	H30	0.520800	0.640600	0.737900
H311	H31	0.748600	0.568800	0.566500
H321	H32	0.773700	0.579600	0.489300
Co91	Co9	0.250000	0.250000	0.000000
Co101	Co10	0.750000	0.250000	0.500000
Co111	Co11	0.750000	0.750000	0.000000
Co121	Co12	0.250000	0.750000	0.500000
O91	O9	0.000000	0.327000	0.250000
O101	O10	0.000000	0.931700	0.250000
O111	O11	0.500000	0.827000	0.250000
O121	O12	0.500000	0.431700	0.250000
O131	O13	0.000000	0.673000	0.750000
O141	O14	0.000000	0.068300	0.750000
O151	O15	0.500000	0.173000	0.750000
O161	O16	0.500000	0.568300	0.750000
