data_MAKXAZ_freeONLY_PM
_symmetry_space_group_name_H-M	'P1'
_cell_length_a	6.639970
_cell_length_b	13.626100
_cell_length_c	24.467500
_cell_angle_alpha	75.884100
_cell_angle_beta	82.201500
_cell_angle_gamma	75.898000
_symmetry_Int_Tables_number 1

loop_
_symmetry_equiv_pos_as_xyz
'x,y,z'

loop_
_atom_site_label
_atom_site_type_symbol
_atom_site_fract_x
_atom_site_fract_y
_atom_site_fract_z
Zn11	Zn1	0.938470	0.902480	0.969120
Zn21	Zn2	0.810070	0.597520	0.530880
Zn31	Zn3	0.061530	0.097520	0.030880
Zn41	Zn4	0.189930	0.402480	0.469120
H11	H1	0.440100	0.946200	0.831000
H21	H2	0.619600	0.031700	0.753300
H31	H3	0.072600	0.194300	0.690700
H41	H4	0.893400	0.104600	0.767200
H51	H5	0.748600	0.075300	0.663500
H61	H6	0.934800	0.179000	0.596200
H71	H7	0.433700	0.418900	0.586500
H81	H8	0.247500	0.315600	0.654000
H91	H9	0.544000	0.864100	0.924300
H101	H10	0.427300	0.715500	0.923900
H111	H11	0.869600	0.540800	0.027800
H121	H12	0.986400	0.689200	0.028200
H131	H13	0.683100	0.463200	0.968200
H141	H14	0.475500	0.535700	0.941900
H151	H15	0.217300	0.553800	0.669000
H161	H16	0.404600	0.468300	0.746700
H171	H17	0.957600	0.305700	0.809300
H181	H18	0.765200	0.395400	0.732800
H191	H19	0.487400	0.424700	0.836500
H201	H20	0.710000	0.321000	0.903800
H211	H21	0.439100	0.081100	0.913500
H221	H22	0.217100	0.184400	0.846000
H231	H23	0.332400	0.635900	0.575700
H241	H24	0.066700	0.784500	0.576100
H251	H25	0.438200	0.959200	0.472200
H261	H26	0.703800	0.810800	0.471800
H271	H27	0.114500	0.036800	0.531800
H281	H28	0.953100	0.964300	0.558100
H291	H29	0.559900	0.053800	0.169000
H301	H30	0.380400	0.968300	0.246700
H311	H31	0.927400	0.805700	0.309300
H321	H32	0.106600	0.895400	0.232800
H331	H33	0.251400	0.924700	0.336500
H341	H34	0.065200	0.821000	0.403800
H351	H35	0.566300	0.581100	0.413500
H361	H36	0.752500	0.684400	0.346000
H371	H37	0.456000	0.135900	0.075700
H381	H38	0.572700	0.284500	0.076100
H391	H39	0.130400	0.459200	0.972200
H401	H40	0.013600	0.310800	0.971800
H411	H41	0.316900	0.536800	0.031800
H421	H42	0.524500	0.464300	0.058100
H431	H43	0.782700	0.446200	0.331000
H441	H44	0.595400	0.531700	0.253300
H451	H45	0.042400	0.694300	0.190700
H461	H46	0.234800	0.604600	0.267200
H471	H47	0.512600	0.575300	0.163500
H481	H48	0.290000	0.679000	0.096200
H491	H49	0.560900	0.918900	0.086500
H501	H50	0.782900	0.815600	0.154000
H511	H51	0.667600	0.364100	0.424300
H521	H52	0.933300	0.215500	0.423900
H531	H53	0.561800	0.040800	0.527800
H541	H54	0.296200	0.189200	0.528200
H551	H55	0.885500	0.963200	0.468200
H561	H56	0.046900	0.035700	0.441900
C11	C1	0.029000	0.967480	0.858920
C21	C2	0.147950	0.017000	0.807300
C31	C3	0.364840	0.996350	0.802370
C41	C4	0.471630	0.047960	0.756380
C51	C5	0.365260	0.124170	0.714110
C61	C6	0.148300	0.143700	0.719100
C71	C7	0.041290	0.090580	0.764840
C81	C8	0.480050	0.185920	0.667380
C91	C9	0.684790	0.145590	0.648630
C101	C10	0.795390	0.207340	0.608480
C111	C11	0.705250	0.310590	0.585710
C121	C12	0.499230	0.349520	0.602620
C131	C13	0.388530	0.287840	0.642900
C141	C14	0.828860	0.377980	0.545100
C151	C15	0.610100	0.798500	0.945300
C161	C16	0.540700	0.710300	0.945100
C171	C17	0.637400	0.614200	0.975800
C181	C18	0.803500	0.606400	0.006800
C191	C19	0.872900	0.694600	0.007000
C201	C20	0.561100	0.519200	0.974400
C211	C21	0.855400	0.532520	0.641080
C221	C22	0.972250	0.483000	0.692700
C231	C23	0.163560	0.503650	0.697630
C241	C24	0.275970	0.452040	0.743620
C251	C25	0.203540	0.375830	0.785890
C261	C26	0.011100	0.356300	0.780900
C271	C27	0.896710	0.409420	0.735160
C281	C28	0.333350	0.314080	0.832620
C291	C29	0.479010	0.354410	0.851370
C301	C30	0.611210	0.292660	0.891520
C311	C31	0.601550	0.189410	0.914290
C321	C32	0.451370	0.150480	0.897380
C331	C33	0.319270	0.212160	0.857100
C341	C34	0.751940	0.122020	0.954900
C351	C35	0.353900	0.701500	0.554700
C361	C36	0.196100	0.789700	0.554900
C371	C37	0.227400	0.885800	0.524200
C381	C38	0.416700	0.893600	0.493200
C391	C39	0.574500	0.805400	0.493000
C401	C40	0.054700	0.980800	0.525600
C411	C41	0.971000	0.032520	0.141080
C421	C42	0.852050	0.983000	0.192700
C431	C43	0.635160	0.003650	0.197630
C441	C44	0.528370	0.952040	0.243620
C451	C45	0.634740	0.875830	0.285890
C461	C46	0.851700	0.856300	0.280900
C471	C47	0.958710	0.909420	0.235160
C481	C48	0.519950	0.814080	0.332620
C491	C49	0.315210	0.854410	0.351370
C501	C50	0.204610	0.792660	0.391520
C511	C51	0.294750	0.689410	0.414290
C521	C52	0.500770	0.650480	0.397380
C531	C53	0.611470	0.712160	0.357100
C541	C54	0.171140	0.622020	0.454900
C551	C55	0.389900	0.201500	0.054700
C561	C56	0.459300	0.289700	0.054900
C571	C57	0.362600	0.385800	0.024200
C581	C58	0.196500	0.393600	0.993200
C591	C59	0.127100	0.305400	0.993000
C601	C60	0.438900	0.480800	0.025600
C611	C61	0.144600	0.467480	0.358920
C621	C62	0.027750	0.517000	0.307300
C631	C63	0.836440	0.496350	0.302370
C641	C64	0.724030	0.547960	0.256380
C651	C65	0.796460	0.624170	0.214110
C661	C66	0.988900	0.643700	0.219100
C671	C67	0.103290	0.590580	0.264840
C681	C68	0.666650	0.685920	0.167380
C691	C69	0.520990	0.645590	0.148630
C701	C70	0.388790	0.707340	0.108480
C711	C71	0.398450	0.810590	0.085710
C721	C72	0.548630	0.849520	0.102620
C731	C73	0.680730	0.787840	0.142900
C741	C74	0.248060	0.877980	0.045100
C751	C75	0.646100	0.298500	0.445300
C761	C76	0.803900	0.210300	0.445100
C771	C77	0.772600	0.114200	0.475800
C781	C78	0.583300	0.106400	0.506800
C791	C79	0.425500	0.194600	0.507000
C801	C80	0.945300	0.019200	0.474400
N11	N1	0.776200	0.790700	0.976300
N21	N2	0.543200	0.709300	0.523700
N31	N3	0.223800	0.209300	0.023700
N41	N4	0.456800	0.290700	0.476300
O11	O1	0.132260	0.929390	0.903290
O21	O2	0.845570	0.965530	0.857530
O31	O3	0.740270	0.470220	0.524040
O41	O4	0.018780	0.338480	0.533760
O51	O5	0.964940	0.570610	0.596710
O61	O6	0.668630	0.534470	0.642470
O71	O7	0.734530	0.029780	0.975960
O81	O8	0.891020	0.161520	0.966240
O91	O9	0.867740	0.070610	0.096710
O101	O10	0.154430	0.034470	0.142470
O111	O11	0.259730	0.529780	0.475960
O121	O12	0.981220	0.661520	0.466240
O131	O13	0.035060	0.429390	0.403290
O141	O14	0.331370	0.465530	0.357530
O151	O15	0.265470	0.970220	0.024040
O161	O16	0.108980	0.838480	0.033760
