data_MALSOK_freeONLY_PM
_symmetry_space_group_name_H-M	'P1'
_cell_length_a	21.847000
_cell_length_b	21.847000
_cell_length_c	6.872900
_cell_angle_alpha	90.000000
_cell_angle_beta	90.000000
_cell_angle_gamma	120.000000
_symmetry_Int_Tables_number 1

loop_
_symmetry_equiv_pos_as_xyz
'x,y,z'

loop_
_atom_site_label
_atom_site_type_symbol
_atom_site_fract_x
_atom_site_fract_y
_atom_site_fract_z
Fe11	Fe1	0.612900	0.285400	0.156000
O11	O1	0.646000	0.241600	0.966000
O21	O2	0.637100	0.279900	0.583000
O31	O3	0.586400	0.205200	0.359000
C11	C1	0.613800	0.174400	0.878700
C21	C2	0.594000	0.164900	0.681000
C31	C3	0.560200	0.095800	0.602900
C41	C4	0.544900	0.035500	0.710500
C51	C5	0.563800	0.046500	0.908900
C61	C6	0.596200	0.113200	0.991100
C71	C7	0.605000	0.222900	0.548100
H11	H1	0.547000	0.089800	0.469400
H21	H2	0.553800	0.006700	0.988100
H31	H3	0.607000	0.118200	0.126200
Fe21	Fe2	0.714600	0.327500	0.822670
O41	O4	0.758400	0.404400	0.632670
O51	O5	0.720100	0.357200	0.249670
O61	O6	0.794800	0.381200	0.025670
C81	C8	0.825600	0.439400	0.545370
C91	C9	0.835100	0.429100	0.347670
C101	C10	0.904200	0.464400	0.269570
C111	C11	0.964500	0.509400	0.377170
C121	C12	0.953500	0.517300	0.575570
C131	C13	0.886800	0.483000	0.657770
C141	C14	0.777100	0.382100	0.214770
H41	H4	0.910200	0.457200	0.136070
H51	H5	0.993300	0.547100	0.654770
H61	H6	0.881800	0.488800	0.792870
Fe31	Fe3	0.672500	0.387100	0.489330
O71	O7	0.595600	0.354000	0.299330
O81	O8	0.642800	0.362900	0.916330
O91	O9	0.618800	0.413600	0.692330
C151	C15	0.560600	0.386200	0.212030
C161	C16	0.570900	0.406000	0.014330
C171	C17	0.535600	0.439800	0.936230
C181	C18	0.490600	0.455100	0.043830
C191	C19	0.482700	0.436200	0.242230
C201	C20	0.517000	0.403800	0.324430
C211	C21	0.617900	0.395000	0.881430
H71	H7	0.542800	0.453000	0.802730
H81	H8	0.452900	0.446200	0.321430
H91	H9	0.511200	0.393000	0.459530
Fe41	Fe4	0.285400	0.612900	0.844000
O101	O10	0.241600	0.646000	0.034000
O111	O11	0.279900	0.637100	0.417000
O121	O12	0.205200	0.586400	0.641000
C221	C22	0.174400	0.613800	0.121300
C231	C23	0.164900	0.594000	0.319000
C241	C24	0.095800	0.560200	0.397100
C251	C25	0.035500	0.544900	0.289500
C261	C26	0.046500	0.563800	0.091100
C271	C27	0.113200	0.596200	0.008900
C281	C28	0.222900	0.605000	0.451900
H101	H10	0.089800	0.547000	0.530600
H111	H11	0.006700	0.553800	0.011900
H121	H12	0.118200	0.607000	0.873800
Fe51	Fe5	0.327500	0.714600	0.177330
O131	O13	0.404400	0.758400	0.367330
O141	O14	0.357200	0.720100	0.750330
O151	O15	0.381200	0.794800	0.974330
C291	C29	0.439400	0.825600	0.454630
C301	C30	0.429100	0.835100	0.652330
C311	C31	0.464400	0.904200	0.730430
C321	C32	0.509400	0.964500	0.622830
C331	C33	0.517300	0.953500	0.424430
C341	C34	0.483000	0.886800	0.342230
C351	C35	0.382100	0.777100	0.785230
H131	H13	0.457200	0.910200	0.863930
H141	H14	0.547100	0.993300	0.345230
H151	H15	0.488800	0.881800	0.207130
Fe61	Fe6	0.387100	0.672500	0.510670
O161	O16	0.354000	0.595600	0.700670
O171	O17	0.362900	0.642800	0.083670
O181	O18	0.413600	0.618800	0.307670
C361	C36	0.386200	0.560600	0.787970
C371	C37	0.406000	0.570900	0.985670
C381	C38	0.439800	0.535600	0.063770
C391	C39	0.455100	0.490600	0.956170
C401	C40	0.436200	0.482700	0.757770
C411	C41	0.403800	0.517000	0.675570
C421	C42	0.395000	0.617900	0.118570
H161	H16	0.453000	0.542800	0.197270
H171	H17	0.446200	0.452900	0.678570
H181	H18	0.393000	0.511200	0.540470
