data_MAQRAA_freeONLY_PM
_symmetry_space_group_name_H-M	'P1'
_cell_length_a	6.588600
_cell_length_b	16.760700
_cell_length_c	11.715700
_cell_angle_alpha	90.000000
_cell_angle_beta	95.644000
_cell_angle_gamma	90.000000
_symmetry_Int_Tables_number 1

loop_
_symmetry_equiv_pos_as_xyz
'x,y,z'

loop_
_atom_site_label
_atom_site_type_symbol
_atom_site_fract_x
_atom_site_fract_y
_atom_site_fract_z
C11	C1	0.066800	0.631790	0.855700
C21	C2	0.189700	0.693930	0.804600
C31	C3	0.394600	0.708940	0.817900
H11	H1	0.488100	0.678700	0.864100
C41	C4	0.448300	0.775400	0.753700
H21	H2	0.581300	0.793700	0.752400
C51	C5	0.282200	0.810160	0.693100
C61	C6	0.274300	0.880980	0.616600
S11	S1	0.060510	0.761430	0.714500
O11	O1	0.833500	0.015850	0.624130
H31	H3	0.845800	0.990800	0.687500
H41	H4	0.780200	0.059000	0.645000
O21	O2	0.160100	0.575090	0.912200
O31	O3	0.878200	0.639370	0.839410
O41	O4	0.442900	0.912370	0.601460
O51	O5	0.099900	0.902400	0.574750
C71	C7	0.433200	0.131790	0.644300
C81	C8	0.310300	0.193930	0.695400
C91	C9	0.105400	0.208940	0.682100
H51	H5	0.011900	0.178700	0.635900
C101	C10	0.051700	0.275400	0.746300
H61	H6	0.918700	0.293700	0.747600
C111	C11	0.217800	0.310160	0.806900
C121	C12	0.225700	0.380980	0.883400
S21	S2	0.439490	0.261430	0.785500
O61	O6	0.666500	0.515850	0.875870
H71	H7	0.654200	0.490800	0.812500
H81	H8	0.719800	0.559000	0.855000
O71	O7	0.339900	0.075090	0.587800
O81	O8	0.621800	0.139370	0.660590
O91	O9	0.057100	0.412370	0.898540
O101	O10	0.400100	0.402400	0.925250
C131	C13	0.933200	0.368210	0.144300
C141	C14	0.810300	0.306070	0.195400
C151	C15	0.605400	0.291060	0.182100
H91	H9	0.511900	0.321300	0.135900
C161	C16	0.551700	0.224600	0.246300
H101	H10	0.418700	0.206300	0.247600
C171	C17	0.717800	0.189840	0.306900
C181	C18	0.725700	0.119020	0.383400
S31	S3	0.939490	0.238570	0.285500
O111	O11	0.166500	0.984150	0.375870
H111	H11	0.154200	0.009200	0.312500
H121	H12	0.219800	0.941000	0.355000
O121	O12	0.839900	0.424910	0.087800
O131	O13	0.121800	0.360630	0.160590
O141	O14	0.557100	0.087630	0.398540
O151	O15	0.900100	0.097600	0.425250
C191	C19	0.566800	0.868210	0.355700
C201	C20	0.689700	0.806070	0.304600
C211	C21	0.894600	0.791060	0.317900
H131	H13	0.988100	0.821300	0.364100
C221	C22	0.948300	0.724600	0.253700
H141	H14	0.081300	0.706300	0.252400
C231	C23	0.782200	0.689840	0.193100
C241	C24	0.774300	0.619020	0.116600
S41	S4	0.560510	0.738570	0.214500
O161	O16	0.333500	0.484150	0.124130
H151	H15	0.345800	0.509200	0.187500
H161	H16	0.280200	0.441000	0.145000
O171	O17	0.660100	0.924910	0.412200
O181	O18	0.378200	0.860630	0.339410
O191	O19	0.942900	0.587630	0.101460
O201	O20	0.599900	0.597600	0.074750
Cu11	Cu1	0.000000	0.500000	0.000000
Cu21	Cu2	0.500000	0.000000	0.500000
Cu31	Cu3	0.000000	0.000000	0.500000
Cu41	Cu4	0.500000	0.500000	0.000000
