data_MARDAM_charged_PM
_symmetry_space_group_name_H-M	'P1'
_cell_length_a	16.082400
_cell_length_b	23.864200
_cell_length_c	23.864200
_cell_angle_alpha	83.480600
_cell_angle_beta	70.308400
_cell_angle_gamma	70.308500
_symmetry_Int_Tables_number 1

loop_
_symmetry_equiv_pos_as_xyz
'x,y,z'

loop_
_atom_site_label
_atom_site_type_symbol
_atom_site_fract_x
_atom_site_fract_y
_atom_site_fract_z
Co11	Co1	0.350480	0.067580	0.654120
Co21	Co2	0.572180	0.432420	0.845880
Co31	Co3	0.004600	0.345880	0.567580
Co41	Co4	0.418060	0.154120	0.932420
Co51	Co5	0.649520	0.932420	0.345880
Co61	Co6	0.427820	0.567580	0.154120
Co71	Co7	0.995400	0.654120	0.432420
Co81	Co8	0.581940	0.845880	0.067580
Co91	Co9	0.500000	0.000000	0.500000
Co101	Co10	0.500000	0.500000	0.000000
Co111	Co11	0.000000	0.500000	0.500000
Co121	Co12	0.500000	0.000000	0.000000
H11	H1	0.359200	0.199800	0.607400
H21	H2	0.517600	0.132500	0.450300
H31	H3	0.578200	0.214600	0.441800
H41	H4	0.324800	0.292500	0.554100
H51	H5	0.590900	0.306600	0.407000
H61	H6	0.339000	0.384700	0.520700
H71	H7	0.420900	0.447600	0.458600
H81	H8	0.488200	0.419500	0.396700
H91	H9	0.629000	0.439400	0.368400
H101	H10	0.510300	0.414900	0.539900
H111	H11	0.758600	0.444300	0.387500
H121	H12	0.635900	0.420900	0.561300
H131	H13	0.821100	0.353600	0.536000
H141	H14	0.822200	0.506100	0.455900
H151	H15	0.496300	0.978300	0.713900
H161	H16	0.647900	0.904300	0.557900
H171	H17	0.763300	0.854600	0.595200
H181	H18	0.573100	0.894400	0.757800
H191	H19	0.861700	0.783400	0.637600
H201	H20	0.676800	0.825100	0.798300
H211	H21	0.856100	0.767500	0.780300
H221	H22	0.666400	0.300200	0.892600
H231	H23	0.600400	0.367500	0.049700
H241	H24	0.734600	0.285400	0.058200
H251	H25	0.671400	0.207500	0.945900
H261	H26	0.804500	0.193400	0.093000
H271	H27	0.744400	0.115300	0.979300
H281	H28	0.827100	0.052400	0.041400
H291	H29	0.804400	0.080500	0.103300
H301	H30	0.936800	0.060600	0.131600
H311	H31	0.965100	0.085100	0.960100
H321	H32	0.090400	0.055700	0.112500
H331	H33	0.118100	0.079100	0.938700
H341	H34	0.210700	0.146400	0.964000
H351	H35	0.284200	0.993900	0.044100
H361	H36	0.688500	0.521700	0.786100
H371	H37	0.610100	0.595700	0.942100
H381	H38	0.713100	0.645400	0.904800
H391	H39	0.725300	0.605600	0.742200
H401	H40	0.782700	0.716600	0.862400
H411	H41	0.800200	0.674900	0.701700
H421	H42	0.903900	0.732500	0.719700
H431	H43	0.966600	0.392600	0.699800
H441	H44	0.967900	0.549700	0.632500
H451	H45	0.020000	0.558200	0.714600
H461	H46	0.878900	0.445900	0.792500
H471	H47	0.997900	0.593000	0.806600
H481	H48	0.859700	0.479300	0.884700
H491	H49	0.879500	0.541400	0.947600
H501	H50	0.884900	0.603300	0.919500
H511	H51	0.997400	0.631600	0.939400
H521	H52	0.050200	0.460100	0.914900
H531	H53	0.146100	0.612500	0.944300
H541	H54	0.197200	0.438700	0.920900
H551	H55	0.357100	0.464000	0.853600
H561	H56	0.278100	0.544100	0.006100
H571	H57	0.210200	0.286100	0.478300
H581	H58	0.205800	0.442100	0.404300
H591	H59	0.358500	0.404800	0.354600
H601	H60	0.330900	0.242200	0.394400
H611	H61	0.499300	0.362400	0.283400
H621	H62	0.475100	0.201700	0.325100
H631	H63	0.636400	0.219700	0.267500
H641	H64	0.559000	0.107400	0.800200
H651	H65	0.650100	0.950300	0.867500
H661	H66	0.792800	0.941800	0.785400
H671	H67	0.617300	0.054100	0.707500
H681	H68	0.897500	0.907000	0.693400
H691	H69	0.723700	0.020700	0.615300
H701	H70	0.868500	0.958600	0.552400
H711	H71	0.907700	0.896700	0.580500
H721	H72	0.068400	0.868400	0.560600
H731	H73	0.925200	0.039900	0.585100
H741	H74	0.202900	0.887500	0.555700
H751	H75	0.056800	0.061300	0.579100
H761	H76	0.174700	0.036000	0.646400
H771	H77	0.328300	0.955900	0.493900
H781	H78	0.474600	0.213900	0.021700
H791	H79	0.552200	0.057900	0.095700
H801	H80	0.617900	0.095200	0.145400
H811	H81	0.467500	0.257800	0.105600
H821	H82	0.645100	0.137600	0.216600
H831	H83	0.501900	0.298300	0.174900
H841	H84	0.623600	0.280300	0.232500
H851	H85	0.640800	0.800200	0.392600
H861	H86	0.482400	0.867500	0.549700
H871	H87	0.421800	0.785400	0.558200
H881	H88	0.675200	0.707500	0.445900
H891	H89	0.409100	0.693400	0.593000
H901	H90	0.661000	0.615300	0.479300
H911	H91	0.579100	0.552400	0.541400
H921	H92	0.511800	0.580500	0.603300
H931	H93	0.371000	0.560600	0.631600
H941	H94	0.489700	0.585100	0.460100
H951	H95	0.241400	0.555700	0.612500
H961	H96	0.364100	0.579100	0.438700
H971	H97	0.178900	0.646400	0.464000
H981	H98	0.177800	0.493900	0.544100
H991	H99	0.503700	0.021700	0.286100
H1001	H100	0.352100	0.095700	0.442100
H1011	H101	0.236700	0.145400	0.404800
H1021	H102	0.426900	0.105600	0.242200
H1031	H103	0.138300	0.216600	0.362400
H1041	H104	0.323200	0.174900	0.201700
H1051	H105	0.143900	0.232500	0.219700
H1061	H106	0.333600	0.699800	0.107400
H1071	H107	0.399600	0.632500	0.950300
H1081	H108	0.265400	0.714600	0.941800
H1091	H109	0.328600	0.792500	0.054100
H1101	H110	0.195500	0.806600	0.907000
H1111	H111	0.255600	0.884700	0.020700
H1121	H112	0.172900	0.947600	0.958600
H1131	H113	0.195600	0.919500	0.896700
H1141	H114	0.063200	0.939400	0.868400
H1151	H115	0.034900	0.914900	0.039900
H1161	H116	0.909600	0.944300	0.887500
H1171	H117	0.881900	0.920900	0.061300
H1181	H118	0.789300	0.853600	0.036000
H1191	H119	0.715800	0.006100	0.955900
H1201	H120	0.311500	0.478300	0.213900
H1211	H121	0.389900	0.404300	0.057900
H1221	H122	0.286900	0.354600	0.095200
H1231	H123	0.274700	0.394400	0.257800
H1241	H124	0.217300	0.283400	0.137600
H1251	H125	0.199800	0.325100	0.298300
H1261	H126	0.096100	0.267500	0.280300
H1271	H127	0.033400	0.607400	0.300200
H1281	H128	0.032100	0.450300	0.367500
H1291	H129	0.980000	0.441800	0.285400
H1301	H130	0.121100	0.554100	0.207500
H1311	H131	0.002100	0.407000	0.193400
H1321	H132	0.140300	0.520700	0.115300
H1331	H133	0.120500	0.458600	0.052400
H1341	H134	0.115100	0.396700	0.080500
H1351	H135	0.002600	0.368400	0.060600
H1361	H136	0.949800	0.539900	0.085100
H1371	H137	0.853900	0.387500	0.055700
H1381	H138	0.802800	0.561300	0.079100
H1391	H139	0.642900	0.536000	0.146400
H1401	H140	0.721900	0.455900	0.993900
H1411	H141	0.789800	0.713900	0.521700
H1421	H142	0.794200	0.557900	0.595700
H1431	H143	0.641500	0.595200	0.645400
H1441	H144	0.669100	0.757800	0.605600
H1451	H145	0.500700	0.637600	0.716600
H1461	H146	0.524900	0.798300	0.674900
H1471	H147	0.363600	0.780300	0.732500
H1481	H148	0.441000	0.892600	0.199800
H1491	H149	0.349900	0.049700	0.132500
H1501	H150	0.207200	0.058200	0.214600
H1511	H151	0.382700	0.945900	0.292500
H1521	H152	0.102500	0.093000	0.306600
H1531	H153	0.276300	0.979300	0.384700
H1541	H154	0.131500	0.041400	0.447600
H1551	H155	0.092300	0.103300	0.419500
H1561	H156	0.931600	0.131600	0.439400
H1571	H157	0.074800	0.960100	0.414900
H1581	H158	0.797100	0.112500	0.444300
H1591	H159	0.943200	0.938700	0.420900
H1601	H160	0.825300	0.964000	0.353600
H1611	H161	0.671700	0.044100	0.506100
H1621	H162	0.525400	0.786100	0.978300
H1631	H163	0.447800	0.942100	0.904300
H1641	H164	0.382100	0.904800	0.854600
H1651	H165	0.532500	0.742200	0.894400
H1661	H166	0.354900	0.862400	0.783400
H1671	H167	0.498100	0.701700	0.825100
H1681	H168	0.376400	0.719700	0.767500
C11	C1	0.394100	0.172980	0.576220
C21	C2	0.480860	0.136260	0.490020
C31	C3	0.450650	0.245150	0.499950
C41	C4	0.529400	0.249000	0.457400
C51	C5	0.378400	0.295400	0.524600
C61	C6	0.537200	0.304200	0.437000
C71	C7	0.387400	0.350500	0.504300
C81	C8	0.465700	0.356100	0.460700
C91	C9	0.477800	0.416300	0.439300
C101	C10	0.558000	0.425100	0.452100
C111	C11	0.631200	0.434900	0.407100
C121	C12	0.560700	0.420500	0.509100
C131	C13	0.708700	0.438100	0.418300
C141	C14	0.635300	0.423900	0.522300
C151	C15	0.837500	0.387470	0.520730
C161	C16	0.837890	0.470990	0.477030
C171	C17	0.710400	0.431900	0.475500
C181	C18	0.518020	0.969730	0.673430
C191	C19	0.601300	0.929210	0.587990
C201	C20	0.658640	0.881510	0.672210
C211	C21	0.745200	0.848510	0.636090
C221	C22	0.631780	0.872640	0.733400
C231	C23	0.804050	0.806540	0.661760
C241	C24	0.693900	0.830900	0.757300
C251	C25	0.779830	0.797850	0.722490
C261	C26	0.643300	0.327020	0.923780
C271	C27	0.607140	0.363740	0.009980
C281	C28	0.695750	0.254850	0.000050
C291	C29	0.735800	0.251000	0.042600
C301	C30	0.698400	0.204600	0.975400
C311	C31	0.778400	0.195800	0.063000
C321	C32	0.742200	0.149500	0.995700
C331	C33	0.782500	0.143900	0.039300
C341	C34	0.833400	0.083700	0.060700
C351	C35	0.935200	0.074900	0.047900
C361	C36	0.973200	0.065100	0.092900
C371	C37	0.990300	0.079500	0.990900
C381	C38	0.065100	0.061900	0.081700
C391	C39	0.081500	0.076100	0.977700
C401	C40	0.245700	0.112530	0.979270
C411	C41	0.285910	0.029010	0.022970
C421	C42	0.117800	0.068100	0.024500
C431	C43	0.661180	0.530270	0.826570
C441	C44	0.618500	0.570790	0.912010
C451	C45	0.712360	0.618490	0.827790
C461	C46	0.729800	0.651490	0.863910
C471	C47	0.737820	0.627360	0.766600
C481	C48	0.772350	0.693460	0.838240
C491	C49	0.782100	0.669100	0.742700
C501	C50	0.800170	0.702150	0.777510
C511	C51	0.970320	0.423780	0.672980
C521	C52	0.970880	0.509980	0.636260
C531	C53	0.950600	0.500050	0.745150
C541	C54	0.986800	0.542600	0.749000
C551	C55	0.903000	0.475400	0.795400
C561	C56	0.974200	0.563000	0.804200
C571	C57	0.891700	0.495700	0.850500
C581	C58	0.926400	0.539300	0.856100
C591	C59	0.917100	0.560700	0.916300
C601	C60	0.010100	0.547900	0.925100
C611	C61	0.038300	0.592900	0.934900
C621	C62	0.069800	0.490900	0.920500
C631	C63	0.127000	0.581700	0.938100
C641	C64	0.157600	0.477700	0.923900
C651	C65	0.358230	0.479270	0.887470
C661	C66	0.314920	0.522970	0.970990
C671	C67	0.185900	0.524500	0.931900
C681	C68	0.191450	0.326570	0.469730
C691	C69	0.189290	0.412010	0.429210
C701	C70	0.330850	0.327790	0.381510
C711	C71	0.381290	0.363910	0.348510
C721	C72	0.365180	0.266600	0.372640
C731	C73	0.465810	0.338240	0.306540
C741	C74	0.451200	0.242700	0.330900
C751	C75	0.502320	0.277510	0.297850
C761	C76	0.567080	0.076220	0.827020
C771	C77	0.617120	0.990020	0.863740
C781	C78	0.695800	0.999950	0.754850
C791	C79	0.778400	0.957400	0.751000
C801	C80	0.673800	0.024600	0.704600
C811	C81	0.841400	0.937000	0.695800
C821	C82	0.737900	0.004300	0.649500
C831	C83	0.821800	0.960700	0.643900
C841	C84	0.894100	0.939300	0.583700
C851	C85	0.983100	0.952100	0.574900
C861	C86	0.066100	0.907100	0.565100
C871	C87	0.981200	0.009100	0.579500
C881	C88	0.146800	0.918300	0.561900
C891	C89	0.059200	0.022300	0.576100
C901	C90	0.224970	0.020730	0.612530
C911	C91	0.308880	0.977030	0.529010
C921	C92	0.142300	0.975500	0.568100
C931	C93	0.487750	0.173430	0.030270
C941	C94	0.530510	0.087990	0.070790
C951	C95	0.540150	0.172210	0.118490
C961	C96	0.593710	0.136090	0.151490
C971	C97	0.504420	0.233400	0.127360
C981	C98	0.610590	0.161760	0.193460
C991	C99	0.524800	0.257300	0.169100
C1001	C100	0.577680	0.222490	0.202150
C1011	C101	0.605900	0.827020	0.423780
C1021	C102	0.519140	0.863740	0.509980
C1031	C103	0.549350	0.754850	0.500050
C1041	C104	0.470600	0.751000	0.542600
C1051	C105	0.621600	0.704600	0.475400
C1061	C106	0.462800	0.695800	0.563000
C1071	C107	0.612600	0.649500	0.495700
C1081	C108	0.534300	0.643900	0.539300
C1091	C109	0.522200	0.583700	0.560700
C1101	C110	0.442000	0.574900	0.547900
C1111	C111	0.368800	0.565100	0.592900
C1121	C112	0.439300	0.579500	0.490900
C1131	C113	0.291300	0.561900	0.581700
C1141	C114	0.364700	0.576100	0.477700
C1151	C115	0.162500	0.612530	0.479270
C1161	C116	0.162110	0.529010	0.522970
C1171	C117	0.289600	0.568100	0.524500
C1181	C118	0.481980	0.030270	0.326570
C1191	C119	0.398700	0.070790	0.412010
C1201	C120	0.341360	0.118490	0.327790
C1211	C121	0.254800	0.151490	0.363910
C1221	C122	0.368220	0.127360	0.266600
C1231	C123	0.195950	0.193460	0.338240
C1241	C124	0.306100	0.169100	0.242700
C1251	C125	0.220170	0.202150	0.277510
C1261	C126	0.356700	0.672980	0.076220
C1271	C127	0.392860	0.636260	0.990020
C1281	C128	0.304250	0.745150	0.999950
C1291	C129	0.264200	0.749000	0.957400
C1301	C130	0.301600	0.795400	0.024600
C1311	C131	0.221600	0.804200	0.937000
C1321	C132	0.257800	0.850500	0.004300
C1331	C133	0.217500	0.856100	0.960700
C1341	C134	0.166600	0.916300	0.939300
C1351	C135	0.064800	0.925100	0.952100
C1361	C136	0.026800	0.934900	0.907100
C1371	C137	0.009700	0.920500	0.009100
C1381	C138	0.934900	0.938100	0.918300
C1391	C139	0.918500	0.923900	0.022300
C1401	C140	0.754300	0.887470	0.020730
C1411	C141	0.714090	0.970990	0.977030
C1421	C142	0.882200	0.931900	0.975500
C1431	C143	0.338820	0.469730	0.173430
C1441	C144	0.381500	0.429210	0.087990
C1451	C145	0.287640	0.381510	0.172210
C1461	C146	0.270200	0.348510	0.136090
C1471	C147	0.262180	0.372640	0.233400
C1481	C148	0.227650	0.306540	0.161760
C1491	C149	0.217900	0.330900	0.257300
C1501	C150	0.199830	0.297850	0.222490
C1511	C151	0.029680	0.576220	0.327020
C1521	C152	0.029120	0.490020	0.363740
C1531	C153	0.049400	0.499950	0.254850
C1541	C154	0.013200	0.457400	0.251000
C1551	C155	0.097000	0.524600	0.204600
C1561	C156	0.025800	0.437000	0.195800
C1571	C157	0.108300	0.504300	0.149500
C1581	C158	0.073600	0.460700	0.143900
C1591	C159	0.082900	0.439300	0.083700
C1601	C160	0.989900	0.452100	0.074900
C1611	C161	0.961700	0.407100	0.065100
C1621	C162	0.930200	0.509100	0.079500
C1631	C163	0.873000	0.418300	0.061900
C1641	C164	0.842400	0.522300	0.076100
C1651	C165	0.641770	0.520730	0.112530
C1661	C166	0.685080	0.477030	0.029010
C1671	C167	0.814100	0.475500	0.068100
C1681	C168	0.808550	0.673430	0.530270
C1691	C169	0.810710	0.587990	0.570790
C1701	C170	0.669150	0.672210	0.618490
C1711	C171	0.618710	0.636090	0.651490
C1721	C172	0.634820	0.733400	0.627360
C1731	C173	0.534190	0.661760	0.693460
C1741	C174	0.548800	0.757300	0.669100
C1751	C175	0.497680	0.722490	0.702150
C1761	C176	0.432920	0.923780	0.172980
C1771	C177	0.382880	0.009980	0.136260
C1781	C178	0.304200	0.000050	0.245150
C1791	C179	0.221600	0.042600	0.249000
C1801	C180	0.326200	0.975400	0.295400
C1811	C181	0.158600	0.063000	0.304200
C1821	C182	0.262100	0.995700	0.350500
C1831	C183	0.178200	0.039300	0.356100
C1841	C184	0.105900	0.060700	0.416300
C1851	C185	0.016900	0.047900	0.425100
C1861	C186	0.933900	0.092900	0.434900
C1871	C187	0.018800	0.990900	0.420500
C1881	C188	0.853200	0.081700	0.438100
C1891	C189	0.940800	0.977700	0.423900
C1901	C190	0.775030	0.979270	0.387470
C1911	C191	0.691120	0.022970	0.470990
C1921	C192	0.857700	0.024500	0.431900
C1931	C193	0.512250	0.826570	0.969730
C1941	C194	0.469490	0.912010	0.929210
C1951	C195	0.459850	0.827790	0.881510
C1961	C196	0.406290	0.863910	0.848510
C1971	C197	0.495580	0.766600	0.872640
C1981	C198	0.389410	0.838240	0.806540
C1991	C199	0.475200	0.742700	0.830900
C2001	C200	0.422320	0.777510	0.797850
C2011	C201	0.844700	0.750000	0.750000
C2021	C202	0.594700	0.250000	0.250000
C2031	C203	0.155300	0.250000	0.250000
C2041	C204	0.405300	0.750000	0.750000
N11	N1	0.443360	0.187410	0.521070
N21	N2	0.402390	0.116760	0.579260
N31	N3	0.458930	0.092610	0.522930
N41	N4	0.792810	0.430560	0.489420
N51	N5	0.906160	0.454150	0.498730
N61	N6	0.905920	0.400000	0.526360
N71	N7	0.595960	0.923960	0.645920
N81	N8	0.532450	0.973840	0.579660
N91	N9	0.478920	0.999400	0.634960
N101	N10	0.651840	0.312590	0.978930
N111	N11	0.598410	0.383240	0.920740
N121	N12	0.574470	0.407390	0.977070
N131	N13	0.212790	0.069440	0.010580
N141	N14	0.359040	0.045850	0.001270
N151	N15	0.332280	0.100000	0.973640
N161	N16	0.665840	0.576040	0.854080
N171	N17	0.585950	0.526160	0.920340
N181	N18	0.613280	0.500600	0.865040
N191	N19	0.964430	0.478930	0.687410
N201	N20	0.981650	0.420740	0.616760
N211	N21	0.981860	0.477070	0.592610
N221	N22	0.282230	0.510580	0.930560
N231	N23	0.404890	0.501270	0.954150
N241	N24	0.432280	0.473640	0.900000
N251	N25	0.241880	0.354080	0.423960
N261	N26	0.112110	0.420340	0.473840
N271	N27	0.113880	0.365040	0.499400
N281	N28	0.630770	0.021070	0.812590
N291	N29	0.519150	0.079260	0.883240
N301	N30	0.551540	0.022930	0.907390
N311	N31	0.223370	0.989420	0.569440
N321	N32	0.360310	0.998730	0.545850
N331	N33	0.305920	0.026360	0.600000
N341	N34	0.519920	0.145920	0.076040
N351	N35	0.506290	0.079660	0.026160
N361	N36	0.478320	0.134960	0.000600
N371	N37	0.556640	0.812590	0.478930
N381	N38	0.597610	0.883240	0.420740
N391	N39	0.541070	0.907390	0.477070
N401	N40	0.207190	0.569440	0.510580
N411	N41	0.093840	0.545850	0.501270
N421	N42	0.094080	0.600000	0.473640
N431	N43	0.404040	0.076040	0.354080
N441	N44	0.467550	0.026160	0.420340
N451	N45	0.521080	0.000600	0.365040
N461	N46	0.348160	0.687410	0.021070
N471	N47	0.401590	0.616760	0.079260
N481	N48	0.425530	0.592610	0.022930
N491	N49	0.787210	0.930560	0.989420
N501	N50	0.640960	0.954150	0.998730
N511	N51	0.667720	0.900000	0.026360
N521	N52	0.334160	0.423960	0.145920
N531	N53	0.414050	0.473840	0.079660
N541	N54	0.386720	0.499400	0.134960
N551	N55	0.035570	0.521070	0.312590
N561	N56	0.018350	0.579260	0.383240
N571	N57	0.018140	0.522930	0.407390
N581	N58	0.717770	0.489420	0.069440
N591	N59	0.595110	0.498730	0.045850
N601	N60	0.567720	0.526360	0.100000
N611	N61	0.758120	0.645920	0.576040
N621	N62	0.887890	0.579660	0.526160
N631	N63	0.886120	0.634960	0.500600
N641	N64	0.369230	0.978930	0.187410
N651	N65	0.480850	0.920740	0.116760
N661	N66	0.448460	0.977070	0.092610
N671	N67	0.776630	0.010580	0.430560
N681	N68	0.639690	0.001270	0.454150
N691	N69	0.694080	0.973640	0.400000
N701	N70	0.480080	0.854080	0.923960
N711	N71	0.493710	0.920340	0.973840
N721	N72	0.521680	0.865040	0.999400
O11	O1	0.300800	0.017440	0.730160
O21	O2	0.219720	0.132150	0.679010
O31	O3	0.391950	0.110770	0.706730
O41	O4	0.548400	0.482560	0.769840
O51	O5	0.530880	0.367850	0.820990
O61	O6	0.709450	0.389230	0.793270
O71	O7	0.030960	0.269840	0.517440
O81	O8	0.898730	0.320990	0.632150
O91	O9	0.098680	0.293270	0.610770
O101	O10	0.318240	0.230160	0.982560
O111	O11	0.351870	0.179010	0.867850
O121	O12	0.502720	0.206730	0.889230
O131	O13	0.699200	0.982560	0.269840
O141	O14	0.780280	0.867850	0.320990
O151	O15	0.608050	0.889230	0.293270
O161	O16	0.451600	0.517440	0.230160
O171	O17	0.469120	0.632150	0.179010
O181	O18	0.290550	0.610770	0.206730
O191	O19	0.969040	0.730160	0.482560
O201	O20	0.101270	0.679010	0.367850
O211	O21	0.901320	0.706730	0.389230
O221	O22	0.681760	0.769840	0.017440
O231	O23	0.648130	0.820990	0.132150
O241	O24	0.497280	0.793270	0.110770
N731	N73	0.737850	0.465720	0.659380
O251	O25	0.739440	0.412610	0.676110
O261	O26	0.760990	0.495830	0.686790
O271	O27	0.712840	0.486230	0.615290
N741	N74	0.379930	0.610720	0.835820
O281	O28	0.447180	0.605130	0.850310
O291	O29	0.389900	0.585300	0.788900
O301	O30	0.301640	0.640860	0.865860
N751	N75	0.603900	0.139000	0.589200
O311	O31	0.552500	0.187100	0.623500
O321	O32	0.586800	0.094600	0.598600
O331	O33	0.666900	0.143800	0.546400
N761	N76	0.362950	0.034280	0.840620
O341	O34	0.328160	0.087390	0.823890
O351	O35	0.443610	0.004170	0.813210
O361	O36	0.314360	0.013770	0.884710
N771	N77	0.326470	0.889280	0.664180
O371	O37	0.402620	0.894870	0.649690
O381	O38	0.264100	0.914700	0.711100
O391	O39	0.308360	0.859140	0.634140
N781	N78	0.832100	0.361000	0.910800
O401	O40	0.863100	0.312900	0.876500
O411	O41	0.780000	0.405400	0.901400
O421	O42	0.857100	0.356200	0.953600
N791	N79	0.397230	0.340620	0.965720
O431	O43	0.415550	0.323890	0.912610
O441	O44	0.447780	0.313210	0.995830
O451	O45	0.328130	0.384710	0.986230
N801	N80	0.215750	0.164180	0.110720
O461	O46	0.297490	0.149690	0.105130
O471	O47	0.178800	0.211100	0.085300
O481	O48	0.167500	0.134140	0.140860
N811	N81	0.193100	0.410800	0.639000
O491	O49	0.176000	0.376500	0.687100
O501	O50	0.185400	0.401400	0.594600
O511	O51	0.213300	0.453600	0.643800
N821	N82	0.203570	0.159380	0.534280
O521	O52	0.152050	0.176110	0.587390
O531	O53	0.256820	0.186790	0.504170
O541	O54	0.199070	0.115290	0.513770
N831	N83	0.990650	0.335820	0.389280
O551	O55	0.052310	0.350310	0.394870
O561	O56	0.975200	0.288900	0.414700
O571	O57	0.942500	0.365860	0.359140
N841	N84	0.742900	0.089200	0.861000
O581	O58	0.739600	0.123500	0.812900
O591	O59	0.681400	0.098600	0.905400
O601	O60	0.810700	0.046400	0.856200
N851	N85	0.262150	0.534280	0.340620
O611	O61	0.260560	0.587390	0.323890
O621	O62	0.239010	0.504170	0.313210
O631	O63	0.287160	0.513770	0.384710
N861	N86	0.620070	0.389280	0.164180
O641	O64	0.552820	0.394870	0.149690
O651	O65	0.610100	0.414700	0.211100
O661	O66	0.698360	0.359140	0.134140
N871	N87	0.396100	0.861000	0.410800
O671	O67	0.447500	0.812900	0.376500
O681	O68	0.413200	0.905400	0.401400
O691	O69	0.333100	0.856200	0.453600
N881	N88	0.637050	0.965720	0.159380
O701	O70	0.671840	0.912610	0.176110
O711	O71	0.556390	0.995830	0.186790
O721	O72	0.685640	0.986230	0.115290
N891	N89	0.673530	0.110720	0.335820
O731	O73	0.597380	0.105130	0.350310
O741	O74	0.735900	0.085300	0.288900
O751	O75	0.691640	0.140860	0.365860
N901	N90	0.167900	0.639000	0.089200
O761	O76	0.136900	0.687100	0.123500
O771	O77	0.220000	0.594600	0.098600
O781	O78	0.142900	0.643800	0.046400
N911	N91	0.602770	0.659380	0.034280
O791	O79	0.584450	0.676110	0.087390
O801	O80	0.552220	0.686790	0.004170
O811	O81	0.671870	0.615290	0.013770
N921	N92	0.784250	0.835820	0.889280
O821	O82	0.702510	0.850310	0.894870
O831	O83	0.821200	0.788900	0.914700
O841	O84	0.832500	0.865860	0.859140
N931	N93	0.806900	0.589200	0.361000
O851	O85	0.824000	0.623500	0.312900
O861	O86	0.814600	0.598600	0.405400
O871	O87	0.786700	0.546400	0.356200
N941	N94	0.796430	0.840620	0.465720
O881	O88	0.847950	0.823890	0.412610
O891	O89	0.743180	0.813210	0.495830
O901	O90	0.800930	0.884710	0.486230
N951	N95	0.009350	0.664180	0.610720
O911	O91	0.947690	0.649690	0.605130
O921	O92	0.024800	0.711100	0.585300
O931	O93	0.057500	0.634140	0.640860
N961	N96	0.257100	0.910800	0.139000
O941	O94	0.260400	0.876500	0.187100
O951	O95	0.318600	0.901400	0.094600
O961	O96	0.189300	0.953600	0.143800
