data_MATVIN_freeONLY_PM
_symmetry_space_group_name_H-M	'P1'
_cell_length_a	8.873700
_cell_length_b	8.873700
_cell_length_c	14.040400
_cell_angle_alpha	78.388200
_cell_angle_beta	78.388200
_cell_angle_gamma	81.490500
_symmetry_Int_Tables_number 1

loop_
_symmetry_equiv_pos_as_xyz
'x,y,z'

loop_
_atom_site_label
_atom_site_type_symbol
_atom_site_fract_x
_atom_site_fract_y
_atom_site_fract_z
Zn11	Zn1	0.761540	0.761540	0.582640
Zn21	Zn2	0.731080	0.731080	0.799250
H11	H1	0.221400	0.734400	0.793200
H21	H2	0.268300	0.768100	0.589800
H31	H3	0.925500	0.586700	0.424600
H41	H4	0.920000	0.574400	0.261700
H51	H5	0.899100	0.568100	0.122600
H61	H6	0.882800	0.568000	0.961100
H71	H7	0.734400	0.221400	0.793200
H81	H8	0.768100	0.268300	0.589800
H91	H9	0.586700	0.925500	0.424600
H101	H10	0.574400	0.920000	0.261700
H111	H11	0.568100	0.899100	0.122600
H121	H12	0.568000	0.882800	0.961100
C11	C1	0.449600	0.756200	0.716400
C21	C2	0.280600	0.746400	0.728300
C31	C3	0.209400	0.753400	0.654700
C41	C4	0.040600	0.739800	0.666300
C51	C5	0.853300	0.656300	0.391100
C61	C6	0.849200	0.647000	0.294300
C71	C7	0.824300	0.639500	0.092300
C81	C8	0.812800	0.641200	0.993700
C91	C9	0.756200	0.449600	0.716400
C101	C10	0.746400	0.280600	0.728300
C111	C11	0.753400	0.209400	0.654700
C121	C12	0.739800	0.040600	0.666300
C131	C13	0.656300	0.853300	0.391100
C141	C14	0.647000	0.849200	0.294300
C151	C15	0.639500	0.824300	0.092300
C161	C16	0.641200	0.812800	0.993700
C171	C17	0.743000	0.743000	0.246000
C181	C18	0.734300	0.734300	0.141100
N11	N1	0.759400	0.759400	0.438800
N21	N2	0.724500	0.724500	0.945400
O11	O1	0.527900	0.772100	0.632200
O21	O2	0.501900	0.744300	0.795800
O31	O3	0.964600	0.721800	0.752600
O41	O4	0.990000	0.747000	0.588400
O51	O5	0.772100	0.527900	0.632200
O61	O6	0.744300	0.501900	0.795800
O71	O7	0.721800	0.964600	0.752600
O81	O8	0.747000	0.990000	0.588400
Zn31	Zn3	0.238460	0.238460	0.417360
Zn41	Zn4	0.268920	0.268920	0.200750
H131	H13	0.265600	0.778600	0.206800
H141	H14	0.231900	0.731700	0.410200
H151	H15	0.413300	0.074500	0.575400
H161	H16	0.425600	0.080000	0.738300
H171	H17	0.431900	0.100900	0.877400
H181	H18	0.432000	0.117200	0.038900
H191	H19	0.778600	0.265600	0.206800
H201	H20	0.731700	0.231900	0.410200
H211	H21	0.074500	0.413300	0.575400
H221	H22	0.080000	0.425600	0.738300
H231	H23	0.100900	0.431900	0.877400
H241	H24	0.117200	0.432000	0.038900
C191	C19	0.243800	0.550400	0.283600
C201	C20	0.253600	0.719400	0.271700
C211	C21	0.246600	0.790600	0.345300
C221	C22	0.260200	0.959400	0.333700
C231	C23	0.343700	0.146700	0.608900
C241	C24	0.353000	0.150800	0.705700
C251	C25	0.360500	0.175700	0.907700
C261	C26	0.358800	0.187200	0.006300
C271	C27	0.550400	0.243800	0.283600
C281	C28	0.719400	0.253600	0.271700
C291	C29	0.790600	0.246600	0.345300
C301	C30	0.959400	0.260200	0.333700
C311	C31	0.146700	0.343700	0.608900
C321	C32	0.150800	0.353000	0.705700
C331	C33	0.175700	0.360500	0.907700
C341	C34	0.187200	0.358800	0.006300
C351	C35	0.257000	0.257000	0.754000
C361	C36	0.265700	0.265700	0.858900
N31	N3	0.240600	0.240600	0.561200
N41	N4	0.275500	0.275500	0.054600
O91	O9	0.227900	0.472100	0.367800
O101	O10	0.255700	0.498100	0.204200
O111	O11	0.278200	0.035400	0.247400
O121	O12	0.253000	0.010000	0.411600
O131	O13	0.472100	0.227900	0.367800
O141	O14	0.498100	0.255700	0.204200
O151	O15	0.035400	0.278200	0.247400
O161	O16	0.010000	0.253000	0.411600
