data_MAWFEY_freeONLY_PM
_symmetry_space_group_name_H-M	'P1'
_cell_length_a	29.443600
_cell_length_b	29.443600
_cell_length_c	54.543000
_cell_angle_alpha	90.000000
_cell_angle_beta	90.000000
_cell_angle_gamma	90.000000
_symmetry_Int_Tables_number 1

loop_
_symmetry_equiv_pos_as_xyz
'x,y,z'

loop_
_atom_site_label
_atom_site_type_symbol
_atom_site_fract_x
_atom_site_fract_y
_atom_site_fract_z
O11	O1	0.800700	0.410600	0.107220
O21	O2	0.886400	0.409000	0.109650
O31	O3	0.848400	0.462900	0.069170
O41	O4	0.847500	0.368200	0.065510
O51	O5	0.938500	0.465100	0.145890
O61	O6	0.791800	0.510700	0.108530
O71	O7	0.901700	0.509900	0.114610
O81	O8	0.894800	0.311200	0.104900
O91	O9	0.881600	0.492000	0.181250
O101	O10	0.757800	0.460900	0.071880
O111	O11	0.839500	0.542000	0.145930
O121	O12	0.928900	0.559900	0.157620
O131	O13	0.979100	0.410100	0.113000
O141	O14	0.840800	0.262900	0.060670
O151	O15	0.744100	0.556500	0.148370
O161	O16	0.936500	0.460200	0.077960
O171	O17	0.796200	0.421500	0.030240
O181	O18	0.906900	0.418300	0.033530
O191	O19	0.937000	0.366700	0.073590
N11	N1	0.855000	0.067300	0.929550
O201	O20	0.997900	0.502200	0.108510
O211	O21	0.992600	0.316100	0.105840
C11	C1	0.873100	0.222600	0.028100
C21	C2	0.833200	0.204100	0.022200
H11	H1	0.807100	0.212800	0.030600
O221	O22	0.907000	0.286900	0.048500
C31	C3	0.875500	0.256700	0.048300
C41	C4	0.861600	0.132000	0.967200
C51	C5	0.830300	0.170600	0.002700
H21	H2	0.804000	0.153400	0.000900
C61	C6	0.866200	0.164200	0.987100
C71	C7	0.828100	0.100600	0.966600
H31	H3	0.806500	0.100500	0.979100
C81	C8	0.824700	0.066700	0.946900
H41	H4	0.801500	0.045200	0.946900
C91	C9	0.908500	0.215500	0.012600
H51	H5	0.936400	0.229200	0.015700
C101	C10	0.884000	0.133800	0.947500
H61	H6	0.903200	0.158400	0.945000
C111	C11	0.881200	0.098500	0.928400
H71	H7	0.900400	0.100500	0.914900
C121	C12	0.902800	0.186700	0.991400
H81	H8	0.926800	0.184200	0.980300
Mo11	Mo1	0.803640	0.417140	0.060310
Mo21	Mo2	0.778170	0.511590	0.143960
Mo31	Mo3	0.893140	0.415480	0.062920
Mo41	Mo4	0.947740	0.350110	0.109270
Mo51	Mo5	0.953460	0.466460	0.109600
Mo61	Mo6	0.894420	0.515580	0.151260
Zn11	Zn1	0.839760	0.311660	0.084740
Zn21	Zn2	0.850800	0.514380	0.092520
O231	O23	0.300700	0.910600	0.607220
O241	O24	0.386400	0.909000	0.609650
O251	O25	0.348400	0.962900	0.569170
O261	O26	0.347500	0.868200	0.565510
O271	O27	0.438500	0.965100	0.645890
O281	O28	0.291800	0.010700	0.608530
O291	O29	0.401700	0.009900	0.614610
O301	O30	0.394800	0.811200	0.604900
O311	O31	0.381600	0.992000	0.681250
O321	O32	0.257800	0.960900	0.571880
O331	O33	0.339500	0.042000	0.645930
O341	O34	0.428900	0.059900	0.657620
O351	O35	0.479100	0.910100	0.613000
O361	O36	0.340800	0.762900	0.560670
O371	O37	0.244100	0.056500	0.648370
O381	O38	0.436500	0.960200	0.577960
O391	O39	0.296200	0.921500	0.530240
O401	O40	0.406900	0.918300	0.533530
O411	O41	0.437000	0.866700	0.573590
N21	N2	0.355000	0.567300	0.429550
O421	O42	0.497900	0.002200	0.608510
O431	O43	0.492600	0.816100	0.605840
C131	C13	0.373100	0.722600	0.528100
C141	C14	0.333200	0.704100	0.522200
H91	H9	0.307100	0.712800	0.530600
O441	O44	0.407000	0.786900	0.548500
C151	C15	0.375500	0.756700	0.548300
C161	C16	0.361600	0.632000	0.467200
C171	C17	0.330300	0.670600	0.502700
H101	H10	0.304000	0.653400	0.500900
C181	C18	0.366200	0.664200	0.487100
C191	C19	0.328100	0.600600	0.466600
H111	H11	0.306500	0.600500	0.479100
C201	C20	0.324700	0.566700	0.446900
H121	H12	0.301500	0.545200	0.446900
C211	C21	0.408500	0.715500	0.512600
H131	H13	0.436400	0.729200	0.515700
C221	C22	0.384000	0.633800	0.447500
H141	H14	0.403200	0.658400	0.445000
C231	C23	0.381200	0.598500	0.428400
H151	H15	0.400400	0.600500	0.414900
C241	C24	0.402800	0.686700	0.491400
H161	H16	0.426800	0.684200	0.480300
Mo71	Mo7	0.303640	0.917140	0.560310
Mo81	Mo8	0.278170	0.011590	0.643960
Mo91	Mo9	0.393140	0.915480	0.562920
Mo101	Mo10	0.447740	0.850110	0.609270
Mo111	Mo11	0.453460	0.966460	0.609600
Mo121	Mo12	0.394420	0.015580	0.651260
Zn31	Zn3	0.339760	0.811660	0.584740
Zn41	Zn4	0.350800	0.014380	0.592520
O451	O45	0.839400	0.449300	0.142780
O461	O46	0.841000	0.363600	0.140350
O471	O47	0.787100	0.401600	0.180830
O481	O48	0.881800	0.402500	0.184490
O491	O49	0.784900	0.311500	0.104110
O501	O50	0.739300	0.458200	0.141470
O511	O51	0.740100	0.348300	0.135390
O521	O52	0.938800	0.355200	0.145100
O531	O53	0.758000	0.368400	0.068750
O541	O54	0.789100	0.492200	0.178120
O551	O55	0.708000	0.410500	0.104070
O561	O56	0.690100	0.321100	0.092380
O571	O57	0.839900	0.270900	0.137000
O581	O58	0.987100	0.409200	0.189330
O591	O59	0.693500	0.505900	0.101630
O601	O60	0.789800	0.313500	0.172040
O611	O61	0.828500	0.453800	0.219760
O621	O62	0.831700	0.343100	0.216470
O631	O63	0.883300	0.313000	0.176410
N31	N3	0.182700	0.395000	0.320450
O641	O64	0.747800	0.252100	0.141490
O651	O65	0.933900	0.257400	0.144160
C251	C25	0.027400	0.376900	0.221900
C261	C26	0.045900	0.416800	0.227800
H171	H17	0.037200	0.442900	0.219400
O661	O66	0.963100	0.343000	0.201500
C271	C27	0.993300	0.374500	0.201700
C281	C28	0.118000	0.388400	0.282800
C291	C29	0.079400	0.419700	0.247300
H181	H18	0.096600	0.446000	0.249100
C301	C30	0.085800	0.383800	0.262900
C311	C31	0.149400	0.421900	0.283400
H191	H19	0.149500	0.443500	0.270900
C321	C32	0.183300	0.425300	0.303100
H201	H20	0.204800	0.448500	0.303100
C331	C33	0.034500	0.341500	0.237400
H211	H21	0.020800	0.313600	0.234300
C341	C34	0.116200	0.366000	0.302500
H221	H22	0.091600	0.346800	0.305000
C351	C35	0.151500	0.368800	0.321600
H231	H23	0.149500	0.349600	0.335100
C361	C36	0.063300	0.347200	0.258600
H241	H24	0.065800	0.323200	0.269700
Mo131	Mo13	0.832860	0.446360	0.189690
Mo141	Mo14	0.738410	0.471830	0.106040
Mo151	Mo15	0.834520	0.356860	0.187080
Mo161	Mo16	0.899890	0.302260	0.140730
Mo171	Mo17	0.783540	0.296540	0.140400
Mo181	Mo18	0.734420	0.355580	0.098740
Zn51	Zn5	0.938340	0.410240	0.165260
Zn61	Zn6	0.735620	0.399200	0.157480
O671	O67	0.339400	0.949300	0.642780
O681	O68	0.341000	0.863600	0.640350
O691	O69	0.287100	0.901600	0.680830
O701	O70	0.381800	0.902500	0.684490
O711	O71	0.284900	0.811500	0.604110
O721	O72	0.239300	0.958200	0.641470
O731	O73	0.240100	0.848300	0.635390
O741	O74	0.438800	0.855200	0.645100
O751	O75	0.258000	0.868400	0.568750
O761	O76	0.289100	0.992200	0.678120
O771	O77	0.208000	0.910500	0.604070
O781	O78	0.190100	0.821100	0.592380
O791	O79	0.339900	0.770900	0.637000
O801	O80	0.487100	0.909200	0.689330
O811	O81	0.193500	0.005900	0.601630
O821	O82	0.289800	0.813500	0.672040
O831	O83	0.328500	0.953800	0.719760
O841	O84	0.331700	0.843100	0.716470
O851	O85	0.383300	0.813000	0.676410
N41	N4	0.682700	0.895000	0.820450
O861	O86	0.247800	0.752100	0.641490
O871	O87	0.433900	0.757400	0.644160
C371	C37	0.527400	0.876900	0.721900
C381	C38	0.545900	0.916800	0.727800
H251	H25	0.537200	0.942900	0.719400
O881	O88	0.463100	0.843000	0.701500
C391	C39	0.493300	0.874500	0.701700
C401	C40	0.618000	0.888400	0.782800
C411	C41	0.579400	0.919700	0.747300
H261	H26	0.596600	0.946000	0.749100
C421	C42	0.585800	0.883800	0.762900
C431	C43	0.649400	0.921900	0.783400
H271	H27	0.649500	0.943500	0.770900
C441	C44	0.683300	0.925300	0.803100
H281	H28	0.704800	0.948500	0.803100
C451	C45	0.534500	0.841500	0.737400
H291	H29	0.520800	0.813600	0.734300
C461	C46	0.616200	0.866000	0.802500
H301	H30	0.591600	0.846800	0.805000
C471	C47	0.651500	0.868800	0.821600
H311	H31	0.649500	0.849600	0.835100
C481	C48	0.563300	0.847200	0.758600
H321	H32	0.565800	0.823200	0.769700
Mo191	Mo19	0.332860	0.946360	0.689690
Mo201	Mo20	0.238410	0.971830	0.606040
Mo211	Mo21	0.334520	0.856860	0.687080
Mo221	Mo22	0.399890	0.802260	0.640730
Mo231	Mo23	0.283540	0.796540	0.640400
Mo241	Mo24	0.234420	0.855580	0.598740
Zn71	Zn7	0.438340	0.910240	0.665260
Zn81	Zn8	0.235620	0.899200	0.657480
O891	O89	0.300700	0.410600	0.392780
O901	O90	0.386400	0.409000	0.390350
O911	O91	0.348400	0.462900	0.430830
O921	O92	0.347500	0.368200	0.434490
O931	O93	0.438500	0.465100	0.354110
O941	O94	0.291800	0.510700	0.391470
O951	O95	0.401700	0.509900	0.385390
O961	O96	0.394800	0.311200	0.395100
O971	O97	0.381600	0.492000	0.318750
O981	O98	0.257800	0.460900	0.428120
O991	O99	0.339500	0.542000	0.354070
O1001	O100	0.428900	0.559900	0.342380
O1011	O101	0.479100	0.410100	0.387000
O1021	O102	0.340800	0.262900	0.439330
O1031	O103	0.244100	0.556500	0.351630
O1041	O104	0.436500	0.460200	0.422040
O1051	O105	0.296200	0.421500	0.469760
O1061	O106	0.406900	0.418300	0.466470
O1071	O107	0.437000	0.366700	0.426410
N51	N5	0.355000	0.067300	0.570450
O1081	O108	0.497900	0.502200	0.391490
O1091	O109	0.492600	0.316100	0.394160
C491	C49	0.373100	0.222600	0.471900
C501	C50	0.333200	0.204100	0.477800
H331	H33	0.307100	0.212800	0.469400
O1101	O110	0.407000	0.286900	0.451500
C511	C51	0.375500	0.256700	0.451700
C521	C52	0.361600	0.132000	0.532800
C531	C53	0.330300	0.170600	0.497300
H341	H34	0.304000	0.153400	0.499100
C541	C54	0.366200	0.164200	0.512900
C551	C55	0.328100	0.100600	0.533400
H351	H35	0.306500	0.100500	0.520900
C561	C56	0.324700	0.066700	0.553100
H361	H36	0.301500	0.045200	0.553100
C571	C57	0.408500	0.215500	0.487400
H371	H37	0.436400	0.229200	0.484300
C581	C58	0.384000	0.133800	0.552500
H381	H38	0.403200	0.158400	0.555000
C591	C59	0.381200	0.098500	0.571600
H391	H39	0.400400	0.100500	0.585100
C601	C60	0.402800	0.186700	0.508600
H401	H40	0.426800	0.184200	0.519700
Mo251	Mo25	0.303640	0.417140	0.439690
Mo261	Mo26	0.278170	0.511590	0.356040
Mo271	Mo27	0.393140	0.415480	0.437080
Mo281	Mo28	0.447740	0.350110	0.390730
Mo291	Mo29	0.453460	0.466460	0.390400
Mo301	Mo30	0.394420	0.515580	0.348740
Zn91	Zn9	0.339760	0.311660	0.415260
Zn101	Zn10	0.350800	0.514380	0.407480
O1111	O111	0.800700	0.910600	0.892780
O1121	O112	0.886400	0.909000	0.890350
O1131	O113	0.848400	0.962900	0.930830
O1141	O114	0.847500	0.868200	0.934490
O1151	O115	0.938500	0.965100	0.854110
O1161	O116	0.791800	0.010700	0.891470
O1171	O117	0.901700	0.009900	0.885390
O1181	O118	0.894800	0.811200	0.895100
O1191	O119	0.881600	0.992000	0.818750
O1201	O120	0.757800	0.960900	0.928120
O1211	O121	0.839500	0.042000	0.854070
O1221	O122	0.928900	0.059900	0.842380
O1231	O123	0.979100	0.910100	0.887000
O1241	O124	0.840800	0.762900	0.939330
O1251	O125	0.744100	0.056500	0.851630
O1261	O126	0.936500	0.960200	0.922040
O1271	O127	0.796200	0.921500	0.969760
O1281	O128	0.906900	0.918300	0.966470
O1291	O129	0.937000	0.866700	0.926410
N61	N6	0.855000	0.567300	0.070450
O1301	O130	0.997900	0.002200	0.891490
O1311	O131	0.992600	0.816100	0.894160
C611	C61	0.873100	0.722600	0.971900
C621	C62	0.833200	0.704100	0.977800
H411	H41	0.807100	0.712800	0.969400
O1321	O132	0.907000	0.786900	0.951500
C631	C63	0.875500	0.756700	0.951700
C641	C64	0.861600	0.632000	0.032800
C651	C65	0.830300	0.670600	0.997300
H421	H42	0.804000	0.653400	0.999100
C661	C66	0.866200	0.664200	0.012900
C671	C67	0.828100	0.600600	0.033400
H431	H43	0.806500	0.600500	0.020900
C681	C68	0.824700	0.566700	0.053100
H441	H44	0.801500	0.545200	0.053100
C691	C69	0.908500	0.715500	0.987400
H451	H45	0.936400	0.729200	0.984300
C701	C70	0.884000	0.633800	0.052500
H461	H46	0.903200	0.658400	0.055000
C711	C71	0.881200	0.598500	0.071600
H471	H47	0.900400	0.600500	0.085100
C721	C72	0.902800	0.686700	0.008600
H481	H48	0.926800	0.684200	0.019700
Mo311	Mo31	0.803640	0.917140	0.939690
Mo321	Mo32	0.778170	0.011590	0.856040
Mo331	Mo33	0.893140	0.915480	0.937080
Mo341	Mo34	0.947740	0.850110	0.890730
Mo351	Mo35	0.953460	0.966460	0.890400
Mo361	Mo36	0.894420	0.015580	0.848740
Zn111	Zn11	0.839760	0.811660	0.915260
Zn121	Zn12	0.850800	0.014380	0.907480
O1331	O133	0.339400	0.449300	0.357220
O1341	O134	0.341000	0.363600	0.359650
O1351	O135	0.287100	0.401600	0.319170
O1361	O136	0.381800	0.402500	0.315510
O1371	O137	0.284900	0.311500	0.395890
O1381	O138	0.239300	0.458200	0.358530
O1391	O139	0.240100	0.348300	0.364610
O1401	O140	0.438800	0.355200	0.354900
O1411	O141	0.258000	0.368400	0.431250
O1421	O142	0.289100	0.492200	0.321880
O1431	O143	0.208000	0.410500	0.395930
O1441	O144	0.190100	0.321100	0.407620
O1451	O145	0.339900	0.270900	0.363000
O1461	O146	0.487100	0.409200	0.310670
O1471	O147	0.193500	0.505900	0.398370
O1481	O148	0.289800	0.313500	0.327960
O1491	O149	0.328500	0.453800	0.280240
O1501	O150	0.331700	0.343100	0.283530
O1511	O151	0.383300	0.313000	0.323590
N71	N7	0.682700	0.395000	0.179550
O1521	O152	0.247800	0.252100	0.358510
O1531	O153	0.433900	0.257400	0.355840
C731	C73	0.527400	0.376900	0.278100
C741	C74	0.545900	0.416800	0.272200
H491	H49	0.537200	0.442900	0.280600
O1541	O154	0.463100	0.343000	0.298500
C751	C75	0.493300	0.374500	0.298300
C761	C76	0.618000	0.388400	0.217200
C771	C77	0.579400	0.419700	0.252700
H501	H50	0.596600	0.446000	0.250900
C781	C78	0.585800	0.383800	0.237100
C791	C79	0.649400	0.421900	0.216600
H511	H51	0.649500	0.443500	0.229100
C801	C80	0.683300	0.425300	0.196900
H521	H52	0.704800	0.448500	0.196900
C811	C81	0.534500	0.341500	0.262600
H531	H53	0.520800	0.313600	0.265700
C821	C82	0.616200	0.366000	0.197500
H541	H54	0.591600	0.346800	0.195000
C831	C83	0.651500	0.368800	0.178400
H551	H55	0.649500	0.349600	0.164900
C841	C84	0.563300	0.347200	0.241400
H561	H56	0.565800	0.323200	0.230300
Mo371	Mo37	0.332860	0.446360	0.310310
Mo381	Mo38	0.238410	0.471830	0.393960
Mo391	Mo39	0.334520	0.356860	0.312920
Mo401	Mo40	0.399890	0.302260	0.359270
Mo411	Mo41	0.283540	0.296540	0.359600
Mo421	Mo42	0.234420	0.355580	0.401260
Zn131	Zn13	0.438340	0.410240	0.334740
Zn141	Zn14	0.235620	0.399200	0.342520
O1551	O155	0.839400	0.949300	0.857220
O1561	O156	0.841000	0.863600	0.859650
O1571	O157	0.787100	0.901600	0.819170
O1581	O158	0.881800	0.902500	0.815510
O1591	O159	0.784900	0.811500	0.895890
O1601	O160	0.739300	0.958200	0.858530
O1611	O161	0.740100	0.848300	0.864610
O1621	O162	0.938800	0.855200	0.854900
O1631	O163	0.758000	0.868400	0.931250
O1641	O164	0.789100	0.992200	0.821880
O1651	O165	0.708000	0.910500	0.895930
O1661	O166	0.690100	0.821100	0.907620
O1671	O167	0.839900	0.770900	0.863000
O1681	O168	0.987100	0.909200	0.810670
O1691	O169	0.693500	0.005900	0.898370
O1701	O170	0.789800	0.813500	0.827960
O1711	O171	0.828500	0.953800	0.780240
O1721	O172	0.831700	0.843100	0.783530
O1731	O173	0.883300	0.813000	0.823590
N81	N8	0.182700	0.895000	0.679550
O1741	O174	0.747800	0.752100	0.858510
O1751	O175	0.933900	0.757400	0.855840
C851	C85	0.027400	0.876900	0.778100
C861	C86	0.045900	0.916800	0.772200
H571	H57	0.037200	0.942900	0.780600
O1761	O176	0.963100	0.843000	0.798500
C871	C87	0.993300	0.874500	0.798300
C881	C88	0.118000	0.888400	0.717200
C891	C89	0.079400	0.919700	0.752700
H581	H58	0.096600	0.946000	0.750900
C901	C90	0.085800	0.883800	0.737100
C911	C91	0.149400	0.921900	0.716600
H591	H59	0.149500	0.943500	0.729100
C921	C92	0.183300	0.925300	0.696900
H601	H60	0.204800	0.948500	0.696900
C931	C93	0.034500	0.841500	0.762600
H611	H61	0.020800	0.813600	0.765700
C941	C94	0.116200	0.866000	0.697500
H621	H62	0.091600	0.846800	0.695000
C951	C95	0.151500	0.868800	0.678400
H631	H63	0.149500	0.849600	0.664900
C961	C96	0.063300	0.847200	0.741400
H641	H64	0.065800	0.823200	0.730300
Mo431	Mo43	0.832860	0.946360	0.810310
Mo441	Mo44	0.738410	0.971830	0.893960
Mo451	Mo45	0.834520	0.856860	0.812920
Mo461	Mo46	0.899890	0.802260	0.859270
Mo471	Mo47	0.783540	0.796540	0.859600
Mo481	Mo48	0.734420	0.855580	0.901260
Zn151	Zn15	0.938340	0.910240	0.834740
Zn161	Zn16	0.735620	0.899200	0.842520
P11	P1	0.841800	0.408200	0.125000
P21	P2	0.341800	0.908200	0.625000
P31	P3	0.341800	0.408200	0.375000
P41	P4	0.841800	0.908200	0.875000
O1771	O177	0.699300	0.589400	0.607220
O1781	O178	0.613600	0.591000	0.609650
O1791	O179	0.651600	0.537100	0.569170
O1801	O180	0.652500	0.631800	0.565510
O1811	O181	0.561500	0.534900	0.645890
O1821	O182	0.708200	0.489300	0.608530
O1831	O183	0.598300	0.490100	0.614610
O1841	O184	0.605200	0.688800	0.604900
O1851	O185	0.618400	0.508000	0.681250
O1861	O186	0.742200	0.539100	0.571880
O1871	O187	0.660500	0.458000	0.645930
O1881	O188	0.571100	0.440100	0.657620
O1891	O189	0.520900	0.589900	0.613000
O1901	O190	0.659200	0.737100	0.560670
O1911	O191	0.755900	0.443500	0.648370
O1921	O192	0.563500	0.539800	0.577960
O1931	O193	0.703800	0.578500	0.530240
O1941	O194	0.593100	0.581700	0.533530
O1951	O195	0.563000	0.633300	0.573590
N91	N9	0.645000	0.932700	0.429550
O1961	O196	0.502100	0.497800	0.608510
O1971	O197	0.507400	0.683900	0.605840
C971	C97	0.626900	0.777400	0.528100
C981	C98	0.666800	0.795900	0.522200
H651	H65	0.692900	0.787200	0.530600
O1981	O198	0.593000	0.713100	0.548500
C991	C99	0.624500	0.743300	0.548300
C1001	C100	0.638400	0.868000	0.467200
C1011	C101	0.669700	0.829400	0.502700
H661	H66	0.696000	0.846600	0.500900
C1021	C102	0.633800	0.835800	0.487100
C1031	C103	0.671900	0.899400	0.466600
H671	H67	0.693500	0.899500	0.479100
C1041	C104	0.675300	0.933300	0.446900
H681	H68	0.698500	0.954800	0.446900
C1051	C105	0.591500	0.784500	0.512600
H691	H69	0.563600	0.770800	0.515700
C1061	C106	0.616000	0.866200	0.447500
H701	H70	0.596800	0.841600	0.445000
C1071	C107	0.618800	0.901500	0.428400
H711	H71	0.599600	0.899500	0.414900
C1081	C108	0.597200	0.813300	0.491400
H721	H72	0.573200	0.815800	0.480300
Mo491	Mo49	0.696360	0.582860	0.560310
Mo501	Mo50	0.721830	0.488410	0.643960
Mo511	Mo51	0.606860	0.584520	0.562920
Mo521	Mo52	0.552260	0.649890	0.609270
Mo531	Mo53	0.546540	0.533540	0.609600
Mo541	Mo54	0.605580	0.484420	0.651260
Zn171	Zn17	0.660240	0.688340	0.584740
Zn181	Zn18	0.649200	0.485620	0.592520
O1991	O199	0.199300	0.089400	0.107220
O2001	O200	0.113600	0.091000	0.109650
O2011	O201	0.151600	0.037100	0.069170
O2021	O202	0.152500	0.131800	0.065510
O2031	O203	0.061500	0.034900	0.145890
O2041	O204	0.208200	0.989300	0.108530
O2051	O205	0.098300	0.990100	0.114610
O2061	O206	0.105200	0.188800	0.104900
O2071	O207	0.118400	0.008000	0.181250
O2081	O208	0.242200	0.039100	0.071880
O2091	O209	0.160500	0.958000	0.145930
O2101	O210	0.071100	0.940100	0.157620
O2111	O211	0.020900	0.089900	0.113000
O2121	O212	0.159200	0.237100	0.060670
O2131	O213	0.255900	0.943500	0.148370
O2141	O214	0.063500	0.039800	0.077960
O2151	O215	0.203800	0.078500	0.030240
O2161	O216	0.093100	0.081700	0.033530
O2171	O217	0.063000	0.133300	0.073590
N101	N10	0.145000	0.432700	0.929550
O2181	O218	0.002100	0.997800	0.108510
O2191	O219	0.007400	0.183900	0.105840
C1091	C109	0.126900	0.277400	0.028100
C1101	C110	0.166800	0.295900	0.022200
H731	H73	0.192900	0.287200	0.030600
O2201	O220	0.093000	0.213100	0.048500
C1111	C111	0.124500	0.243300	0.048300
C1121	C112	0.138400	0.368000	0.967200
C1131	C113	0.169700	0.329400	0.002700
H741	H74	0.196000	0.346600	0.000900
C1141	C114	0.133800	0.335800	0.987100
C1151	C115	0.171900	0.399400	0.966600
H751	H75	0.193500	0.399500	0.979100
C1161	C116	0.175300	0.433300	0.946900
H761	H76	0.198500	0.454800	0.946900
C1171	C117	0.091500	0.284500	0.012600
H771	H77	0.063600	0.270800	0.015700
C1181	C118	0.116000	0.366200	0.947500
H781	H78	0.096800	0.341600	0.945000
C1191	C119	0.118800	0.401500	0.928400
H791	H79	0.099600	0.399500	0.914900
C1201	C120	0.097200	0.313300	0.991400
H801	H80	0.073200	0.315800	0.980300
Mo551	Mo55	0.196360	0.082860	0.060310
Mo561	Mo56	0.221830	0.988410	0.143960
Mo571	Mo57	0.106860	0.084520	0.062920
Mo581	Mo58	0.052260	0.149890	0.109270
Mo591	Mo59	0.046540	0.033540	0.109600
Mo601	Mo60	0.105580	0.984420	0.151260
Zn191	Zn19	0.160240	0.188340	0.084740
Zn201	Zn20	0.149200	0.985620	0.092520
O2211	O221	0.660600	0.550700	0.642780
O2221	O222	0.659000	0.636400	0.640350
O2231	O223	0.712900	0.598400	0.680830
O2241	O224	0.618200	0.597500	0.684490
O2251	O225	0.715100	0.688500	0.604110
O2261	O226	0.760700	0.541800	0.641470
O2271	O227	0.759900	0.651700	0.635390
O2281	O228	0.561200	0.644800	0.645100
O2291	O229	0.742000	0.631600	0.568750
O2301	O230	0.710900	0.507800	0.678120
O2311	O231	0.792000	0.589500	0.604070
O2321	O232	0.809900	0.678900	0.592380
O2331	O233	0.660100	0.729100	0.637000
O2341	O234	0.512900	0.590800	0.689330
O2351	O235	0.806500	0.494100	0.601630
O2361	O236	0.710200	0.686500	0.672040
O2371	O237	0.671500	0.546200	0.719760
O2381	O238	0.668300	0.656900	0.716470
O2391	O239	0.616700	0.687000	0.676410
N111	N11	0.317300	0.605000	0.820450
O2401	O240	0.752200	0.747900	0.641490
O2411	O241	0.566100	0.742600	0.644160
C1211	C121	0.472600	0.623100	0.721900
C1221	C122	0.454100	0.583200	0.727800
H811	H81	0.462800	0.557100	0.719400
O2421	O242	0.536900	0.657000	0.701500
C1231	C123	0.506700	0.625500	0.701700
C1241	C124	0.382000	0.611600	0.782800
C1251	C125	0.420600	0.580300	0.747300
H821	H82	0.403400	0.554000	0.749100
C1261	C126	0.414200	0.616200	0.762900
C1271	C127	0.350600	0.578100	0.783400
H831	H83	0.350500	0.556500	0.770900
C1281	C128	0.316700	0.574700	0.803100
H841	H84	0.295200	0.551500	0.803100
C1291	C129	0.465500	0.658500	0.737400
H851	H85	0.479200	0.686400	0.734300
C1301	C130	0.383800	0.634000	0.802500
H861	H86	0.408400	0.653200	0.805000
C1311	C131	0.348500	0.631200	0.821600
H871	H87	0.350500	0.650400	0.835100
C1321	C132	0.436700	0.652800	0.758600
H881	H88	0.434200	0.676800	0.769700
Mo611	Mo61	0.667140	0.553640	0.689690
Mo621	Mo62	0.761590	0.528170	0.606040
Mo631	Mo63	0.665480	0.643140	0.687080
Mo641	Mo64	0.600110	0.697740	0.640730
Mo651	Mo65	0.716460	0.703460	0.640400
Mo661	Mo66	0.765580	0.644420	0.598740
Zn211	Zn21	0.561660	0.589760	0.665260
Zn221	Zn22	0.764380	0.600800	0.657480
O2431	O243	0.160600	0.050700	0.142780
O2441	O244	0.159000	0.136400	0.140350
O2451	O245	0.212900	0.098400	0.180830
O2461	O246	0.118200	0.097500	0.184490
O2471	O247	0.215100	0.188500	0.104110
O2481	O248	0.260700	0.041800	0.141470
O2491	O249	0.259900	0.151700	0.135390
O2501	O250	0.061200	0.144800	0.145100
O2511	O251	0.242000	0.131600	0.068750
O2521	O252	0.210900	0.007800	0.178120
O2531	O253	0.292000	0.089500	0.104070
O2541	O254	0.309900	0.178900	0.092380
O2551	O255	0.160100	0.229100	0.137000
O2561	O256	0.012900	0.090800	0.189330
O2571	O257	0.306500	0.994100	0.101630
O2581	O258	0.210200	0.186500	0.172040
O2591	O259	0.171500	0.046200	0.219760
O2601	O260	0.168300	0.156900	0.216470
O2611	O261	0.116700	0.187000	0.176410
N121	N12	0.817300	0.105000	0.320450
O2621	O262	0.252200	0.247900	0.141490
O2631	O263	0.066100	0.242600	0.144160
C1331	C133	0.972600	0.123100	0.221900
C1341	C134	0.954100	0.083200	0.227800
H891	H89	0.962800	0.057100	0.219400
O2641	O264	0.036900	0.157000	0.201500
C1351	C135	0.006700	0.125500	0.201700
C1361	C136	0.882000	0.111600	0.282800
C1371	C137	0.920600	0.080300	0.247300
H901	H90	0.903400	0.054000	0.249100
C1381	C138	0.914200	0.116200	0.262900
C1391	C139	0.850600	0.078100	0.283400
H911	H91	0.850500	0.056500	0.270900
C1401	C140	0.816700	0.074700	0.303100
H921	H92	0.795200	0.051500	0.303100
C1411	C141	0.965500	0.158500	0.237400
H931	H93	0.979200	0.186400	0.234300
C1421	C142	0.883800	0.134000	0.302500
H941	H94	0.908400	0.153200	0.305000
C1431	C143	0.848500	0.131200	0.321600
H951	H95	0.850500	0.150400	0.335100
C1441	C144	0.936700	0.152800	0.258600
H961	H96	0.934200	0.176800	0.269700
Mo671	Mo67	0.167140	0.053640	0.189690
Mo681	Mo68	0.261590	0.028170	0.106040
Mo691	Mo69	0.165480	0.143140	0.187080
Mo701	Mo70	0.100110	0.197740	0.140730
Mo711	Mo71	0.216460	0.203460	0.140400
Mo721	Mo72	0.265580	0.144420	0.098740
Zn231	Zn23	0.061660	0.089760	0.165260
Zn241	Zn24	0.264380	0.100800	0.157480
O2651	O265	0.199300	0.589400	0.892780
O2661	O266	0.113600	0.591000	0.890350
O2671	O267	0.151600	0.537100	0.930830
O2681	O268	0.152500	0.631800	0.934490
O2691	O269	0.061500	0.534900	0.854110
O2701	O270	0.208200	0.489300	0.891470
O2711	O271	0.098300	0.490100	0.885390
O2721	O272	0.105200	0.688800	0.895100
O2731	O273	0.118400	0.508000	0.818750
O2741	O274	0.242200	0.539100	0.928120
O2751	O275	0.160500	0.458000	0.854070
O2761	O276	0.071100	0.440100	0.842380
O2771	O277	0.020900	0.589900	0.887000
O2781	O278	0.159200	0.737100	0.939330
O2791	O279	0.255900	0.443500	0.851630
O2801	O280	0.063500	0.539800	0.922040
O2811	O281	0.203800	0.578500	0.969760
O2821	O282	0.093100	0.581700	0.966470
O2831	O283	0.063000	0.633300	0.926410
N131	N13	0.145000	0.932700	0.070450
O2841	O284	0.002100	0.497800	0.891490
O2851	O285	0.007400	0.683900	0.894160
C1451	C145	0.126900	0.777400	0.971900
C1461	C146	0.166800	0.795900	0.977800
H971	H97	0.192900	0.787200	0.969400
O2861	O286	0.093000	0.713100	0.951500
C1471	C147	0.124500	0.743300	0.951700
C1481	C148	0.138400	0.868000	0.032800
C1491	C149	0.169700	0.829400	0.997300
H981	H98	0.196000	0.846600	0.999100
C1501	C150	0.133800	0.835800	0.012900
C1511	C151	0.171900	0.899400	0.033400
H991	H99	0.193500	0.899500	0.020900
C1521	C152	0.175300	0.933300	0.053100
H1001	H100	0.198500	0.954800	0.053100
C1531	C153	0.091500	0.784500	0.987400
H1011	H101	0.063600	0.770800	0.984300
C1541	C154	0.116000	0.866200	0.052500
H1021	H102	0.096800	0.841600	0.055000
C1551	C155	0.118800	0.901500	0.071600
H1031	H103	0.099600	0.899500	0.085100
C1561	C156	0.097200	0.813300	0.008600
H1041	H104	0.073200	0.815800	0.019700
Mo731	Mo73	0.196360	0.582860	0.939690
Mo741	Mo74	0.221830	0.488410	0.856040
Mo751	Mo75	0.106860	0.584520	0.937080
Mo761	Mo76	0.052260	0.649890	0.890730
Mo771	Mo77	0.046540	0.533540	0.890400
Mo781	Mo78	0.105580	0.484420	0.848740
Zn251	Zn25	0.160240	0.688340	0.915260
Zn261	Zn26	0.149200	0.485620	0.907480
O2871	O287	0.699300	0.089400	0.392780
O2881	O288	0.613600	0.091000	0.390350
O2891	O289	0.651600	0.037100	0.430830
O2901	O290	0.652500	0.131800	0.434490
O2911	O291	0.561500	0.034900	0.354110
O2921	O292	0.708200	0.989300	0.391470
O2931	O293	0.598300	0.990100	0.385390
O2941	O294	0.605200	0.188800	0.395100
O2951	O295	0.618400	0.008000	0.318750
O2961	O296	0.742200	0.039100	0.428120
O2971	O297	0.660500	0.958000	0.354070
O2981	O298	0.571100	0.940100	0.342380
O2991	O299	0.520900	0.089900	0.387000
O3001	O300	0.659200	0.237100	0.439330
O3011	O301	0.755900	0.943500	0.351630
O3021	O302	0.563500	0.039800	0.422040
O3031	O303	0.703800	0.078500	0.469760
O3041	O304	0.593100	0.081700	0.466470
O3051	O305	0.563000	0.133300	0.426410
N141	N14	0.645000	0.432700	0.570450
O3061	O306	0.502100	0.997800	0.391490
O3071	O307	0.507400	0.183900	0.394160
C1571	C157	0.626900	0.277400	0.471900
C1581	C158	0.666800	0.295900	0.477800
H1051	H105	0.692900	0.287200	0.469400
O3081	O308	0.593000	0.213100	0.451500
C1591	C159	0.624500	0.243300	0.451700
C1601	C160	0.638400	0.368000	0.532800
C1611	C161	0.669700	0.329400	0.497300
H1061	H106	0.696000	0.346600	0.499100
C1621	C162	0.633800	0.335800	0.512900
C1631	C163	0.671900	0.399400	0.533400
H1071	H107	0.693500	0.399500	0.520900
C1641	C164	0.675300	0.433300	0.553100
H1081	H108	0.698500	0.454800	0.553100
C1651	C165	0.591500	0.284500	0.487400
H1091	H109	0.563600	0.270800	0.484300
C1661	C166	0.616000	0.366200	0.552500
H1101	H110	0.596800	0.341600	0.555000
C1671	C167	0.618800	0.401500	0.571600
H1111	H111	0.599600	0.399500	0.585100
C1681	C168	0.597200	0.313300	0.508600
H1121	H112	0.573200	0.315800	0.519700
Mo791	Mo79	0.696360	0.082860	0.439690
Mo801	Mo80	0.721830	0.988410	0.356040
Mo811	Mo81	0.606860	0.084520	0.437080
Mo821	Mo82	0.552260	0.149890	0.390730
Mo831	Mo83	0.546540	0.033540	0.390400
Mo841	Mo84	0.605580	0.984420	0.348740
Zn271	Zn27	0.660240	0.188340	0.415260
Zn281	Zn28	0.649200	0.985620	0.407480
O3091	O309	0.160600	0.550700	0.857220
O3101	O310	0.159000	0.636400	0.859650
O3111	O311	0.212900	0.598400	0.819170
O3121	O312	0.118200	0.597500	0.815510
O3131	O313	0.215100	0.688500	0.895890
O3141	O314	0.260700	0.541800	0.858530
O3151	O315	0.259900	0.651700	0.864610
O3161	O316	0.061200	0.644800	0.854900
O3171	O317	0.242000	0.631600	0.931250
O3181	O318	0.210900	0.507800	0.821880
O3191	O319	0.292000	0.589500	0.895930
O3201	O320	0.309900	0.678900	0.907620
O3211	O321	0.160100	0.729100	0.863000
O3221	O322	0.012900	0.590800	0.810670
O3231	O323	0.306500	0.494100	0.898370
O3241	O324	0.210200	0.686500	0.827960
O3251	O325	0.171500	0.546200	0.780240
O3261	O326	0.168300	0.656900	0.783530
O3271	O327	0.116700	0.687000	0.823590
N151	N15	0.817300	0.605000	0.679550
O3281	O328	0.252200	0.747900	0.858510
O3291	O329	0.066100	0.742600	0.855840
C1691	C169	0.972600	0.623100	0.778100
C1701	C170	0.954100	0.583200	0.772200
H1131	H113	0.962800	0.557100	0.780600
O3301	O330	0.036900	0.657000	0.798500
C1711	C171	0.006700	0.625500	0.798300
C1721	C172	0.882000	0.611600	0.717200
C1731	C173	0.920600	0.580300	0.752700
H1141	H114	0.903400	0.554000	0.750900
C1741	C174	0.914200	0.616200	0.737100
C1751	C175	0.850600	0.578100	0.716600
H1151	H115	0.850500	0.556500	0.729100
C1761	C176	0.816700	0.574700	0.696900
H1161	H116	0.795200	0.551500	0.696900
C1771	C177	0.965500	0.658500	0.762600
H1171	H117	0.979200	0.686400	0.765700
C1781	C178	0.883800	0.634000	0.697500
H1181	H118	0.908400	0.653200	0.695000
C1791	C179	0.848500	0.631200	0.678400
H1191	H119	0.850500	0.650400	0.664900
C1801	C180	0.936700	0.652800	0.741400
H1201	H120	0.934200	0.676800	0.730300
Mo851	Mo85	0.167140	0.553640	0.810310
Mo861	Mo86	0.261590	0.528170	0.893960
Mo871	Mo87	0.165480	0.643140	0.812920
Mo881	Mo88	0.100110	0.697740	0.859270
Mo891	Mo89	0.216460	0.703460	0.859600
Mo901	Mo90	0.265580	0.644420	0.901260
Zn291	Zn29	0.061660	0.589760	0.834740
Zn301	Zn30	0.264380	0.600800	0.842520
O3311	O331	0.660600	0.050700	0.357220
O3321	O332	0.659000	0.136400	0.359650
O3331	O333	0.712900	0.098400	0.319170
O3341	O334	0.618200	0.097500	0.315510
O3351	O335	0.715100	0.188500	0.395890
O3361	O336	0.760700	0.041800	0.358530
O3371	O337	0.759900	0.151700	0.364610
O3381	O338	0.561200	0.144800	0.354900
O3391	O339	0.742000	0.131600	0.431250
O3401	O340	0.710900	0.007800	0.321880
O3411	O341	0.792000	0.089500	0.395930
O3421	O342	0.809900	0.178900	0.407620
O3431	O343	0.660100	0.229100	0.363000
O3441	O344	0.512900	0.090800	0.310670
O3451	O345	0.806500	0.994100	0.398370
O3461	O346	0.710200	0.186500	0.327960
O3471	O347	0.671500	0.046200	0.280240
O3481	O348	0.668300	0.156900	0.283530
O3491	O349	0.616700	0.187000	0.323590
N161	N16	0.317300	0.105000	0.179550
O3501	O350	0.752200	0.247900	0.358510
O3511	O351	0.566100	0.242600	0.355840
C1811	C181	0.472600	0.123100	0.278100
C1821	C182	0.454100	0.083200	0.272200
H1211	H121	0.462800	0.057100	0.280600
O3521	O352	0.536900	0.157000	0.298500
C1831	C183	0.506700	0.125500	0.298300
C1841	C184	0.382000	0.111600	0.217200
C1851	C185	0.420600	0.080300	0.252700
H1221	H122	0.403400	0.054000	0.250900
C1861	C186	0.414200	0.116200	0.237100
C1871	C187	0.350600	0.078100	0.216600
H1231	H123	0.350500	0.056500	0.229100
C1881	C188	0.316700	0.074700	0.196900
H1241	H124	0.295200	0.051500	0.196900
C1891	C189	0.465500	0.158500	0.262600
H1251	H125	0.479200	0.186400	0.265700
C1901	C190	0.383800	0.134000	0.197500
H1261	H126	0.408400	0.153200	0.195000
C1911	C191	0.348500	0.131200	0.178400
H1271	H127	0.350500	0.150400	0.164900
C1921	C192	0.436700	0.152800	0.241400
H1281	H128	0.434200	0.176800	0.230300
Mo911	Mo91	0.667140	0.053640	0.310310
Mo921	Mo92	0.761590	0.028170	0.393960
Mo931	Mo93	0.665480	0.143140	0.312920
Mo941	Mo94	0.600110	0.197740	0.359270
Mo951	Mo95	0.716460	0.203460	0.359600
Mo961	Mo96	0.765580	0.144420	0.401260
Zn311	Zn31	0.561660	0.089760	0.334740
Zn321	Zn32	0.764380	0.100800	0.342520
P51	P5	0.658200	0.591800	0.625000
P61	P6	0.158200	0.091800	0.125000
P71	P7	0.158200	0.591800	0.875000
P81	P8	0.658200	0.091800	0.375000
O3531	O353	0.839400	0.550700	0.357220
O3541	O354	0.841000	0.636400	0.359650
O3551	O355	0.787100	0.598400	0.319170
O3561	O356	0.881800	0.597500	0.315510
O3571	O357	0.784900	0.688500	0.395890
O3581	O358	0.739300	0.541800	0.358530
O3591	O359	0.740100	0.651700	0.364610
O3601	O360	0.938800	0.644800	0.354900
O3611	O361	0.758000	0.631600	0.431250
O3621	O362	0.789100	0.507800	0.321880
O3631	O363	0.708000	0.589500	0.395930
O3641	O364	0.690100	0.678900	0.407620
O3651	O365	0.839900	0.729100	0.363000
O3661	O366	0.987100	0.590800	0.310670
O3671	O367	0.693500	0.494100	0.398370
O3681	O368	0.789800	0.686500	0.327960
O3691	O369	0.828500	0.546200	0.280240
O3701	O370	0.831700	0.656900	0.283530
O3711	O371	0.883300	0.687000	0.323590
N171	N17	0.182700	0.605000	0.179550
O3721	O372	0.747800	0.747900	0.358510
O3731	O373	0.933900	0.742600	0.355840
C1931	C193	0.027400	0.623100	0.278100
C1941	C194	0.045900	0.583200	0.272200
H1291	H129	0.037200	0.557100	0.280600
O3741	O374	0.963100	0.657000	0.298500
C1951	C195	0.993300	0.625500	0.298300
C1961	C196	0.118000	0.611600	0.217200
C1971	C197	0.079400	0.580300	0.252700
H1301	H130	0.096600	0.554000	0.250900
C1981	C198	0.085800	0.616200	0.237100
C1991	C199	0.149400	0.578100	0.216600
H1311	H131	0.149500	0.556500	0.229100
C2001	C200	0.183300	0.574700	0.196900
H1321	H132	0.204800	0.551500	0.196900
C2011	C201	0.034500	0.658500	0.262600
H1331	H133	0.020800	0.686400	0.265700
C2021	C202	0.116200	0.634000	0.197500
H1341	H134	0.091600	0.653200	0.195000
C2031	C203	0.151500	0.631200	0.178400
H1351	H135	0.149500	0.650400	0.164900
C2041	C204	0.063300	0.652800	0.241400
H1361	H136	0.065800	0.676800	0.230300
Mo971	Mo97	0.832860	0.553640	0.310310
Mo981	Mo98	0.738410	0.528170	0.393960
Mo991	Mo99	0.834520	0.643140	0.312920
Mo1001	Mo100	0.899890	0.697740	0.359270
Mo1011	Mo101	0.783540	0.703460	0.359600
Mo1021	Mo102	0.734420	0.644420	0.401260
Zn331	Zn33	0.938340	0.589760	0.334740
Zn341	Zn34	0.735620	0.600800	0.342520
O3751	O375	0.339400	0.050700	0.857220
O3761	O376	0.341000	0.136400	0.859650
O3771	O377	0.287100	0.098400	0.819170
O3781	O378	0.381800	0.097500	0.815510
O3791	O379	0.284900	0.188500	0.895890
O3801	O380	0.239300	0.041800	0.858530
O3811	O381	0.240100	0.151700	0.864610
O3821	O382	0.438800	0.144800	0.854900
O3831	O383	0.258000	0.131600	0.931250
O3841	O384	0.289100	0.007800	0.821880
O3851	O385	0.208000	0.089500	0.895930
O3861	O386	0.190100	0.178900	0.907620
O3871	O387	0.339900	0.229100	0.863000
O3881	O388	0.487100	0.090800	0.810670
O3891	O389	0.193500	0.994100	0.898370
O3901	O390	0.289800	0.186500	0.827960
O3911	O391	0.328500	0.046200	0.780240
O3921	O392	0.331700	0.156900	0.783530
O3931	O393	0.383300	0.187000	0.823590
N181	N18	0.682700	0.105000	0.679550
O3941	O394	0.247800	0.247900	0.858510
O3951	O395	0.433900	0.242600	0.855840
C2051	C205	0.527400	0.123100	0.778100
C2061	C206	0.545900	0.083200	0.772200
H1371	H137	0.537200	0.057100	0.780600
O3961	O396	0.463100	0.157000	0.798500
C2071	C207	0.493300	0.125500	0.798300
C2081	C208	0.618000	0.111600	0.717200
C2091	C209	0.579400	0.080300	0.752700
H1381	H138	0.596600	0.054000	0.750900
C2101	C210	0.585800	0.116200	0.737100
C2111	C211	0.649400	0.078100	0.716600
H1391	H139	0.649500	0.056500	0.729100
C2121	C212	0.683300	0.074700	0.696900
H1401	H140	0.704800	0.051500	0.696900
C2131	C213	0.534500	0.158500	0.762600
H1411	H141	0.520800	0.186400	0.765700
C2141	C214	0.616200	0.134000	0.697500
H1421	H142	0.591600	0.153200	0.695000
C2151	C215	0.651500	0.131200	0.678400
H1431	H143	0.649500	0.150400	0.664900
C2161	C216	0.563300	0.152800	0.741400
H1441	H144	0.565800	0.176800	0.730300
Mo1031	Mo103	0.332860	0.053640	0.810310
Mo1041	Mo104	0.238410	0.028170	0.893960
Mo1051	Mo105	0.334520	0.143140	0.812920
Mo1061	Mo106	0.399890	0.197740	0.859270
Mo1071	Mo107	0.283540	0.203460	0.859600
Mo1081	Mo108	0.234420	0.144420	0.901260
Zn351	Zn35	0.438340	0.089760	0.834740
Zn361	Zn36	0.235620	0.100800	0.842520
O3971	O397	0.800700	0.589400	0.392780
O3981	O398	0.886400	0.591000	0.390350
O3991	O399	0.848400	0.537100	0.430830
O4001	O400	0.847500	0.631800	0.434490
O4011	O401	0.938500	0.534900	0.354110
O4021	O402	0.791800	0.489300	0.391470
O4031	O403	0.901700	0.490100	0.385390
O4041	O404	0.894800	0.688800	0.395100
O4051	O405	0.881600	0.508000	0.318750
O4061	O406	0.757800	0.539100	0.428120
O4071	O407	0.839500	0.458000	0.354070
O4081	O408	0.928900	0.440100	0.342380
O4091	O409	0.979100	0.589900	0.387000
O4101	O410	0.840800	0.737100	0.439330
O4111	O411	0.744100	0.443500	0.351630
O4121	O412	0.936500	0.539800	0.422040
O4131	O413	0.796200	0.578500	0.469760
O4141	O414	0.906900	0.581700	0.466470
O4151	O415	0.937000	0.633300	0.426410
N191	N19	0.855000	0.932700	0.570450
O4161	O416	0.997900	0.497800	0.391490
O4171	O417	0.992600	0.683900	0.394160
C2171	C217	0.873100	0.777400	0.471900
C2181	C218	0.833200	0.795900	0.477800
H1451	H145	0.807100	0.787200	0.469400
O4181	O418	0.907000	0.713100	0.451500
C2191	C219	0.875500	0.743300	0.451700
C2201	C220	0.861600	0.868000	0.532800
C2211	C221	0.830300	0.829400	0.497300
H1461	H146	0.804000	0.846600	0.499100
C2221	C222	0.866200	0.835800	0.512900
C2231	C223	0.828100	0.899400	0.533400
H1471	H147	0.806500	0.899500	0.520900
C2241	C224	0.824700	0.933300	0.553100
H1481	H148	0.801500	0.954800	0.553100
C2251	C225	0.908500	0.784500	0.487400
H1491	H149	0.936400	0.770800	0.484300
C2261	C226	0.884000	0.866200	0.552500
H1501	H150	0.903200	0.841600	0.555000
C2271	C227	0.881200	0.901500	0.571600
H1511	H151	0.900400	0.899500	0.585100
C2281	C228	0.902800	0.813300	0.508600
H1521	H152	0.926800	0.815800	0.519700
Mo1091	Mo109	0.803640	0.582860	0.439690
Mo1101	Mo110	0.778170	0.488410	0.356040
Mo1111	Mo111	0.893140	0.584520	0.437080
Mo1121	Mo112	0.947740	0.649890	0.390730
Mo1131	Mo113	0.953460	0.533540	0.390400
Mo1141	Mo114	0.894420	0.484420	0.348740
Zn371	Zn37	0.839760	0.688340	0.415260
Zn381	Zn38	0.850800	0.485620	0.407480
O4191	O419	0.300700	0.089400	0.892780
O4201	O420	0.386400	0.091000	0.890350
O4211	O421	0.348400	0.037100	0.930830
O4221	O422	0.347500	0.131800	0.934490
O4231	O423	0.438500	0.034900	0.854110
O4241	O424	0.291800	0.989300	0.891470
O4251	O425	0.401700	0.990100	0.885390
O4261	O426	0.394800	0.188800	0.895100
O4271	O427	0.381600	0.008000	0.818750
O4281	O428	0.257800	0.039100	0.928120
O4291	O429	0.339500	0.958000	0.854070
O4301	O430	0.428900	0.940100	0.842380
O4311	O431	0.479100	0.089900	0.887000
O4321	O432	0.340800	0.237100	0.939330
O4331	O433	0.244100	0.943500	0.851630
O4341	O434	0.436500	0.039800	0.922040
O4351	O435	0.296200	0.078500	0.969760
O4361	O436	0.406900	0.081700	0.966470
O4371	O437	0.437000	0.133300	0.926410
N201	N20	0.355000	0.432700	0.070450
O4381	O438	0.497900	0.997800	0.891490
O4391	O439	0.492600	0.183900	0.894160
C2291	C229	0.373100	0.277400	0.971900
C2301	C230	0.333200	0.295900	0.977800
H1531	H153	0.307100	0.287200	0.969400
O4401	O440	0.407000	0.213100	0.951500
C2311	C231	0.375500	0.243300	0.951700
C2321	C232	0.361600	0.368000	0.032800
C2331	C233	0.330300	0.329400	0.997300
H1541	H154	0.304000	0.346600	0.999100
C2341	C234	0.366200	0.335800	0.012900
C2351	C235	0.328100	0.399400	0.033400
H1551	H155	0.306500	0.399500	0.020900
C2361	C236	0.324700	0.433300	0.053100
H1561	H156	0.301500	0.454800	0.053100
C2371	C237	0.408500	0.284500	0.987400
H1571	H157	0.436400	0.270800	0.984300
C2381	C238	0.384000	0.366200	0.052500
H1581	H158	0.403200	0.341600	0.055000
C2391	C239	0.381200	0.401500	0.071600
H1591	H159	0.400400	0.399500	0.085100
C2401	C240	0.402800	0.313300	0.008600
H1601	H160	0.426800	0.315800	0.019700
Mo1151	Mo115	0.303640	0.082860	0.939690
Mo1161	Mo116	0.278170	0.988410	0.856040
Mo1171	Mo117	0.393140	0.084520	0.937080
Mo1181	Mo118	0.447740	0.149890	0.890730
Mo1191	Mo119	0.453460	0.033540	0.890400
Mo1201	Mo120	0.394420	0.984420	0.848740
Zn391	Zn39	0.339760	0.188340	0.915260
Zn401	Zn40	0.350800	0.985620	0.907480
O4411	O441	0.339400	0.550700	0.142780
O4421	O442	0.341000	0.636400	0.140350
O4431	O443	0.287100	0.598400	0.180830
O4441	O444	0.381800	0.597500	0.184490
O4451	O445	0.284900	0.688500	0.104110
O4461	O446	0.239300	0.541800	0.141470
O4471	O447	0.240100	0.651700	0.135390
O4481	O448	0.438800	0.644800	0.145100
O4491	O449	0.258000	0.631600	0.068750
O4501	O450	0.289100	0.507800	0.178120
O4511	O451	0.208000	0.589500	0.104070
O4521	O452	0.190100	0.678900	0.092380
O4531	O453	0.339900	0.729100	0.137000
O4541	O454	0.487100	0.590800	0.189330
O4551	O455	0.193500	0.494100	0.101630
O4561	O456	0.289800	0.686500	0.172040
O4571	O457	0.328500	0.546200	0.219760
O4581	O458	0.331700	0.656900	0.216470
O4591	O459	0.383300	0.687000	0.176410
N211	N21	0.682700	0.605000	0.320450
O4601	O460	0.247800	0.747900	0.141490
O4611	O461	0.433900	0.742600	0.144160
C2411	C241	0.527400	0.623100	0.221900
C2421	C242	0.545900	0.583200	0.227800
H1611	H161	0.537200	0.557100	0.219400
O4621	O462	0.463100	0.657000	0.201500
C2431	C243	0.493300	0.625500	0.201700
C2441	C244	0.618000	0.611600	0.282800
C2451	C245	0.579400	0.580300	0.247300
H1621	H162	0.596600	0.554000	0.249100
C2461	C246	0.585800	0.616200	0.262900
C2471	C247	0.649400	0.578100	0.283400
H1631	H163	0.649500	0.556500	0.270900
C2481	C248	0.683300	0.574700	0.303100
H1641	H164	0.704800	0.551500	0.303100
C2491	C249	0.534500	0.658500	0.237400
H1651	H165	0.520800	0.686400	0.234300
C2501	C250	0.616200	0.634000	0.302500
H1661	H166	0.591600	0.653200	0.305000
C2511	C251	0.651500	0.631200	0.321600
H1671	H167	0.649500	0.650400	0.335100
C2521	C252	0.563300	0.652800	0.258600
H1681	H168	0.565800	0.676800	0.269700
Mo1211	Mo121	0.332860	0.553640	0.189690
Mo1221	Mo122	0.238410	0.528170	0.106040
Mo1231	Mo123	0.334520	0.643140	0.187080
Mo1241	Mo124	0.399890	0.697740	0.140730
Mo1251	Mo125	0.283540	0.703460	0.140400
Mo1261	Mo126	0.234420	0.644420	0.098740
Zn411	Zn41	0.438340	0.589760	0.165260
Zn421	Zn42	0.235620	0.600800	0.157480
O4631	O463	0.839400	0.050700	0.642780
O4641	O464	0.841000	0.136400	0.640350
O4651	O465	0.787100	0.098400	0.680830
O4661	O466	0.881800	0.097500	0.684490
O4671	O467	0.784900	0.188500	0.604110
O4681	O468	0.739300	0.041800	0.641470
O4691	O469	0.740100	0.151700	0.635390
O4701	O470	0.938800	0.144800	0.645100
O4711	O471	0.758000	0.131600	0.568750
O4721	O472	0.789100	0.007800	0.678120
O4731	O473	0.708000	0.089500	0.604070
O4741	O474	0.690100	0.178900	0.592380
O4751	O475	0.839900	0.229100	0.637000
O4761	O476	0.987100	0.090800	0.689330
O4771	O477	0.693500	0.994100	0.601630
O4781	O478	0.789800	0.186500	0.672040
O4791	O479	0.828500	0.046200	0.719760
O4801	O480	0.831700	0.156900	0.716470
O4811	O481	0.883300	0.187000	0.676410
N221	N22	0.182700	0.105000	0.820450
O4821	O482	0.747800	0.247900	0.641490
O4831	O483	0.933900	0.242600	0.644160
C2531	C253	0.027400	0.123100	0.721900
C2541	C254	0.045900	0.083200	0.727800
H1691	H169	0.037200	0.057100	0.719400
O4841	O484	0.963100	0.157000	0.701500
C2551	C255	0.993300	0.125500	0.701700
C2561	C256	0.118000	0.111600	0.782800
C2571	C257	0.079400	0.080300	0.747300
H1701	H170	0.096600	0.054000	0.749100
C2581	C258	0.085800	0.116200	0.762900
C2591	C259	0.149400	0.078100	0.783400
H1711	H171	0.149500	0.056500	0.770900
C2601	C260	0.183300	0.074700	0.803100
H1721	H172	0.204800	0.051500	0.803100
C2611	C261	0.034500	0.158500	0.737400
H1731	H173	0.020800	0.186400	0.734300
C2621	C262	0.116200	0.134000	0.802500
H1741	H174	0.091600	0.153200	0.805000
C2631	C263	0.151500	0.131200	0.821600
H1751	H175	0.149500	0.150400	0.835100
C2641	C264	0.063300	0.152800	0.758600
H1761	H176	0.065800	0.176800	0.769700
Mo1271	Mo127	0.832860	0.053640	0.689690
Mo1281	Mo128	0.738410	0.028170	0.606040
Mo1291	Mo129	0.834520	0.143140	0.687080
Mo1301	Mo130	0.899890	0.197740	0.640730
Mo1311	Mo131	0.783540	0.203460	0.640400
Mo1321	Mo132	0.734420	0.144420	0.598740
Zn431	Zn43	0.938340	0.089760	0.665260
Zn441	Zn44	0.735620	0.100800	0.657480
O4851	O485	0.300700	0.589400	0.107220
O4861	O486	0.386400	0.591000	0.109650
O4871	O487	0.348400	0.537100	0.069170
O4881	O488	0.347500	0.631800	0.065510
O4891	O489	0.438500	0.534900	0.145890
O4901	O490	0.291800	0.489300	0.108530
O4911	O491	0.401700	0.490100	0.114610
O4921	O492	0.394800	0.688800	0.104900
O4931	O493	0.381600	0.508000	0.181250
O4941	O494	0.257800	0.539100	0.071880
O4951	O495	0.339500	0.458000	0.145930
O4961	O496	0.428900	0.440100	0.157620
O4971	O497	0.479100	0.589900	0.113000
O4981	O498	0.340800	0.737100	0.060670
O4991	O499	0.244100	0.443500	0.148370
O5001	O500	0.436500	0.539800	0.077960
O5011	O501	0.296200	0.578500	0.030240
O5021	O502	0.406900	0.581700	0.033530
O5031	O503	0.437000	0.633300	0.073590
N231	N23	0.355000	0.932700	0.929550
O5041	O504	0.497900	0.497800	0.108510
O5051	O505	0.492600	0.683900	0.105840
C2651	C265	0.373100	0.777400	0.028100
C2661	C266	0.333200	0.795900	0.022200
H1771	H177	0.307100	0.787200	0.030600
O5061	O506	0.407000	0.713100	0.048500
C2671	C267	0.375500	0.743300	0.048300
C2681	C268	0.361600	0.868000	0.967200
C2691	C269	0.330300	0.829400	0.002700
H1781	H178	0.304000	0.846600	0.000900
C2701	C270	0.366200	0.835800	0.987100
C2711	C271	0.328100	0.899400	0.966600
H1791	H179	0.306500	0.899500	0.979100
C2721	C272	0.324700	0.933300	0.946900
H1801	H180	0.301500	0.954800	0.946900
C2731	C273	0.408500	0.784500	0.012600
H1811	H181	0.436400	0.770800	0.015700
C2741	C274	0.384000	0.866200	0.947500
H1821	H182	0.403200	0.841600	0.945000
C2751	C275	0.381200	0.901500	0.928400
H1831	H183	0.400400	0.899500	0.914900
C2761	C276	0.402800	0.813300	0.991400
H1841	H184	0.426800	0.815800	0.980300
Mo1331	Mo133	0.303640	0.582860	0.060310
Mo1341	Mo134	0.278170	0.488410	0.143960
Mo1351	Mo135	0.393140	0.584520	0.062920
Mo1361	Mo136	0.447740	0.649890	0.109270
Mo1371	Mo137	0.453460	0.533540	0.109600
Mo1381	Mo138	0.394420	0.484420	0.151260
Zn451	Zn45	0.339760	0.688340	0.084740
Zn461	Zn46	0.350800	0.485620	0.092520
O5071	O507	0.800700	0.089400	0.607220
O5081	O508	0.886400	0.091000	0.609650
O5091	O509	0.848400	0.037100	0.569170
O5101	O510	0.847500	0.131800	0.565510
O5111	O511	0.938500	0.034900	0.645890
O5121	O512	0.791800	0.989300	0.608530
O5131	O513	0.901700	0.990100	0.614610
O5141	O514	0.894800	0.188800	0.604900
O5151	O515	0.881600	0.008000	0.681250
O5161	O516	0.757800	0.039100	0.571880
O5171	O517	0.839500	0.958000	0.645930
O5181	O518	0.928900	0.940100	0.657620
O5191	O519	0.979100	0.089900	0.613000
O5201	O520	0.840800	0.237100	0.560670
O5211	O521	0.744100	0.943500	0.648370
O5221	O522	0.936500	0.039800	0.577960
O5231	O523	0.796200	0.078500	0.530240
O5241	O524	0.906900	0.081700	0.533530
O5251	O525	0.937000	0.133300	0.573590
N241	N24	0.855000	0.432700	0.429550
O5261	O526	0.997900	0.997800	0.608510
O5271	O527	0.992600	0.183900	0.605840
C2771	C277	0.873100	0.277400	0.528100
C2781	C278	0.833200	0.295900	0.522200
H1851	H185	0.807100	0.287200	0.530600
O5281	O528	0.907000	0.213100	0.548500
C2791	C279	0.875500	0.243300	0.548300
C2801	C280	0.861600	0.368000	0.467200
C2811	C281	0.830300	0.329400	0.502700
H1861	H186	0.804000	0.346600	0.500900
C2821	C282	0.866200	0.335800	0.487100
C2831	C283	0.828100	0.399400	0.466600
H1871	H187	0.806500	0.399500	0.479100
C2841	C284	0.824700	0.433300	0.446900
H1881	H188	0.801500	0.454800	0.446900
C2851	C285	0.908500	0.284500	0.512600
H1891	H189	0.936400	0.270800	0.515700
C2861	C286	0.884000	0.366200	0.447500
H1901	H190	0.903200	0.341600	0.445000
C2871	C287	0.881200	0.401500	0.428400
H1911	H191	0.900400	0.399500	0.414900
C2881	C288	0.902800	0.313300	0.491400
H1921	H192	0.926800	0.315800	0.480300
Mo1391	Mo139	0.803640	0.082860	0.560310
Mo1401	Mo140	0.778170	0.988410	0.643960
Mo1411	Mo141	0.893140	0.084520	0.562920
Mo1421	Mo142	0.947740	0.149890	0.609270
Mo1431	Mo143	0.953460	0.033540	0.609600
Mo1441	Mo144	0.894420	0.984420	0.651260
Zn471	Zn47	0.839760	0.188340	0.584740
Zn481	Zn48	0.850800	0.985620	0.592520
P91	P9	0.841800	0.591800	0.375000
P101	P10	0.341800	0.091800	0.875000
P111	P11	0.341800	0.591800	0.125000
P121	P12	0.841800	0.091800	0.625000
O5291	O529	0.660600	0.449300	0.857220
O5301	O530	0.659000	0.363600	0.859650
O5311	O531	0.712900	0.401600	0.819170
O5321	O532	0.618200	0.402500	0.815510
O5331	O533	0.715100	0.311500	0.895890
O5341	O534	0.760700	0.458200	0.858530
O5351	O535	0.759900	0.348300	0.864610
O5361	O536	0.561200	0.355200	0.854900
O5371	O537	0.742000	0.368400	0.931250
O5381	O538	0.710900	0.492200	0.821880
O5391	O539	0.792000	0.410500	0.895930
O5401	O540	0.809900	0.321100	0.907620
O5411	O541	0.660100	0.270900	0.863000
O5421	O542	0.512900	0.409200	0.810670
O5431	O543	0.806500	0.505900	0.898370
O5441	O544	0.710200	0.313500	0.827960
O5451	O545	0.671500	0.453800	0.780240
O5461	O546	0.668300	0.343100	0.783530
O5471	O547	0.616700	0.313000	0.823590
N251	N25	0.317300	0.395000	0.679550
O5481	O548	0.752200	0.252100	0.858510
O5491	O549	0.566100	0.257400	0.855840
C2891	C289	0.472600	0.376900	0.778100
C2901	C290	0.454100	0.416800	0.772200
H1931	H193	0.462800	0.442900	0.780600
O5501	O550	0.536900	0.343000	0.798500
C2911	C291	0.506700	0.374500	0.798300
C2921	C292	0.382000	0.388400	0.717200
C2931	C293	0.420600	0.419700	0.752700
H1941	H194	0.403400	0.446000	0.750900
C2941	C294	0.414200	0.383800	0.737100
C2951	C295	0.350600	0.421900	0.716600
H1951	H195	0.350500	0.443500	0.729100
C2961	C296	0.316700	0.425300	0.696900
H1961	H196	0.295200	0.448500	0.696900
C2971	C297	0.465500	0.341500	0.762600
H1971	H197	0.479200	0.313600	0.765700
C2981	C298	0.383800	0.366000	0.697500
H1981	H198	0.408400	0.346800	0.695000
C2991	C299	0.348500	0.368800	0.678400
H1991	H199	0.350500	0.349600	0.664900
C3001	C300	0.436700	0.347200	0.741400
H2001	H200	0.434200	0.323200	0.730300
Mo1451	Mo145	0.667140	0.446360	0.810310
Mo1461	Mo146	0.761590	0.471830	0.893960
Mo1471	Mo147	0.665480	0.356860	0.812920
Mo1481	Mo148	0.600110	0.302260	0.859270
Mo1491	Mo149	0.716460	0.296540	0.859600
Mo1501	Mo150	0.765580	0.355580	0.901260
Zn491	Zn49	0.561660	0.410240	0.834740
Zn501	Zn50	0.764380	0.399200	0.842520
O5511	O551	0.160600	0.949300	0.357220
O5521	O552	0.159000	0.863600	0.359650
O5531	O553	0.212900	0.901600	0.319170
O5541	O554	0.118200	0.902500	0.315510
O5551	O555	0.215100	0.811500	0.395890
O5561	O556	0.260700	0.958200	0.358530
O5571	O557	0.259900	0.848300	0.364610
O5581	O558	0.061200	0.855200	0.354900
O5591	O559	0.242000	0.868400	0.431250
O5601	O560	0.210900	0.992200	0.321880
O5611	O561	0.292000	0.910500	0.395930
O5621	O562	0.309900	0.821100	0.407620
O5631	O563	0.160100	0.770900	0.363000
O5641	O564	0.012900	0.909200	0.310670
O5651	O565	0.306500	0.005900	0.398370
O5661	O566	0.210200	0.813500	0.327960
O5671	O567	0.171500	0.953800	0.280240
O5681	O568	0.168300	0.843100	0.283530
O5691	O569	0.116700	0.813000	0.323590
N261	N26	0.817300	0.895000	0.179550
O5701	O570	0.252200	0.752100	0.358510
O5711	O571	0.066100	0.757400	0.355840
C3011	C301	0.972600	0.876900	0.278100
C3021	C302	0.954100	0.916800	0.272200
H2011	H201	0.962800	0.942900	0.280600
O5721	O572	0.036900	0.843000	0.298500
C3031	C303	0.006700	0.874500	0.298300
C3041	C304	0.882000	0.888400	0.217200
C3051	C305	0.920600	0.919700	0.252700
H2021	H202	0.903400	0.946000	0.250900
C3061	C306	0.914200	0.883800	0.237100
C3071	C307	0.850600	0.921900	0.216600
H2031	H203	0.850500	0.943500	0.229100
C3081	C308	0.816700	0.925300	0.196900
H2041	H204	0.795200	0.948500	0.196900
C3091	C309	0.965500	0.841500	0.262600
H2051	H205	0.979200	0.813600	0.265700
C3101	C310	0.883800	0.866000	0.197500
H2061	H206	0.908400	0.846800	0.195000
C3111	C311	0.848500	0.868800	0.178400
H2071	H207	0.850500	0.849600	0.164900
C3121	C312	0.936700	0.847200	0.241400
H2081	H208	0.934200	0.823200	0.230300
Mo1511	Mo151	0.167140	0.946360	0.310310
Mo1521	Mo152	0.261590	0.971830	0.393960
Mo1531	Mo153	0.165480	0.856860	0.312920
Mo1541	Mo154	0.100110	0.802260	0.359270
Mo1551	Mo155	0.216460	0.796540	0.359600
Mo1561	Mo156	0.265580	0.855580	0.401260
Zn511	Zn51	0.061660	0.910240	0.334740
Zn521	Zn52	0.264380	0.899200	0.342520
O5731	O573	0.699300	0.410600	0.892780
O5741	O574	0.613600	0.409000	0.890350
O5751	O575	0.651600	0.462900	0.930830
O5761	O576	0.652500	0.368200	0.934490
O5771	O577	0.561500	0.465100	0.854110
O5781	O578	0.708200	0.510700	0.891470
O5791	O579	0.598300	0.509900	0.885390
O5801	O580	0.605200	0.311200	0.895100
O5811	O581	0.618400	0.492000	0.818750
O5821	O582	0.742200	0.460900	0.928120
O5831	O583	0.660500	0.542000	0.854070
O5841	O584	0.571100	0.559900	0.842380
O5851	O585	0.520900	0.410100	0.887000
O5861	O586	0.659200	0.262900	0.939330
O5871	O587	0.755900	0.556500	0.851630
O5881	O588	0.563500	0.460200	0.922040
O5891	O589	0.703800	0.421500	0.969760
O5901	O590	0.593100	0.418300	0.966470
O5911	O591	0.563000	0.366700	0.926410
N271	N27	0.645000	0.067300	0.070450
O5921	O592	0.502100	0.502200	0.891490
O5931	O593	0.507400	0.316100	0.894160
C3131	C313	0.626900	0.222600	0.971900
C3141	C314	0.666800	0.204100	0.977800
H2091	H209	0.692900	0.212800	0.969400
O5941	O594	0.593000	0.286900	0.951500
C3151	C315	0.624500	0.256700	0.951700
C3161	C316	0.638400	0.132000	0.032800
C3171	C317	0.669700	0.170600	0.997300
H2101	H210	0.696000	0.153400	0.999100
C3181	C318	0.633800	0.164200	0.012900
C3191	C319	0.671900	0.100600	0.033400
H2111	H211	0.693500	0.100500	0.020900
C3201	C320	0.675300	0.066700	0.053100
H2121	H212	0.698500	0.045200	0.053100
C3211	C321	0.591500	0.215500	0.987400
H2131	H213	0.563600	0.229200	0.984300
C3221	C322	0.616000	0.133800	0.052500
H2141	H214	0.596800	0.158400	0.055000
C3231	C323	0.618800	0.098500	0.071600
H2151	H215	0.599600	0.100500	0.085100
C3241	C324	0.597200	0.186700	0.008600
H2161	H216	0.573200	0.184200	0.019700
Mo1571	Mo157	0.696360	0.417140	0.939690
Mo1581	Mo158	0.721830	0.511590	0.856040
Mo1591	Mo159	0.606860	0.415480	0.937080
Mo1601	Mo160	0.552260	0.350110	0.890730
Mo1611	Mo161	0.546540	0.466460	0.890400
Mo1621	Mo162	0.605580	0.515580	0.848740
Zn531	Zn53	0.660240	0.311660	0.915260
Zn541	Zn54	0.649200	0.514380	0.907480
O5951	O595	0.199300	0.910600	0.392780
O5961	O596	0.113600	0.909000	0.390350
O5971	O597	0.151600	0.962900	0.430830
O5981	O598	0.152500	0.868200	0.434490
O5991	O599	0.061500	0.965100	0.354110
O6001	O600	0.208200	0.010700	0.391470
O6011	O601	0.098300	0.009900	0.385390
O6021	O602	0.105200	0.811200	0.395100
O6031	O603	0.118400	0.992000	0.318750
O6041	O604	0.242200	0.960900	0.428120
O6051	O605	0.160500	0.042000	0.354070
O6061	O606	0.071100	0.059900	0.342380
O6071	O607	0.020900	0.910100	0.387000
O6081	O608	0.159200	0.762900	0.439330
O6091	O609	0.255900	0.056500	0.351630
O6101	O610	0.063500	0.960200	0.422040
O6111	O611	0.203800	0.921500	0.469760
O6121	O612	0.093100	0.918300	0.466470
O6131	O613	0.063000	0.866700	0.426410
N281	N28	0.145000	0.567300	0.570450
O6141	O614	0.002100	0.002200	0.391490
O6151	O615	0.007400	0.816100	0.394160
C3251	C325	0.126900	0.722600	0.471900
C3261	C326	0.166800	0.704100	0.477800
H2171	H217	0.192900	0.712800	0.469400
O6161	O616	0.093000	0.786900	0.451500
C3271	C327	0.124500	0.756700	0.451700
C3281	C328	0.138400	0.632000	0.532800
C3291	C329	0.169700	0.670600	0.497300
H2181	H218	0.196000	0.653400	0.499100
C3301	C330	0.133800	0.664200	0.512900
C3311	C331	0.171900	0.600600	0.533400
H2191	H219	0.193500	0.600500	0.520900
C3321	C332	0.175300	0.566700	0.553100
H2201	H220	0.198500	0.545200	0.553100
C3331	C333	0.091500	0.715500	0.487400
H2211	H221	0.063600	0.729200	0.484300
C3341	C334	0.116000	0.633800	0.552500
H2221	H222	0.096800	0.658400	0.555000
C3351	C335	0.118800	0.598500	0.571600
H2231	H223	0.099600	0.600500	0.585100
C3361	C336	0.097200	0.686700	0.508600
H2241	H224	0.073200	0.684200	0.519700
Mo1631	Mo163	0.196360	0.917140	0.439690
Mo1641	Mo164	0.221830	0.011590	0.356040
Mo1651	Mo165	0.106860	0.915480	0.437080
Mo1661	Mo166	0.052260	0.850110	0.390730
Mo1671	Mo167	0.046540	0.966460	0.390400
Mo1681	Mo168	0.105580	0.015580	0.348740
Zn551	Zn55	0.160240	0.811660	0.415260
Zn561	Zn56	0.149200	0.014380	0.407480
O6171	O617	0.160600	0.449300	0.642780
O6181	O618	0.159000	0.363600	0.640350
O6191	O619	0.212900	0.401600	0.680830
O6201	O620	0.118200	0.402500	0.684490
O6211	O621	0.215100	0.311500	0.604110
O6221	O622	0.260700	0.458200	0.641470
O6231	O623	0.259900	0.348300	0.635390
O6241	O624	0.061200	0.355200	0.645100
O6251	O625	0.242000	0.368400	0.568750
O6261	O626	0.210900	0.492200	0.678120
O6271	O627	0.292000	0.410500	0.604070
O6281	O628	0.309900	0.321100	0.592380
O6291	O629	0.160100	0.270900	0.637000
O6301	O630	0.012900	0.409200	0.689330
O6311	O631	0.306500	0.505900	0.601630
O6321	O632	0.210200	0.313500	0.672040
O6331	O633	0.171500	0.453800	0.719760
O6341	O634	0.168300	0.343100	0.716470
O6351	O635	0.116700	0.313000	0.676410
N291	N29	0.817300	0.395000	0.820450
O6361	O636	0.252200	0.252100	0.641490
O6371	O637	0.066100	0.257400	0.644160
C3371	C337	0.972600	0.376900	0.721900
C3381	C338	0.954100	0.416800	0.727800
H2251	H225	0.962800	0.442900	0.719400
O6381	O638	0.036900	0.343000	0.701500
C3391	C339	0.006700	0.374500	0.701700
C3401	C340	0.882000	0.388400	0.782800
C3411	C341	0.920600	0.419700	0.747300
H2261	H226	0.903400	0.446000	0.749100
C3421	C342	0.914200	0.383800	0.762900
C3431	C343	0.850600	0.421900	0.783400
H2271	H227	0.850500	0.443500	0.770900
C3441	C344	0.816700	0.425300	0.803100
H2281	H228	0.795200	0.448500	0.803100
C3451	C345	0.965500	0.341500	0.737400
H2291	H229	0.979200	0.313600	0.734300
C3461	C346	0.883800	0.366000	0.802500
H2301	H230	0.908400	0.346800	0.805000
C3471	C347	0.848500	0.368800	0.821600
H2311	H231	0.850500	0.349600	0.835100
C3481	C348	0.936700	0.347200	0.758600
H2321	H232	0.934200	0.323200	0.769700
Mo1691	Mo169	0.167140	0.446360	0.689690
Mo1701	Mo170	0.261590	0.471830	0.606040
Mo1711	Mo171	0.165480	0.356860	0.687080
Mo1721	Mo172	0.100110	0.302260	0.640730
Mo1731	Mo173	0.216460	0.296540	0.640400
Mo1741	Mo174	0.265580	0.355580	0.598740
Zn571	Zn57	0.061660	0.410240	0.665260
Zn581	Zn58	0.264380	0.399200	0.657480
O6391	O639	0.660600	0.949300	0.142780
O6401	O640	0.659000	0.863600	0.140350
O6411	O641	0.712900	0.901600	0.180830
O6421	O642	0.618200	0.902500	0.184490
O6431	O643	0.715100	0.811500	0.104110
O6441	O644	0.760700	0.958200	0.141470
O6451	O645	0.759900	0.848300	0.135390
O6461	O646	0.561200	0.855200	0.145100
O6471	O647	0.742000	0.868400	0.068750
O6481	O648	0.710900	0.992200	0.178120
O6491	O649	0.792000	0.910500	0.104070
O6501	O650	0.809900	0.821100	0.092380
O6511	O651	0.660100	0.770900	0.137000
O6521	O652	0.512900	0.909200	0.189330
O6531	O653	0.806500	0.005900	0.101630
O6541	O654	0.710200	0.813500	0.172040
O6551	O655	0.671500	0.953800	0.219760
O6561	O656	0.668300	0.843100	0.216470
O6571	O657	0.616700	0.813000	0.176410
N301	N30	0.317300	0.895000	0.320450
O6581	O658	0.752200	0.752100	0.141490
O6591	O659	0.566100	0.757400	0.144160
C3491	C349	0.472600	0.876900	0.221900
C3501	C350	0.454100	0.916800	0.227800
H2331	H233	0.462800	0.942900	0.219400
O6601	O660	0.536900	0.843000	0.201500
C3511	C351	0.506700	0.874500	0.201700
C3521	C352	0.382000	0.888400	0.282800
C3531	C353	0.420600	0.919700	0.247300
H2341	H234	0.403400	0.946000	0.249100
C3541	C354	0.414200	0.883800	0.262900
C3551	C355	0.350600	0.921900	0.283400
H2351	H235	0.350500	0.943500	0.270900
C3561	C356	0.316700	0.925300	0.303100
H2361	H236	0.295200	0.948500	0.303100
C3571	C357	0.465500	0.841500	0.237400
H2371	H237	0.479200	0.813600	0.234300
C3581	C358	0.383800	0.866000	0.302500
H2381	H238	0.408400	0.846800	0.305000
C3591	C359	0.348500	0.868800	0.321600
H2391	H239	0.350500	0.849600	0.335100
C3601	C360	0.436700	0.847200	0.258600
H2401	H240	0.434200	0.823200	0.269700
Mo1751	Mo175	0.667140	0.946360	0.189690
Mo1761	Mo176	0.761590	0.971830	0.106040
Mo1771	Mo177	0.665480	0.856860	0.187080
Mo1781	Mo178	0.600110	0.802260	0.140730
Mo1791	Mo179	0.716460	0.796540	0.140400
Mo1801	Mo180	0.765580	0.855580	0.098740
Zn591	Zn59	0.561660	0.910240	0.165260
Zn601	Zn60	0.764380	0.899200	0.157480
O6611	O661	0.199300	0.410600	0.607220
O6621	O662	0.113600	0.409000	0.609650
O6631	O663	0.151600	0.462900	0.569170
O6641	O664	0.152500	0.368200	0.565510
O6651	O665	0.061500	0.465100	0.645890
O6661	O666	0.208200	0.510700	0.608530
O6671	O667	0.098300	0.509900	0.614610
O6681	O668	0.105200	0.311200	0.604900
O6691	O669	0.118400	0.492000	0.681250
O6701	O670	0.242200	0.460900	0.571880
O6711	O671	0.160500	0.542000	0.645930
O6721	O672	0.071100	0.559900	0.657620
O6731	O673	0.020900	0.410100	0.613000
O6741	O674	0.159200	0.262900	0.560670
O6751	O675	0.255900	0.556500	0.648370
O6761	O676	0.063500	0.460200	0.577960
O6771	O677	0.203800	0.421500	0.530240
O6781	O678	0.093100	0.418300	0.533530
O6791	O679	0.063000	0.366700	0.573590
N311	N31	0.145000	0.067300	0.429550
O6801	O680	0.002100	0.502200	0.608510
O6811	O681	0.007400	0.316100	0.605840
C3611	C361	0.126900	0.222600	0.528100
C3621	C362	0.166800	0.204100	0.522200
H2411	H241	0.192900	0.212800	0.530600
O6821	O682	0.093000	0.286900	0.548500
C3631	C363	0.124500	0.256700	0.548300
C3641	C364	0.138400	0.132000	0.467200
C3651	C365	0.169700	0.170600	0.502700
H2421	H242	0.196000	0.153400	0.500900
C3661	C366	0.133800	0.164200	0.487100
C3671	C367	0.171900	0.100600	0.466600
H2431	H243	0.193500	0.100500	0.479100
C3681	C368	0.175300	0.066700	0.446900
H2441	H244	0.198500	0.045200	0.446900
C3691	C369	0.091500	0.215500	0.512600
H2451	H245	0.063600	0.229200	0.515700
C3701	C370	0.116000	0.133800	0.447500
H2461	H246	0.096800	0.158400	0.445000
C3711	C371	0.118800	0.098500	0.428400
H2471	H247	0.099600	0.100500	0.414900
C3721	C372	0.097200	0.186700	0.491400
H2481	H248	0.073200	0.184200	0.480300
Mo1811	Mo181	0.196360	0.417140	0.560310
Mo1821	Mo182	0.221830	0.511590	0.643960
Mo1831	Mo183	0.106860	0.415480	0.562920
Mo1841	Mo184	0.052260	0.350110	0.609270
Mo1851	Mo185	0.046540	0.466460	0.609600
Mo1861	Mo186	0.105580	0.515580	0.651260
Zn611	Zn61	0.160240	0.311660	0.584740
Zn621	Zn62	0.149200	0.514380	0.592520
O6831	O683	0.699300	0.910600	0.107220
O6841	O684	0.613600	0.909000	0.109650
O6851	O685	0.651600	0.962900	0.069170
O6861	O686	0.652500	0.868200	0.065510
O6871	O687	0.561500	0.965100	0.145890
O6881	O688	0.708200	0.010700	0.108530
O6891	O689	0.598300	0.009900	0.114610
O6901	O690	0.605200	0.811200	0.104900
O6911	O691	0.618400	0.992000	0.181250
O6921	O692	0.742200	0.960900	0.071880
O6931	O693	0.660500	0.042000	0.145930
O6941	O694	0.571100	0.059900	0.157620
O6951	O695	0.520900	0.910100	0.113000
O6961	O696	0.659200	0.762900	0.060670
O6971	O697	0.755900	0.056500	0.148370
O6981	O698	0.563500	0.960200	0.077960
O6991	O699	0.703800	0.921500	0.030240
O7001	O700	0.593100	0.918300	0.033530
O7011	O701	0.563000	0.866700	0.073590
N321	N32	0.645000	0.567300	0.929550
O7021	O702	0.502100	0.002200	0.108510
O7031	O703	0.507400	0.816100	0.105840
C3731	C373	0.626900	0.722600	0.028100
C3741	C374	0.666800	0.704100	0.022200
H2491	H249	0.692900	0.712800	0.030600
O7041	O704	0.593000	0.786900	0.048500
C3751	C375	0.624500	0.756700	0.048300
C3761	C376	0.638400	0.632000	0.967200
C3771	C377	0.669700	0.670600	0.002700
H2501	H250	0.696000	0.653400	0.000900
C3781	C378	0.633800	0.664200	0.987100
C3791	C379	0.671900	0.600600	0.966600
H2511	H251	0.693500	0.600500	0.979100
C3801	C380	0.675300	0.566700	0.946900
H2521	H252	0.698500	0.545200	0.946900
C3811	C381	0.591500	0.715500	0.012600
H2531	H253	0.563600	0.729200	0.015700
C3821	C382	0.616000	0.633800	0.947500
H2541	H254	0.596800	0.658400	0.945000
C3831	C383	0.618800	0.598500	0.928400
H2551	H255	0.599600	0.600500	0.914900
C3841	C384	0.597200	0.686700	0.991400
H2561	H256	0.573200	0.684200	0.980300
Mo1871	Mo187	0.696360	0.917140	0.060310
Mo1881	Mo188	0.721830	0.011590	0.143960
Mo1891	Mo189	0.606860	0.915480	0.062920
Mo1901	Mo190	0.552260	0.850110	0.109270
Mo1911	Mo191	0.546540	0.966460	0.109600
Mo1921	Mo192	0.605580	0.015580	0.151260
Zn631	Zn63	0.660240	0.811660	0.084740
Zn641	Zn64	0.649200	0.014380	0.092520
P131	P13	0.658200	0.408200	0.875000
P141	P14	0.158200	0.908200	0.375000
P151	P15	0.158200	0.408200	0.625000
P161	P16	0.658200	0.908200	0.125000
