data_MAYFUN_freeONLY_PM
_symmetry_space_group_name_H-M	'P1'
_cell_length_a	9.213700
_cell_length_b	15.201400
_cell_length_c	12.045700
_cell_angle_alpha	90.000000
_cell_angle_beta	101.893000
_cell_angle_gamma	90.000000
_symmetry_Int_Tables_number 1

loop_
_symmetry_equiv_pos_as_xyz
'x,y,z'

loop_
_atom_site_label
_atom_site_type_symbol
_atom_site_fract_x
_atom_site_fract_y
_atom_site_fract_z
P11	P1	0.894500	0.107300	0.890800
P21	P2	0.448800	0.003000	0.816700
O11	O1	0.519500	0.082900	0.774700
O21	O2	0.824300	0.100500	0.764300
O31	O3	0.600100	0.243200	0.690600
O41	O4	0.667500	0.992600	0.597800
O51	O5	0.738300	0.169300	0.543600
O61	O6	0.444100	0.104600	0.534700
O71	O7	0.815300	0.052100	0.963400
O81	O8	0.318300	0.031800	0.867000
O91	O9	0.557800	0.946800	0.898100
O101	O10	0.054000	0.084900	0.899600
O111	O11	0.793600	0.303100	0.483400
O121	O12	0.657100	0.378600	0.633700
O131	O13	0.882800	0.204100	0.931900
H11	H1	0.919700	0.237500	0.892000
O141	O14	0.383000	0.946000	0.710000
H21	H2	0.340600	0.903000	0.729500
C11	C1	0.564800	0.967600	0.518300
C21	C2	0.738600	0.252000	0.544800
C31	C3	0.657800	0.295700	0.631100
Fe11	Fe1	0.634760	0.112550	0.664520
Fe21	Fe2	0.752200	0.938070	0.997950
P31	P3	0.605500	0.607300	0.609200
P41	P4	0.051200	0.503000	0.683300
O151	O15	0.980500	0.582900	0.725300
O161	O16	0.675700	0.600500	0.735700
O171	O17	0.899900	0.743200	0.809400
O181	O18	0.832500	0.492600	0.902200
O191	O19	0.761700	0.669300	0.956400
O201	O20	0.055900	0.604600	0.965300
O211	O21	0.684700	0.552100	0.536600
O221	O22	0.181700	0.531800	0.633000
O231	O23	0.942200	0.446800	0.601900
O241	O24	0.446000	0.584900	0.600400
O251	O25	0.706400	0.803100	0.016600
O261	O26	0.842900	0.878600	0.866300
O271	O27	0.617200	0.704100	0.568100
H31	H3	0.580300	0.737500	0.608000
O281	O28	0.117000	0.446000	0.790000
H41	H4	0.159400	0.403000	0.770500
C41	C4	0.935200	0.467600	0.981700
C51	C5	0.761400	0.752000	0.955200
C61	C6	0.842200	0.795700	0.868900
Fe31	Fe3	0.865240	0.612550	0.835480
Fe41	Fe4	0.747800	0.438070	0.502050
P51	P5	0.105500	0.892700	0.109200
P61	P6	0.551200	0.997000	0.183300
O291	O29	0.480500	0.917100	0.225300
O301	O30	0.175700	0.899500	0.235700
O311	O31	0.399900	0.756800	0.309400
O321	O32	0.332500	0.007400	0.402200
O331	O33	0.261700	0.830700	0.456400
O341	O34	0.555900	0.895400	0.465300
O351	O35	0.184700	0.947900	0.036600
O361	O36	0.681700	0.968200	0.133000
O371	O37	0.442200	0.053200	0.101900
O381	O38	0.946000	0.915100	0.100400
O391	O39	0.206400	0.696900	0.516600
O401	O40	0.342900	0.621400	0.366300
O411	O41	0.117200	0.795900	0.068100
H51	H5	0.080300	0.762500	0.108000
O421	O42	0.617000	0.054000	0.290000
H61	H6	0.659400	0.097000	0.270500
C71	C7	0.435200	0.032400	0.481700
C81	C8	0.261400	0.748000	0.455200
C91	C9	0.342200	0.704300	0.368900
Fe51	Fe5	0.365240	0.887450	0.335480
Fe61	Fe6	0.247800	0.061930	0.002050
P71	P7	0.394500	0.392700	0.390800
P81	P8	0.948800	0.497000	0.316700
O431	O43	0.019500	0.417100	0.274700
O441	O44	0.324300	0.399500	0.264300
O451	O45	0.100100	0.256800	0.190600
O461	O46	0.167500	0.507400	0.097800
O471	O47	0.238300	0.330700	0.043600
O481	O48	0.944100	0.395400	0.034700
O491	O49	0.315300	0.447900	0.463400
O501	O50	0.818300	0.468200	0.367000
O511	O51	0.057800	0.553200	0.398100
O521	O52	0.554000	0.415100	0.399600
O531	O53	0.293600	0.196900	0.983400
O541	O54	0.157100	0.121400	0.133700
O551	O55	0.382800	0.295900	0.431900
H71	H7	0.419700	0.262500	0.392000
O561	O56	0.883000	0.554000	0.210000
H81	H8	0.840600	0.597000	0.229500
C101	C10	0.064800	0.532400	0.018300
C111	C11	0.238600	0.248000	0.044800
C121	C12	0.157800	0.204300	0.131100
Fe71	Fe7	0.134760	0.387450	0.164520
Fe81	Fe8	0.252200	0.561930	0.497950
