data_MAYJOM_freeONLY_PM
_symmetry_space_group_name_H-M	'P1'
_cell_length_a	18.228000
_cell_length_b	11.970100
_cell_length_c	34.062000
_cell_angle_alpha	90.000000
_cell_angle_beta	122.355000
_cell_angle_gamma	90.000000
_symmetry_Int_Tables_number 1

loop_
_symmetry_equiv_pos_as_xyz
'x,y,z'

loop_
_atom_site_label
_atom_site_type_symbol
_atom_site_fract_x
_atom_site_fract_y
_atom_site_fract_z
In11	In1	0.124940	0.994470	0.124660
In21	In2	0.250820	0.992810	0.250320
In31	In3	0.624720	0.495300	0.125140
C11	C1	0.166800	0.146300	0.063430
C21	C2	0.236100	0.213200	0.063090
C31	C3	0.222800	0.254300	0.021600
H11	H1	0.169300	0.244900	0.994100
C41	C4	0.287800	0.308100	0.021160
H21	H2	0.278800	0.333600	0.993100
C51	C5	0.368400	0.325900	0.062450
C61	C6	0.380800	0.287600	0.103400
H31	H3	0.433600	0.300000	0.131000
C71	C7	0.314300	0.229800	0.104210
H41	H4	0.323100	0.203200	0.132100
C81	C8	0.440000	0.384000	0.061500
C91	C9	0.585500	0.644300	0.187760
C101	C10	0.516100	0.712400	0.188070
C111	C11	0.521700	0.733700	0.229090
H51	H5	0.569800	0.709000	0.256900
C121	C12	0.455200	0.792700	0.229400
H61	H6	0.460200	0.810100	0.257400
C131	C13	0.382800	0.824100	0.187770
C141	C14	0.377000	0.801800	0.145710
H71	H7	0.328400	0.824500	0.117700
C151	C15	0.443100	0.746700	0.146260
H81	H8	0.439300	0.731900	0.118400
C161	C16	0.308700	0.881900	0.187000
C171	C17	0.942700	0.112800	0.063340
C181	C18	0.870300	0.172500	0.063330
C191	C19	0.798500	0.210800	0.021580
H91	H9	0.796100	0.199500	0.993900
C201	C20	0.732600	0.264200	0.020990
H101	H10	0.684400	0.286900	0.992800
C211	C21	0.736200	0.285600	0.062130
C221	C22	0.806700	0.249100	0.103630
H111	H11	0.809900	0.263000	0.131400
C231	C23	0.873600	0.190900	0.103800
H121	H12	0.920600	0.164600	0.131700
C241	C24	0.666400	0.350600	0.062140
C251	C25	0.807400	0.611100	0.187790
C261	C26	0.879900	0.671800	0.188160
C271	C27	0.955200	0.695900	0.229360
H131	H13	0.962300	0.673400	0.257300
C281	C28	0.021800	0.755000	0.229090
H141	H14	0.072100	0.774600	0.257000
C291	C29	0.012300	0.783700	0.187360
C301	C30	0.934900	0.757800	0.145650
H151	H15	0.928000	0.778100	0.117500
C311	C31	0.870100	0.703700	0.145950
H161	H16	0.818800	0.687500	0.118000
C321	C32	0.083700	0.847600	0.187500
O11	O1	0.179900	0.078900	0.187700
O21	O2	0.068800	0.909900	0.061680
O31	O3	0.679600	0.405900	0.187110
O41	O4	0.570400	0.583900	0.063250
O51	O5	0.100600	0.122900	0.024400
O61	O6	0.179200	0.120100	0.102270
O71	O7	0.427400	0.409800	0.022930
O81	O8	0.508200	0.402100	0.100360
O91	O9	0.573100	0.618600	0.149240
O101	O10	0.649500	0.617400	0.226810
O111	O11	0.319000	0.900600	0.225830
O121	O12	0.243600	0.904700	0.148500
O131	O13	0.008600	0.088000	0.102720
O141	O14	0.932200	0.093400	0.024600
O151	O15	0.677900	0.373700	0.100940
O161	O16	0.599700	0.374700	0.023170
O171	O17	0.741600	0.589800	0.149460
O181	O18	0.819300	0.587900	0.226800
O191	O19	0.148500	0.871300	0.226150
O201	O20	0.071600	0.871000	0.148640
H171	H17	0.194000	0.142000	0.200000
H181	H18	0.077000	0.840800	0.060000
H191	H19	0.688000	0.339000	0.183000
H201	H20	0.589000	0.650000	0.064000
In41	In4	0.875060	0.494470	0.375340
In51	In5	0.749180	0.492810	0.249680
In61	In6	0.375280	0.995300	0.374860
C331	C33	0.833200	0.646300	0.436570
C341	C34	0.763900	0.713200	0.436910
C351	C35	0.777200	0.754300	0.478400
H211	H21	0.830700	0.744900	0.505900
C361	C36	0.712200	0.808100	0.478840
H221	H22	0.721200	0.833600	0.506900
C371	C37	0.631600	0.825900	0.437550
C381	C38	0.619200	0.787600	0.396600
H231	H23	0.566400	0.800000	0.369000
C391	C39	0.685700	0.729800	0.395790
H241	H24	0.676900	0.703200	0.367900
C401	C40	0.560000	0.884000	0.438500
C411	C41	0.414500	0.144300	0.312240
C421	C42	0.483900	0.212400	0.311930
C431	C43	0.478300	0.233700	0.270910
H251	H25	0.430200	0.209000	0.243100
C441	C44	0.544800	0.292700	0.270600
H261	H26	0.539800	0.310100	0.242600
C451	C45	0.617200	0.324100	0.312230
C461	C46	0.623000	0.301800	0.354290
H271	H27	0.671600	0.324500	0.382300
C471	C47	0.556900	0.246700	0.353740
H281	H28	0.560700	0.231900	0.381600
C481	C48	0.691300	0.381900	0.313000
C491	C49	0.057300	0.612800	0.436660
C501	C50	0.129700	0.672500	0.436670
C511	C51	0.201500	0.710800	0.478420
H291	H29	0.203900	0.699500	0.506100
C521	C52	0.267400	0.764200	0.479010
H301	H30	0.315600	0.786900	0.507200
C531	C53	0.263800	0.785600	0.437870
C541	C54	0.193300	0.749100	0.396370
H311	H31	0.190100	0.763000	0.368600
C551	C55	0.126400	0.690900	0.396200
H321	H32	0.079400	0.664600	0.368300
C561	C56	0.333600	0.850600	0.437860
C571	C57	0.192600	0.111100	0.312210
C581	C58	0.120100	0.171800	0.311840
C591	C59	0.044800	0.195900	0.270640
H331	H33	0.037700	0.173400	0.242700
C601	C60	0.978200	0.255000	0.270910
H341	H34	0.927900	0.274600	0.243000
C611	C61	0.987700	0.283700	0.312640
C621	C62	0.065100	0.257800	0.354350
H351	H35	0.072000	0.278100	0.382500
C631	C63	0.129900	0.203700	0.354050
H361	H36	0.181200	0.187500	0.382000
C641	C64	0.916300	0.347600	0.312500
O211	O21	0.820100	0.578900	0.312300
O221	O22	0.931200	0.409900	0.438320
O231	O23	0.320400	0.905900	0.312890
O241	O24	0.429600	0.083900	0.436750
O251	O25	0.899400	0.622900	0.475600
O261	O26	0.820800	0.620100	0.397730
O271	O27	0.572600	0.909800	0.477070
O281	O28	0.491800	0.902100	0.399640
O291	O29	0.426900	0.118600	0.350760
O301	O30	0.350500	0.117400	0.273190
O311	O31	0.681000	0.400600	0.274170
O321	O32	0.756400	0.404700	0.351500
O331	O33	0.991400	0.588000	0.397280
O341	O34	0.067800	0.593400	0.475400
O351	O35	0.322100	0.873700	0.399060
O361	O36	0.400300	0.874700	0.476830
O371	O37	0.258400	0.089800	0.350540
O381	O38	0.180700	0.087900	0.273200
O391	O39	0.851500	0.371300	0.273850
O401	O40	0.928400	0.371000	0.351360
H371	H37	0.806000	0.642000	0.300000
H381	H38	0.923000	0.340800	0.440000
H391	H39	0.312000	0.839000	0.317000
H401	H40	0.411000	0.150000	0.436000
In71	In7	0.875060	0.005530	0.875340
In81	In8	0.749180	0.007190	0.749680
In91	In9	0.375280	0.504700	0.874860
C651	C65	0.833200	0.853700	0.936570
C661	C66	0.763900	0.786800	0.936910
C671	C67	0.777200	0.745700	0.978400
H411	H41	0.830700	0.755100	0.005900
C681	C68	0.712200	0.691900	0.978840
H421	H42	0.721200	0.666400	0.006900
C691	C69	0.631600	0.674100	0.937550
C701	C70	0.619200	0.712400	0.896600
H431	H43	0.566400	0.700000	0.869000
C711	C71	0.685700	0.770200	0.895790
H441	H44	0.676900	0.796800	0.867900
C721	C72	0.560000	0.616000	0.938500
C731	C73	0.414500	0.355700	0.812240
C741	C74	0.483900	0.287600	0.811930
C751	C75	0.478300	0.266300	0.770910
H451	H45	0.430200	0.291000	0.743100
C761	C76	0.544800	0.207300	0.770600
H461	H46	0.539800	0.189900	0.742600
C771	C77	0.617200	0.175900	0.812230
C781	C78	0.623000	0.198200	0.854290
H471	H47	0.671600	0.175500	0.882300
C791	C79	0.556900	0.253300	0.853740
H481	H48	0.560700	0.268100	0.881600
C801	C80	0.691300	0.118100	0.813000
C811	C81	0.057300	0.887200	0.936660
C821	C82	0.129700	0.827500	0.936670
C831	C83	0.201500	0.789200	0.978420
H491	H49	0.203900	0.800500	0.006100
C841	C84	0.267400	0.735800	0.979010
H501	H50	0.315600	0.713100	0.007200
C851	C85	0.263800	0.714400	0.937870
C861	C86	0.193300	0.750900	0.896370
H511	H51	0.190100	0.737000	0.868600
C871	C87	0.126400	0.809100	0.896200
H521	H52	0.079400	0.835400	0.868300
C881	C88	0.333600	0.649400	0.937860
C891	C89	0.192600	0.388900	0.812210
C901	C90	0.120100	0.328200	0.811840
C911	C91	0.044800	0.304100	0.770640
H531	H53	0.037700	0.326600	0.742700
C921	C92	0.978200	0.245000	0.770910
H541	H54	0.927900	0.225400	0.743000
C931	C93	0.987700	0.216300	0.812640
C941	C94	0.065100	0.242200	0.854350
H551	H55	0.072000	0.221900	0.882500
C951	C95	0.129900	0.296300	0.854050
H561	H56	0.181200	0.312500	0.882000
C961	C96	0.916300	0.152400	0.812500
O411	O41	0.820100	0.921100	0.812300
O421	O42	0.931200	0.090100	0.938320
O431	O43	0.320400	0.594100	0.812890
O441	O44	0.429600	0.416100	0.936750
O451	O45	0.899400	0.877100	0.975600
O461	O46	0.820800	0.879900	0.897730
O471	O47	0.572600	0.590200	0.977070
O481	O48	0.491800	0.597900	0.899640
O491	O49	0.426900	0.381400	0.850760
O501	O50	0.350500	0.382600	0.773190
O511	O51	0.681000	0.099400	0.774170
O521	O52	0.756400	0.095300	0.851500
O531	O53	0.991400	0.912000	0.897280
O541	O54	0.067800	0.906600	0.975400
O551	O55	0.322100	0.626300	0.899060
O561	O56	0.400300	0.625300	0.976830
O571	O57	0.258400	0.410200	0.850540
O581	O58	0.180700	0.412100	0.773200
O591	O59	0.851500	0.128700	0.773850
O601	O60	0.928400	0.129000	0.851360
H571	H57	0.806000	0.858000	0.800000
H581	H58	0.923000	0.159200	0.940000
H591	H59	0.312000	0.661000	0.817000
H601	H60	0.411000	0.350000	0.936000
In101	In10	0.124940	0.505530	0.624660
In111	In11	0.250820	0.507190	0.750320
In121	In12	0.624720	0.004700	0.625140
C971	C97	0.166800	0.353700	0.563430
C981	C98	0.236100	0.286800	0.563090
C991	C99	0.222800	0.245700	0.521600
H611	H61	0.169300	0.255100	0.494100
C1001	C100	0.287800	0.191900	0.521160
H621	H62	0.278800	0.166400	0.493100
C1011	C101	0.368400	0.174100	0.562450
C1021	C102	0.380800	0.212400	0.603400
H631	H63	0.433600	0.200000	0.631000
C1031	C103	0.314300	0.270200	0.604210
H641	H64	0.323100	0.296800	0.632100
C1041	C104	0.440000	0.116000	0.561500
C1051	C105	0.585500	0.855700	0.687760
C1061	C106	0.516100	0.787600	0.688070
C1071	C107	0.521700	0.766300	0.729090
H651	H65	0.569800	0.791000	0.756900
C1081	C108	0.455200	0.707300	0.729400
H661	H66	0.460200	0.689900	0.757400
C1091	C109	0.382800	0.675900	0.687770
C1101	C110	0.377000	0.698200	0.645710
H671	H67	0.328400	0.675500	0.617700
C1111	C111	0.443100	0.753300	0.646260
H681	H68	0.439300	0.768100	0.618400
C1121	C112	0.308700	0.618100	0.687000
C1131	C113	0.942700	0.387200	0.563340
C1141	C114	0.870300	0.327500	0.563330
C1151	C115	0.798500	0.289200	0.521580
H691	H69	0.796100	0.300500	0.493900
C1161	C116	0.732600	0.235800	0.520990
H701	H70	0.684400	0.213100	0.492800
C1171	C117	0.736200	0.214400	0.562130
C1181	C118	0.806700	0.250900	0.603630
H711	H71	0.809900	0.237000	0.631400
C1191	C119	0.873600	0.309100	0.603800
H721	H72	0.920600	0.335400	0.631700
C1201	C120	0.666400	0.149400	0.562140
C1211	C121	0.807400	0.888900	0.687790
C1221	C122	0.879900	0.828200	0.688160
C1231	C123	0.955200	0.804100	0.729360
H731	H73	0.962300	0.826600	0.757300
C1241	C124	0.021800	0.745000	0.729090
H741	H74	0.072100	0.725400	0.757000
C1251	C125	0.012300	0.716300	0.687360
C1261	C126	0.934900	0.742200	0.645650
H751	H75	0.928000	0.721900	0.617500
C1271	C127	0.870100	0.796300	0.645950
H761	H76	0.818800	0.812500	0.618000
C1281	C128	0.083700	0.652400	0.687500
O611	O61	0.179900	0.421100	0.687700
O621	O62	0.068800	0.590100	0.561680
O631	O63	0.679600	0.094100	0.687110
O641	O64	0.570400	0.916100	0.563250
O651	O65	0.100600	0.377100	0.524400
O661	O66	0.179200	0.379900	0.602270
O671	O67	0.427400	0.090200	0.522930
O681	O68	0.508200	0.097900	0.600360
O691	O69	0.573100	0.881400	0.649240
O701	O70	0.649500	0.882600	0.726810
O711	O71	0.319000	0.599400	0.725830
O721	O72	0.243600	0.595300	0.648500
O731	O73	0.008600	0.412000	0.602720
O741	O74	0.932200	0.406600	0.524600
O751	O75	0.677900	0.126300	0.600940
O761	O76	0.599700	0.125300	0.523170
O771	O77	0.741600	0.910200	0.649460
O781	O78	0.819300	0.912100	0.726800
O791	O79	0.148500	0.628700	0.726150
O801	O80	0.071600	0.629000	0.648640
H771	H77	0.194000	0.358000	0.700000
H781	H78	0.077000	0.659200	0.560000
H791	H79	0.688000	0.161000	0.683000
H801	H80	0.589000	0.850000	0.564000
In131	In13	0.500000	0.500000	0.000000
In141	In14	0.500000	0.000000	0.500000
In151	In15	0.000000	0.000000	0.000000
In161	In16	0.000000	0.500000	0.500000
