data_MAZJEC_freeONLY_PM
_symmetry_space_group_name_H-M	'P1'
_cell_length_a	9.016400
_cell_length_b	9.016400
_cell_length_c	17.078000
_cell_angle_alpha	90.000000
_cell_angle_beta	90.000000
_cell_angle_gamma	117.031000
_symmetry_Int_Tables_number 1

loop_
_symmetry_equiv_pos_as_xyz
'x,y,z'

loop_
_atom_site_label
_atom_site_type_symbol
_atom_site_fract_x
_atom_site_fract_y
_atom_site_fract_z
Gd11	Gd1	0.000000	0.000000	0.000000
Gd21	Gd2	0.000000	0.000000	0.500000
Gd31	Gd3	0.349910	0.655090	0.250000
Gd41	Gd4	0.655090	0.349910	0.750000
H11	H1	0.562000	0.965200	0.084300
H21	H2	0.502300	0.819300	0.023300
H31	H3	0.583400	0.981200	0.910000
H41	H4	0.624600	0.139400	0.961800
H51	H5	0.393900	0.401700	0.086500
H61	H6	0.316000	0.488800	0.032500
H71	H7	0.965200	0.562000	0.915700
H81	H8	0.819300	0.502300	0.976700
H91	H9	0.981200	0.583400	0.090000
H101	H10	0.139400	0.624600	0.038200
H111	H11	0.401700	0.393900	0.913500
H121	H12	0.488800	0.316000	0.967500
H131	H13	0.965200	0.562000	0.584300
H141	H14	0.819300	0.502300	0.523300
H151	H15	0.981200	0.583400	0.410000
H161	H16	0.139400	0.624600	0.461800
H171	H17	0.401700	0.393900	0.586500
H181	H18	0.488800	0.316000	0.532500
H191	H19	0.562000	0.965200	0.415700
H201	H20	0.502300	0.819300	0.476700
H211	H21	0.583400	0.981200	0.590000
H221	H22	0.624600	0.139400	0.538200
H231	H23	0.393900	0.401700	0.413500
H241	H24	0.316000	0.488800	0.467500
C11	C1	0.653500	0.802500	0.105900
C21	C2	0.597200	0.896800	0.053200
C31	C3	0.669400	0.068600	0.940200
C41	C4	0.815000	0.169000	0.889400
C51	C5	0.151500	0.336500	0.114200
C61	C6	0.295000	0.385000	0.057700
C71	C7	0.802500	0.653500	0.894100
C81	C8	0.896800	0.597200	0.946800
C91	C9	0.068600	0.669400	0.059800
C101	C10	0.169000	0.815000	0.110600
C111	C11	0.336500	0.151500	0.885800
C121	C12	0.385000	0.295000	0.942300
C131	C13	0.802500	0.653500	0.605900
C141	C14	0.896800	0.597200	0.553200
C151	C15	0.068600	0.669400	0.440200
C161	C16	0.169000	0.815000	0.389400
C171	C17	0.336500	0.151500	0.614200
C181	C18	0.385000	0.295000	0.557700
C191	C19	0.653500	0.802500	0.394100
C201	C20	0.597200	0.896800	0.446800
C211	C21	0.669400	0.068600	0.559800
C221	C22	0.815000	0.169000	0.610600
C231	C23	0.151500	0.336500	0.385800
C241	C24	0.295000	0.385000	0.442300
O11	O1	0.800800	0.827000	0.096200
O21	O2	0.555800	0.707400	0.156400
O31	O3	0.723900	0.999100	0.001500
O41	O4	0.793700	0.248300	0.835100
O51	O5	0.957100	0.176900	0.904200
O61	O6	0.024400	0.203200	0.097900
O71	O7	0.171000	0.437000	0.167400
O81	O8	0.827000	0.800800	0.903800
O91	O9	0.707400	0.555800	0.843600
O101	O10	0.999100	0.723900	0.998500
O111	O11	0.248300	0.793700	0.164900
O121	O12	0.176900	0.957100	0.095800
O131	O13	0.203200	0.024400	0.902100
O141	O14	0.437000	0.171000	0.832600
O151	O15	0.827000	0.800800	0.596200
O161	O16	0.707400	0.555800	0.656400
O171	O17	0.999100	0.723900	0.501500
O181	O18	0.248300	0.793700	0.335100
O191	O19	0.176900	0.957100	0.404200
O201	O20	0.203200	0.024400	0.597900
O211	O21	0.437000	0.171000	0.667400
O221	O22	0.800800	0.827000	0.403800
O231	O23	0.555800	0.707400	0.343600
O241	O24	0.723900	0.999100	0.498500
O251	O25	0.793700	0.248300	0.664900
O261	O26	0.957100	0.176900	0.595800
O271	O27	0.024400	0.203200	0.402100
O281	O28	0.171000	0.437000	0.332600
O291	O29	0.262000	0.262000	0.000000
O301	O30	0.262000	0.262000	0.500000
O311	O31	0.541400	0.964600	0.250000
O321	O32	0.435100	0.426900	0.250000
O331	O33	0.964600	0.541400	0.750000
O341	O34	0.426900	0.435100	0.750000
