data_MECLEL_freeONLY_PM
_symmetry_space_group_name_H-M	'P1'
_cell_length_a	14.260400
_cell_length_b	11.599900
_cell_length_c	18.324900
_cell_angle_alpha	90.000000
_cell_angle_beta	90.324000
_cell_angle_gamma	90.000000
_symmetry_Int_Tables_number 1

loop_
_symmetry_equiv_pos_as_xyz
'x,y,z'

loop_
_atom_site_label
_atom_site_type_symbol
_atom_site_fract_x
_atom_site_fract_y
_atom_site_fract_z
P11	P1	0.216130	0.592460	0.440110
P21	P2	0.091300	0.261250	0.424150
P31	P3	0.121060	0.493800	0.656680
Al11	Al1	0.229850	0.362370	0.531000
Al21	Al2	0.126450	0.721710	0.566620
Al31	Al3	0.084170	0.538960	0.818350
F11	F1	0.218670	0.205100	0.553870
O11	O1	0.254400	0.507100	0.495460
O21	O2	0.148200	0.615700	0.631200
O31	O3	0.180800	0.404400	0.619120
O41	O4	0.148400	0.676600	0.477960
O51	O5	0.143700	0.485200	0.738800
O61	O6	0.299500	0.664100	0.410800
O71	O7	0.112200	0.345700	0.485800
O81	O8	0.986500	0.225400	0.426800
O91	O9	0.352100	0.350600	0.571780
O101	O10	0.108900	0.318800	0.349540
O111	O11	0.169300	0.538100	0.374660
O121	O12	0.016400	0.471600	0.643200
P41	P4	0.716130	0.092460	0.440110
P51	P5	0.591300	0.761250	0.424150
P61	P6	0.621060	0.993800	0.656680
Al41	Al4	0.729850	0.862370	0.531000
Al51	Al5	0.626450	0.221710	0.566620
Al61	Al6	0.584170	0.038960	0.818350
F21	F2	0.718670	0.705100	0.553870
O131	O13	0.754400	0.007100	0.495460
O141	O14	0.648200	0.115700	0.631200
O151	O15	0.680800	0.904400	0.619120
O161	O16	0.648400	0.176600	0.477960
O171	O17	0.643700	0.985200	0.738800
O181	O18	0.799500	0.164100	0.410800
O191	O19	0.612200	0.845700	0.485800
O201	O20	0.486500	0.725400	0.426800
O211	O21	0.852100	0.850600	0.571780
O221	O22	0.608900	0.818800	0.349540
O231	O23	0.669300	0.038100	0.374660
O241	O24	0.516400	0.971600	0.643200
P71	P7	0.783870	0.592460	0.059890
P81	P8	0.908700	0.261250	0.075850
P91	P9	0.878940	0.493800	0.843320
Al71	Al7	0.770150	0.362370	0.969000
Al81	Al8	0.873550	0.721710	0.933380
Al91	Al9	0.915830	0.538960	0.681650
F31	F3	0.781330	0.205100	0.946130
O251	O25	0.745600	0.507100	0.004540
O261	O26	0.851800	0.615700	0.868800
O271	O27	0.819200	0.404400	0.880880
O281	O28	0.851600	0.676600	0.022040
O291	O29	0.856300	0.485200	0.761200
O301	O30	0.700500	0.664100	0.089200
O311	O31	0.887800	0.345700	0.014200
O321	O32	0.013500	0.225400	0.073200
O331	O33	0.647900	0.350600	0.928220
O341	O34	0.891100	0.318800	0.150460
O351	O35	0.830700	0.538100	0.125340
O361	O36	0.983600	0.471600	0.856800
P101	P10	0.283870	0.092460	0.059890
P111	P11	0.408700	0.761250	0.075850
P121	P12	0.378940	0.993800	0.843320
Al101	Al10	0.270150	0.862370	0.969000
Al111	Al11	0.373550	0.221710	0.933380
Al121	Al12	0.415830	0.038960	0.681650
F41	F4	0.281330	0.705100	0.946130
O371	O37	0.245600	0.007100	0.004540
O381	O38	0.351800	0.115700	0.868800
O391	O39	0.319200	0.904400	0.880880
O401	O40	0.351600	0.176600	0.022040
O411	O41	0.356300	0.985200	0.761200
O421	O42	0.200500	0.164100	0.089200
O431	O43	0.387800	0.845700	0.014200
O441	O44	0.513500	0.725400	0.073200
O451	O45	0.147900	0.850600	0.928220
O461	O46	0.391100	0.818800	0.150460
O471	O47	0.330700	0.038100	0.125340
O481	O48	0.483600	0.971600	0.856800
P131	P13	0.783870	0.407540	0.559890
P141	P14	0.908700	0.738750	0.575850
P151	P15	0.878940	0.506200	0.343320
Al131	Al13	0.770150	0.637630	0.469000
Al141	Al14	0.873550	0.278290	0.433380
Al151	Al15	0.915830	0.461040	0.181650
F51	F5	0.781330	0.794900	0.446130
O491	O49	0.745600	0.492900	0.504540
O501	O50	0.851800	0.384300	0.368800
O511	O51	0.819200	0.595600	0.380880
O521	O52	0.851600	0.323400	0.522040
O531	O53	0.856300	0.514800	0.261200
O541	O54	0.700500	0.335900	0.589200
O551	O55	0.887800	0.654300	0.514200
O561	O56	0.013500	0.774600	0.573200
O571	O57	0.647900	0.649400	0.428220
O581	O58	0.891100	0.681200	0.650460
O591	O59	0.830700	0.461900	0.625340
O601	O60	0.983600	0.528400	0.356800
P161	P16	0.283870	0.907540	0.559890
P171	P17	0.408700	0.238750	0.575850
P181	P18	0.378940	0.006200	0.343320
Al161	Al16	0.270150	0.137630	0.469000
Al171	Al17	0.373550	0.778290	0.433380
Al181	Al18	0.415830	0.961040	0.181650
F61	F6	0.281330	0.294900	0.446130
O611	O61	0.245600	0.992900	0.504540
O621	O62	0.351800	0.884300	0.368800
O631	O63	0.319200	0.095600	0.380880
O641	O64	0.351600	0.823400	0.522040
O651	O65	0.356300	0.014800	0.261200
O661	O66	0.200500	0.835900	0.589200
O671	O67	0.387800	0.154300	0.514200
O681	O68	0.513500	0.274600	0.573200
O691	O69	0.147900	0.149400	0.428220
O701	O70	0.391100	0.181200	0.650460
O711	O71	0.330700	0.961900	0.625340
O721	O72	0.483600	0.028400	0.356800
P191	P19	0.216130	0.407540	0.940110
P201	P20	0.091300	0.738750	0.924150
P211	P21	0.121060	0.506200	0.156680
Al191	Al19	0.229850	0.637630	0.031000
Al201	Al20	0.126450	0.278290	0.066620
Al211	Al21	0.084170	0.461040	0.318350
F71	F7	0.218670	0.794900	0.053870
O731	O73	0.254400	0.492900	0.995460
O741	O74	0.148200	0.384300	0.131200
O751	O75	0.180800	0.595600	0.119120
O761	O76	0.148400	0.323400	0.977960
O771	O77	0.143700	0.514800	0.238800
O781	O78	0.299500	0.335900	0.910800
O791	O79	0.112200	0.654300	0.985800
O801	O80	0.986500	0.774600	0.926800
O811	O81	0.352100	0.649400	0.071780
O821	O82	0.108900	0.681200	0.849540
O831	O83	0.169300	0.461900	0.874660
O841	O84	0.016400	0.528400	0.143200
P221	P22	0.716130	0.907540	0.940110
P231	P23	0.591300	0.238750	0.924150
P241	P24	0.621060	0.006200	0.156680
Al221	Al22	0.729850	0.137630	0.031000
Al231	Al23	0.626450	0.778290	0.066620
Al241	Al24	0.584170	0.961040	0.318350
F81	F8	0.718670	0.294900	0.053870
O851	O85	0.754400	0.992900	0.995460
O861	O86	0.648200	0.884300	0.131200
O871	O87	0.680800	0.095600	0.119120
O881	O88	0.648400	0.823400	0.977960
O891	O89	0.643700	0.014800	0.238800
O901	O90	0.799500	0.835900	0.910800
O911	O91	0.612200	0.154300	0.985800
O921	O92	0.486500	0.274600	0.926800
O931	O93	0.852100	0.149400	0.071780
O941	O94	0.608900	0.181200	0.849540
O951	O95	0.669300	0.961900	0.874660
O961	O96	0.516400	0.028400	0.143200
F91	F9	0.000000	0.609300	0.750000
F101	F10	0.500000	0.109300	0.750000
F111	F11	0.000000	0.390700	0.250000
F121	F12	0.500000	0.890700	0.250000
