data_MEFHUC_charged_PM
_symmetry_space_group_name_H-M	'P1'
_cell_length_a	22.323500
_cell_length_b	22.323500
_cell_length_c	22.323500
_cell_angle_alpha	107.742000
_cell_angle_beta	107.742000
_cell_angle_gamma	107.742000
_symmetry_Int_Tables_number 1

loop_
_symmetry_equiv_pos_as_xyz
'x,y,z'

loop_
_atom_site_label
_atom_site_type_symbol
_atom_site_fract_x
_atom_site_fract_y
_atom_site_fract_z
Zn11	Zn1	0.032070	0.967510	0.543620
Zn21	Zn2	0.129240	0.620850	0.029540
Zn31	Zn3	0.543620	0.032070	0.967510
Zn41	Zn4	0.029540	0.129240	0.620850
Zn51	Zn5	0.967510	0.543620	0.032070
Zn61	Zn6	0.620850	0.029540	0.129240
Zn71	Zn7	0.967930	0.032490	0.456380
Zn81	Zn8	0.870760	0.379150	0.970460
Zn91	Zn9	0.456380	0.967930	0.032490
Zn101	Zn10	0.970460	0.870760	0.379150
Zn111	Zn11	0.032490	0.456380	0.967930
Zn121	Zn12	0.379150	0.970460	0.870760
H11	H1	0.971900	0.718800	0.374900
H21	H2	0.751700	0.153100	0.291700
H31	H3	0.040500	0.626100	0.878100
H41	H4	0.978400	0.068200	0.869500
H51	H5	0.006800	0.599600	0.620300
H61	H6	0.008600	0.789200	0.596900
H71	H7	0.965700	0.877400	0.773000
H81	H8	0.979600	0.685900	0.606500
H91	H9	0.990000	0.601300	0.716100
H101	H10	0.947100	0.585900	0.411700
H111	H11	0.888700	0.392900	0.538000
H121	H12	0.958200	0.399300	0.637600
H131	H13	0.880400	0.495800	0.417300
H141	H14	0.189300	0.662100	0.915900
H151	H15	0.995600	0.410000	0.749700
H161	H16	0.759600	0.406100	0.363800
H171	H17	0.672000	0.302700	0.255400
H181	H18	0.304800	0.806700	0.917100
H191	H19	0.224500	0.757900	0.871600
H201	H20	0.277800	0.725400	0.880500
H211	H21	0.862100	0.304700	0.425700
H221	H22	0.007200	0.907700	0.652000
H231	H23	0.326400	0.858200	0.028500
H241	H24	0.313400	0.815400	0.071100
H251	H25	0.256000	0.836100	0.035200
H261	H26	0.374900	0.971900	0.718800
H271	H27	0.291700	0.751700	0.153100
H281	H28	0.878100	0.040500	0.626100
H291	H29	0.869500	0.978400	0.068200
H301	H30	0.620300	0.006800	0.599600
H311	H31	0.596900	0.008600	0.789200
H321	H32	0.773000	0.965700	0.877400
H331	H33	0.606500	0.979600	0.685900
H341	H34	0.716100	0.990000	0.601300
H351	H35	0.411700	0.947100	0.585900
H361	H36	0.538000	0.888700	0.392900
H371	H37	0.637600	0.958200	0.399300
H381	H38	0.417300	0.880400	0.495800
H391	H39	0.915900	0.189300	0.662100
H401	H40	0.749700	0.995600	0.410000
H411	H41	0.363800	0.759600	0.406100
H421	H42	0.255400	0.672000	0.302700
H431	H43	0.917100	0.304800	0.806700
H441	H44	0.871600	0.224500	0.757900
H451	H45	0.880500	0.277800	0.725400
H461	H46	0.425700	0.862100	0.304700
H471	H47	0.652000	0.007200	0.907700
H481	H48	0.028500	0.326400	0.858200
H491	H49	0.071100	0.313400	0.815400
H501	H50	0.035200	0.256000	0.836100
H511	H51	0.718800	0.374900	0.971900
H521	H52	0.153100	0.291700	0.751700
H531	H53	0.626100	0.878100	0.040500
H541	H54	0.068200	0.869500	0.978400
H551	H55	0.599600	0.620300	0.006800
H561	H56	0.789200	0.596900	0.008600
H571	H57	0.877400	0.773000	0.965700
H581	H58	0.685900	0.606500	0.979600
H591	H59	0.601300	0.716100	0.990000
H601	H60	0.585900	0.411700	0.947100
H611	H61	0.392900	0.538000	0.888700
H621	H62	0.399300	0.637600	0.958200
H631	H63	0.495800	0.417300	0.880400
H641	H64	0.662100	0.915900	0.189300
H651	H65	0.410000	0.749700	0.995600
H661	H66	0.406100	0.363800	0.759600
H671	H67	0.302700	0.255400	0.672000
H681	H68	0.806700	0.917100	0.304800
H691	H69	0.757900	0.871600	0.224500
H701	H70	0.725400	0.880500	0.277800
H711	H71	0.304700	0.425700	0.862100
H721	H72	0.907700	0.652000	0.007200
H731	H73	0.858200	0.028500	0.326400
H741	H74	0.815400	0.071100	0.313400
H751	H75	0.836100	0.035200	0.256000
H761	H76	0.028100	0.281200	0.625100
H771	H77	0.248300	0.846900	0.708300
H781	H78	0.959500	0.373900	0.121900
H791	H79	0.021600	0.931800	0.130500
H801	H80	0.993200	0.400400	0.379700
H811	H81	0.991400	0.210800	0.403100
H821	H82	0.034300	0.122600	0.227000
H831	H83	0.020400	0.314100	0.393500
H841	H84	0.010000	0.398700	0.283900
H851	H85	0.052900	0.414100	0.588300
H861	H86	0.111300	0.607100	0.462000
H871	H87	0.041800	0.600700	0.362400
H881	H88	0.119600	0.504200	0.582700
H891	H89	0.810700	0.337900	0.084100
H901	H90	0.004400	0.590000	0.250300
H911	H91	0.240400	0.593900	0.636200
H921	H92	0.328000	0.697300	0.744600
H931	H93	0.695200	0.193300	0.082900
H941	H94	0.775500	0.242100	0.128400
H951	H95	0.722200	0.274600	0.119500
H961	H96	0.137900	0.695300	0.574300
H971	H97	0.992800	0.092300	0.348000
H981	H98	0.673600	0.141800	0.971500
H991	H99	0.686600	0.184600	0.928900
H1001	H100	0.744000	0.163900	0.964800
H1011	H101	0.625100	0.028100	0.281200
H1021	H102	0.708300	0.248300	0.846900
H1031	H103	0.121900	0.959500	0.373900
H1041	H104	0.130500	0.021600	0.931800
H1051	H105	0.379700	0.993200	0.400400
H1061	H106	0.403100	0.991400	0.210800
H1071	H107	0.227000	0.034300	0.122600
H1081	H108	0.393500	0.020400	0.314100
H1091	H109	0.283900	0.010000	0.398700
H1101	H110	0.588300	0.052900	0.414100
H1111	H111	0.462000	0.111300	0.607100
H1121	H112	0.362400	0.041800	0.600700
H1131	H113	0.582700	0.119600	0.504200
H1141	H114	0.084100	0.810700	0.337900
H1151	H115	0.250300	0.004400	0.590000
H1161	H116	0.636200	0.240400	0.593900
H1171	H117	0.744600	0.328000	0.697300
H1181	H118	0.082900	0.695200	0.193300
H1191	H119	0.128400	0.775500	0.242100
H1201	H120	0.119500	0.722200	0.274600
H1211	H121	0.574300	0.137900	0.695300
H1221	H122	0.348000	0.992800	0.092300
H1231	H123	0.971500	0.673600	0.141800
H1241	H124	0.928900	0.686600	0.184600
H1251	H125	0.964800	0.744000	0.163900
H1261	H126	0.281200	0.625100	0.028100
H1271	H127	0.846900	0.708300	0.248300
H1281	H128	0.373900	0.121900	0.959500
H1291	H129	0.931800	0.130500	0.021600
H1301	H130	0.400400	0.379700	0.993200
H1311	H131	0.210800	0.403100	0.991400
H1321	H132	0.122600	0.227000	0.034300
H1331	H133	0.314100	0.393500	0.020400
H1341	H134	0.398700	0.283900	0.010000
H1351	H135	0.414100	0.588300	0.052900
H1361	H136	0.607100	0.462000	0.111300
H1371	H137	0.600700	0.362400	0.041800
H1381	H138	0.504200	0.582700	0.119600
H1391	H139	0.337900	0.084100	0.810700
H1401	H140	0.590000	0.250300	0.004400
H1411	H141	0.593900	0.636200	0.240400
H1421	H142	0.697300	0.744600	0.328000
H1431	H143	0.193300	0.082900	0.695200
H1441	H144	0.242100	0.128400	0.775500
H1451	H145	0.274600	0.119500	0.722200
H1461	H146	0.695300	0.574300	0.137900
H1471	H147	0.092300	0.348000	0.992800
H1481	H148	0.141800	0.971500	0.673600
H1491	H149	0.184600	0.928900	0.686600
H1501	H150	0.163900	0.964800	0.744000
C11	C1	0.981800	0.035700	0.834400
C21	C2	0.004900	0.007100	0.733400
C31	C3	0.992300	0.940700	0.729600
C41	C4	0.971300	0.558100	0.582700
C51	C5	0.988700	0.748800	0.494000
C61	C6	0.022000	0.026600	0.680900
C71	C7	0.999700	0.054200	0.786300
C81	C8	0.994300	0.747800	0.558400
C91	C9	0.012000	0.565500	0.786900
C101	C10	0.946500	0.947300	0.879200
C111	C11	0.968900	0.969500	0.831000
C121	C12	0.974400	0.922200	0.776800
C131	C13	0.032100	0.512600	0.870700
C141	C14	0.903000	0.969800	0.902600
C151	C15	0.997200	0.812500	0.484800
C161	C16	0.978700	0.686000	0.564700
C171	C17	0.011300	0.506900	0.797900
C181	C18	0.972000	0.686500	0.440700
C191	C19	0.874200	0.432500	0.466400
C201	C20	0.990500	0.561900	0.721700
C211	C21	0.969200	0.501200	0.663300
C221	C22	0.962000	0.625200	0.510800
C231	C23	0.947400	0.496700	0.592700
C241	C24	0.942000	0.556800	0.517000
C251	C25	0.958800	0.627000	0.449200
C261	C26	0.901600	0.434500	0.533600
C271	C27	0.971300	0.441300	0.674900
C281	C28	0.897100	0.496200	0.461100
C291	C29	0.212800	0.701400	0.958700
C301	C30	0.663100	0.176600	0.218800
C311	C31	0.993200	0.448100	0.742200
C321	C32	0.771700	0.241900	0.329600
C331	C33	0.718000	0.245200	0.284900
C341	C34	0.763100	0.364100	0.355500
C351	C35	0.708100	0.301900	0.289100
C361	C36	0.267600	0.762300	0.903300
C371	C37	0.824400	0.305100	0.393400
C381	C38	0.815400	0.365500	0.403200
C391	C39	0.291800	0.822200	0.031000
C401	C40	0.834400	0.981800	0.035700
C411	C41	0.733400	0.004900	0.007100
C421	C42	0.729600	0.992300	0.940700
C431	C43	0.582700	0.971300	0.558100
C441	C44	0.494000	0.988700	0.748800
C451	C45	0.680900	0.022000	0.026600
C461	C46	0.786300	0.999700	0.054200
C471	C47	0.558400	0.994300	0.747800
C481	C48	0.786900	0.012000	0.565500
C491	C49	0.879200	0.946500	0.947300
C501	C50	0.831000	0.968900	0.969500
C511	C51	0.776800	0.974400	0.922200
C521	C52	0.870700	0.032100	0.512600
C531	C53	0.902600	0.903000	0.969800
C541	C54	0.484800	0.997200	0.812500
C551	C55	0.564700	0.978700	0.686000
C561	C56	0.797900	0.011300	0.506900
C571	C57	0.440700	0.972000	0.686500
C581	C58	0.466400	0.874200	0.432500
C591	C59	0.721700	0.990500	0.561900
C601	C60	0.663300	0.969200	0.501200
C611	C61	0.510800	0.962000	0.625200
C621	C62	0.592700	0.947400	0.496700
C631	C63	0.517000	0.942000	0.556800
C641	C64	0.449200	0.958800	0.627000
C651	C65	0.533600	0.901600	0.434500
C661	C66	0.674900	0.971300	0.441300
C671	C67	0.461100	0.897100	0.496200
C681	C68	0.958700	0.212800	0.701400
C691	C69	0.218800	0.663100	0.176600
C701	C70	0.742200	0.993200	0.448100
C711	C71	0.329600	0.771700	0.241900
C721	C72	0.284900	0.718000	0.245200
C731	C73	0.355500	0.763100	0.364100
C741	C74	0.289100	0.708100	0.301900
C751	C75	0.903300	0.267600	0.762300
C761	C76	0.393400	0.824400	0.305100
C771	C77	0.403200	0.815400	0.365500
C781	C78	0.031000	0.291800	0.822200
C791	C79	0.035700	0.834400	0.981800
C801	C80	0.007100	0.733400	0.004900
C811	C81	0.940700	0.729600	0.992300
C821	C82	0.558100	0.582700	0.971300
C831	C83	0.748800	0.494000	0.988700
C841	C84	0.026600	0.680900	0.022000
C851	C85	0.054200	0.786300	0.999700
C861	C86	0.747800	0.558400	0.994300
C871	C87	0.565500	0.786900	0.012000
C881	C88	0.947300	0.879200	0.946500
C891	C89	0.969500	0.831000	0.968900
C901	C90	0.922200	0.776800	0.974400
C911	C91	0.512600	0.870700	0.032100
C921	C92	0.969800	0.902600	0.903000
C931	C93	0.812500	0.484800	0.997200
C941	C94	0.686000	0.564700	0.978700
C951	C95	0.506900	0.797900	0.011300
C961	C96	0.686500	0.440700	0.972000
C971	C97	0.432500	0.466400	0.874200
C981	C98	0.561900	0.721700	0.990500
C991	C99	0.501200	0.663300	0.969200
C1001	C100	0.625200	0.510800	0.962000
C1011	C101	0.496700	0.592700	0.947400
C1021	C102	0.556800	0.517000	0.942000
C1031	C103	0.627000	0.449200	0.958800
C1041	C104	0.434500	0.533600	0.901600
C1051	C105	0.441300	0.674900	0.971300
C1061	C106	0.496200	0.461100	0.897100
C1071	C107	0.701400	0.958700	0.212800
C1081	C108	0.176600	0.218800	0.663100
C1091	C109	0.448100	0.742200	0.993200
C1101	C110	0.241900	0.329600	0.771700
C1111	C111	0.245200	0.284900	0.718000
C1121	C112	0.364100	0.355500	0.763100
C1131	C113	0.301900	0.289100	0.708100
C1141	C114	0.762300	0.903300	0.267600
C1151	C115	0.305100	0.393400	0.824400
C1161	C116	0.365500	0.403200	0.815400
C1171	C117	0.822200	0.031000	0.291800
C1181	C118	0.018200	0.964300	0.165600
C1191	C119	0.995100	0.992900	0.266600
C1201	C120	0.007700	0.059300	0.270400
C1211	C121	0.028700	0.441900	0.417300
C1221	C122	0.011300	0.251200	0.506000
C1231	C123	0.978000	0.973400	0.319100
C1241	C124	0.000300	0.945800	0.213700
C1251	C125	0.005700	0.252200	0.441600
C1261	C126	0.988000	0.434500	0.213100
C1271	C127	0.053500	0.052700	0.120800
C1281	C128	0.031100	0.030500	0.169000
C1291	C129	0.025600	0.077800	0.223200
C1301	C130	0.967900	0.487400	0.129300
C1311	C131	0.097000	0.030200	0.097400
C1321	C132	0.002800	0.187500	0.515200
C1331	C133	0.021300	0.314000	0.435300
C1341	C134	0.988700	0.493100	0.202100
C1351	C135	0.028000	0.313500	0.559300
C1361	C136	0.125800	0.567500	0.533600
C1371	C137	0.009500	0.438100	0.278300
C1381	C138	0.030800	0.498800	0.336700
C1391	C139	0.038000	0.374800	0.489200
C1401	C140	0.052600	0.503300	0.407300
C1411	C141	0.058000	0.443200	0.483000
C1421	C142	0.041200	0.373000	0.550800
C1431	C143	0.098400	0.565500	0.466400
C1441	C144	0.028700	0.558700	0.325100
C1451	C145	0.102900	0.503800	0.538900
C1461	C146	0.787200	0.298600	0.041300
C1471	C147	0.336900	0.823400	0.781200
C1481	C148	0.006800	0.551900	0.257800
C1491	C149	0.228300	0.758100	0.670400
C1501	C150	0.282000	0.754800	0.715100
C1511	C151	0.236900	0.635900	0.644500
C1521	C152	0.291900	0.698100	0.710900
C1531	C153	0.732400	0.237700	0.096700
C1541	C154	0.175600	0.694900	0.606600
C1551	C155	0.184600	0.634500	0.596800
C1561	C156	0.708200	0.177800	0.969000
C1571	C157	0.165600	0.018200	0.964300
C1581	C158	0.266600	0.995100	0.992900
C1591	C159	0.270400	0.007700	0.059300
C1601	C160	0.417300	0.028700	0.441900
C1611	C161	0.506000	0.011300	0.251200
C1621	C162	0.319100	0.978000	0.973400
C1631	C163	0.213700	0.000300	0.945800
C1641	C164	0.441600	0.005700	0.252200
C1651	C165	0.213100	0.988000	0.434500
C1661	C166	0.120800	0.053500	0.052700
C1671	C167	0.169000	0.031100	0.030500
C1681	C168	0.223200	0.025600	0.077800
C1691	C169	0.129300	0.967900	0.487400
C1701	C170	0.097400	0.097000	0.030200
C1711	C171	0.515200	0.002800	0.187500
C1721	C172	0.435300	0.021300	0.314000
C1731	C173	0.202100	0.988700	0.493100
C1741	C174	0.559300	0.028000	0.313500
C1751	C175	0.533600	0.125800	0.567500
C1761	C176	0.278300	0.009500	0.438100
C1771	C177	0.336700	0.030800	0.498800
C1781	C178	0.489200	0.038000	0.374800
C1791	C179	0.407300	0.052600	0.503300
C1801	C180	0.483000	0.058000	0.443200
C1811	C181	0.550800	0.041200	0.373000
C1821	C182	0.466400	0.098400	0.565500
C1831	C183	0.325100	0.028700	0.558700
C1841	C184	0.538900	0.102900	0.503800
C1851	C185	0.041300	0.787200	0.298600
C1861	C186	0.781200	0.336900	0.823400
C1871	C187	0.257800	0.006800	0.551900
C1881	C188	0.670400	0.228300	0.758100
C1891	C189	0.715100	0.282000	0.754800
C1901	C190	0.644500	0.236900	0.635900
C1911	C191	0.710900	0.291900	0.698100
C1921	C192	0.096700	0.732400	0.237700
C1931	C193	0.606600	0.175600	0.694900
C1941	C194	0.596800	0.184600	0.634500
C1951	C195	0.969000	0.708200	0.177800
C1961	C196	0.964300	0.165600	0.018200
C1971	C197	0.992900	0.266600	0.995100
C1981	C198	0.059300	0.270400	0.007700
C1991	C199	0.441900	0.417300	0.028700
C2001	C200	0.251200	0.506000	0.011300
C2011	C201	0.973400	0.319100	0.978000
C2021	C202	0.945800	0.213700	0.000300
C2031	C203	0.252200	0.441600	0.005700
C2041	C204	0.434500	0.213100	0.988000
C2051	C205	0.052700	0.120800	0.053500
C2061	C206	0.030500	0.169000	0.031100
C2071	C207	0.077800	0.223200	0.025600
C2081	C208	0.487400	0.129300	0.967900
C2091	C209	0.030200	0.097400	0.097000
C2101	C210	0.187500	0.515200	0.002800
C2111	C211	0.314000	0.435300	0.021300
C2121	C212	0.493100	0.202100	0.988700
C2131	C213	0.313500	0.559300	0.028000
C2141	C214	0.567500	0.533600	0.125800
C2151	C215	0.438100	0.278300	0.009500
C2161	C216	0.498800	0.336700	0.030800
C2171	C217	0.374800	0.489200	0.038000
C2181	C218	0.503300	0.407300	0.052600
C2191	C219	0.443200	0.483000	0.058000
C2201	C220	0.373000	0.550800	0.041200
C2211	C221	0.565500	0.466400	0.098400
C2221	C222	0.558700	0.325100	0.028700
C2231	C223	0.503800	0.538900	0.102900
C2241	C224	0.298600	0.041300	0.787200
C2251	C225	0.823400	0.781200	0.336900
C2261	C226	0.551900	0.257800	0.006800
C2271	C227	0.758100	0.670400	0.228300
C2281	C228	0.754800	0.715100	0.282000
C2291	C229	0.635900	0.644500	0.236900
C2301	C230	0.698100	0.710900	0.291900
C2311	C231	0.237700	0.096700	0.732400
C2321	C232	0.694900	0.606600	0.175600
C2331	C233	0.634500	0.596800	0.184600
C2341	C234	0.177800	0.969000	0.708200
N11	N1	0.260900	0.757600	0.968100
N21	N2	0.968100	0.260900	0.757600
N31	N3	0.757600	0.968100	0.260900
N41	N4	0.739100	0.242400	0.031900
N51	N5	0.031900	0.739100	0.242400
N61	N6	0.242400	0.031900	0.739100
O11	O1	0.052800	0.569900	0.920200
O21	O2	0.020470	0.980610	0.630320
O31	O3	0.005300	0.865000	0.534600
O41	O4	0.951430	0.934650	0.450720
O51	O5	0.997600	0.812300	0.427900
O61	O6	0.039500	0.089450	0.691150
O71	O7	0.024400	0.456500	0.876300
O81	O8	0.678300	0.129800	0.205700
O91	O9	0.197700	0.700500	0.009800
O101	O10	0.608200	0.175500	0.178500
O111	O11	0.964100	0.680400	0.375200
O121	O12	0.782900	0.187900	0.327100
O131	O13	0.027200	0.628300	0.840600
O141	O14	0.995200	0.890600	0.676600
O151	O15	0.920200	0.052800	0.569900
O161	O16	0.630320	0.020470	0.980610
O171	O17	0.534600	0.005300	0.865000
O181	O18	0.450720	0.951430	0.934650
O191	O19	0.427900	0.997600	0.812300
O201	O20	0.691150	0.039500	0.089450
O211	O21	0.876300	0.024400	0.456500
O221	O22	0.205700	0.678300	0.129800
O231	O23	0.009800	0.197700	0.700500
O241	O24	0.178500	0.608200	0.175500
O251	O25	0.375200	0.964100	0.680400
O261	O26	0.327100	0.782900	0.187900
O271	O27	0.840600	0.027200	0.628300
O281	O28	0.676600	0.995200	0.890600
O291	O29	0.569900	0.920200	0.052800
O301	O30	0.980610	0.630320	0.020470
O311	O31	0.865000	0.534600	0.005300
O321	O32	0.934650	0.450720	0.951430
O331	O33	0.812300	0.427900	0.997600
O341	O34	0.089450	0.691150	0.039500
O351	O35	0.456500	0.876300	0.024400
O361	O36	0.129800	0.205700	0.678300
O371	O37	0.700500	0.009800	0.197700
O381	O38	0.175500	0.178500	0.608200
O391	O39	0.680400	0.375200	0.964100
O401	O40	0.187900	0.327100	0.782900
O411	O41	0.628300	0.840600	0.027200
O421	O42	0.890600	0.676600	0.995200
O431	O43	0.947200	0.430100	0.079800
O441	O44	0.979530	0.019390	0.369680
O451	O45	0.994700	0.135000	0.465400
O461	O46	0.048570	0.065350	0.549280
O471	O47	0.002400	0.187700	0.572100
O481	O48	0.960500	0.910550	0.308850
O491	O49	0.975600	0.543500	0.123700
O501	O50	0.321700	0.870200	0.794300
O511	O51	0.802300	0.299500	0.990200
O521	O52	0.391800	0.824500	0.821500
O531	O53	0.035900	0.319600	0.624800
O541	O54	0.217100	0.812100	0.672900
O551	O55	0.972800	0.371700	0.159400
O561	O56	0.004800	0.109400	0.323400
O571	O57	0.079800	0.947200	0.430100
O581	O58	0.369680	0.979530	0.019390
O591	O59	0.465400	0.994700	0.135000
O601	O60	0.549280	0.048570	0.065350
O611	O61	0.572100	0.002400	0.187700
O621	O62	0.308850	0.960500	0.910550
O631	O63	0.123700	0.975600	0.543500
O641	O64	0.794300	0.321700	0.870200
O651	O65	0.990200	0.802300	0.299500
O661	O66	0.821500	0.391800	0.824500
O671	O67	0.624800	0.035900	0.319600
O681	O68	0.672900	0.217100	0.812100
O691	O69	0.159400	0.972800	0.371700
O701	O70	0.323400	0.004800	0.109400
O711	O71	0.430100	0.079800	0.947200
O721	O72	0.019390	0.369680	0.979530
O731	O73	0.135000	0.465400	0.994700
O741	O74	0.065350	0.549280	0.048570
O751	O75	0.187700	0.572100	0.002400
O761	O76	0.910550	0.308850	0.960500
O771	O77	0.543500	0.123700	0.975600
O781	O78	0.870200	0.794300	0.321700
O791	O79	0.299500	0.990200	0.802300
O801	O80	0.824500	0.821500	0.391800
O811	O81	0.319600	0.624800	0.035900
O821	O82	0.812100	0.672900	0.217100
O831	O83	0.371700	0.159400	0.972800
O841	O84	0.109400	0.323400	0.004800
