data_MEGBAD_freeONLY_PM
_symmetry_space_group_name_H-M	'P1'
_cell_length_a	18.777200
_cell_length_b	18.777200
_cell_length_c	19.744000
_cell_angle_alpha	112.881000
_cell_angle_beta	112.881000
_cell_angle_gamma	100.505000
_symmetry_Int_Tables_number 1

loop_
_symmetry_equiv_pos_as_xyz
'x,y,z'

loop_
_atom_site_label
_atom_site_type_symbol
_atom_site_fract_x
_atom_site_fract_y
_atom_site_fract_z
Mn11	Mn1	0.315270	0.315270	0.302460
Mn21	Mn2	0.987190	0.987190	0.302460
Mn31	Mn3	0.684730	0.684730	0.697540
Mn41	Mn4	0.012810	0.012810	0.697540
Mn51	Mn5	0.500000	0.500000	0.500000
Mn61	Mn6	0.000000	0.000000	0.500000
Mn71	Mn7	0.030290	0.585890	0.000000
Mn81	Mn8	0.969710	0.414110	0.000000
Mn91	Mn9	0.414110	0.969710	0.000000
Mn101	Mn10	0.585890	0.030290	0.000000
Ni11	Ni1	0.500000	0.000000	0.500000
Ni21	Ni2	0.000000	0.500000	0.500000
H11	H1	0.294100	0.738100	0.441400
H21	H2	0.446700	0.719100	0.265400
H31	H3	0.426400	0.663400	0.409800
H41	H4	0.225900	0.464700	0.204800
H51	H5	0.260200	0.690400	0.231800
H61	H6	0.147300	0.703300	0.441400
H71	H7	0.818700	0.546300	0.265400
H81	H8	0.983400	0.746400	0.409800
H91	H9	0.978900	0.740100	0.204800
H101	H10	0.971600	0.541400	0.231800
H111	H11	0.261900	0.705900	0.558600
H121	H12	0.280900	0.553300	0.734600
H131	H13	0.336600	0.573600	0.590200
H141	H14	0.535300	0.774100	0.795200
H151	H15	0.309600	0.739800	0.768200
H161	H16	0.296700	0.852700	0.558600
H171	H17	0.453700	0.181300	0.734600
H181	H18	0.253600	0.016600	0.590200
H191	H19	0.259900	0.021100	0.795200
H201	H20	0.458600	0.028400	0.768200
H211	H21	0.705900	0.261900	0.558600
H221	H22	0.553300	0.280900	0.734600
H231	H23	0.573600	0.336600	0.590200
H241	H24	0.774100	0.535300	0.795200
H251	H25	0.739800	0.309600	0.768200
H261	H26	0.852700	0.296700	0.558600
H271	H27	0.181300	0.453700	0.734600
H281	H28	0.016600	0.253600	0.590200
H291	H29	0.021100	0.259900	0.795200
H301	H30	0.028400	0.458600	0.768200
H311	H31	0.738100	0.294100	0.441400
H321	H32	0.719100	0.446700	0.265400
H331	H33	0.663400	0.426400	0.409800
H341	H34	0.464700	0.225900	0.204800
H351	H35	0.690400	0.260200	0.231800
H361	H36	0.703300	0.147300	0.441400
H371	H37	0.546300	0.818700	0.265400
H381	H38	0.746400	0.983400	0.409800
H391	H39	0.740100	0.978900	0.204800
H401	H40	0.541400	0.971600	0.231800
C11	C1	0.325900	0.795100	0.468000
C21	C2	0.382600	0.832400	0.448400
C31	C3	0.397530	0.786330	0.384060
C41	C4	0.451400	0.823600	0.367200
C51	C5	0.469700	0.777100	0.301000
C61	C6	0.349000	0.692800	0.332000
C71	C7	0.376100	0.640900	0.359000
C81	C8	0.329000	0.554000	0.311200
C91	C9	0.257400	0.522400	0.236600
C101	C10	0.229200	0.572200	0.206200
C111	C11	0.276740	0.656340	0.253280
C121	C12	0.146300	0.535300	0.123800
C131	C13	0.361200	0.499200	0.342800
C141	C14	0.142100	0.672900	0.468000
C151	C15	0.065800	0.616000	0.448400
C161	C16	0.986530	0.597730	0.384060
C171	C17	0.915800	0.543600	0.367200
C181	C18	0.831300	0.523900	0.301000
C191	C19	0.983000	0.639200	0.332000
C201	C20	0.982900	0.718100	0.359000
C211	C21	0.982200	0.757200	0.311200
C221	C22	0.979200	0.714200	0.236600
C231	C23	0.977000	0.634000	0.206200
C241	C24	0.976540	0.596940	0.253280
C251	C25	0.977500	0.588500	0.123800
C261	C26	0.981600	0.843600	0.342800
C271	C27	0.204900	0.674100	0.532000
C281	C28	0.167600	0.617400	0.551600
C291	C29	0.213670	0.602470	0.615940
C301	C30	0.176400	0.548600	0.632800
C311	C31	0.222900	0.530300	0.699000
C321	C32	0.307200	0.651000	0.668000
C331	C33	0.359100	0.623900	0.641000
C341	C34	0.446000	0.671000	0.688800
C351	C35	0.477600	0.742600	0.763400
C361	C36	0.427800	0.770800	0.793800
C371	C37	0.343660	0.723260	0.746720
C381	C38	0.464700	0.853700	0.876200
C391	C39	0.500800	0.638800	0.657200
C401	C40	0.327100	0.857900	0.532000
C411	C41	0.384000	0.934200	0.551600
C421	C42	0.402270	0.013470	0.615940
C431	C43	0.456400	0.084200	0.632800
C441	C44	0.476100	0.168700	0.699000
C451	C45	0.360800	0.017000	0.668000
C461	C46	0.281900	0.017100	0.641000
C471	C47	0.242800	0.017800	0.688800
C481	C48	0.285800	0.020800	0.763400
C491	C49	0.366000	0.023000	0.793800
C501	C50	0.403060	0.023460	0.746720
C511	C51	0.411500	0.022500	0.876200
C521	C52	0.156400	0.018400	0.657200
C531	C53	0.674100	0.204900	0.532000
C541	C54	0.617400	0.167600	0.551600
C551	C55	0.602470	0.213670	0.615940
C561	C56	0.548600	0.176400	0.632800
C571	C57	0.530300	0.222900	0.699000
C581	C58	0.651000	0.307200	0.668000
C591	C59	0.623900	0.359100	0.641000
C601	C60	0.671000	0.446000	0.688800
C611	C61	0.742600	0.477600	0.763400
C621	C62	0.770800	0.427800	0.793800
C631	C63	0.723260	0.343660	0.746720
C641	C64	0.853700	0.464700	0.876200
C651	C65	0.638800	0.500800	0.657200
C661	C66	0.857900	0.327100	0.532000
C671	C67	0.934200	0.384000	0.551600
C681	C68	0.013470	0.402270	0.615940
C691	C69	0.084200	0.456400	0.632800
C701	C70	0.168700	0.476100	0.699000
C711	C71	0.017000	0.360800	0.668000
C721	C72	0.017100	0.281900	0.641000
C731	C73	0.017800	0.242800	0.688800
C741	C74	0.020800	0.285800	0.763400
C751	C75	0.023000	0.366000	0.793800
C761	C76	0.023460	0.403060	0.746720
C771	C77	0.022500	0.411500	0.876200
C781	C78	0.018400	0.156400	0.657200
C791	C79	0.795100	0.325900	0.468000
C801	C80	0.832400	0.382600	0.448400
C811	C81	0.786330	0.397530	0.384060
C821	C82	0.823600	0.451400	0.367200
C831	C83	0.777100	0.469700	0.301000
C841	C84	0.692800	0.349000	0.332000
C851	C85	0.640900	0.376100	0.359000
C861	C86	0.554000	0.329000	0.311200
C871	C87	0.522400	0.257400	0.236600
C881	C88	0.572200	0.229200	0.206200
C891	C89	0.656340	0.276740	0.253280
C901	C90	0.535300	0.146300	0.123800
C911	C91	0.499200	0.361200	0.342800
C921	C92	0.672900	0.142100	0.468000
C931	C93	0.616000	0.065800	0.448400
C941	C94	0.597730	0.986530	0.384060
C951	C95	0.543600	0.915800	0.367200
C961	C96	0.523900	0.831300	0.301000
C971	C97	0.639200	0.983000	0.332000
C981	C98	0.718100	0.982900	0.359000
C991	C99	0.757200	0.982200	0.311200
C1001	C100	0.714200	0.979200	0.236600
C1011	C101	0.634000	0.977000	0.206200
C1021	C102	0.596940	0.976540	0.253280
C1031	C103	0.588500	0.977500	0.123800
C1041	C104	0.843600	0.981600	0.342800
N11	N1	0.419000	0.919000	0.500000
N21	N2	0.081000	0.581000	0.500000
N31	N3	0.581000	0.081000	0.500000
N41	N4	0.919000	0.419000	0.500000
N51	N5	0.498400	0.906200	0.404600
N61	N6	0.906200	0.498400	0.404600
N71	N7	0.093800	0.501600	0.595400
N81	N8	0.501600	0.093800	0.595400
Cl11	Cl1	0.088570	0.706770	0.000000
Cl21	Cl2	0.911430	0.293230	0.000000
Cl31	Cl3	0.293230	0.911430	0.000000
Cl41	Cl4	0.706770	0.088570	0.000000
O11	O1	0.133030	0.583230	0.095060
O21	O2	0.096540	0.463340	0.093280
O31	O3	0.317300	0.423900	0.296600
O41	O4	0.427140	0.533420	0.412360
O51	O5	0.197900	0.303900	0.289000
O61	O6	0.962030	0.511830	0.095060
O71	O7	0.996740	0.629940	0.093280
O81	O8	0.979300	0.872700	0.296600
O91	O9	0.985220	0.878940	0.412360
O101	O10	0.091100	0.985100	0.289000
O111	O11	0.416770	0.866970	0.904940
O121	O12	0.536660	0.903460	0.906720
O131	O13	0.576100	0.682700	0.703400
O141	O14	0.466580	0.572860	0.587640
O151	O15	0.696100	0.802100	0.711000
O161	O16	0.488170	0.037970	0.904940
O171	O17	0.370060	0.003260	0.906720
O181	O18	0.127300	0.020700	0.703400
O191	O19	0.121060	0.014780	0.587640
O201	O20	0.014900	0.908900	0.711000
O211	O21	0.866970	0.416770	0.904940
O221	O22	0.903460	0.536660	0.906720
O231	O23	0.682700	0.576100	0.703400
O241	O24	0.572860	0.466580	0.587640
O251	O25	0.802100	0.696100	0.711000
O261	O26	0.037970	0.488170	0.904940
O271	O27	0.003260	0.370060	0.906720
O281	O28	0.020700	0.127300	0.703400
O291	O29	0.014780	0.121060	0.587640
O301	O30	0.908900	0.014900	0.711000
O311	O31	0.583230	0.133030	0.095060
O321	O32	0.463340	0.096540	0.093280
O331	O33	0.423900	0.317300	0.296600
O341	O34	0.533420	0.427140	0.412360
O351	O35	0.303900	0.197900	0.289000
O361	O36	0.511830	0.962030	0.095060
O371	O37	0.629940	0.996740	0.093280
O381	O38	0.872700	0.979300	0.296600
O391	O39	0.878940	0.985220	0.412360
O401	O40	0.985100	0.091100	0.289000
O411	O41	0.382700	0.382700	0.447400
O421	O42	0.064700	0.064700	0.447400
O431	O43	0.617300	0.617300	0.552600
O441	O44	0.935300	0.935300	0.552600
