data_MEJMOE_freeONLY_PM
_symmetry_space_group_name_H-M	'P1'
_cell_length_a	25.507000
_cell_length_b	25.507000
_cell_length_c	25.507000
_cell_angle_alpha	90.000000
_cell_angle_beta	90.000000
_cell_angle_gamma	90.000000
_symmetry_Int_Tables_number 1

loop_
_symmetry_equiv_pos_as_xyz
'x,y,z'

loop_
_atom_site_label
_atom_site_type_symbol
_atom_site_fract_x
_atom_site_fract_y
_atom_site_fract_z
Zn11	Zn1	0.186790	0.828440	0.232660
O11	O1	0.201450	0.818280	0.157530
O21	O2	0.180560	0.766010	0.888880
O31	O3	0.247290	0.709160	0.898160
O41	O4	0.260840	0.753350	0.161040
C11	C1	0.229180	0.782550	0.136790
C21	C2	0.224610	0.773260	0.079470
C31	C3	0.194820	0.806290	0.047480
H11	H1	0.177600	0.835900	0.062100
C41	C4	0.190420	0.795590	0.994230
H21	H2	0.170300	0.817900	0.972300
C51	C5	0.248400	0.729200	0.058400
H31	H3	0.267600	0.706200	0.080500
C61	C6	0.244300	0.718600	0.005390
H41	H4	0.260900	0.688600	0.991000
C71	C7	0.214200	0.741710	0.915430
C81	C8	0.215740	0.751970	0.973180
Zn21	Zn2	0.313210	0.171560	0.732660
O51	O5	0.298550	0.181720	0.657530
O61	O6	0.319440	0.233990	0.388880
O71	O7	0.252710	0.290840	0.398160
O81	O8	0.239160	0.246650	0.661040
C91	C9	0.270820	0.217450	0.636790
C101	C10	0.275390	0.226740	0.579470
C111	C11	0.305180	0.193710	0.547480
H51	H5	0.322400	0.164100	0.562100
C121	C12	0.309580	0.204410	0.494230
H61	H6	0.329700	0.182100	0.472300
C131	C13	0.251600	0.270800	0.558400
H71	H7	0.232400	0.293800	0.580500
C141	C14	0.255700	0.281400	0.505390
H81	H8	0.239100	0.311400	0.491000
C151	C15	0.285800	0.258290	0.415430
C161	C16	0.284260	0.248030	0.473180
Zn31	Zn3	0.813210	0.328440	0.267340
O91	O9	0.798550	0.318280	0.342470
O101	O10	0.819440	0.266010	0.611120
O111	O11	0.752710	0.209160	0.601840
O121	O12	0.739160	0.253350	0.338960
C171	C17	0.770820	0.282550	0.363210
C181	C18	0.775390	0.273260	0.420530
C191	C19	0.805180	0.306290	0.452520
H91	H9	0.822400	0.335900	0.437900
C201	C20	0.809580	0.295590	0.505770
H101	H10	0.829700	0.317900	0.527700
C211	C21	0.751600	0.229200	0.441600
H111	H11	0.732400	0.206200	0.419500
C221	C22	0.755700	0.218600	0.494610
H121	H12	0.739100	0.188600	0.509000
C231	C23	0.785800	0.241710	0.584570
C241	C24	0.784260	0.251970	0.526820
Zn41	Zn4	0.686790	0.671560	0.767340
O131	O13	0.701450	0.681720	0.842470
O141	O14	0.680560	0.733990	0.111120
O151	O15	0.747290	0.790840	0.101840
O161	O16	0.760840	0.746650	0.838960
C251	C25	0.729180	0.717450	0.863210
C261	C26	0.724610	0.726740	0.920530
C271	C27	0.694820	0.693710	0.952520
H131	H13	0.677600	0.664100	0.937900
C281	C28	0.690420	0.704410	0.005770
H141	H14	0.670300	0.682100	0.027700
C291	C29	0.748400	0.770800	0.941600
H151	H15	0.767600	0.793800	0.919500
C301	C30	0.744300	0.781400	0.994610
H161	H16	0.760900	0.811400	0.009000
C311	C31	0.714200	0.758290	0.084570
C321	C32	0.715740	0.748030	0.026820
Zn51	Zn5	0.232660	0.186790	0.828440
O171	O17	0.157530	0.201450	0.818280
O181	O18	0.888880	0.180560	0.766010
O191	O19	0.898160	0.247290	0.709160
O201	O20	0.161040	0.260840	0.753350
C331	C33	0.136790	0.229180	0.782550
C341	C34	0.079470	0.224610	0.773260
C351	C35	0.047480	0.194820	0.806290
H171	H17	0.062100	0.177600	0.835900
C361	C36	0.994230	0.190420	0.795590
H181	H18	0.972300	0.170300	0.817900
C371	C37	0.058400	0.248400	0.729200
H191	H19	0.080500	0.267600	0.706200
C381	C38	0.005390	0.244300	0.718600
H201	H20	0.991000	0.260900	0.688600
C391	C39	0.915430	0.214200	0.741710
C401	C40	0.973180	0.215740	0.751970
Zn61	Zn6	0.732660	0.313210	0.171560
O211	O21	0.657530	0.298550	0.181720
O221	O22	0.388880	0.319440	0.233990
O231	O23	0.398160	0.252710	0.290840
O241	O24	0.661040	0.239160	0.246650
C411	C41	0.636790	0.270820	0.217450
C421	C42	0.579470	0.275390	0.226740
C431	C43	0.547480	0.305180	0.193710
H211	H21	0.562100	0.322400	0.164100
C441	C44	0.494230	0.309580	0.204410
H221	H22	0.472300	0.329700	0.182100
C451	C45	0.558400	0.251600	0.270800
H231	H23	0.580500	0.232400	0.293800
C461	C46	0.505390	0.255700	0.281400
H241	H24	0.491000	0.239100	0.311400
C471	C47	0.415430	0.285800	0.258290
C481	C48	0.473180	0.284260	0.248030
Zn71	Zn7	0.267340	0.813210	0.328440
O251	O25	0.342470	0.798550	0.318280
O261	O26	0.611120	0.819440	0.266010
O271	O27	0.601840	0.752710	0.209160
O281	O28	0.338960	0.739160	0.253350
C491	C49	0.363210	0.770820	0.282550
C501	C50	0.420530	0.775390	0.273260
C511	C51	0.452520	0.805180	0.306290
H251	H25	0.437900	0.822400	0.335900
C521	C52	0.505770	0.809580	0.295590
H261	H26	0.527700	0.829700	0.317900
C531	C53	0.441600	0.751600	0.229200
H271	H27	0.419500	0.732400	0.206200
C541	C54	0.494610	0.755700	0.218600
H281	H28	0.509000	0.739100	0.188600
C551	C55	0.584570	0.785800	0.241710
C561	C56	0.526820	0.784260	0.251970
Zn81	Zn8	0.767340	0.686790	0.671560
O291	O29	0.842470	0.701450	0.681720
O301	O30	0.111120	0.680560	0.733990
O311	O31	0.101840	0.747290	0.790840
O321	O32	0.838960	0.760840	0.746650
C571	C57	0.863210	0.729180	0.717450
C581	C58	0.920530	0.724610	0.726740
C591	C59	0.952520	0.694820	0.693710
H291	H29	0.937900	0.677600	0.664100
C601	C60	0.005770	0.690420	0.704410
H301	H30	0.027700	0.670300	0.682100
C611	C61	0.941600	0.748400	0.770800
H311	H31	0.919500	0.767600	0.793800
C621	C62	0.994610	0.744300	0.781400
H321	H32	0.009000	0.760900	0.811400
C631	C63	0.084570	0.714200	0.758290
C641	C64	0.026820	0.715740	0.748030
Zn91	Zn9	0.828440	0.232660	0.186790
O331	O33	0.818280	0.157530	0.201450
O341	O34	0.766010	0.888880	0.180560
O351	O35	0.709160	0.898160	0.247290
O361	O36	0.753350	0.161040	0.260840
C651	C65	0.782550	0.136790	0.229180
C661	C66	0.773260	0.079470	0.224610
C671	C67	0.806290	0.047480	0.194820
H331	H33	0.835900	0.062100	0.177600
C681	C68	0.795590	0.994230	0.190420
H341	H34	0.817900	0.972300	0.170300
C691	C69	0.729200	0.058400	0.248400
H351	H35	0.706200	0.080500	0.267600
C701	C70	0.718600	0.005390	0.244300
H361	H36	0.688600	0.991000	0.260900
C711	C71	0.741710	0.915430	0.214200
C721	C72	0.751970	0.973180	0.215740
Zn101	Zn10	0.171560	0.732660	0.313210
O371	O37	0.181720	0.657530	0.298550
O381	O38	0.233990	0.388880	0.319440
O391	O39	0.290840	0.398160	0.252710
O401	O40	0.246650	0.661040	0.239160
C731	C73	0.217450	0.636790	0.270820
C741	C74	0.226740	0.579470	0.275390
C751	C75	0.193710	0.547480	0.305180
H371	H37	0.164100	0.562100	0.322400
C761	C76	0.204410	0.494230	0.309580
H381	H38	0.182100	0.472300	0.329700
C771	C77	0.270800	0.558400	0.251600
H391	H39	0.293800	0.580500	0.232400
C781	C78	0.281400	0.505390	0.255700
H401	H40	0.311400	0.491000	0.239100
C791	C79	0.258290	0.415430	0.285800
C801	C80	0.248030	0.473180	0.284260
Zn111	Zn11	0.328440	0.267340	0.813210
O411	O41	0.318280	0.342470	0.798550
O421	O42	0.266010	0.611120	0.819440
O431	O43	0.209160	0.601840	0.752710
O441	O44	0.253350	0.338960	0.739160
C811	C81	0.282550	0.363210	0.770820
C821	C82	0.273260	0.420530	0.775390
C831	C83	0.306290	0.452520	0.805180
H411	H41	0.335900	0.437900	0.822400
C841	C84	0.295590	0.505770	0.809580
H421	H42	0.317900	0.527700	0.829700
C851	C85	0.229200	0.441600	0.751600
H431	H43	0.206200	0.419500	0.732400
C861	C86	0.218600	0.494610	0.755700
H441	H44	0.188600	0.509000	0.739100
C871	C87	0.241710	0.584570	0.785800
C881	C88	0.251970	0.526820	0.784260
Zn121	Zn12	0.671560	0.767340	0.686790
O451	O45	0.681720	0.842470	0.701450
O461	O46	0.733990	0.111120	0.680560
O471	O47	0.790840	0.101840	0.747290
O481	O48	0.746650	0.838960	0.760840
C891	C89	0.717450	0.863210	0.729180
C901	C90	0.726740	0.920530	0.724610
C911	C91	0.693710	0.952520	0.694820
H451	H45	0.664100	0.937900	0.677600
C921	C92	0.704410	0.005770	0.690420
H461	H46	0.682100	0.027700	0.670300
C931	C93	0.770800	0.941600	0.748400
H471	H47	0.793800	0.919500	0.767600
C941	C94	0.781400	0.994610	0.744300
H481	H48	0.811400	0.009000	0.760900
C951	C95	0.758290	0.084570	0.714200
C961	C96	0.748030	0.026820	0.715740
Zn131	Zn13	0.813210	0.171560	0.767340
O491	O49	0.798550	0.181720	0.842470
O501	O50	0.819440	0.233990	0.111120
O511	O51	0.752710	0.290840	0.101840
O521	O52	0.739160	0.246650	0.838960
C971	C97	0.770820	0.217450	0.863210
C981	C98	0.775390	0.226740	0.920530
C991	C99	0.805180	0.193710	0.952520
H491	H49	0.822400	0.164100	0.937900
C1001	C100	0.809580	0.204410	0.005770
H501	H50	0.829700	0.182100	0.027700
C1011	C101	0.751600	0.270800	0.941600
H511	H51	0.732400	0.293800	0.919500
C1021	C102	0.755700	0.281400	0.994610
H521	H52	0.739100	0.311400	0.009000
C1031	C103	0.785800	0.258290	0.084570
C1041	C104	0.784260	0.248030	0.026820
Zn141	Zn14	0.686790	0.828440	0.267340
O531	O53	0.701450	0.818280	0.342470
O541	O54	0.680560	0.766010	0.611120
O551	O55	0.747290	0.709160	0.601840
O561	O56	0.760840	0.753350	0.338960
C1051	C105	0.729180	0.782550	0.363210
C1061	C106	0.724610	0.773260	0.420530
C1071	C107	0.694820	0.806290	0.452520
H531	H53	0.677600	0.835900	0.437900
C1081	C108	0.690420	0.795590	0.505770
H541	H54	0.670300	0.817900	0.527700
C1091	C109	0.748400	0.729200	0.441600
H551	H55	0.767600	0.706200	0.419500
C1101	C110	0.744300	0.718600	0.494610
H561	H56	0.760900	0.688600	0.509000
C1111	C111	0.714200	0.741710	0.584570
C1121	C112	0.715740	0.751970	0.526820
Zn151	Zn15	0.186790	0.671560	0.732660
O571	O57	0.201450	0.681720	0.657530
O581	O58	0.180560	0.733990	0.388880
O591	O59	0.247290	0.790840	0.398160
O601	O60	0.260840	0.746650	0.661040
C1131	C113	0.229180	0.717450	0.636790
C1141	C114	0.224610	0.726740	0.579470
C1151	C115	0.194820	0.693710	0.547480
H571	H57	0.177600	0.664100	0.562100
C1161	C116	0.190420	0.704410	0.494230
H581	H58	0.170300	0.682100	0.472300
C1171	C117	0.248400	0.770800	0.558400
H591	H59	0.267600	0.793800	0.580500
C1181	C118	0.244300	0.781400	0.505390
H601	H60	0.260900	0.811400	0.491000
C1191	C119	0.214200	0.758290	0.415430
C1201	C120	0.215740	0.748030	0.473180
Zn161	Zn16	0.313210	0.328440	0.232660
O611	O61	0.298550	0.318280	0.157530
O621	O62	0.319440	0.266010	0.888880
O631	O63	0.252710	0.209160	0.898160
O641	O64	0.239160	0.253350	0.161040
C1211	C121	0.270820	0.282550	0.136790
C1221	C122	0.275390	0.273260	0.079470
C1231	C123	0.305180	0.306290	0.047480
H611	H61	0.322400	0.335900	0.062100
C1241	C124	0.309580	0.295590	0.994230
H621	H62	0.329700	0.317900	0.972300
C1251	C125	0.251600	0.229200	0.058400
H631	H63	0.232400	0.206200	0.080500
C1261	C126	0.255700	0.218600	0.005390
H641	H64	0.239100	0.188600	0.991000
C1271	C127	0.285800	0.241710	0.915430
C1281	C128	0.284260	0.251970	0.973180
Zn171	Zn17	0.767340	0.813210	0.171560
O651	O65	0.842470	0.798550	0.181720
O661	O66	0.111120	0.819440	0.233990
O671	O67	0.101840	0.752710	0.290840
O681	O68	0.838960	0.739160	0.246650
C1291	C129	0.863210	0.770820	0.217450
C1301	C130	0.920530	0.775390	0.226740
C1311	C131	0.952520	0.805180	0.193710
H651	H65	0.937900	0.822400	0.164100
C1321	C132	0.005770	0.809580	0.204410
H661	H66	0.027700	0.829700	0.182100
C1331	C133	0.941600	0.751600	0.270800
H671	H67	0.919500	0.732400	0.293800
C1341	C134	0.994610	0.755700	0.281400
H681	H68	0.009000	0.739100	0.311400
C1351	C135	0.084570	0.785800	0.258290
C1361	C136	0.026820	0.784260	0.248030
Zn181	Zn18	0.267340	0.686790	0.828440
O691	O69	0.342470	0.701450	0.818280
O701	O70	0.611120	0.680560	0.766010
O711	O71	0.601840	0.747290	0.709160
O721	O72	0.338960	0.760840	0.753350
C1371	C137	0.363210	0.729180	0.782550
C1381	C138	0.420530	0.724610	0.773260
C1391	C139	0.452520	0.694820	0.806290
H691	H69	0.437900	0.677600	0.835900
C1401	C140	0.505770	0.690420	0.795590
H701	H70	0.527700	0.670300	0.817900
C1411	C141	0.441600	0.748400	0.729200
H711	H71	0.419500	0.767600	0.706200
C1421	C142	0.494610	0.744300	0.718600
H721	H72	0.509000	0.760900	0.688600
C1431	C143	0.584570	0.714200	0.741710
C1441	C144	0.526820	0.715740	0.751970
Zn191	Zn19	0.732660	0.186790	0.671560
O731	O73	0.657530	0.201450	0.681720
O741	O74	0.388880	0.180560	0.733990
O751	O75	0.398160	0.247290	0.790840
O761	O76	0.661040	0.260840	0.746650
C1451	C145	0.636790	0.229180	0.717450
C1461	C146	0.579470	0.224610	0.726740
C1471	C147	0.547480	0.194820	0.693710
H731	H73	0.562100	0.177600	0.664100
C1481	C148	0.494230	0.190420	0.704410
H741	H74	0.472300	0.170300	0.682100
C1491	C149	0.558400	0.248400	0.770800
H751	H75	0.580500	0.267600	0.793800
C1501	C150	0.505390	0.244300	0.781400
H761	H76	0.491000	0.260900	0.811400
C1511	C151	0.415430	0.214200	0.758290
C1521	C152	0.473180	0.215740	0.748030
Zn201	Zn20	0.232660	0.313210	0.328440
O771	O77	0.157530	0.298550	0.318280
O781	O78	0.888880	0.319440	0.266010
O791	O79	0.898160	0.252710	0.209160
O801	O80	0.161040	0.239160	0.253350
C1531	C153	0.136790	0.270820	0.282550
C1541	C154	0.079470	0.275390	0.273260
C1551	C155	0.047480	0.305180	0.306290
H771	H77	0.062100	0.322400	0.335900
C1561	C156	0.994230	0.309580	0.295590
H781	H78	0.972300	0.329700	0.317900
C1571	C157	0.058400	0.251600	0.229200
H791	H79	0.080500	0.232400	0.206200
C1581	C158	0.005390	0.255700	0.218600
H801	H80	0.991000	0.239100	0.188600
C1591	C159	0.915430	0.285800	0.241710
C1601	C160	0.973180	0.284260	0.251970
Zn211	Zn21	0.171560	0.767340	0.813210
O811	O81	0.181720	0.842470	0.798550
O821	O82	0.233990	0.111120	0.819440
O831	O83	0.290840	0.101840	0.752710
O841	O84	0.246650	0.838960	0.739160
C1611	C161	0.217450	0.863210	0.770820
C1621	C162	0.226740	0.920530	0.775390
C1631	C163	0.193710	0.952520	0.805180
H811	H81	0.164100	0.937900	0.822400
C1641	C164	0.204410	0.005770	0.809580
H821	H82	0.182100	0.027700	0.829700
C1651	C165	0.270800	0.941600	0.751600
H831	H83	0.293800	0.919500	0.732400
C1661	C166	0.281400	0.994610	0.755700
H841	H84	0.311400	0.009000	0.739100
C1671	C167	0.258290	0.084570	0.785800
C1681	C168	0.248030	0.026820	0.784260
Zn221	Zn22	0.828440	0.267340	0.686790
O851	O85	0.818280	0.342470	0.701450
O861	O86	0.766010	0.611120	0.680560
O871	O87	0.709160	0.601840	0.747290
O881	O88	0.753350	0.338960	0.760840
C1691	C169	0.782550	0.363210	0.729180
C1701	C170	0.773260	0.420530	0.724610
C1711	C171	0.806290	0.452520	0.694820
H851	H85	0.835900	0.437900	0.677600
C1721	C172	0.795590	0.505770	0.690420
H861	H86	0.817900	0.527700	0.670300
C1731	C173	0.729200	0.441600	0.748400
H871	H87	0.706200	0.419500	0.767600
C1741	C174	0.718600	0.494610	0.744300
H881	H88	0.688600	0.509000	0.760900
C1751	C175	0.741710	0.584570	0.714200
C1761	C176	0.751970	0.526820	0.715740
Zn231	Zn23	0.671560	0.732660	0.186790
O891	O89	0.681720	0.657530	0.201450
O901	O90	0.733990	0.388880	0.180560
O911	O91	0.790840	0.398160	0.247290
O921	O92	0.746650	0.661040	0.260840
C1771	C177	0.717450	0.636790	0.229180
C1781	C178	0.726740	0.579470	0.224610
C1791	C179	0.693710	0.547480	0.194820
H891	H89	0.664100	0.562100	0.177600
C1801	C180	0.704410	0.494230	0.190420
H901	H90	0.682100	0.472300	0.170300
C1811	C181	0.770800	0.558400	0.248400
H911	H91	0.793800	0.580500	0.267600
C1821	C182	0.781400	0.505390	0.244300
H921	H92	0.811400	0.491000	0.260900
C1831	C183	0.758290	0.415430	0.214200
C1841	C184	0.748030	0.473180	0.215740
Zn241	Zn24	0.328440	0.232660	0.313210
O931	O93	0.318280	0.157530	0.298550
O941	O94	0.266010	0.888880	0.319440
O951	O95	0.209160	0.898160	0.252710
O961	O96	0.253350	0.161040	0.239160
C1851	C185	0.282550	0.136790	0.270820
C1861	C186	0.273260	0.079470	0.275390
C1871	C187	0.306290	0.047480	0.305180
H931	H93	0.335900	0.062100	0.322400
C1881	C188	0.295590	0.994230	0.309580
H941	H94	0.317900	0.972300	0.329700
C1891	C189	0.229200	0.058400	0.251600
H951	H95	0.206200	0.080500	0.232400
C1901	C190	0.218600	0.005390	0.255700
H961	H96	0.188600	0.991000	0.239100
C1911	C191	0.241710	0.915430	0.285800
C1921	C192	0.251970	0.973180	0.284260
Zn251	Zn25	0.266110	0.733890	0.233890
O971	O97	0.222300	0.777700	0.277700
Zn261	Zn26	0.233890	0.266110	0.733890
O981	O98	0.277700	0.222300	0.777700
Zn271	Zn27	0.733890	0.233890	0.266110
O991	O99	0.777700	0.277700	0.222300
Zn281	Zn28	0.766110	0.766110	0.766110
O1001	O100	0.722300	0.722300	0.722300
Zn291	Zn29	0.733890	0.266110	0.766110
O1011	O101	0.777700	0.222300	0.722300
Zn301	Zn30	0.766110	0.733890	0.266110
O1021	O102	0.722300	0.777700	0.222300
Zn311	Zn31	0.266110	0.766110	0.733890
O1031	O103	0.222300	0.722300	0.777700
Zn321	Zn32	0.233890	0.233890	0.233890
O1041	O104	0.277700	0.277700	0.277700
