data_MEJQOJ_freeONLY_PM
_symmetry_space_group_name_H-M	'P1'
_cell_length_a	8.945400
_cell_length_b	10.698100
_cell_length_c	18.447400
_cell_angle_alpha	90.000000
_cell_angle_beta	90.000000
_cell_angle_gamma	90.000000
_symmetry_Int_Tables_number 1

loop_
_symmetry_equiv_pos_as_xyz
'x,y,z'

loop_
_atom_site_label
_atom_site_type_symbol
_atom_site_fract_x
_atom_site_fract_y
_atom_site_fract_z
Zn11	Zn1	0.131670	0.014600	0.602470
Zn21	Zn2	0.631670	0.985400	0.397530
Zn31	Zn3	0.131670	0.485400	0.102470
Zn41	Zn4	0.631670	0.514600	0.897530
H11	H1	0.827000	0.958000	0.528000
H21	H2	0.236200	0.358600	0.403100
H31	H3	0.842500	0.300200	0.271700
H41	H4	0.751700	0.201100	0.307400
H51	H5	0.963200	0.674400	0.706200
H61	H6	0.851200	0.531000	0.780200
H71	H7	0.587700	0.786100	0.860300
H81	H8	0.694200	0.937000	0.788900
H91	H9	0.327000	0.042000	0.472000
H101	H10	0.736200	0.641400	0.596900
H111	H11	0.342500	0.699800	0.728300
H121	H12	0.251700	0.798900	0.692600
H131	H13	0.463200	0.325600	0.293800
H141	H14	0.351200	0.469000	0.219800
H151	H15	0.087700	0.213900	0.139700
H161	H16	0.194200	0.063000	0.211100
H171	H17	0.827000	0.542000	0.028000
H181	H18	0.236200	0.141400	0.903100
H191	H19	0.842500	0.199800	0.771700
H201	H20	0.751700	0.298900	0.807400
H211	H21	0.963200	0.825600	0.206200
H221	H22	0.851200	0.969000	0.280200
H231	H23	0.587700	0.713900	0.360300
H241	H24	0.694200	0.563000	0.288900
H251	H25	0.327000	0.458000	0.972000
H261	H26	0.736200	0.858600	0.096900
H271	H27	0.342500	0.800200	0.228300
H281	H28	0.251700	0.701100	0.192600
H291	H29	0.463200	0.174400	0.793800
H301	H30	0.351200	0.031000	0.719800
H311	H31	0.087700	0.286100	0.639700
H321	H32	0.194200	0.437000	0.711100
C11	C1	0.874500	0.019800	0.501000
C21	C2	0.155800	0.304100	0.407900
C31	C3	0.933100	0.238000	0.359000
C41	C4	0.922000	0.153600	0.418400
C51	C5	0.035700	0.156400	0.468400
C61	C6	0.920700	0.922300	0.694800
C71	C7	0.888600	0.699900	0.738100
C81	C8	0.847500	0.822200	0.740600
C91	C9	0.820500	0.613900	0.782400
C101	C10	0.665800	0.764100	0.829500
C111	C11	0.729000	0.855100	0.787100
C121	C12	0.374500	0.980200	0.499000
C131	C13	0.655800	0.695900	0.592100
C141	C14	0.433100	0.762000	0.641000
C151	C15	0.422000	0.846400	0.581600
C161	C16	0.535700	0.843600	0.531600
C171	C17	0.420700	0.077700	0.305200
C181	C18	0.388600	0.300100	0.261900
C191	C19	0.347500	0.177800	0.259400
C201	C20	0.320500	0.386100	0.217600
C211	C21	0.165800	0.235900	0.170500
C221	C22	0.229000	0.144900	0.212900
C231	C23	0.874500	0.480200	0.001000
C241	C24	0.155800	0.195900	0.907900
C251	C25	0.933100	0.262000	0.859000
C261	C26	0.922000	0.346400	0.918400
C271	C27	0.035700	0.343600	0.968400
C281	C28	0.920700	0.577700	0.194800
C291	C29	0.888600	0.800100	0.238100
C301	C30	0.847500	0.677800	0.240600
C311	C31	0.820500	0.886100	0.282400
C321	C32	0.665800	0.735900	0.329500
C331	C33	0.729000	0.644900	0.287100
C341	C34	0.374500	0.519800	0.999000
C351	C35	0.655800	0.804100	0.092100
C361	C36	0.433100	0.738000	0.141000
C371	C37	0.422000	0.653600	0.081600
C381	C38	0.535700	0.656400	0.031600
C391	C39	0.420700	0.422300	0.805200
C401	C40	0.388600	0.199900	0.761900
C411	C41	0.347500	0.322200	0.759400
C421	C42	0.320500	0.113900	0.717600
C431	C43	0.165800	0.264100	0.670500
C441	C44	0.229000	0.355100	0.712900
N11	N1	0.006100	0.070800	0.521600
N21	N2	0.160700	0.230800	0.465700
N31	N3	0.817600	0.064300	0.439400
N41	N4	0.052700	0.312100	0.355000
N51	N5	0.830100	0.247600	0.306400
N61	N6	0.711500	0.645300	0.828700
N71	N7	0.506100	0.929200	0.478400
N81	N8	0.660700	0.769200	0.534300
N91	N9	0.317600	0.935700	0.560600
N101	N10	0.552700	0.687900	0.645000
N111	N11	0.330100	0.752400	0.693600
N121	N12	0.211500	0.354700	0.171300
N131	N13	0.006100	0.429200	0.021600
N141	N14	0.160700	0.269200	0.965700
N151	N15	0.817600	0.435700	0.939400
N161	N16	0.052700	0.187900	0.855000
N171	N17	0.830100	0.252400	0.806400
N181	N18	0.711500	0.854700	0.328700
N191	N19	0.506100	0.570800	0.978400
N201	N20	0.660700	0.730800	0.034300
N211	N21	0.317600	0.564300	0.060600
N221	N22	0.552700	0.812100	0.145000
N231	N23	0.330100	0.747600	0.193600
N241	N24	0.211500	0.145300	0.671300
O11	O1	0.038600	0.883600	0.661080
O21	O2	0.871200	0.027400	0.691900
O31	O3	0.538600	0.116400	0.338920
O41	O4	0.371200	0.972600	0.308100
O51	O5	0.038600	0.616400	0.161080
O61	O6	0.871200	0.472600	0.191900
O71	O7	0.538600	0.383600	0.838920
O81	O8	0.371200	0.527400	0.808100
