data_MEJZEI_freeONLY_PM
_symmetry_space_group_name_H-M	'P1'
_cell_length_a	15.268800
_cell_length_b	15.355200
_cell_length_c	15.403000
_cell_angle_alpha	106.787000
_cell_angle_beta	117.059000
_cell_angle_gamma	103.195000
_symmetry_Int_Tables_number 1

loop_
_symmetry_equiv_pos_as_xyz
'x,y,z'

loop_
_atom_site_label
_atom_site_type_symbol
_atom_site_fract_x
_atom_site_fract_y
_atom_site_fract_z
La11	La1	0.942980	0.802540	0.634240
La21	La2	0.678390	0.816070	0.383350
La31	La3	0.915120	0.146390	0.563240
La41	La4	0.057020	0.197460	0.365760
La51	La5	0.321610	0.183930	0.616650
La61	La6	0.084880	0.853610	0.436760
P11	P1	0.874100	0.983200	0.691000
P21	P2	0.803300	0.693400	0.324400
P31	P3	0.117500	0.025100	0.643900
P41	P4	0.125900	0.016800	0.309000
P51	P5	0.196700	0.306600	0.675600
P61	P6	0.882500	0.974900	0.356100
H11	H1	0.293300	0.524700	0.176700
H21	H2	0.962000	0.335000	0.733800
H31	H3	0.850700	0.294800	0.658700
H41	H4	0.662400	0.945100	0.608600
H51	H5	0.841300	0.562200	0.404200
H61	H6	0.254200	0.214100	0.820600
H71	H7	0.827200	0.010100	0.816600
H81	H8	0.777900	0.894900	0.741800
H91	H9	0.595100	0.817100	0.636900
H101	H10	0.610900	0.895600	0.740600
H111	H11	0.429400	0.827300	0.595000
H121	H12	0.464000	0.856900	0.522300
H131	H13	0.491500	0.992900	0.710400
H141	H14	0.574900	0.125500	0.691500
H151	H15	0.558200	0.052400	0.584600
H161	H16	0.701700	0.079700	0.797400
H171	H17	0.736300	0.109600	0.724800
H181	H18	0.700700	0.524400	0.196400
H191	H19	0.660900	0.550400	0.274200
H201	H20	0.784900	0.418500	0.208700
H211	H21	0.887700	0.521400	0.280700
H221	H22	0.969200	0.475400	0.416900
H231	H23	0.932600	0.388600	0.306900
H241	H24	0.785800	0.292400	0.293500
H251	H25	0.838900	0.445400	0.487400
H261	H26	0.738000	0.340900	0.415600
H271	H27	0.685000	0.464800	0.376800
H281	H28	0.662700	0.382300	0.271500
H291	H29	0.275800	0.061600	0.806200
H301	H30	0.177600	0.035400	0.817500
H311	H31	0.095700	0.166500	0.814900
H321	H32	0.164600	0.172100	0.930800
H331	H33	0.192900	0.337100	0.884500
H341	H34	0.143200	0.319800	0.950900
H351	H35	0.309100	0.345000	0.095000
H361	H36	0.404200	0.371500	0.979000
H371	H37	0.462100	0.370400	0.092600
H381	H38	0.349000	0.197200	0.010200
H391	H39	0.407300	0.212500	0.950500
H401	H40	0.278000	0.683000	0.062200
H411	H41	0.135100	0.687700	0.923200
H421	H42	0.341900	0.914700	0.940400
H431	H43	0.485700	0.915800	0.087100
H441	H44	0.508600	0.535200	0.671200
H451	H45	0.631100	0.656700	0.673100
H461	H46	0.728700	0.457600	0.560700
H471	H47	0.603700	0.332200	0.552700
H481	H48	0.706700	0.475300	0.823300
H491	H49	0.038000	0.665000	0.266200
H501	H50	0.149300	0.705200	0.341300
H511	H51	0.337600	0.054900	0.391400
H521	H52	0.158700	0.437800	0.595800
H531	H53	0.745800	0.785900	0.179400
H541	H54	0.172800	0.989900	0.183400
H551	H55	0.222100	0.105100	0.258200
H561	H56	0.404900	0.182900	0.363100
H571	H57	0.389100	0.104400	0.259400
H581	H58	0.570600	0.172700	0.405000
H591	H59	0.536000	0.143100	0.477700
H601	H60	0.508500	0.007100	0.289600
H611	H61	0.425100	0.874500	0.308500
H621	H62	0.441800	0.947600	0.415400
H631	H63	0.298300	0.920300	0.202600
H641	H64	0.263700	0.890400	0.275200
H651	H65	0.299300	0.475600	0.803600
H661	H66	0.339100	0.449600	0.725800
H671	H67	0.215100	0.581500	0.791300
H681	H68	0.112300	0.478600	0.719300
H691	H69	0.030800	0.524600	0.583100
H701	H70	0.067400	0.611400	0.693100
H711	H71	0.214200	0.707600	0.706500
H721	H72	0.161100	0.554600	0.512600
H731	H73	0.262000	0.659100	0.584400
H741	H74	0.315000	0.535200	0.623200
H751	H75	0.337300	0.617700	0.728500
H761	H76	0.724200	0.938400	0.193800
H771	H77	0.822400	0.964600	0.182500
H781	H78	0.904300	0.833500	0.185100
H791	H79	0.835400	0.827900	0.069200
H801	H80	0.807100	0.662900	0.115500
H811	H81	0.856800	0.680200	0.049100
H821	H82	0.690900	0.655000	0.905000
H831	H83	0.595800	0.628500	0.021000
H841	H84	0.537900	0.629600	0.907400
H851	H85	0.651000	0.802800	0.989800
H861	H86	0.592700	0.787500	0.049500
H871	H87	0.722000	0.317000	0.937800
H881	H88	0.864900	0.312300	0.076800
H891	H89	0.658100	0.085300	0.059600
H901	H90	0.514300	0.084200	0.912900
H911	H91	0.491400	0.464800	0.328800
H921	H92	0.368900	0.343300	0.326900
H931	H93	0.271300	0.542400	0.439300
H941	H94	0.396300	0.667800	0.447300
C11	C1	0.788800	0.959500	0.741500
C21	C2	0.595000	0.881700	0.668100
C31	C3	0.482700	0.877300	0.596500
C41	C4	0.479000	0.977800	0.638300
C51	C5	0.572500	0.060900	0.655400
C61	C6	0.681700	0.060600	0.722900
C71	C7	0.369200	0.975300	0.566800
C81	C8	0.724800	0.559400	0.272100
C91	C9	0.840600	0.469200	0.283200
C101	C10	0.906500	0.422400	0.346800
C111	C11	0.842800	0.348800	0.365600
C121	C12	0.785500	0.392800	0.413200
C131	C13	0.719400	0.435800	0.344200
C141	C14	0.910000	0.305300	0.434200
C151	C15	0.212100	0.073600	0.792700
C161	C16	0.167100	0.200200	0.882600
C171	C17	0.195900	0.310100	0.935000
C181	C18	0.311100	0.367700	0.042300
C191	C19	0.393200	0.341900	0.023000
C201	C20	0.354700	0.226600	0.964000
C211	C21	0.339400	0.479700	0.089700
C221	C22	0.490700	0.792400	0.176200
C231	C23	0.397000	0.793400	0.084500
C241	C24	0.291700	0.730000	0.037800
C251	C25	0.205500	0.733900	0.955900
C261	C26	0.223500	0.805900	0.922400
C271	C27	0.328800	0.869800	0.967300
C281	C28	0.415700	0.867800	0.052100
C291	C29	0.129000	0.810500	0.831000
C301	C30	0.458900	0.337000	0.600200
C311	C31	0.538200	0.417900	0.604900
C321	C32	0.550700	0.518600	0.646400
C331	C33	0.626200	0.591800	0.649600
C341	C34	0.693800	0.572100	0.619500
C351	C35	0.683700	0.472700	0.581900
C361	C36	0.607900	0.397000	0.576000
C371	C37	0.773800	0.649800	0.622300
C381	C38	0.211200	0.040500	0.258500
C391	C39	0.405000	0.118300	0.331900
C401	C40	0.517300	0.122700	0.403500
C411	C41	0.521000	0.022200	0.361700
C421	C42	0.427500	0.939100	0.344600
C431	C43	0.318300	0.939400	0.277100
C441	C44	0.630800	0.024700	0.433200
C451	C45	0.275200	0.440600	0.727900
C461	C46	0.159400	0.530800	0.716800
C471	C47	0.093500	0.577600	0.653200
C481	C48	0.157200	0.651200	0.634400
C491	C49	0.214500	0.607200	0.586800
C501	C50	0.280600	0.564200	0.655800
C511	C51	0.090000	0.694700	0.565800
C521	C52	0.787900	0.926400	0.207300
C531	C53	0.832900	0.799800	0.117400
C541	C54	0.804100	0.689900	0.065000
C551	C55	0.688900	0.632300	0.957700
C561	C56	0.606800	0.658100	0.977000
C571	C57	0.645300	0.773400	0.036000
C581	C58	0.660600	0.520300	0.910300
C591	C59	0.509300	0.207600	0.823800
C601	C60	0.603000	0.206600	0.915500
C611	C61	0.708300	0.270000	0.962200
C621	C62	0.794500	0.266100	0.044100
C631	C63	0.776500	0.194100	0.077600
C641	C64	0.671200	0.130200	0.032700
C651	C65	0.584300	0.132200	0.947900
C661	C66	0.871000	0.189500	0.169000
C671	C67	0.541100	0.663000	0.399800
C681	C68	0.461800	0.582100	0.395100
C691	C69	0.449300	0.481400	0.353600
C701	C70	0.373800	0.408200	0.350400
C711	C71	0.306200	0.427900	0.380500
C721	C72	0.316300	0.527300	0.418100
C731	C73	0.392100	0.603000	0.424000
C741	C74	0.226200	0.350200	0.377700
N11	N1	0.679000	0.959700	0.676700
N21	N2	0.788400	0.513500	0.336200
N31	N3	0.248000	0.181700	0.859200
N41	N4	0.321000	0.040300	0.323300
N51	N5	0.211600	0.486500	0.663800
N61	N6	0.752000	0.818300	0.140800
O11	O1	0.976400	0.974700	0.766200
O21	O2	0.813300	0.891700	0.578500
O31	O3	0.886200	0.081000	0.685000
O41	O4	0.287500	0.903300	0.538800
O51	O5	0.364700	0.044700	0.539200
O61	O6	0.720800	0.722300	0.250200
O71	O7	0.824700	0.744000	0.437600
O81	O8	0.903100	0.707400	0.322800
O91	O9	0.869600	0.256800	0.468900
O101	O10	0.003400	0.321900	0.450500
O111	O11	0.057100	0.911100	0.597400
O121	O12	0.046900	0.080300	0.628800
O131	O13	0.182200	0.039100	0.592800
O141	O14	0.276600	0.507200	0.111700
O151	O15	0.419800	0.531900	0.103000
O161	O16	0.474900	0.727900	0.208000
O171	O17	0.583400	0.859300	0.224500
O181	O18	0.036100	0.765500	0.804400
O191	O19	0.148400	0.859200	0.783400
O201	O20	0.407000	0.361200	0.640700
O211	O21	0.443900	0.249300	0.555800
O221	O22	0.798000	0.741200	0.675700
O231	O23	0.816100	0.624600	0.572200
O241	O24	0.903200	0.282100	0.695400
O251	O25	0.023600	0.025300	0.233800
O261	O26	0.186700	0.108300	0.421500
O271	O27	0.113800	0.919000	0.315000
O281	O28	0.712500	0.096700	0.461200
O291	O29	0.635300	0.955300	0.460800
O301	O30	0.279200	0.277700	0.749800
O311	O31	0.175300	0.256000	0.562400
O321	O32	0.096900	0.292600	0.677200
O331	O33	0.130400	0.743200	0.531100
O341	O34	0.996600	0.678100	0.549500
O351	O35	0.942900	0.088900	0.402600
O361	O36	0.953100	0.919700	0.371200
O371	O37	0.817800	0.960900	0.407200
O381	O38	0.723400	0.492800	0.888300
O391	O39	0.580200	0.468100	0.897000
O401	O40	0.525100	0.272100	0.792000
O411	O41	0.416600	0.140700	0.775500
O421	O42	0.963900	0.234500	0.195600
O431	O43	0.851600	0.140800	0.216600
O441	O44	0.593000	0.638800	0.359300
O451	O45	0.556100	0.750700	0.444200
O461	O46	0.202000	0.258800	0.324300
O471	O47	0.183900	0.375400	0.427800
O481	O48	0.096800	0.717900	0.304600
