data_MEJZOS_freeONLY_PM
_symmetry_space_group_name_H-M	'P1'
_cell_length_a	15.122000
_cell_length_b	15.167000
_cell_length_c	15.242000
_cell_angle_alpha	106.199000
_cell_angle_beta	103.350000
_cell_angle_gamma	116.990000
_symmetry_Int_Tables_number 1

loop_
_symmetry_equiv_pos_as_xyz
'x,y,z'

loop_
_atom_site_label
_atom_site_type_symbol
_atom_site_fract_x
_atom_site_fract_y
_atom_site_fract_z
Pr11	Pr1	0.818930	0.114280	0.682110
Pr21	Pr2	0.557110	0.865840	0.697640
Pr31	Pr3	0.415210	0.063370	0.644760
Pr41	Pr4	0.181070	0.885720	0.317890
Pr51	Pr5	0.442890	0.134160	0.302360
Pr61	Pr6	0.584790	0.936630	0.355240
P11	P1	0.616700	0.142400	0.523600
P21	P2	0.694900	0.174200	0.803700
P31	P3	0.625300	0.808400	0.518500
P41	P4	0.383300	0.857600	0.476400
P51	P5	0.305100	0.825800	0.196300
P61	P6	0.374700	0.191600	0.481500
H11	H1	0.799100	0.626900	0.065300
H21	H2	0.342800	0.160600	0.782000
H31	H3	0.409200	0.247300	0.762400
H41	H4	0.751300	0.319100	0.711100
H51	H5	0.658300	0.096700	0.939200
H61	H6	0.839400	0.891800	0.555800
H71	H7	0.673100	0.314500	0.528400
H81	H8	0.773400	0.304300	0.556900
H91	H9	0.846100	0.512400	0.694100
H101	H10	0.906300	0.452900	0.709100
H111	H11	0.965700	0.594900	0.865400
H121	H12	0.904100	0.479900	0.866800
H131	H13	0.804800	0.597300	0.840100
H141	H14	0.641200	0.451500	0.816900
H151	H15	0.694000	0.386100	0.834900
H161	H16	0.589200	0.314700	0.659900
H171	H17	0.662200	0.432300	0.666700
H181	H18	0.837400	0.221700	0.947900
H191	H19	0.801800	0.303600	0.972700
H201	H20	0.718000	0.293200	0.080900
H211	H21	0.613900	0.223000	0.978700
H221	H22	0.565700	0.193500	0.107400
H231	H23	0.529800	0.082700	0.024400
H241	H24	0.714100	0.206300	0.206200
H251	H25	0.766200	0.088200	0.163200
H261	H26	0.662800	0.012700	0.060700
H271	H27	0.809900	0.116300	0.032200
H281	H28	0.837500	0.225000	0.111900
H291	H29	0.670300	0.680700	0.486400
H301	H30	0.718900	0.747100	0.602500
H311	H31	0.887600	0.754600	0.600200
H321	H32	0.904600	0.854400	0.683200
H331	H33	0.071400	0.897600	0.671900
H341	H34	0.036200	0.971700	0.641800
H351	H35	0.005500	0.785900	0.504900
H361	H36	0.923500	0.811500	0.373800
H371	H37	0.942000	0.917200	0.449700
H381	H38	0.762300	0.773100	0.390200
H391	H39	0.800700	0.703000	0.424300
H401	H40	0.000200	0.165500	0.029100
H411	H41	0.128800	0.175000	0.157800
H421	H42	0.240600	0.069700	0.961600
H431	H43	0.061800	0.005200	0.878200
H441	H44	0.011900	0.410600	0.583100
H451	H45	0.157700	0.550200	0.572500
H461	H46	0.369400	0.578400	0.817900
H471	H47	0.216900	0.444000	0.828900
H481	H48	0.200900	0.373100	0.934700
H491	H49	0.657200	0.839400	0.218000
H501	H50	0.590800	0.752700	0.237600
H511	H51	0.248700	0.680900	0.288900
H521	H52	0.341700	0.903300	0.060800
H531	H53	0.160600	0.108200	0.444200
H541	H54	0.326900	0.685500	0.471600
H551	H55	0.226600	0.695700	0.443100
H561	H56	0.153900	0.487600	0.305900
H571	H57	0.093700	0.547100	0.290900
H581	H58	0.034300	0.405100	0.134600
H591	H59	0.095900	0.520100	0.133200
H601	H60	0.195200	0.402700	0.159900
H611	H61	0.358800	0.548500	0.183100
H621	H62	0.306000	0.613900	0.165100
H631	H63	0.410800	0.685300	0.340100
H641	H64	0.337800	0.567700	0.333300
H651	H65	0.162600	0.778300	0.052100
H661	H66	0.198200	0.696400	0.027300
H671	H67	0.282000	0.706800	0.919100
H681	H68	0.386100	0.777000	0.021300
H691	H69	0.434300	0.806500	0.892600
H701	H70	0.470200	0.917300	0.975600
H711	H71	0.285900	0.793700	0.793800
H721	H72	0.233800	0.911800	0.836800
H731	H73	0.337200	0.987300	0.939300
H741	H74	0.190100	0.883700	0.967800
H751	H75	0.162500	0.775000	0.888100
H761	H76	0.329700	0.319300	0.513600
H771	H77	0.281100	0.252900	0.397500
H781	H78	0.112400	0.245400	0.399800
H791	H79	0.095400	0.145600	0.316800
H801	H80	0.928600	0.102400	0.328100
H811	H81	0.963800	0.028300	0.358200
H821	H82	0.994500	0.214100	0.495100
H831	H83	0.076500	0.188500	0.626200
H841	H84	0.058000	0.082800	0.550300
H851	H85	0.237700	0.226900	0.609800
H861	H86	0.199300	0.297000	0.575700
H871	H87	0.999800	0.834500	0.970900
H881	H88	0.871200	0.825000	0.842200
H891	H89	0.759400	0.930300	0.038400
H901	H90	0.938200	0.994800	0.121800
H911	H91	0.988100	0.589400	0.416900
H921	H92	0.842300	0.449800	0.427500
H931	H93	0.630600	0.421600	0.182100
H941	H94	0.783100	0.556000	0.171100
C11	C1	0.708500	0.289800	0.567800
C21	C2	0.853200	0.465600	0.723800
C31	C3	0.895300	0.525900	0.836900
C41	C4	0.807000	0.544300	0.862900
C51	C5	0.694400	0.436200	0.806600
C61	C6	0.662000	0.381700	0.694300
C71	C7	0.842000	0.589000	0.976000
C81	C8	0.774700	0.227000	0.939200
C91	C9	0.660500	0.219100	0.031300
C101	C10	0.592700	0.153300	0.075800
C111	C11	0.657900	0.134700	0.151800
C121	C12	0.716500	0.088100	0.109600
C131	C13	0.778200	0.151900	0.061700
C141	C14	0.591300	0.067600	0.195300
C151	C15	0.709400	0.753600	0.539900
C161	C16	0.905000	0.828400	0.618300
C171	C17	0.017400	0.897300	0.622300
C181	C18	0.019700	0.858400	0.520500
C191	C19	0.926300	0.844900	0.438700
C201	C20	0.819000	0.776800	0.440000
C211	C21	0.130300	0.932600	0.522800
C221	C22	0.954900	0.097100	0.833900
C231	C23	0.041100	0.108800	0.920200
C241	C24	0.047700	0.142600	0.016200
C251	C25	0.125000	0.151500	0.090800
C261	C26	0.196500	0.120400	0.071500
C271	C27	0.191200	0.089900	0.974200
C281	C28	0.112200	0.080800	0.893900
C291	C29	0.277100	0.123100	0.148900
C301	C30	0.008500	0.322900	0.707800
C311	C31	0.102800	0.415700	0.704900
C321	C32	0.085800	0.447600	0.633100
C331	C33	0.169300	0.527100	0.625100
C341	C34	0.276700	0.580200	0.695700
C351	C35	0.295700	0.544200	0.768800
C361	C36	0.206600	0.463100	0.773300
C371	C37	0.370300	0.668500	0.689400
C381	C38	0.291500	0.710200	0.432200
C391	C39	0.146800	0.534400	0.276200
C401	C40	0.104700	0.474100	0.163100
C411	C41	0.193000	0.455700	0.137100
C421	C42	0.305600	0.563800	0.193400
C431	C43	0.338000	0.618300	0.305700
C441	C44	0.158000	0.411000	0.024000
C451	C45	0.225300	0.773000	0.060800
C461	C46	0.339500	0.780900	0.968700
C471	C47	0.407300	0.846700	0.924200
C481	C48	0.342100	0.865300	0.848200
C491	C49	0.283500	0.911900	0.890400
C501	C50	0.221800	0.848100	0.938300
C511	C51	0.408700	0.932400	0.804700
C521	C52	0.290600	0.246400	0.460100
C531	C53	0.095000	0.171600	0.381700
C541	C54	0.982600	0.102700	0.377700
C551	C55	0.980300	0.141600	0.479500
C561	C56	0.073700	0.155100	0.561300
C571	C57	0.181000	0.223200	0.560000
C581	C58	0.869700	0.067400	0.477200
C591	C59	0.045100	0.902900	0.166100
C601	C60	0.958900	0.891200	0.079800
C611	C61	0.952300	0.857400	0.983800
C621	C62	0.875000	0.848500	0.909200
C631	C63	0.803500	0.879600	0.928500
C641	C64	0.808800	0.910100	0.025800
C651	C65	0.887800	0.919200	0.106100
C661	C66	0.722900	0.876900	0.851100
C671	C67	0.991500	0.677100	0.292200
C681	C68	0.897200	0.584300	0.295100
C691	C69	0.914200	0.552400	0.366900
C701	C70	0.830700	0.472900	0.374900
C711	C71	0.723300	0.419800	0.304300
C721	C72	0.704300	0.455800	0.231200
C731	C73	0.793400	0.536900	0.226700
C741	C74	0.629700	0.331500	0.310600
N11	N1	0.745300	0.358600	0.677300
N21	N2	0.712700	0.165400	0.986800
N31	N3	0.822100	0.822500	0.540900
N41	N4	0.254700	0.641400	0.322700
N51	N5	0.287300	0.834600	0.013200
N61	N6	0.177900	0.177500	0.459100
O11	O1	0.558200	0.098300	0.411300
O21	O2	0.545200	0.126300	0.579800
O31	O3	0.682500	0.091400	0.537500
O41	O4	0.926600	0.607600	0.033800
O51	O5	0.774000	0.603000	0.001400
O61	O6	0.779300	0.248500	0.774000
O71	O7	0.671500	0.057900	0.752100
O81	O8	0.592500	0.174300	0.786600
O91	O9	0.498000	0.050000	0.181100
O101	O10	0.628200	0.026400	0.243600
O111	O11	0.613400	0.816300	0.421300
O121	O12	0.687900	0.922300	0.610100
O131	O13	0.523600	0.735800	0.529800
O141	O14	0.213500	0.961900	0.597100
O151	O15	0.135700	0.960400	0.454400
O161	O16	0.914200	0.274600	0.637700
O171	O17	0.021300	0.290800	0.774400
O181	O18	0.351200	0.717600	0.641500
O191	O19	0.464700	0.694300	0.735700
O201	O20	0.941800	0.053200	0.744700
O211	O21	0.902100	0.135800	0.854300
O221	O22	0.301200	0.179400	0.241100
O231	O23	0.318300	0.072500	0.126000
O241	O24	0.404100	0.195400	0.777900
O251	O25	0.441800	0.901700	0.588700
O261	O26	0.454800	0.873700	0.420200
O271	O27	0.317500	0.908600	0.462500
O281	O28	0.073400	0.392400	0.966200
O291	O29	0.226000	0.397000	0.998600
O301	O30	0.220700	0.751500	0.226000
O311	O31	0.328500	0.942100	0.247900
O321	O32	0.407500	0.825700	0.213400
O331	O33	0.502000	0.950000	0.818900
O341	O34	0.371800	0.973600	0.756400
O351	O35	0.386600	0.183700	0.578700
O361	O36	0.312100	0.077700	0.389900
O371	O37	0.476400	0.264200	0.470200
O381	O38	0.786500	0.038100	0.402900
O391	O39	0.864300	0.039600	0.545600
O401	O40	0.085800	0.725400	0.362300
O411	O41	0.978700	0.709200	0.225600
O421	O42	0.648800	0.282400	0.358500
O431	O43	0.535300	0.305700	0.264300
O441	O44	0.058200	0.946800	0.255300
O451	O45	0.097900	0.864200	0.145700
O461	O46	0.698800	0.820600	0.758900
O471	O47	0.681700	0.927500	0.874000
O481	O48	0.595900	0.804600	0.222100
