data_MEKDUC_freeONLY_PM
_symmetry_space_group_name_H-M	'P1'
_cell_length_a	10.982500
_cell_length_b	11.601200
_cell_length_c	16.857800
_cell_angle_alpha	90.000000
_cell_angle_beta	90.000000
_cell_angle_gamma	94.758000
_symmetry_Int_Tables_number 1

loop_
_symmetry_equiv_pos_as_xyz
'x,y,z'

loop_
_atom_site_label
_atom_site_type_symbol
_atom_site_fract_x
_atom_site_fract_y
_atom_site_fract_z
Cd11	Cd1	0.837510	0.755140	0.745920
Cd21	Cd2	0.662490	0.244860	0.245920
Cd31	Cd3	0.162490	0.244860	0.254080
Cd41	Cd4	0.337510	0.755140	0.754080
H11	H1	0.248400	0.037800	0.156300
H21	H2	0.260500	0.948500	0.035700
H31	H3	0.049100	0.181000	0.945500
H41	H4	0.052400	0.269100	0.067300
H51	H5	0.011900	0.233700	0.426300
H61	H6	0.997200	0.329100	0.545000
H71	H7	0.297300	0.528200	0.485300
H81	H8	0.302000	0.428400	0.368700
H91	H9	0.251600	0.962200	0.656300
H101	H10	0.239500	0.051500	0.535700
H111	H11	0.450900	0.819000	0.445500
H121	H12	0.447600	0.730900	0.567300
H131	H13	0.488100	0.766300	0.926300
H141	H14	0.502800	0.670900	0.045000
H151	H15	0.202700	0.471800	0.985300
H161	H16	0.198000	0.571600	0.868700
H171	H17	0.751600	0.962200	0.843700
H181	H18	0.739500	0.051500	0.964300
H191	H19	0.950900	0.819000	0.054500
H201	H20	0.947600	0.730900	0.932700
H211	H21	0.988100	0.766300	0.573700
H221	H22	0.002800	0.670900	0.455000
H231	H23	0.702700	0.471800	0.514700
H241	H24	0.698000	0.571600	0.631300
H251	H25	0.748400	0.037800	0.343700
H261	H26	0.760500	0.948500	0.464300
H271	H27	0.549100	0.181000	0.554500
H281	H28	0.552400	0.269100	0.432700
H291	H29	0.511900	0.233700	0.073700
H301	H30	0.497200	0.329100	0.955000
H311	H31	0.797300	0.528200	0.014700
H321	H32	0.802000	0.428400	0.131300
C11	C1	0.210100	0.068400	0.112800
C21	C2	0.216100	0.012900	0.040940
C31	C3	0.155300	0.054400	0.976770
C41	C4	0.092100	0.151300	0.987280
C51	C5	0.094000	0.203100	0.060880
C61	C6	0.156700	0.991500	0.901680
C71	C7	0.097000	0.929800	0.786510
C81	C8	0.069800	0.294400	0.438300
C91	C9	0.060000	0.351400	0.509840
C101	C10	0.144600	0.441500	0.528180
C111	C11	0.237200	0.469100	0.474400
C121	C12	0.239600	0.408100	0.404600
C131	C13	0.140800	0.508800	0.601310
C141	C14	0.071800	0.572500	0.710980
C151	C15	0.289900	0.931600	0.612800
C161	C16	0.283900	0.987100	0.540940
C171	C17	0.344700	0.945600	0.476770
C181	C18	0.407900	0.848700	0.487280
C191	C19	0.406000	0.796900	0.560880
C201	C20	0.343300	0.008500	0.401680
C211	C21	0.403000	0.070200	0.286510
C221	C22	0.430200	0.705600	0.938300
C231	C23	0.440000	0.648600	0.009840
C241	C24	0.355400	0.558500	0.028180
C251	C25	0.262800	0.530900	0.974400
C261	C26	0.260400	0.591900	0.904600
C271	C27	0.359200	0.491200	0.101310
C281	C28	0.428200	0.427500	0.210980
C291	C29	0.789900	0.931600	0.887200
C301	C30	0.783900	0.987100	0.959060
C311	C31	0.844700	0.945600	0.023230
C321	C32	0.907900	0.848700	0.012720
C331	C33	0.906000	0.796900	0.939120
C341	C34	0.843300	0.008500	0.098320
C351	C35	0.903000	0.070200	0.213490
C361	C36	0.930200	0.705600	0.561700
C371	C37	0.940000	0.648600	0.490160
C381	C38	0.855400	0.558500	0.471820
C391	C39	0.762800	0.530900	0.525600
C401	C40	0.760400	0.591900	0.595400
C411	C41	0.859200	0.491200	0.398690
C421	C42	0.928200	0.427500	0.289020
C431	C43	0.710100	0.068400	0.387200
C441	C44	0.716100	0.012900	0.459060
C451	C45	0.655300	0.054400	0.523230
C461	C46	0.592100	0.151300	0.512720
C471	C47	0.594000	0.203100	0.439120
C481	C48	0.656700	0.991500	0.598320
C491	C49	0.597000	0.929800	0.713490
C501	C50	0.569800	0.294400	0.061700
C511	C51	0.560000	0.351400	0.990160
C521	C52	0.644600	0.441500	0.971820
C531	C53	0.737200	0.469100	0.025600
C541	C54	0.739600	0.408100	0.095400
C551	C55	0.640800	0.508800	0.898690
C561	C56	0.571800	0.572500	0.789020
S11	S1	0.008620	0.918920	0.703750
S21	S2	0.973810	0.580480	0.788340
S31	S3	0.491380	0.081080	0.203750
S41	S4	0.526190	0.419520	0.288340
S51	S5	0.991380	0.081080	0.296250
S61	S6	0.026190	0.419520	0.211660
S71	S7	0.508620	0.918920	0.796250
S81	S8	0.473810	0.580480	0.711660
N11	N1	0.152200	0.163700	0.123310
N21	N2	0.229700	0.915100	0.882450
N31	N3	0.191700	0.875300	0.807220
N41	N4	0.158000	0.322100	0.385640
N51	N5	0.222200	0.586100	0.625310
N61	N6	0.178700	0.627400	0.697010
N71	N7	0.347800	0.836300	0.623310
N81	N8	0.270300	0.084900	0.382450
N91	N9	0.308300	0.124700	0.307220
N101	N10	0.342000	0.677900	0.885640
N111	N11	0.277800	0.413900	0.125310
N121	N12	0.321300	0.372600	0.197010
N131	N13	0.847800	0.836300	0.876690
N141	N14	0.770300	0.084900	0.117550
N151	N15	0.808300	0.124700	0.192780
N161	N16	0.842000	0.677900	0.614360
N171	N17	0.777800	0.413900	0.374690
N181	N18	0.821300	0.372600	0.302990
N191	N19	0.652200	0.163700	0.376690
N201	N20	0.729700	0.915100	0.617550
N211	N21	0.691700	0.875300	0.692780
N221	N22	0.658000	0.322100	0.114360
N231	N23	0.722200	0.586100	0.874690
N241	N24	0.678700	0.627400	0.802990
O11	O1	0.071730	0.007870	0.845080
O21	O2	0.043410	0.494060	0.650780
O31	O3	0.428270	0.992130	0.345080
O41	O4	0.456590	0.505940	0.150780
O51	O5	0.928270	0.992130	0.154920
O61	O6	0.956590	0.505940	0.349220
O71	O7	0.571730	0.007870	0.654920
O81	O8	0.543410	0.494060	0.849220
