data_MESGIB_freeONLY_PM
_symmetry_space_group_name_H-M	'P1'
_cell_length_a	21.852900
_cell_length_b	15.501900
_cell_length_c	16.898500
_cell_angle_alpha	90.000000
_cell_angle_beta	90.000000
_cell_angle_gamma	90.000000
_symmetry_Int_Tables_number 1

loop_
_symmetry_equiv_pos_as_xyz
'x,y,z'

loop_
_atom_site_label
_atom_site_type_symbol
_atom_site_fract_x
_atom_site_fract_y
_atom_site_fract_z
Ag11	Ag1	0.141220	0.294490	0.453400
Ag21	Ag2	0.146780	0.966800	0.240100
N11	N1	0.114800	0.236800	0.330500
N21	N2	0.110600	0.109700	0.251600
N31	N3	0.195900	0.175300	0.520200
N41	N4	0.199200	0.086300	0.636100
N51	N5	0.231300	0.373200	0.445300
N61	N6	0.310500	0.432300	0.366700
N71	N7	0.054200	0.319500	0.524300
N81	N8	0.054800	0.895300	0.272800
C11	C1	0.093600	0.281000	0.270700
H11	H1	0.086600	0.341100	0.277100
C21	C2	0.080800	0.243400	0.198100
H21	H2	0.066900	0.276500	0.154300
C31	C3	0.089400	0.156900	0.192800
H31	H3	0.079500	0.128900	0.144500
C41	C4	0.122500	0.153400	0.318400
H41	H4	0.138200	0.120800	0.361500
C51	C5	0.255600	0.157800	0.506600
H51	H5	0.275000	0.181700	0.461300
C61	C6	0.288900	0.105900	0.557100
H61	H6	0.330900	0.093900	0.547600
C71	C7	0.258900	0.071900	0.622000
H71	H7	0.281300	0.037000	0.658000
C81	C8	0.171800	0.137300	0.584100
H81	H8	0.129600	0.148300	0.593400
C91	C9	0.266800	0.381300	0.508500
H91	H9	0.252100	0.361700	0.558300
C101	C10	0.324300	0.417100	0.504300
H101	H10	0.348900	0.425300	0.550100
C111	C11	0.344200	0.440500	0.430100
H111	H11	0.384200	0.463700	0.424800
C121	C12	0.253700	0.401000	0.377400
H121	H12	0.227600	0.398700	0.332500
C131	C13	0.054200	0.350100	0.597400
H131	H13	0.092000	0.361400	0.623000
C141	C14	0.053600	0.818600	0.310000
H141	H14	0.091400	0.792000	0.323300
Ag31	Ag3	0.641220	0.794490	0.453400
Ag41	Ag4	0.646780	0.466800	0.240100
N91	N9	0.614800	0.736800	0.330500
N101	N10	0.610600	0.609700	0.251600
N111	N11	0.695900	0.675300	0.520200
N121	N12	0.699200	0.586300	0.636100
N131	N13	0.731300	0.873200	0.445300
N141	N14	0.810500	0.932300	0.366700
N151	N15	0.554200	0.819500	0.524300
N161	N16	0.554800	0.395300	0.272800
C151	C15	0.593600	0.781000	0.270700
H151	H15	0.586600	0.841100	0.277100
C161	C16	0.580800	0.743400	0.198100
H161	H16	0.566900	0.776500	0.154300
C171	C17	0.589400	0.656900	0.192800
H171	H17	0.579500	0.628900	0.144500
C181	C18	0.622500	0.653400	0.318400
H181	H18	0.638200	0.620800	0.361500
C191	C19	0.755600	0.657800	0.506600
H191	H19	0.775000	0.681700	0.461300
C201	C20	0.788900	0.605900	0.557100
H201	H20	0.830900	0.593900	0.547600
C211	C21	0.758900	0.571900	0.622000
H211	H21	0.781300	0.537000	0.658000
C221	C22	0.671800	0.637300	0.584100
H221	H22	0.629600	0.648300	0.593400
C231	C23	0.766800	0.881300	0.508500
H231	H23	0.752100	0.861700	0.558300
C241	C24	0.824300	0.917100	0.504300
H241	H24	0.848900	0.925300	0.550100
C251	C25	0.844200	0.940500	0.430100
H251	H25	0.884200	0.963700	0.424800
C261	C26	0.753700	0.901000	0.377400
H261	H26	0.727600	0.898700	0.332500
C271	C27	0.554200	0.850100	0.597400
H271	H27	0.592000	0.861400	0.623000
C281	C28	0.553600	0.318600	0.310000
H281	H28	0.591400	0.292000	0.323300
Ag51	Ag5	0.858780	0.705510	0.953400
Ag61	Ag6	0.853220	0.033200	0.740100
N171	N17	0.885200	0.763200	0.830500
N181	N18	0.889400	0.890300	0.751600
N191	N19	0.804100	0.824700	0.020200
N201	N20	0.800800	0.913700	0.136100
N211	N21	0.768700	0.626800	0.945300
N221	N22	0.689500	0.567700	0.866700
N231	N23	0.945800	0.680500	0.024300
N241	N24	0.945200	0.104700	0.772800
C291	C29	0.906400	0.719000	0.770700
H291	H29	0.913400	0.658900	0.777100
C301	C30	0.919200	0.756600	0.698100
H301	H30	0.933100	0.723500	0.654300
C311	C31	0.910600	0.843100	0.692800
H311	H31	0.920500	0.871100	0.644500
C321	C32	0.877500	0.846600	0.818400
H321	H32	0.861800	0.879200	0.861500
C331	C33	0.744400	0.842200	0.006600
H331	H33	0.725000	0.818300	0.961300
C341	C34	0.711100	0.894100	0.057100
H341	H34	0.669100	0.906100	0.047600
C351	C35	0.741100	0.928100	0.122000
H351	H35	0.718700	0.963000	0.158000
C361	C36	0.828200	0.862700	0.084100
H361	H36	0.870400	0.851700	0.093400
C371	C37	0.733200	0.618700	0.008500
H371	H37	0.747900	0.638300	0.058300
C381	C38	0.675700	0.582900	0.004300
H381	H38	0.651100	0.574700	0.050100
C391	C39	0.655800	0.559500	0.930100
H391	H39	0.615800	0.536300	0.924800
C401	C40	0.746300	0.599000	0.877400
H401	H40	0.772400	0.601300	0.832500
C411	C41	0.945800	0.649900	0.097400
H411	H41	0.908000	0.638600	0.123000
C421	C42	0.946400	0.181400	0.810000
H421	H42	0.908600	0.208000	0.823300
Ag71	Ag7	0.358780	0.205510	0.953400
Ag81	Ag8	0.353220	0.533200	0.740100
N251	N25	0.385200	0.263200	0.830500
N261	N26	0.389400	0.390300	0.751600
N271	N27	0.304100	0.324700	0.020200
N281	N28	0.300800	0.413700	0.136100
N291	N29	0.268700	0.126800	0.945300
N301	N30	0.189500	0.067700	0.866700
N311	N31	0.445800	0.180500	0.024300
N321	N32	0.445200	0.604700	0.772800
C431	C43	0.406400	0.219000	0.770700
H431	H43	0.413400	0.158900	0.777100
C441	C44	0.419200	0.256600	0.698100
H441	H44	0.433100	0.223500	0.654300
C451	C45	0.410600	0.343100	0.692800
H451	H45	0.420500	0.371100	0.644500
C461	C46	0.377500	0.346600	0.818400
H461	H46	0.361800	0.379200	0.861500
C471	C47	0.244400	0.342200	0.006600
H471	H47	0.225000	0.318300	0.961300
C481	C48	0.211100	0.394100	0.057100
H481	H48	0.169100	0.406100	0.047600
C491	C49	0.241100	0.428100	0.122000
H491	H49	0.218700	0.463000	0.158000
C501	C50	0.328200	0.362700	0.084100
H501	H50	0.370400	0.351700	0.093400
C511	C51	0.233200	0.118700	0.008500
H511	H51	0.247900	0.138300	0.058300
C521	C52	0.175700	0.082900	0.004300
H521	H52	0.151100	0.074700	0.050100
C531	C53	0.155800	0.059500	0.930100
H531	H53	0.115800	0.036300	0.924800
C541	C54	0.246300	0.099000	0.877400
H541	H54	0.272400	0.101300	0.832500
C551	C55	0.445800	0.149900	0.097400
H551	H55	0.408000	0.138600	0.123000
C561	C56	0.446400	0.681400	0.810000
H561	H56	0.408600	0.708000	0.823300
Ag91	Ag9	0.141220	0.705510	0.953400
Ag101	Ag10	0.146780	0.033200	0.740100
N331	N33	0.114800	0.763200	0.830500
N341	N34	0.110600	0.890300	0.751600
N351	N35	0.195900	0.824700	0.020200
N361	N36	0.199200	0.913700	0.136100
N371	N37	0.231300	0.626800	0.945300
N381	N38	0.310500	0.567700	0.866700
N391	N39	0.054200	0.680500	0.024300
N401	N40	0.054800	0.104700	0.772800
C571	C57	0.093600	0.719000	0.770700
H571	H57	0.086600	0.658900	0.777100
C581	C58	0.080800	0.756600	0.698100
H581	H58	0.066900	0.723500	0.654300
C591	C59	0.089400	0.843100	0.692800
H591	H59	0.079500	0.871100	0.644500
C601	C60	0.122500	0.846600	0.818400
H601	H60	0.138200	0.879200	0.861500
C611	C61	0.255600	0.842200	0.006600
H611	H61	0.275000	0.818300	0.961300
C621	C62	0.288900	0.894100	0.057100
H621	H62	0.330900	0.906100	0.047600
C631	C63	0.258900	0.928100	0.122000
H631	H63	0.281300	0.963000	0.158000
C641	C64	0.171800	0.862700	0.084100
H641	H64	0.129600	0.851700	0.093400
C651	C65	0.266800	0.618700	0.008500
H651	H65	0.252100	0.638300	0.058300
C661	C66	0.324300	0.582900	0.004300
H661	H66	0.348900	0.574700	0.050100
C671	C67	0.344200	0.559500	0.930100
H671	H67	0.384200	0.536300	0.924800
C681	C68	0.253700	0.599000	0.877400
H681	H68	0.227600	0.601300	0.832500
C691	C69	0.054200	0.649900	0.097400
H691	H69	0.092000	0.638600	0.123000
C701	C70	0.053600	0.181400	0.810000
H701	H70	0.091400	0.208000	0.823300
Ag111	Ag11	0.641220	0.205510	0.953400
Ag121	Ag12	0.646780	0.533200	0.740100
N411	N41	0.614800	0.263200	0.830500
N421	N42	0.610600	0.390300	0.751600
N431	N43	0.695900	0.324700	0.020200
N441	N44	0.699200	0.413700	0.136100
N451	N45	0.731300	0.126800	0.945300
N461	N46	0.810500	0.067700	0.866700
N471	N47	0.554200	0.180500	0.024300
N481	N48	0.554800	0.604700	0.772800
C711	C71	0.593600	0.219000	0.770700
H711	H71	0.586600	0.158900	0.777100
C721	C72	0.580800	0.256600	0.698100
H721	H72	0.566900	0.223500	0.654300
C731	C73	0.589400	0.343100	0.692800
H731	H73	0.579500	0.371100	0.644500
C741	C74	0.622500	0.346600	0.818400
H741	H74	0.638200	0.379200	0.861500
C751	C75	0.755600	0.342200	0.006600
H751	H75	0.775000	0.318300	0.961300
C761	C76	0.788900	0.394100	0.057100
H761	H76	0.830900	0.406100	0.047600
C771	C77	0.758900	0.428100	0.122000
H771	H77	0.781300	0.463000	0.158000
C781	C78	0.671800	0.362700	0.084100
H781	H78	0.629600	0.351700	0.093400
C791	C79	0.766800	0.118700	0.008500
H791	H79	0.752100	0.138300	0.058300
C801	C80	0.824300	0.082900	0.004300
H801	H80	0.848900	0.074700	0.050100
C811	C81	0.844200	0.059500	0.930100
H811	H81	0.884200	0.036300	0.924800
C821	C82	0.753700	0.099000	0.877400
H821	H82	0.727600	0.101300	0.832500
C831	C83	0.554200	0.149900	0.097400
H831	H83	0.592000	0.138600	0.123000
C841	C84	0.553600	0.681400	0.810000
H841	H84	0.591400	0.708000	0.823300
Ag131	Ag13	0.858780	0.294490	0.453400
Ag141	Ag14	0.853220	0.966800	0.240100
N491	N49	0.885200	0.236800	0.330500
N501	N50	0.889400	0.109700	0.251600
N511	N51	0.804100	0.175300	0.520200
N521	N52	0.800800	0.086300	0.636100
N531	N53	0.768700	0.373200	0.445300
N541	N54	0.689500	0.432300	0.366700
N551	N55	0.945800	0.319500	0.524300
N561	N56	0.945200	0.895300	0.272800
C851	C85	0.906400	0.281000	0.270700
H851	H85	0.913400	0.341100	0.277100
C861	C86	0.919200	0.243400	0.198100
H861	H86	0.933100	0.276500	0.154300
C871	C87	0.910600	0.156900	0.192800
H871	H87	0.920500	0.128900	0.144500
C881	C88	0.877500	0.153400	0.318400
H881	H88	0.861800	0.120800	0.361500
C891	C89	0.744400	0.157800	0.506600
H891	H89	0.725000	0.181700	0.461300
C901	C90	0.711100	0.105900	0.557100
H901	H90	0.669100	0.093900	0.547600
C911	C91	0.741100	0.071900	0.622000
H911	H91	0.718700	0.037000	0.658000
C921	C92	0.828200	0.137300	0.584100
H921	H92	0.870400	0.148300	0.593400
C931	C93	0.733200	0.381300	0.508500
H931	H93	0.747900	0.361700	0.558300
C941	C94	0.675700	0.417100	0.504300
H941	H94	0.651100	0.425300	0.550100
C951	C95	0.655800	0.440500	0.430100
H951	H95	0.615800	0.463700	0.424800
C961	C96	0.746300	0.401000	0.377400
H961	H96	0.772400	0.398700	0.332500
C971	C97	0.945800	0.350100	0.597400
H971	H97	0.908000	0.361400	0.623000
C981	C98	0.946400	0.818600	0.310000
H981	H98	0.908600	0.792000	0.323300
Ag151	Ag15	0.358780	0.794490	0.453400
Ag161	Ag16	0.353220	0.466800	0.240100
N571	N57	0.385200	0.736800	0.330500
N581	N58	0.389400	0.609700	0.251600
N591	N59	0.304100	0.675300	0.520200
N601	N60	0.300800	0.586300	0.636100
N611	N61	0.268700	0.873200	0.445300
N621	N62	0.189500	0.932300	0.366700
N631	N63	0.445800	0.819500	0.524300
N641	N64	0.445200	0.395300	0.272800
C991	C99	0.406400	0.781000	0.270700
H991	H99	0.413400	0.841100	0.277100
C1001	C100	0.419200	0.743400	0.198100
H1001	H100	0.433100	0.776500	0.154300
C1011	C101	0.410600	0.656900	0.192800
H1011	H101	0.420500	0.628900	0.144500
C1021	C102	0.377500	0.653400	0.318400
H1021	H102	0.361800	0.620800	0.361500
C1031	C103	0.244400	0.657800	0.506600
H1031	H103	0.225000	0.681700	0.461300
C1041	C104	0.211100	0.605900	0.557100
H1041	H104	0.169100	0.593900	0.547600
C1051	C105	0.241100	0.571900	0.622000
H1051	H105	0.218700	0.537000	0.658000
C1061	C106	0.328200	0.637300	0.584100
H1061	H106	0.370400	0.648300	0.593400
C1071	C107	0.233200	0.881300	0.508500
H1071	H107	0.247900	0.861700	0.558300
C1081	C108	0.175700	0.917100	0.504300
H1081	H108	0.151100	0.925300	0.550100
C1091	C109	0.155800	0.940500	0.430100
H1091	H109	0.115800	0.963700	0.424800
C1101	C110	0.246300	0.901000	0.377400
H1101	H110	0.272400	0.898700	0.332500
C1111	C111	0.445800	0.850100	0.597400
H1111	H111	0.408000	0.861400	0.623000
C1121	C112	0.446400	0.318600	0.310000
H1121	H112	0.408600	0.292000	0.323300
C1131	C113	0.000000	0.365900	0.637200
H1131	H113	0.000000	0.386900	0.690000
C1141	C114	0.000000	0.305400	0.490300
H1141	H114	0.000000	0.283700	0.437800
C1151	C115	0.000000	0.776900	0.329600
H1151	H115	0.000000	0.722400	0.355300
C1161	C116	0.000000	0.930400	0.259700
H1161	H116	0.000000	0.987100	0.238500
C1171	C117	0.500000	0.865900	0.637200
H1171	H117	0.500000	0.886900	0.690000
C1181	C118	0.500000	0.805400	0.490300
H1181	H118	0.500000	0.783700	0.437800
C1191	C119	0.500000	0.276900	0.329600
H1191	H119	0.500000	0.222400	0.355300
C1201	C120	0.500000	0.430400	0.259700
H1201	H120	0.500000	0.487100	0.238500
C1211	C121	0.000000	0.634100	0.137200
H1211	H121	0.000000	0.613100	0.190000
C1221	C122	0.000000	0.694600	0.990300
H1221	H122	0.000000	0.716300	0.937800
C1231	C123	0.000000	0.223100	0.829600
H1231	H123	0.000000	0.277600	0.855300
C1241	C124	0.000000	0.069600	0.759700
H1241	H124	0.000000	0.012900	0.738500
C1251	C125	0.500000	0.134100	0.137200
H1251	H125	0.500000	0.113100	0.190000
C1261	C126	0.500000	0.194600	0.990300
H1261	H126	0.500000	0.216300	0.937800
C1271	C127	0.500000	0.723100	0.829600
H1271	H127	0.500000	0.777600	0.855300
C1281	C128	0.500000	0.569600	0.759700
H1281	H128	0.500000	0.512900	0.738500
