data_MEXDEY_freeONLY_PM
_symmetry_space_group_name_H-M	'P1'
_cell_length_a	5.160100
_cell_length_b	25.075000
_cell_length_c	14.986000
_cell_angle_alpha	90.000000
_cell_angle_beta	92.610000
_cell_angle_gamma	90.000000
_symmetry_Int_Tables_number 1

loop_
_symmetry_equiv_pos_as_xyz
'x,y,z'

loop_
_atom_site_label
_atom_site_type_symbol
_atom_site_fract_x
_atom_site_fract_y
_atom_site_fract_z
Zn11	Zn1	0.351240	0.219440	0.698900
Zn21	Zn2	0.751480	0.209780	0.877260
Zn31	Zn3	0.843450	0.255960	0.573100
Zn41	Zn4	0.809100	0.042020	0.585680
Zn51	Zn5	0.158620	0.384020	0.751420
Zn61	Zn6	0.414200	0.384270	0.756300
P11	P1	0.324200	0.325270	0.579020
P21	P2	0.852600	0.153910	0.694470
P31	P3	0.268400	0.279800	0.875340
P41	P4	0.310000	0.975250	0.615780
O11	O1	0.131700	0.160140	0.666000
O21	O2	0.700600	0.205230	0.660300
O31	O3	0.398000	0.231360	0.827400
O41	O4	0.193100	0.276480	0.624300
O51	O5	0.978900	0.270560	0.880400
O61	O6	0.198200	0.330180	0.485700
O71	O7	0.839300	0.153080	0.796000
O81	O8	0.406000	0.282960	0.967100
O91	O9	0.614300	0.315310	0.577300
O101	O10	0.606000	0.982650	0.625200
O111	O11	0.177600	0.029010	0.596900
O121	O12	0.724200	0.105220	0.654000
O131	O13	0.250800	0.935620	0.539300
O141	O14	0.327000	0.329470	0.822800
O151	O15	0.270200	0.375650	0.631200
O161	O16	0.215600	0.951770	0.703400
O171	O17	0.777400	0.386500	0.759100
O181	O18	0.671000	0.457500	0.761600
Zn71	Zn7	0.148760	0.719440	0.801100
Zn81	Zn8	0.748520	0.709780	0.622740
Zn91	Zn9	0.656550	0.755960	0.926900
Zn101	Zn10	0.690900	0.542020	0.914320
Zn111	Zn11	0.341380	0.884020	0.748580
Zn121	Zn12	0.085800	0.884270	0.743700
P51	P5	0.175800	0.825270	0.920980
P61	P6	0.647400	0.653910	0.805530
P71	P7	0.231600	0.779800	0.624660
P81	P8	0.190000	0.475250	0.884220
O191	O19	0.368300	0.660140	0.834000
O201	O20	0.799400	0.705230	0.839700
O211	O21	0.102000	0.731360	0.672600
O221	O22	0.306900	0.776480	0.875700
O231	O23	0.521100	0.770560	0.619600
O241	O24	0.301800	0.830180	0.014300
O251	O25	0.660700	0.653080	0.704000
O261	O26	0.094000	0.782960	0.532900
O271	O27	0.885700	0.815310	0.922700
O281	O28	0.894000	0.482650	0.874800
O291	O29	0.322400	0.529010	0.903100
O301	O30	0.775800	0.605220	0.846000
O311	O31	0.249200	0.435620	0.960700
O321	O32	0.173000	0.829470	0.677200
O331	O33	0.229800	0.875650	0.868800
O341	O34	0.284400	0.451770	0.796600
O351	O35	0.722600	0.886500	0.740900
O361	O36	0.829000	0.957500	0.738400
Zn131	Zn13	0.648760	0.780560	0.301100
Zn141	Zn14	0.248520	0.790220	0.122740
Zn151	Zn15	0.156550	0.744040	0.426900
Zn161	Zn16	0.190900	0.957980	0.414320
Zn171	Zn17	0.841380	0.615980	0.248580
Zn181	Zn18	0.585800	0.615730	0.243700
P91	P9	0.675800	0.674730	0.420980
P101	P10	0.147400	0.846090	0.305530
P111	P11	0.731600	0.720200	0.124660
P121	P12	0.690000	0.024750	0.384220
O371	O37	0.868300	0.839860	0.334000
O381	O38	0.299400	0.794770	0.339700
O391	O39	0.602000	0.768640	0.172600
O401	O40	0.806900	0.723520	0.375700
O411	O41	0.021100	0.729440	0.119600
O421	O42	0.801800	0.669820	0.514300
O431	O43	0.160700	0.846920	0.204000
O441	O44	0.594000	0.717040	0.032900
O451	O45	0.385700	0.684690	0.422700
O461	O46	0.394000	0.017350	0.374800
O471	O47	0.822400	0.970990	0.403100
O481	O48	0.275800	0.894780	0.346000
O491	O49	0.749200	0.064380	0.460700
O501	O50	0.673000	0.670530	0.177200
O511	O51	0.729800	0.624350	0.368800
O521	O52	0.784400	0.048230	0.296600
O531	O53	0.222600	0.613500	0.240900
O541	O54	0.329000	0.542500	0.238400
Zn191	Zn19	0.851240	0.280560	0.198900
Zn201	Zn20	0.251480	0.290220	0.377260
Zn211	Zn21	0.343450	0.244040	0.073100
Zn221	Zn22	0.309100	0.457980	0.085680
Zn231	Zn23	0.658620	0.115980	0.251420
Zn241	Zn24	0.914200	0.115730	0.256300
P131	P13	0.824200	0.174730	0.079020
P141	P14	0.352600	0.346090	0.194470
P151	P15	0.768400	0.220200	0.375340
P161	P16	0.810000	0.524750	0.115780
O551	O55	0.631700	0.339860	0.166000
O561	O56	0.200600	0.294770	0.160300
O571	O57	0.898000	0.268640	0.327400
O581	O58	0.693100	0.223520	0.124300
O591	O59	0.478900	0.229440	0.380400
O601	O60	0.698200	0.169820	0.985700
O611	O61	0.339300	0.346920	0.296000
O621	O62	0.906000	0.217040	0.467100
O631	O63	0.114300	0.184690	0.077300
O641	O64	0.106000	0.517350	0.125200
O651	O65	0.677600	0.470990	0.096900
O661	O66	0.224200	0.394780	0.154000
O671	O67	0.750800	0.564380	0.039300
O681	O68	0.827000	0.170530	0.322800
O691	O69	0.770200	0.124350	0.131200
O701	O70	0.715600	0.548230	0.203400
O711	O71	0.277400	0.113500	0.259100
O721	O72	0.171000	0.042500	0.261600
