data_MICPEU_freeONLY_PM
_symmetry_space_group_name_H-M	'P1'
_cell_length_a	12.929900
_cell_length_b	13.180000
_cell_length_c	16.520300
_cell_angle_alpha	111.361000
_cell_angle_beta	108.278000
_cell_angle_gamma	93.778000
_symmetry_Int_Tables_number 1

loop_
_symmetry_equiv_pos_as_xyz
'x,y,z'

loop_
_atom_site_label
_atom_site_type_symbol
_atom_site_fract_x
_atom_site_fract_y
_atom_site_fract_z
Cd11	Cd1	0.382660	0.624790	0.254130
Cd21	Cd2	0.617340	0.375210	0.745870
H11	H1	0.456800	0.799100	0.473800
H21	H2	0.161500	0.674400	0.291100
H31	H3	0.391600	0.895100	0.584000
H41	H4	0.082300	0.762600	0.395100
H51	H5	0.151900	0.849200	0.596200
H61	H6	0.237100	0.959100	0.627800
H71	H7	0.307600	0.844000	0.229600
H81	H8	0.211800	0.538700	0.040400
H91	H9	0.215400	0.909800	0.125900
H101	H10	0.115300	0.602100	0.932700
H111	H11	0.142700	0.815300	0.911500
H121	H12	0.037400	0.741600	0.892300
H131	H13	0.297300	0.364100	0.120100
H141	H14	0.544100	0.561700	0.137300
H151	H15	0.352800	0.212500	0.027500
H161	H16	0.597800	0.420200	0.042200
H171	H17	0.586700	0.223000	0.966300
H181	H18	0.469300	0.181600	0.897900
H191	H19	0.463000	0.445000	0.331000
H201	H20	0.627600	0.745100	0.413300
H211	H21	0.598000	0.412000	0.441000
H221	H22	0.776000	0.708400	0.517300
H231	H23	0.825600	0.587500	0.615000
H241	H24	0.777800	0.463000	0.559000
H251	H25	0.543200	0.200900	0.526200
H261	H26	0.838500	0.325600	0.708900
H271	H27	0.608400	0.104900	0.416000
H281	H28	0.917700	0.237400	0.604900
H291	H29	0.848100	0.150800	0.403800
H301	H30	0.762900	0.040900	0.372200
H311	H31	0.692400	0.156000	0.770400
H321	H32	0.788200	0.461300	0.959600
H331	H33	0.784600	0.090200	0.874100
H341	H34	0.884700	0.397900	0.067300
H351	H35	0.857300	0.184700	0.088500
H361	H36	0.962600	0.258400	0.107700
H371	H37	0.702700	0.635900	0.879900
H381	H38	0.455900	0.438300	0.862700
H391	H39	0.647200	0.787500	0.972500
H401	H40	0.402200	0.579800	0.957800
H411	H41	0.413300	0.777000	0.033700
H421	H42	0.530700	0.818400	0.102100
H431	H43	0.537000	0.555000	0.669000
H441	H44	0.372400	0.254900	0.586700
H451	H45	0.402000	0.588000	0.559000
H461	H46	0.224000	0.291600	0.482700
H471	H47	0.174400	0.412500	0.385000
H481	H48	0.222200	0.537000	0.441000
C11	C1	0.380780	0.789110	0.457780
C21	C2	0.204890	0.714800	0.350100
C31	C3	0.341770	0.846930	0.526230
C41	C4	0.159340	0.769500	0.414510
C51	C5	0.228020	0.837960	0.505190
C61	C6	0.182390	0.902270	0.578720
C71	C7	0.088390	0.952710	0.539540
C81	C8	0.107990	0.053900	0.532920
C91	C9	0.022420	0.099720	0.495490
C101	C10	0.269660	0.796410	0.169450
C111	C11	0.214190	0.618130	0.058130
C121	C12	0.212490	0.837370	0.106480
C131	C13	0.155180	0.653050	0.991190
C141	C14	0.154510	0.765420	0.014440
C151	C15	0.095170	0.802390	0.938420
C161	C16	0.047450	0.904720	0.971300
C171	C17	0.944840	0.897650	0.980650
C181	C18	0.899320	0.990090	0.008460
C191	C19	0.360500	0.371090	0.102790
C201	C20	0.504530	0.489900	0.113160
C211	C21	0.389460	0.280470	0.046570
C221	C22	0.536840	0.403530	0.056360
C231	C23	0.480060	0.295260	0.022180
C241	C24	0.513950	0.198720	0.958970
C251	C25	0.505850	0.096100	0.979670
C261	C26	0.584670	0.088870	0.055070
C271	C27	0.579800	0.995570	0.074980
C281	C28	0.529850	0.499200	0.369700
C291	C29	0.627160	0.672650	0.418750
C301	C30	0.614990	0.473920	0.429200
C311	C31	0.715640	0.653870	0.480930
C321	C32	0.710080	0.552330	0.487260
C331	C33	0.805030	0.528590	0.555210
C341	C34	0.905190	0.515120	0.526480
C351	C35	0.906580	0.419630	0.455560
C361	C36	0.997770	0.404180	0.429450
C371	C37	0.619220	0.210890	0.542220
C381	C38	0.795110	0.285200	0.649900
C391	C39	0.658230	0.153070	0.473770
C401	C40	0.840660	0.230500	0.585490
C411	C41	0.771980	0.162040	0.494810
C421	C42	0.817610	0.097730	0.421280
C431	C43	0.911610	0.047290	0.460460
C441	C44	0.892010	0.946100	0.467080
C451	C45	0.977580	0.900280	0.504510
C461	C46	0.730340	0.203590	0.830550
C471	C47	0.785810	0.381870	0.941870
C481	C48	0.787510	0.162630	0.893520
C491	C49	0.844820	0.346950	0.008810
C501	C50	0.845490	0.234580	0.985560
C511	C51	0.904830	0.197610	0.061580
C521	C52	0.952550	0.095280	0.028700
C531	C53	0.055160	0.102350	0.019350
C541	C54	0.100680	0.009910	0.991540
C551	C55	0.639500	0.628910	0.897210
C561	C56	0.495470	0.510100	0.886840
C571	C57	0.610540	0.719530	0.953430
C581	C58	0.463160	0.596470	0.943640
C591	C59	0.519940	0.704740	0.977820
C601	C60	0.486050	0.801280	0.041030
C611	C61	0.494150	0.903900	0.020330
C621	C62	0.415330	0.911130	0.944930
C631	C63	0.420200	0.004430	0.925020
C641	C64	0.470150	0.500800	0.630300
C651	C65	0.372840	0.327350	0.581250
C661	C66	0.385010	0.526080	0.570800
C671	C67	0.284360	0.346130	0.519070
C681	C68	0.289920	0.447670	0.512740
C691	C69	0.194970	0.471410	0.444790
C701	C70	0.094810	0.484880	0.473520
C711	C71	0.093420	0.580370	0.544440
C721	C72	0.002230	0.595820	0.570550
N11	N1	0.314490	0.723240	0.369940
N21	N2	0.272060	0.688120	0.146780
N31	N3	0.416550	0.475570	0.137690
N41	N4	0.533800	0.597340	0.364130
N51	N5	0.685510	0.276760	0.630060
N61	N6	0.727940	0.311880	0.853220
N71	N7	0.583450	0.524430	0.862310
N81	N8	0.466200	0.402660	0.635870
F11	F1	0.213780	0.108470	0.563760
F21	F2	0.047760	0.199140	0.492770
F31	F3	0.886810	0.797430	0.961250
F41	F4	0.798500	0.975950	0.015860
F51	F5	0.670080	0.176650	0.112360
F61	F6	0.661830	0.995760	0.149350
F71	F7	0.814410	0.337640	0.408980
F81	F8	0.990690	0.308390	0.358440
F91	F9	0.786220	0.891530	0.436240
F101	F10	0.952240	0.800860	0.507230
F111	F11	0.113190	0.202570	0.038750
F121	F12	0.201500	0.024050	0.984140
F131	F13	0.329920	0.823350	0.887640
F141	F14	0.338170	0.004240	0.850650
F151	F15	0.185590	0.662360	0.591020
F161	F16	0.009310	0.691610	0.641560
