data_MIDRAT_freeONLY_PM
_symmetry_space_group_name_H-M	'P1'
_cell_length_a	11.531200
_cell_length_b	14.821900
_cell_length_c	14.821900
_cell_angle_alpha	90.000000
_cell_angle_beta	90.000000
_cell_angle_gamma	90.000000
_symmetry_Int_Tables_number 1

loop_
_symmetry_equiv_pos_as_xyz
'x,y,z'

loop_
_atom_site_label
_atom_site_type_symbol
_atom_site_fract_x
_atom_site_fract_y
_atom_site_fract_z
Zn11	Zn1	0.750000	0.887470	0.112530
Zn21	Zn2	0.250000	0.112530	0.887470
Zn31	Zn3	0.500000	0.387470	0.387470
Zn41	Zn4	0.000000	0.612530	0.612530
H11	H1	0.438600	0.366500	0.089400
H21	H2	0.558400	0.407700	0.053700
H31	H3	0.546300	0.301300	0.069800
H41	H4	0.888500	0.311300	0.291000
H51	H5	0.902100	0.416500	0.269100
H61	H6	0.881800	0.383800	0.370800
H71	H7	0.652300	0.200000	0.218400
H81	H8	0.653800	0.044700	0.212400
H91	H9	0.891800	0.045100	0.022700
H101	H10	0.899600	0.200800	0.023400
H111	H11	0.938600	0.633500	0.910600
H121	H12	0.058400	0.592300	0.946300
H131	H13	0.046300	0.698700	0.930200
H141	H14	0.388500	0.688700	0.709000
H151	H15	0.402100	0.583500	0.730900
H161	H16	0.381800	0.616200	0.629200
H171	H17	0.152300	0.800000	0.781600
H181	H18	0.153800	0.955300	0.787600
H191	H19	0.391800	0.954900	0.977300
H201	H20	0.399600	0.799200	0.976600
H211	H21	0.188600	0.410600	0.866500
H221	H22	0.308400	0.446300	0.907700
H231	H23	0.296300	0.430200	0.801300
H241	H24	0.638500	0.209000	0.811300
H251	H25	0.652100	0.230900	0.916500
H261	H26	0.631800	0.129200	0.883800
H271	H27	0.402300	0.281600	0.700000
H281	H28	0.403800	0.287600	0.544700
H291	H29	0.641800	0.477300	0.545100
H301	H30	0.649600	0.476600	0.700800
H311	H31	0.688600	0.589400	0.133500
H321	H32	0.808400	0.553700	0.092300
H331	H33	0.796300	0.569800	0.198700
H341	H34	0.138500	0.791000	0.188700
H351	H35	0.152100	0.769100	0.083500
H361	H36	0.131800	0.870800	0.116200
H371	H37	0.902300	0.718400	0.300000
H381	H38	0.903800	0.712400	0.455300
H391	H39	0.141800	0.522700	0.454900
H401	H40	0.149600	0.523400	0.299200
H411	H41	0.311400	0.133500	0.589400
H421	H42	0.191600	0.092300	0.553700
H431	H43	0.203700	0.198700	0.569800
H441	H44	0.861500	0.188700	0.791000
H451	H45	0.847900	0.083500	0.769100
H461	H46	0.868200	0.116200	0.870800
H471	H47	0.097700	0.300000	0.718400
H481	H48	0.096200	0.455300	0.712400
H491	H49	0.858200	0.454900	0.522700
H501	H50	0.850400	0.299200	0.523400
H511	H51	0.811400	0.866500	0.410600
H521	H52	0.691600	0.907700	0.446300
H531	H53	0.703700	0.801300	0.430200
H541	H54	0.361500	0.811300	0.209000
H551	H55	0.347900	0.916500	0.230900
H561	H56	0.368200	0.883800	0.129200
H571	H57	0.597700	0.700000	0.281600
H581	H58	0.596200	0.544700	0.287600
H591	H59	0.358200	0.545100	0.477300
H601	H60	0.350400	0.700800	0.476600
H611	H61	0.561400	0.089400	0.366500
H621	H62	0.441600	0.053700	0.407700
H631	H63	0.453700	0.069800	0.301300
H641	H64	0.111500	0.291000	0.311300
H651	H65	0.097900	0.269100	0.416500
H661	H66	0.118200	0.370800	0.383800
H671	H67	0.347700	0.218400	0.200000
H681	H68	0.346200	0.212400	0.044700
H691	H69	0.108200	0.022700	0.045100
H701	H70	0.100400	0.023400	0.200800
H711	H71	0.061400	0.910600	0.633500
H721	H72	0.941600	0.946300	0.592300
H731	H73	0.953700	0.930200	0.698700
H741	H74	0.611500	0.709000	0.688700
H751	H75	0.597900	0.730900	0.583500
H761	H76	0.618200	0.629200	0.616200
H771	H77	0.847700	0.781600	0.800000
H781	H78	0.846200	0.787600	0.955300
H791	H79	0.608200	0.977300	0.954900
H801	H80	0.600400	0.976600	0.799200
C11	C1	0.523200	0.361100	0.091770
C21	C2	0.563800	0.372730	0.187850
C31	C3	0.685300	0.366230	0.207170
C41	C4	0.734200	0.379480	0.294270
C51	C5	0.862800	0.372100	0.307400
C61	C6	0.776600	0.218380	0.121050
C71	C7	0.702300	0.169660	0.177520
C81	C8	0.703100	0.077220	0.172700
C91	C9	0.842000	0.077320	0.062280
C101	C10	0.847700	0.170080	0.062630
C111	C11	0.023200	0.638900	0.908230
C121	C12	0.063800	0.627270	0.812150
C131	C13	0.185300	0.633770	0.792830
C141	C14	0.234200	0.620520	0.705730
C151	C15	0.362800	0.627900	0.692600
C161	C16	0.276600	0.781620	0.878950
C171	C17	0.202300	0.830340	0.822480
C181	C18	0.203100	0.922780	0.827300
C191	C19	0.342000	0.922680	0.937720
C201	C20	0.347700	0.829920	0.937370
C211	C21	0.273200	0.408230	0.861100
C221	C22	0.313800	0.312150	0.872730
C231	C23	0.435300	0.292830	0.866230
C241	C24	0.484200	0.205730	0.879480
C251	C25	0.612800	0.192600	0.872100
C261	C26	0.526600	0.378950	0.718380
C271	C27	0.452300	0.322480	0.669660
C281	C28	0.453100	0.327300	0.577220
C291	C29	0.592000	0.437720	0.577320
C301	C30	0.597700	0.437370	0.670080
C311	C31	0.773200	0.591770	0.138900
C321	C32	0.813800	0.687850	0.127270
C331	C33	0.935300	0.707170	0.133770
C341	C34	0.984200	0.794270	0.120520
C351	C35	0.112800	0.807400	0.127900
C361	C36	0.026600	0.621050	0.281620
C371	C37	0.952300	0.677520	0.330340
C381	C38	0.953100	0.672700	0.422780
C391	C39	0.092000	0.562280	0.422680
C401	C40	0.097700	0.562630	0.329920
C411	C41	0.226800	0.138900	0.591770
C421	C42	0.186200	0.127270	0.687850
C431	C43	0.064700	0.133770	0.707170
C441	C44	0.015800	0.120520	0.794270
C451	C45	0.887200	0.127900	0.807400
C461	C46	0.973400	0.281620	0.621050
C471	C47	0.047700	0.330340	0.677520
C481	C48	0.046900	0.422780	0.672700
C491	C49	0.908000	0.422680	0.562280
C501	C50	0.902300	0.329920	0.562630
C511	C51	0.726800	0.861100	0.408230
C521	C52	0.686200	0.872730	0.312150
C531	C53	0.564700	0.866230	0.292830
C541	C54	0.515800	0.879480	0.205730
C551	C55	0.387200	0.872100	0.192600
C561	C56	0.473400	0.718380	0.378950
C571	C57	0.547700	0.669660	0.322480
C581	C58	0.546900	0.577220	0.327300
C591	C59	0.408000	0.577320	0.437720
C601	C60	0.402300	0.670080	0.437370
C611	C61	0.476800	0.091770	0.361100
C621	C62	0.436200	0.187850	0.372730
C631	C63	0.314700	0.207170	0.366230
C641	C64	0.265800	0.294270	0.379480
C651	C65	0.137200	0.307400	0.372100
C661	C66	0.223400	0.121050	0.218380
C671	C67	0.297700	0.177520	0.169660
C681	C68	0.296900	0.172700	0.077220
C691	C69	0.158000	0.062280	0.077320
C701	C70	0.152300	0.062630	0.170080
C711	C71	0.976800	0.908230	0.638900
C721	C72	0.936200	0.812150	0.627270
C731	C73	0.814700	0.792830	0.633770
C741	C74	0.765800	0.705730	0.620520
C751	C75	0.637200	0.692600	0.627900
C761	C76	0.723400	0.878950	0.781620
C771	C77	0.797700	0.822480	0.830340
C781	C78	0.796900	0.827300	0.922780
C791	C79	0.658000	0.937720	0.922680
C801	C80	0.652300	0.937370	0.829920
S11	S1	0.779790	0.337060	0.118580
S21	S2	0.279790	0.662940	0.881420
S31	S3	0.529790	0.381420	0.837060
S41	S4	0.029790	0.618580	0.162940
S51	S5	0.970210	0.162940	0.618580
S61	S6	0.470210	0.837060	0.381420
S71	S7	0.220210	0.118580	0.337060
S81	S8	0.720210	0.881420	0.662940
N11	N1	0.769400	0.030010	0.115230
N21	N2	0.269400	0.969990	0.884770
N31	N3	0.519400	0.384770	0.530010
N41	N4	0.019400	0.615230	0.469990
N51	N5	0.980600	0.469990	0.615230
N61	N6	0.480600	0.530010	0.384770
N71	N7	0.230600	0.115230	0.030010
N81	N8	0.730600	0.884770	0.969990
O11	O1	0.487130	0.387010	0.246050
O21	O2	0.676030	0.397330	0.364870
O31	O3	0.987130	0.612990	0.753950
O41	O4	0.176030	0.602670	0.635130
O51	O5	0.237130	0.253950	0.887010
O61	O6	0.426030	0.135130	0.897330
O71	O7	0.737130	0.746050	0.112990
O81	O8	0.926030	0.864870	0.102670
O91	O9	0.262870	0.112990	0.746050
O101	O10	0.073970	0.102670	0.864870
O111	O11	0.762870	0.887010	0.253950
O121	O12	0.573970	0.897330	0.135130
O131	O13	0.512870	0.246050	0.387010
O141	O14	0.323970	0.364870	0.397330
O151	O15	0.012870	0.753950	0.612990
O161	O16	0.823970	0.635130	0.602670
