data_MIFNUM_freeONLY_PM
_symmetry_space_group_name_H-M	'P1'
_cell_length_a	10.998000
_cell_length_b	32.897800
_cell_length_c	32.897800
_cell_angle_alpha	88.398900
_cell_angle_beta	80.377600
_cell_angle_gamma	80.377700
_symmetry_Int_Tables_number 1

loop_
_symmetry_equiv_pos_as_xyz
'x,y,z'

loop_
_atom_site_label
_atom_site_type_symbol
_atom_site_fract_x
_atom_site_fract_y
_atom_site_fract_z
Dy11	Dy1	0.810750	0.973440	0.171460
Dy21	Dy2	0.308540	0.975560	0.175360
Dy31	Dy3	0.455650	0.526560	0.328540
Dy41	Dy4	0.959460	0.524440	0.324640
Dy51	Dy5	0.982210	0.828540	0.473440
Dy61	Dy6	0.483900	0.824640	0.475560
Dy71	Dy7	0.784190	0.671460	0.026560
Dy81	Dy8	0.284100	0.675360	0.024440
Dy91	Dy9	0.189250	0.026560	0.828540
Dy101	Dy10	0.691460	0.024440	0.824640
Dy111	Dy11	0.544350	0.473440	0.671460
Dy121	Dy12	0.040540	0.475560	0.675360
Dy131	Dy13	0.017790	0.171460	0.526560
Dy141	Dy14	0.516100	0.175360	0.524440
Dy151	Dy15	0.215810	0.328540	0.973440
Dy161	Dy16	0.715900	0.324640	0.975560
Co11	Co1	0.289510	0.128540	0.036180
Co21	Co2	0.954230	0.371460	0.463820
Co31	Co3	0.325690	0.963820	0.628540
Co41	Co4	0.418050	0.536180	0.871460
Co51	Co5	0.710490	0.871460	0.963820
Co61	Co6	0.045770	0.628540	0.536180
Co71	Co7	0.674310	0.036180	0.371460
Co81	Co8	0.581950	0.463820	0.128540
H11	H1	0.640000	0.923000	0.167000
H21	H2	0.681000	0.913000	0.205000
H31	H3	0.663000	0.126800	0.220800
H41	H4	0.825500	0.129500	0.257900
H51	H5	0.844500	0.087800	0.313400
H61	H6	0.418800	0.001000	0.395800
H71	H7	0.310500	0.962600	0.362000
H81	H8	0.363800	0.956300	0.289500
H91	H9	0.537800	0.845300	0.134100
H101	H10	0.649000	0.788300	0.094300
H111	H11	0.750800	0.800100	0.027700
H121	H12	0.640600	0.968600	0.941200
H131	H13	0.661200	0.028700	0.972100
H141	H14	0.701900	0.026900	0.038900
H151	H15	0.942700	0.017700	0.060900
H161	H16	0.931500	0.061700	0.005700
H171	H17	0.055100	0.112100	0.996300
H181	H18	0.417300	0.139500	0.113500
H191	H19	0.347100	0.149200	0.181200
H201	H20	0.158800	0.129600	0.210600
H211	H21	0.112800	0.852600	0.138600
H221	H22	0.270800	0.789200	0.134800
H231	H23	0.279800	0.762500	0.202300
H241	H24	0.963900	0.870600	0.367200
H251	H25	0.011700	0.931100	0.373500
H261	H26	0.099100	0.958300	0.312700
H271	H27	0.168400	0.046600	0.212200
H281	H28	0.293700	0.049200	0.215600
H291	H29	0.379100	0.046900	0.134100
H301	H30	0.479900	0.014800	0.121600
H311	H31	0.127300	0.918200	0.161800
H321	H32	0.261200	0.896200	0.137400
H331	H33	0.904900	0.027000	0.219200
H341	H34	0.971400	0.987400	0.226200
H351	H35	0.688900	0.051600	0.151000
H361	H36	0.817300	0.055900	0.148300
H371	H37	0.230000	0.577000	0.333000
H381	H38	0.299000	0.587000	0.295000
H391	H39	0.510600	0.373200	0.279200
H401	H40	0.712900	0.370500	0.242100
H411	H41	0.745700	0.412200	0.186600
H421	H42	0.315600	0.499000	0.104200
H431	H43	0.135100	0.537400	0.138000
H441	H44	0.109600	0.543700	0.210500
H451	H45	0.017200	0.654700	0.365900
H461	H46	0.031600	0.711700	0.405700
H471	H47	0.078600	0.699900	0.472300
H481	H48	0.050400	0.531400	0.558800
H491	H49	0.162000	0.471300	0.527900
H501	H50	0.267700	0.473100	0.461100
H511	H51	0.521300	0.482300	0.439100
H521	H52	0.498900	0.438300	0.494300
H531	H53	0.663500	0.387900	0.503700
H541	H54	0.170300	0.360500	0.386500
H551	H55	0.177500	0.350800	0.318800
H561	H56	0.999000	0.370400	0.289400
H571	H57	0.604000	0.647400	0.361400
H581	H58	0.694800	0.710800	0.365200
H591	H59	0.744600	0.737500	0.297700
H601	H60	0.701700	0.629400	0.132800
H611	H61	0.816300	0.568900	0.126500
H621	H62	0.870100	0.541700	0.187300
H631	H63	0.927200	0.453400	0.287800
H641	H64	0.058500	0.450800	0.284400
H651	H65	0.060100	0.453100	0.365900
H661	H66	0.116300	0.485200	0.378400
H671	H67	0.707300	0.581800	0.338200
H681	H68	0.794800	0.603800	0.362600
H691	H69	0.651100	0.473000	0.280800
H701	H70	0.685000	0.512600	0.273800
H711	H71	0.391500	0.448400	0.349000
H721	H72	0.521500	0.444100	0.351700
H731	H73	0.807000	0.833000	0.423000
H741	H74	0.886000	0.795000	0.413000
H751	H75	0.883800	0.779200	0.626800
H761	H76	0.083400	0.742100	0.629500
H771	H77	0.157900	0.686600	0.587800
H781	H78	0.814600	0.604200	0.501000
H791	H79	0.672500	0.638000	0.462600
H801	H80	0.653300	0.710500	0.456300
H811	H81	0.671900	0.865900	0.345300
H821	H82	0.743300	0.905700	0.288300
H831	H83	0.778500	0.972300	0.300100
H841	H84	0.581800	0.058800	0.468600
H851	H85	0.633300	0.027900	0.528700
H861	H86	0.740800	0.961100	0.526900
H871	H87	0.003600	0.939100	0.517700
H881	H88	0.937200	0.994300	0.561700
H891	H89	0.051400	0.003700	0.612100
H901	H90	0.530800	0.886500	0.639500
H911	H91	0.528300	0.818800	0.649200
H921	H92	0.369400	0.789400	0.629600
H931	H93	0.251400	0.861400	0.352600
H941	H94	0.405600	0.865200	0.289200
H951	H95	0.482100	0.797700	0.262500
H961	H96	0.331100	0.632800	0.370600
H971	H97	0.385200	0.626500	0.431100
H981	H98	0.411800	0.687300	0.458300
H991	H99	0.380600	0.787800	0.546600
H1001	H100	0.509300	0.784400	0.549200
H1011	H101	0.513200	0.865900	0.546900
H1021	H102	0.601500	0.878400	0.514800
H1031	H103	0.289100	0.838200	0.418200
H1041	H104	0.398600	0.862600	0.396200
H1051	H105	0.124100	0.780800	0.527000
H1061	H106	0.197600	0.773800	0.487400
H1071	H107	0.839900	0.849000	0.551600
H1081	H108	0.965600	0.851700	0.555900
H1091	H109	0.563000	0.667000	0.077000
H1101	H110	0.594000	0.705000	0.087000
H1111	H111	0.789800	0.720800	0.873200
H1121	H112	0.955000	0.757900	0.870500
H1131	H113	0.932300	0.813400	0.912200
H1141	H114	0.419800	0.895800	0.999000
H1151	H115	0.273100	0.862000	0.037400
H1161	H116	0.320100	0.789500	0.043700
H1171	H117	0.383100	0.634100	0.154700
H1181	H118	0.437300	0.594300	0.211700
H1191	H119	0.550900	0.527700	0.199900
H1201	H120	0.609200	0.441200	0.031400
H1211	H121	0.689900	0.472100	0.971300
H1221	H122	0.728800	0.538900	0.973100
H1231	H123	0.960400	0.560900	0.982300
H1241	H124	0.993200	0.505700	0.938300
H1251	H125	0.167200	0.496300	0.887900
H1261	H126	0.556800	0.613500	0.860500
H1271	H127	0.496300	0.681200	0.850800
H1281	H128	0.288400	0.710600	0.870400
H1291	H129	0.965400	0.638600	0.147400
H1301	H130	0.060000	0.634800	0.210800
H1311	H131	0.042300	0.702300	0.237500
H1321	H132	0.834500	0.867200	0.129400
H1331	H133	0.942800	0.873500	0.068900
H1341	H134	0.057400	0.812700	0.041700
H1351	H135	0.215000	0.712200	0.953400
H1361	H136	0.342900	0.715600	0.950800
H1371	H137	0.426000	0.634100	0.953100
H1381	H138	0.494700	0.621600	0.985200
H1391	H139	0.045500	0.661800	0.081800
H1401	H140	0.157400	0.637400	0.103800
H1411	H141	0.931900	0.719200	0.973000
H1421	H142	0.958800	0.726200	0.012600
H1431	H143	0.740500	0.651000	0.948400
H1441	H144	0.873200	0.648300	0.944100
H1451	H145	0.360000	0.077000	0.833000
H1461	H146	0.319000	0.087000	0.795000
H1471	H147	0.337000	0.873200	0.779200
H1481	H148	0.174500	0.870500	0.742100
H1491	H149	0.155500	0.912200	0.686600
H1501	H150	0.581200	0.999000	0.604200
H1511	H151	0.689500	0.037400	0.638000
H1521	H152	0.636200	0.043700	0.710500
H1531	H153	0.462200	0.154700	0.865900
H1541	H154	0.351000	0.211700	0.905700
H1551	H155	0.249200	0.199900	0.972300
H1561	H156	0.359400	0.031400	0.058800
H1571	H157	0.338800	0.971300	0.027900
H1581	H158	0.298100	0.973100	0.961100
H1591	H159	0.057300	0.982300	0.939100
H1601	H160	0.068500	0.938300	0.994300
H1611	H161	0.944900	0.887900	0.003700
H1621	H162	0.582700	0.860500	0.886500
H1631	H163	0.652900	0.850800	0.818800
H1641	H164	0.841200	0.870400	0.789400
H1651	H165	0.887200	0.147400	0.861400
H1661	H166	0.729200	0.210800	0.865200
H1671	H167	0.720200	0.237500	0.797700
H1681	H168	0.036100	0.129400	0.632800
H1691	H169	0.988300	0.068900	0.626500
H1701	H170	0.900900	0.041700	0.687300
H1711	H171	0.831600	0.953400	0.787800
H1721	H172	0.706300	0.950800	0.784400
H1731	H173	0.620900	0.953100	0.865900
H1741	H174	0.520100	0.985200	0.878400
H1751	H175	0.872700	0.081800	0.838200
H1761	H176	0.738800	0.103800	0.862600
H1771	H177	0.095100	0.973000	0.780800
H1781	H178	0.028600	0.012600	0.773800
H1791	H179	0.311100	0.948400	0.849000
H1801	H180	0.182700	0.944100	0.851700
H1811	H181	0.770000	0.423000	0.667000
H1821	H182	0.701000	0.413000	0.705000
H1831	H183	0.489400	0.626800	0.720800
H1841	H184	0.287100	0.629500	0.757900
H1851	H185	0.254300	0.587800	0.813400
H1861	H186	0.684400	0.501000	0.895800
H1871	H187	0.864900	0.462600	0.862000
H1881	H188	0.890400	0.456300	0.789500
H1891	H189	0.982800	0.345300	0.634100
H1901	H190	0.968400	0.288300	0.594300
H1911	H191	0.921400	0.300100	0.527700
H1921	H192	0.949600	0.468600	0.441200
H1931	H193	0.838000	0.528700	0.472100
H1941	H194	0.732300	0.526900	0.538900
H1951	H195	0.478700	0.517700	0.560900
H1961	H196	0.501100	0.561700	0.505700
H1971	H197	0.336500	0.612100	0.496300
H1981	H198	0.829700	0.639500	0.613500
H1991	H199	0.822500	0.649200	0.681200
H2001	H200	0.001000	0.629600	0.710600
H2011	H201	0.396000	0.352600	0.638600
H2021	H202	0.305200	0.289200	0.634800
H2031	H203	0.255400	0.262500	0.702300
H2041	H204	0.298300	0.370600	0.867200
H2051	H205	0.183700	0.431100	0.873500
H2061	H206	0.129900	0.458300	0.812700
H2071	H207	0.072800	0.546600	0.712200
H2081	H208	0.941500	0.549200	0.715600
H2091	H209	0.939900	0.546900	0.634100
H2101	H210	0.883700	0.514800	0.621600
H2111	H211	0.292700	0.418200	0.661800
H2121	H212	0.205200	0.396200	0.637400
H2131	H213	0.348900	0.527000	0.719200
H2141	H214	0.315000	0.487400	0.726200
H2151	H215	0.608500	0.551600	0.651000
H2161	H216	0.478500	0.555900	0.648300
H2171	H217	0.193000	0.167000	0.577000
H2181	H218	0.114000	0.205000	0.587000
H2191	H219	0.116200	0.220800	0.373200
H2201	H220	0.916600	0.257900	0.370500
H2211	H221	0.842100	0.313400	0.412200
H2221	H222	0.185400	0.395800	0.499000
H2231	H223	0.327500	0.362000	0.537400
H2241	H224	0.346700	0.289500	0.543700
H2251	H225	0.328100	0.134100	0.654700
H2261	H226	0.256700	0.094300	0.711700
H2271	H227	0.221500	0.027700	0.699900
H2281	H228	0.418200	0.941200	0.531400
H2291	H229	0.366700	0.972100	0.471300
H2301	H230	0.259200	0.038900	0.473100
H2311	H231	0.996400	0.060900	0.482300
H2321	H232	0.062800	0.005700	0.438300
H2331	H233	0.948600	0.996300	0.387900
H2341	H234	0.469200	0.113500	0.360500
H2351	H235	0.471700	0.181200	0.350800
H2361	H236	0.630600	0.210600	0.370400
H2371	H237	0.748600	0.138600	0.647400
H2381	H238	0.594400	0.134800	0.710800
H2391	H239	0.517900	0.202300	0.737500
H2401	H240	0.668900	0.367200	0.629400
H2411	H241	0.614800	0.373500	0.568900
H2421	H242	0.588200	0.312700	0.541700
H2431	H243	0.619400	0.212200	0.453400
H2441	H244	0.490700	0.215600	0.450800
H2451	H245	0.486800	0.134100	0.453100
H2461	H246	0.398500	0.121600	0.485200
H2471	H247	0.710900	0.161800	0.581800
H2481	H248	0.601400	0.137400	0.603800
H2491	H249	0.875900	0.219200	0.473000
H2501	H250	0.802400	0.226200	0.512600
H2511	H251	0.160100	0.151000	0.448400
H2521	H252	0.034400	0.148300	0.444100
H2531	H253	0.437000	0.333000	0.923000
H2541	H254	0.406000	0.295000	0.913000
H2551	H255	0.210200	0.279200	0.126800
H2561	H256	0.045000	0.242100	0.129500
H2571	H257	0.067700	0.186600	0.087800
H2581	H258	0.580200	0.104200	0.001000
H2591	H259	0.726900	0.138000	0.962600
H2601	H260	0.679900	0.210500	0.956300
H2611	H261	0.616900	0.365900	0.845300
H2621	H262	0.562700	0.405700	0.788300
H2631	H263	0.449100	0.472300	0.800100
H2641	H264	0.390800	0.558800	0.968600
H2651	H265	0.310100	0.527900	0.028700
H2661	H266	0.271200	0.461100	0.026900
H2671	H267	0.039600	0.439100	0.017700
H2681	H268	0.006800	0.494300	0.061700
H2691	H269	0.832800	0.503700	0.112100
H2701	H270	0.443200	0.386500	0.139500
H2711	H271	0.503700	0.318800	0.149200
H2721	H272	0.711600	0.289400	0.129600
H2731	H273	0.034600	0.361400	0.852600
H2741	H274	0.940000	0.365200	0.789200
H2751	H275	0.957700	0.297700	0.762500
H2761	H276	0.165500	0.132800	0.870600
H2771	H277	0.057200	0.126500	0.931100
H2781	H278	0.942600	0.187300	0.958300
H2791	H279	0.785000	0.287800	0.046600
H2801	H280	0.657100	0.284400	0.049200
H2811	H281	0.574000	0.365900	0.046900
H2821	H282	0.505300	0.378400	0.014800
H2831	H283	0.954500	0.338200	0.918200
H2841	H284	0.842600	0.362600	0.896200
H2851	H285	0.068100	0.280800	0.027000
H2861	H286	0.041200	0.273800	0.987400
H2871	H287	0.259500	0.349000	0.051600
H2881	H288	0.126800	0.351700	0.055900
C11	C1	0.488600	0.078900	0.230500
C21	C2	0.595400	0.079900	0.254700
C31	C3	0.674400	0.109200	0.242800
C41	C4	0.770000	0.111000	0.265400
C51	C5	0.781500	0.085600	0.298400
C61	C6	0.614800	0.054600	0.288200
C71	C7	0.530800	0.024600	0.305800
C81	C8	0.432600	0.000900	0.367100
C91	C9	0.370500	0.976600	0.347200
C101	C10	0.400200	0.973600	0.303800
C111	C11	0.485300	0.997400	0.282800
C121	C12	0.531200	0.988800	0.237400
C131	C13	0.488300	0.923700	0.112900
C141	C14	0.579900	0.888300	0.090300
C151	C15	0.580100	0.848900	0.107700
C161	C16	0.646200	0.815000	0.084000
C171	C17	0.708800	0.822600	0.043600
C181	C18	0.650800	0.892600	0.051600
C191	C19	0.662500	0.931900	0.030700
C201	C20	0.649700	0.968500	0.968700
C211	C21	0.665500	0.004100	0.986900
C221	C22	0.687500	0.003200	0.027000
C231	C23	0.688000	0.967500	0.049300
C241	C24	0.731300	0.964400	0.091800
C251	C25	0.066500	0.017600	0.123800
C261	C26	0.053300	0.048100	0.090700
C271	C27	0.984600	0.040200	0.058600
C281	C28	0.980800	0.065600	0.025200
C291	C29	0.050400	0.097000	0.020600
C301	C30	0.108300	0.083100	0.085500
C311	C31	0.171700	0.100800	0.116800
C321	C32	0.342300	0.130900	0.124700
C331	C33	0.301100	0.137000	0.165200
C341	C34	0.190000	0.124900	0.182700
C351	C35	0.126600	0.106000	0.158800
C361	C36	0.007500	0.091300	0.178100
C371	C37	0.974700	0.902200	0.196200
C381	C38	0.079500	0.862400	0.200400
C391	C39	0.135900	0.840900	0.162900
C401	C40	0.227500	0.802100	0.158900
C411	C41	0.234700	0.788800	0.199600
C421	C42	0.119300	0.848400	0.235000
C431	C43	0.077800	0.872800	0.273000
C441	C44	0.000300	0.881700	0.342700
C451	C45	0.027100	0.917400	0.348400
C461	C46	0.081000	0.931600	0.312600
C471	C47	0.113200	0.910400	0.274400
C481	C48	0.184700	0.929900	0.239500
C491	C49	0.298000	0.421100	0.269500
C501	C50	0.430000	0.420100	0.245300
C511	C51	0.526400	0.390800	0.257200
C521	C52	0.646400	0.389000	0.234600
C531	C53	0.665500	0.414400	0.201600
C541	C54	0.457600	0.445400	0.211800
C551	C55	0.361200	0.475400	0.194200
C561	C56	0.300600	0.499100	0.132900
C571	C57	0.194300	0.523400	0.152800
C581	C58	0.177600	0.526400	0.196200
C591	C59	0.265500	0.502600	0.217200
C601	C60	0.257400	0.511200	0.262600
C611	C61	0.024900	0.576300	0.387100
C621	C62	0.058500	0.611700	0.409700
C631	C63	0.036700	0.651100	0.392300
C641	C64	0.045200	0.685000	0.416000
C651	C65	0.075000	0.677400	0.456400
C661	C66	0.095000	0.607400	0.448400
C671	C67	0.125100	0.568100	0.469300
C681	C68	0.086900	0.531500	0.531300
C691	C69	0.156500	0.495900	0.513100
C701	C70	0.217700	0.496800	0.473000
C711	C71	0.204800	0.532500	0.450700
C721	C72	0.287500	0.535600	0.408200
C731	C73	0.707900	0.482400	0.376200
C741	C74	0.692100	0.451900	0.409300
C751	C75	0.583400	0.459800	0.441400
C761	C76	0.571600	0.434400	0.474800
C771	C77	0.668000	0.403000	0.479400
C781	C78	0.776900	0.416900	0.414500
C791	C79	0.889300	0.399200	0.383200
C801	C80	0.097900	0.369100	0.375300
C811	C81	0.103300	0.363000	0.334800
C821	C82	0.997600	0.375100	0.317300
C831	C83	0.891400	0.394000	0.341200
C841	C84	0.776900	0.408700	0.321900
C851	C85	0.573100	0.597800	0.303800
C861	C86	0.642300	0.637600	0.299600
C871	C87	0.639700	0.659100	0.337100
C881	C88	0.688500	0.697900	0.341100
C891	C89	0.723100	0.711200	0.300400
C901	C90	0.702700	0.651600	0.265000
C911	C91	0.723600	0.627200	0.227000
C921	C92	0.724700	0.618300	0.157300
C931	C93	0.792900	0.582600	0.151600
C941	C94	0.825200	0.568400	0.187400
C951	C95	0.798000	0.589600	0.225600
C961	C96	0.854100	0.570100	0.260500
C971	C97	0.719100	0.769500	0.578900
C981	C98	0.850100	0.745300	0.579900
C991	C99	0.917200	0.757200	0.609200
C1001	C100	0.035400	0.734600	0.611000
C1011	C101	0.079900	0.701600	0.585600
C1021	C102	0.903000	0.711800	0.554600
C1031	C103	0.836600	0.694200	0.524600
C1041	C104	0.799700	0.632900	0.500900
C1051	C105	0.717700	0.652800	0.476600
C1061	C106	0.704000	0.696200	0.473600
C1071	C107	0.768100	0.717200	0.497400
C1081	C108	0.768600	0.762600	0.488800
C1091	C109	0.601200	0.887100	0.423700
C1101	C110	0.670200	0.909700	0.388300
C1111	C111	0.687800	0.892300	0.348900
C1121	C112	0.730200	0.916000	0.315000
C1131	C113	0.752400	0.956400	0.322600
C1141	C114	0.702400	0.948400	0.392600
C1151	C115	0.693200	0.969300	0.431900
C1161	C116	0.618400	0.031300	0.468500
C1171	C117	0.652400	0.013100	0.504100
C1181	C118	0.714500	0.973000	0.503200
C1191	C119	0.737300	0.950700	0.467500
C1201	C120	0.823100	0.908200	0.464400
C1211	C121	0.190300	0.876200	0.517600
C1221	C122	0.144000	0.909300	0.548100
C1231	C123	0.043200	0.941400	0.540200
C1241	C124	0.006000	0.974800	0.565600
C1251	C125	0.071000	0.979400	0.597000
C1261	C126	0.193800	0.914500	0.583100
C1271	C127	0.288500	0.883200	0.600800
C1281	C128	0.467000	0.875300	0.630900
C1291	C129	0.466300	0.834800	0.637000
C1301	C130	0.372700	0.817300	0.624900
C1311	C131	0.285400	0.841200	0.606000
C1321	C132	0.185600	0.821900	0.591300
C1331	C133	0.170900	0.803800	0.402200
C1341	C134	0.279900	0.799600	0.362400
C1351	C135	0.298800	0.837100	0.340900
C1361	C136	0.386400	0.841100	0.302100
C1371	C137	0.434300	0.800400	0.288800
C1381	C138	0.354300	0.765000	0.348400
C1391	C139	0.350800	0.727000	0.372800
C1401	C140	0.343000	0.657300	0.381700
C1411	C141	0.375500	0.651600	0.417400
C1421	C142	0.393600	0.687400	0.431600
C1431	C143	0.387600	0.725600	0.410400
C1441	C144	0.424200	0.760500	0.429900
C1451	C145	0.567500	0.730500	0.921100
C1461	C146	0.675300	0.754700	0.920100
C1471	C147	0.783600	0.742800	0.890800
C1481	C148	0.881000	0.765400	0.889000
C1491	C149	0.867100	0.798400	0.914400
C1501	C150	0.669400	0.788200	0.945400
C1511	C151	0.555400	0.805800	0.975400
C1521	C152	0.433500	0.867100	0.999100
C1531	C153	0.347100	0.847200	0.023400
C1541	C154	0.373800	0.803800	0.026400
C1551	C155	0.482700	0.782800	0.002600
C1561	C156	0.520000	0.737400	0.011200
C1571	C157	0.412000	0.612900	0.076300
C1581	C158	0.468200	0.590300	0.111700
C1591	C159	0.429000	0.607700	0.151100
C1601	C160	0.461200	0.584000	0.185000
C1611	C161	0.531400	0.543600	0.177400
C1621	C162	0.543400	0.551600	0.107400
C1631	C163	0.594400	0.530700	0.068100
C1641	C164	0.618200	0.468700	0.031500
C1651	C165	0.669600	0.486900	0.995900
C1661	C166	0.690700	0.527000	0.996800
C1671	C167	0.655500	0.549300	0.032500
C1681	C168	0.695700	0.591800	0.035600
C1691	C169	0.084100	0.623800	0.982400
C1701	C170	0.101400	0.590700	0.951900
C1711	C171	0.024800	0.558600	0.959800
C1721	C172	0.046400	0.525200	0.934400
C1731	C173	0.147400	0.520600	0.903000
C1741	C174	0.191400	0.585500	0.916900
C1751	C175	0.272500	0.616800	0.899200
C1761	C176	0.473200	0.624700	0.869100
C1771	C177	0.438100	0.665200	0.863000
C1781	C178	0.314900	0.682700	0.875100
C1791	C179	0.232600	0.658800	0.894000
C1801	C180	0.098800	0.678100	0.908700
C1811	C181	0.876900	0.696200	0.097800
C1821	C182	0.941900	0.700400	0.137600
C1831	C183	0.976800	0.662900	0.159100
C1841	C184	0.029600	0.658900	0.197900
C1851	C185	0.023500	0.699600	0.211200
C1861	C186	0.967700	0.735000	0.151600
C1871	C187	0.950600	0.773000	0.127200
C1881	C188	0.882000	0.842700	0.118300
C1891	C189	0.944500	0.848400	0.082600
C1901	C190	0.012600	0.812600	0.068400
C1911	C191	0.023600	0.774400	0.089600
C1921	C192	0.114600	0.739500	0.070100
C1931	C193	0.511400	0.921100	0.769500
C1941	C194	0.404600	0.920100	0.745300
C1951	C195	0.325600	0.890800	0.757200
C1961	C196	0.230000	0.889000	0.734600
C1971	C197	0.218500	0.914400	0.701600
C1981	C198	0.385200	0.945400	0.711800
C1991	C199	0.469200	0.975400	0.694200
C2001	C200	0.567400	0.999100	0.632900
C2011	C201	0.629500	0.023400	0.652800
C2021	C202	0.599800	0.026400	0.696200
C2031	C203	0.514700	0.002600	0.717200
C2041	C204	0.468800	0.011200	0.762600
C2051	C205	0.511700	0.076300	0.887100
C2061	C206	0.420100	0.111700	0.909700
C2071	C207	0.419900	0.151100	0.892300
C2081	C208	0.353800	0.185000	0.916000
C2091	C209	0.291200	0.177400	0.956400
C2101	C210	0.349200	0.107400	0.948400
C2111	C211	0.337500	0.068100	0.969300
C2121	C212	0.350300	0.031500	0.031300
C2131	C213	0.334500	0.995900	0.013100
C2141	C214	0.312500	0.996800	0.973000
C2151	C215	0.312000	0.032500	0.950700
C2161	C216	0.268700	0.035600	0.908200
C2171	C217	0.933500	0.982400	0.876200
C2181	C218	0.946700	0.951900	0.909300
C2191	C219	0.015400	0.959800	0.941400
C2201	C220	0.019200	0.934400	0.974800
C2211	C221	0.949600	0.903000	0.979400
C2221	C222	0.891700	0.916900	0.914500
C2231	C223	0.828300	0.899200	0.883200
C2241	C224	0.657700	0.869100	0.875300
C2251	C225	0.698900	0.863000	0.834800
C2261	C226	0.810000	0.875100	0.817300
C2271	C227	0.873400	0.894000	0.841200
C2281	C228	0.992500	0.908700	0.821900
C2291	C229	0.025300	0.097800	0.803800
C2301	C230	0.920500	0.137600	0.799600
C2311	C231	0.864100	0.159100	0.837100
C2321	C232	0.772500	0.197900	0.841100
C2331	C233	0.765300	0.211200	0.800400
C2341	C234	0.880700	0.151600	0.765000
C2351	C235	0.922200	0.127200	0.727000
C2361	C236	0.999700	0.118300	0.657300
C2371	C237	0.972900	0.082600	0.651600
C2381	C238	0.919000	0.068400	0.687400
C2391	C239	0.886800	0.089600	0.725600
C2401	C240	0.815300	0.070100	0.760500
C2411	C241	0.702000	0.578900	0.730500
C2421	C242	0.570000	0.579900	0.754700
C2431	C243	0.473600	0.609200	0.742800
C2441	C244	0.353600	0.611000	0.765400
C2451	C245	0.334500	0.585600	0.798400
C2461	C246	0.542400	0.554600	0.788200
C2471	C247	0.638800	0.524600	0.805800
C2481	C248	0.699400	0.500900	0.867100
C2491	C249	0.805700	0.476600	0.847200
C2501	C250	0.822400	0.473600	0.803800
C2511	C251	0.734500	0.497400	0.782800
C2521	C252	0.742600	0.488800	0.737400
C2531	C253	0.975100	0.423700	0.612900
C2541	C254	0.941500	0.388300	0.590300
C2551	C255	0.963300	0.348900	0.607700
C2561	C256	0.954800	0.315000	0.584000
C2571	C257	0.925000	0.322600	0.543600
C2581	C258	0.905000	0.392600	0.551600
C2591	C259	0.874900	0.431900	0.530700
C2601	C260	0.913100	0.468500	0.468700
C2611	C261	0.843500	0.504100	0.486900
C2621	C262	0.782300	0.503200	0.527000
C2631	C263	0.795200	0.467500	0.549300
C2641	C264	0.712500	0.464400	0.591800
C2651	C265	0.292100	0.517600	0.623800
C2661	C266	0.307900	0.548100	0.590700
C2671	C267	0.416600	0.540200	0.558600
C2681	C268	0.428400	0.565600	0.525200
C2691	C269	0.332000	0.597000	0.520600
C2701	C270	0.223100	0.583100	0.585500
C2711	C271	0.110700	0.600800	0.616800
C2721	C272	0.902100	0.630900	0.624700
C2731	C273	0.896700	0.637000	0.665200
C2741	C274	0.002400	0.624900	0.682700
C2751	C275	0.108600	0.606000	0.658800
C2761	C276	0.223100	0.591300	0.678100
C2771	C277	0.426900	0.402200	0.696200
C2781	C278	0.357700	0.362400	0.700400
C2791	C279	0.360300	0.340900	0.662900
C2801	C280	0.311500	0.302100	0.658900
C2811	C281	0.276900	0.288800	0.699600
C2821	C282	0.297300	0.348400	0.735000
C2831	C283	0.276400	0.372800	0.773000
C2841	C284	0.275300	0.381700	0.842700
C2851	C285	0.207100	0.417400	0.848400
C2861	C286	0.174800	0.431600	0.812600
C2871	C287	0.202000	0.410400	0.774400
C2881	C288	0.145900	0.429900	0.739500
C2891	C289	0.280900	0.230500	0.421100
C2901	C290	0.149900	0.254700	0.420100
C2911	C291	0.082800	0.242800	0.390800
C2921	C292	0.964600	0.265400	0.389000
C2931	C293	0.920100	0.298400	0.414400
C2941	C294	0.097000	0.288200	0.445400
C2951	C295	0.163400	0.305800	0.475400
C2961	C296	0.200300	0.367100	0.499100
C2971	C297	0.282300	0.347200	0.523400
C2981	C298	0.296000	0.303800	0.526400
C2991	C299	0.231900	0.282800	0.502600
C3001	C300	0.231400	0.237400	0.511200
C3011	C301	0.398800	0.112900	0.576300
C3021	C302	0.329800	0.090300	0.611700
C3031	C303	0.312200	0.107700	0.651100
C3041	C304	0.269800	0.084000	0.685000
C3051	C305	0.247600	0.043600	0.677400
C3061	C306	0.297600	0.051600	0.607400
C3071	C307	0.306800	0.030700	0.568100
C3081	C308	0.381600	0.968700	0.531500
C3091	C309	0.347600	0.986900	0.495900
C3101	C310	0.285500	0.027000	0.496800
C3111	C311	0.262700	0.049300	0.532500
C3121	C312	0.176900	0.091800	0.535600
C3131	C313	0.809700	0.123800	0.482400
C3141	C314	0.856000	0.090700	0.451900
C3151	C315	0.956800	0.058600	0.459800
C3161	C316	0.994000	0.025200	0.434400
C3171	C317	0.929000	0.020600	0.403000
C3181	C318	0.806200	0.085500	0.416900
C3191	C319	0.711500	0.116800	0.399200
C3201	C320	0.533000	0.124700	0.369100
C3211	C321	0.533700	0.165200	0.363000
C3221	C322	0.627300	0.182700	0.375100
C3231	C323	0.714600	0.158800	0.394000
C3241	C324	0.814400	0.178100	0.408700
C3251	C325	0.829100	0.196200	0.597800
C3261	C326	0.720100	0.200400	0.637600
C3271	C327	0.701200	0.162900	0.659100
C3281	C328	0.613600	0.158900	0.697900
C3291	C329	0.565700	0.199600	0.711200
C3301	C330	0.645700	0.235000	0.651600
C3311	C331	0.649200	0.273000	0.627200
C3321	C332	0.657000	0.342700	0.618300
C3331	C333	0.624500	0.348400	0.582600
C3341	C334	0.606400	0.312600	0.568400
C3351	C335	0.612400	0.274400	0.589600
C3361	C336	0.575800	0.239500	0.570100
C3371	C337	0.432500	0.269500	0.078900
C3381	C338	0.324700	0.245300	0.079900
C3391	C339	0.216400	0.257200	0.109200
C3401	C340	0.119000	0.234600	0.111000
C3411	C341	0.132900	0.201600	0.085600
C3421	C342	0.330600	0.211800	0.054600
C3431	C343	0.444600	0.194200	0.024600
C3441	C344	0.566500	0.132900	0.000900
C3451	C345	0.652900	0.152800	0.976600
C3461	C346	0.626200	0.196200	0.973600
C3471	C347	0.517300	0.217200	0.997400
C3481	C348	0.480000	0.262600	0.988800
C3491	C349	0.588000	0.387100	0.923700
C3501	C350	0.531800	0.409700	0.888300
C3511	C351	0.571000	0.392300	0.848900
C3521	C352	0.538800	0.416000	0.815000
C3531	C353	0.468600	0.456400	0.822600
C3541	C354	0.456600	0.448400	0.892600
C3551	C355	0.405600	0.469300	0.931900
C3561	C356	0.381800	0.531300	0.968500
C3571	C357	0.330400	0.513100	0.004100
C3581	C358	0.309300	0.473000	0.003200
C3591	C359	0.344500	0.450700	0.967500
C3601	C360	0.304300	0.408200	0.964400
C3611	C361	0.915900	0.376200	0.017600
C3621	C362	0.898600	0.409300	0.048100
C3631	C363	0.975200	0.441400	0.040200
C3641	C364	0.953600	0.474800	0.065600
C3651	C365	0.852600	0.479400	0.097000
C3661	C366	0.808600	0.414500	0.083100
C3671	C367	0.727500	0.383200	0.100800
C3681	C368	0.526800	0.375300	0.130900
C3691	C369	0.561900	0.334800	0.137000
C3701	C370	0.685100	0.317300	0.124900
C3711	C371	0.767400	0.341200	0.106000
C3721	C372	0.901200	0.321900	0.091300
C3731	C373	0.123100	0.303800	0.902200
C3741	C374	0.058100	0.299600	0.862400
C3751	C375	0.023200	0.337100	0.840900
C3761	C376	0.970400	0.341100	0.802100
C3771	C377	0.976500	0.300400	0.788800
C3781	C378	0.032300	0.265000	0.848400
C3791	C379	0.049400	0.227000	0.872800
C3801	C380	0.118000	0.157300	0.881700
C3811	C381	0.055500	0.151600	0.917400
C3821	C382	0.987400	0.187400	0.931600
C3831	C383	0.976400	0.225600	0.910400
C3841	C384	0.885400	0.260500	0.929900
N11	N1	0.710700	0.858400	0.028200
N21	N2	0.647400	0.933300	0.991100
N31	N3	0.113600	0.106700	0.050900
N41	N4	0.281900	0.113200	0.098800
N51	N5	0.707500	0.057500	0.310300
N61	N6	0.512200	0.024400	0.347200
N71	N7	0.011400	0.855400	0.309400
N81	N8	0.184200	0.809300	0.235700
N91	N9	0.097300	0.641600	0.471800
N101	N10	0.071800	0.566700	0.508900
N111	N11	0.771200	0.393300	0.449100
N121	N12	0.993900	0.386800	0.401200
N131	N13	0.575300	0.442500	0.189700
N141	N14	0.383800	0.475600	0.152800
N151	N15	0.676200	0.644600	0.190600
N161	N16	0.729200	0.690700	0.264300
N171	N17	0.738900	0.971800	0.358400
N181	N18	0.638500	0.008900	0.433300
N191	N19	0.164500	0.949100	0.606700
N201	N20	0.380700	0.901200	0.613200
N211	N21	0.017800	0.689700	0.557500
N221	N22	0.859400	0.652800	0.524400
N231	N23	0.320800	0.690600	0.355400
N241	N24	0.419900	0.764300	0.309300
N251	N25	0.569100	0.528200	0.141600
N261	N26	0.580700	0.491100	0.066700
N271	N27	0.220300	0.550900	0.893300
N281	N28	0.395100	0.598800	0.886800
N291	N29	0.765000	0.810300	0.942500
N301	N30	0.536600	0.847200	0.975600
N311	N31	0.866800	0.809400	0.144600
N321	N32	0.993500	0.735700	0.190700
N331	N33	0.289300	0.141600	0.971800
N341	N34	0.352600	0.066700	0.008900
N351	N35	0.886400	0.893300	0.949100
N361	N36	0.718100	0.886800	0.901200
N371	N37	0.292500	0.942500	0.689700
N381	N38	0.487800	0.975600	0.652800
N391	N39	0.988600	0.144600	0.690600
N401	N40	0.815800	0.190700	0.764300
N411	N41	0.902700	0.358400	0.528200
N421	N42	0.928200	0.433300	0.491100
N431	N43	0.228800	0.606700	0.550900
N441	N44	0.006100	0.613200	0.598800
N451	N45	0.424700	0.557500	0.810300
N461	N46	0.616200	0.524400	0.847200
N471	N47	0.323800	0.355400	0.809400
N481	N48	0.270800	0.309300	0.735700
N491	N49	0.261100	0.028200	0.641600
N501	N50	0.361500	0.991100	0.566700
N511	N51	0.835500	0.050900	0.393300
N521	N52	0.619300	0.098800	0.386800
N531	N53	0.982200	0.310300	0.442500
N541	N54	0.140600	0.347200	0.475600
N551	N55	0.679200	0.309400	0.644600
N561	N56	0.580100	0.235700	0.690700
N571	N57	0.430900	0.471800	0.858400
N581	N58	0.419300	0.508900	0.933300
N591	N59	0.779700	0.449100	0.106700
N601	N60	0.604900	0.401200	0.113200
N611	N61	0.235000	0.189700	0.057500
N621	N62	0.463400	0.152800	0.024400
N631	N63	0.133200	0.190600	0.855400
N641	N64	0.006500	0.264300	0.809300
O11	O1	0.517840	0.076640	0.192080
O21	O2	0.380920	0.078650	0.250910
O31	O3	0.643830	0.992080	0.224460
O41	O4	0.457730	0.976740	0.216800
O51	O5	0.476490	0.922360	0.151660
O61	O6	0.430600	0.949700	0.093100
O71	O7	0.835190	0.943470	0.094350
O81	O8	0.663030	0.985560	0.120780
O91	O9	0.911060	0.099940	0.160140
O101	O10	0.008900	0.071700	0.211100
O111	O11	0.984470	0.996000	0.133060
O121	O12	0.166210	0.014730	0.139650
O131	O13	0.238230	0.032670	0.218270
O141	O14	0.427670	0.025950	0.142710
O151	O15	0.209300	0.926300	0.144700
O161	O16	0.131500	0.962400	0.226000
O171	O17	0.293800	0.915400	0.225600
O181	O18	0.980900	0.917800	0.163400
O191	O19	0.890800	0.911700	0.226700
O201	O20	0.897370	0.001360	0.224500
O211	O21	0.702500	0.917200	0.179000
O221	O22	0.755350	0.045420	0.163480
O231	O23	0.286560	0.423360	0.307920
O241	O24	0.210480	0.421350	0.249090
O251	O25	0.360370	0.507920	0.275540
O261	O26	0.151270	0.523260	0.283200
O271	O27	0.050510	0.577640	0.348340
O281	O28	0.973400	0.550300	0.406900
O291	O29	0.373010	0.556530	0.405650
O301	O30	0.269370	0.514440	0.379220
O311	O31	0.671140	0.400060	0.339860
O321	O32	0.791700	0.428300	0.288900
O331	O33	0.613530	0.504000	0.366940
O341	O34	0.820590	0.485270	0.360350
O351	O35	0.989170	0.467330	0.281730
O361	O36	0.096330	0.474050	0.357290
O371	O37	0.780300	0.573700	0.355300
O381	O38	0.819900	0.537600	0.274000
O391	O39	0.934800	0.584600	0.274400
O401	O40	0.562100	0.582200	0.336600
O411	O41	0.529200	0.588300	0.273300
O421	O42	0.623230	0.498640	0.275500
O431	O43	0.298700	0.582800	0.321000
O441	O44	0.464250	0.454580	0.336520
O451	O45	0.709920	0.807920	0.576640
O461	O46	0.631830	0.749090	0.578650
O471	O47	0.868290	0.775540	0.492080
O481	O48	0.674530	0.783200	0.476740
O491	O49	0.628150	0.848340	0.422360
O501	O50	0.523700	0.906900	0.449700
O511	O51	0.929540	0.905650	0.443470
O521	O52	0.783810	0.879220	0.485560
O531	O53	0.071200	0.839860	0.599940
O541	O54	0.220000	0.788900	0.571700
O551	O55	0.117530	0.866940	0.496000
O561	O56	0.305860	0.860350	0.514730
O571	O57	0.456500	0.781730	0.532670
O581	O58	0.570380	0.857290	0.525950
O591	O59	0.354000	0.855300	0.426300
O601	O60	0.357500	0.774000	0.462400
O611	O61	0.519400	0.774400	0.415400
O621	O62	0.144300	0.836600	0.417800
O631	O63	0.117500	0.773300	0.411700
O641	O64	0.121870	0.775500	0.501360
O651	O65	0.881500	0.821000	0.417200
O661	O66	0.918830	0.836520	0.545420
O671	O67	0.594480	0.692080	0.923360
O681	O68	0.459570	0.750910	0.921350
O691	O69	0.635910	0.724460	0.007920
O701	O70	0.434470	0.716800	0.023260
O711	O71	0.398850	0.651660	0.077640
O721	O72	0.380300	0.593100	0.050300
O731	O73	0.778660	0.594350	0.056530
O741	O74	0.648590	0.620780	0.014440
O751	O75	0.011000	0.660140	0.900060
O761	O76	0.080600	0.711100	0.928300
O771	O77	0.980470	0.633060	0.004000
O781	O78	0.180940	0.639650	0.985270
O791	O79	0.270900	0.718270	0.967330
O801	O80	0.453620	0.642710	0.974050
O811	O81	0.135600	0.644700	0.073700
O821	O82	0.093900	0.726000	0.037600
O831	O83	0.209200	0.725600	0.084600
O841	O84	0.898700	0.663400	0.082200
O851	O85	0.802500	0.726700	0.088300
O861	O86	0.898730	0.724500	0.998640
O871	O87	0.619700	0.679000	0.082800
O881	O88	0.800770	0.663480	0.954580
O891	O89	0.482160	0.923360	0.807920
O901	O90	0.619080	0.921350	0.749090
O911	O91	0.356170	0.007920	0.775540
O921	O92	0.542270	0.023260	0.783200
O931	O93	0.523510	0.077640	0.848340
O941	O94	0.569400	0.050300	0.906900
O951	O95	0.164810	0.056530	0.905650
O961	O96	0.336970	0.014440	0.879220
O971	O97	0.088940	0.900060	0.839860
O981	O98	0.991100	0.928300	0.788900
O991	O99	0.015530	0.004000	0.866940
O1001	O100	0.833790	0.985270	0.860350
O1011	O101	0.761770	0.967330	0.781730
O1021	O102	0.572330	0.974050	0.857290
O1031	O103	0.790700	0.073700	0.855300
O1041	O104	0.868500	0.037600	0.774000
O1051	O105	0.706200	0.084600	0.774400
O1061	O106	0.019100	0.082200	0.836600
O1071	O107	0.109200	0.088300	0.773300
O1081	O108	0.102630	0.998640	0.775500
O1091	O109	0.297500	0.082800	0.821000
O1101	O110	0.244650	0.954580	0.836520
O1111	O111	0.713440	0.576640	0.692080
O1121	O112	0.789520	0.578650	0.750910
O1131	O113	0.639630	0.492080	0.724460
O1141	O114	0.848730	0.476740	0.716800
O1151	O115	0.949490	0.422360	0.651660
O1161	O116	0.026600	0.449700	0.593100
O1171	O117	0.626990	0.443470	0.594350
O1181	O118	0.730630	0.485560	0.620780
O1191	O119	0.328860	0.599940	0.660140
O1201	O120	0.208300	0.571700	0.711100
O1211	O121	0.386470	0.496000	0.633060
O1221	O122	0.179410	0.514730	0.639650
O1231	O123	0.010830	0.532670	0.718270
O1241	O124	0.903670	0.525950	0.642710
O1251	O125	0.219700	0.426300	0.644700
O1261	O126	0.180100	0.462400	0.726000
O1271	O127	0.065200	0.415400	0.725600
O1281	O128	0.437900	0.417800	0.663400
O1291	O129	0.470800	0.411700	0.726700
O1301	O130	0.376770	0.501360	0.724500
O1311	O131	0.701300	0.417200	0.679000
O1321	O132	0.535750	0.545420	0.663480
O1331	O133	0.290080	0.192080	0.423360
O1341	O134	0.368170	0.250910	0.421350
O1351	O135	0.131710	0.224460	0.507920
O1361	O136	0.325470	0.216800	0.523260
O1371	O137	0.371850	0.151660	0.577640
O1381	O138	0.476300	0.093100	0.550300
O1391	O139	0.070460	0.094350	0.556530
O1401	O140	0.216190	0.120780	0.514440
O1411	O141	0.928800	0.160140	0.400060
O1421	O142	0.780000	0.211100	0.428300
O1431	O143	0.882470	0.133060	0.504000
O1441	O144	0.694140	0.139650	0.485270
O1451	O145	0.543500	0.218270	0.467330
O1461	O146	0.429620	0.142710	0.474050
O1471	O147	0.646000	0.144700	0.573700
O1481	O148	0.642500	0.226000	0.537600
O1491	O149	0.480600	0.225600	0.584600
O1501	O150	0.855700	0.163400	0.582200
O1511	O151	0.882500	0.226700	0.588300
O1521	O152	0.878130	0.224500	0.498640
O1531	O153	0.118500	0.179000	0.582800
O1541	O154	0.081170	0.163480	0.454580
O1551	O155	0.405520	0.307920	0.076640
O1561	O156	0.540430	0.249090	0.078650
O1571	O157	0.364090	0.275540	0.992080
O1581	O158	0.565530	0.283200	0.976740
O1591	O159	0.601150	0.348340	0.922360
O1601	O160	0.619700	0.406900	0.949700
O1611	O161	0.221340	0.405650	0.943470
O1621	O162	0.351410	0.379220	0.985560
O1631	O163	0.989000	0.339860	0.099940
O1641	O164	0.919400	0.288900	0.071700
O1651	O165	0.019530	0.366940	0.996000
O1661	O166	0.819060	0.360350	0.014730
O1671	O167	0.729100	0.281730	0.032670
O1681	O168	0.546380	0.357290	0.025950
O1691	O169	0.864400	0.355300	0.926300
O1701	O170	0.906100	0.274000	0.962400
O1711	O171	0.790800	0.274400	0.915400
O1721	O172	0.101300	0.336600	0.917800
O1731	O173	0.197500	0.273300	0.911700
O1741	O174	0.101270	0.275500	0.001360
O1751	O175	0.380300	0.321000	0.917200
O1761	O176	0.199230	0.336520	0.045420
