data_MIFPUO_freeONLY_PM
_symmetry_space_group_name_H-M	'P1'
_cell_length_a	13.846000
_cell_length_b	16.954000
_cell_length_c	16.954000
_cell_angle_alpha	120.000000
_cell_angle_beta	90.000000
_cell_angle_gamma	90.000000
_symmetry_Int_Tables_number 1

loop_
_symmetry_equiv_pos_as_xyz
'x,y,z'

loop_
_atom_site_label
_atom_site_type_symbol
_atom_site_fract_x
_atom_site_fract_y
_atom_site_fract_z
Ni11	Ni1	0.398270	0.333330	0.666660
Ni21	Ni2	0.101730	0.333330	0.666660
Ni31	Ni3	0.601730	0.666670	0.333340
Ni41	Ni4	0.898270	0.666670	0.333340
H11	H1	0.112000	0.066800	0.494700
H21	H2	0.087600	0.783300	0.418700
H31	H3	0.847400	0.777200	0.214300
H41	H4	0.836400	0.895800	0.183500
H51	H5	0.944700	0.015500	0.245100
H61	H6	0.063900	0.025100	0.346400
H71	H7	0.112000	0.427900	0.933200
H81	H8	0.087600	0.635400	0.216700
H91	H9	0.847400	0.437100	0.222800
H101	H10	0.836400	0.287700	0.104200
H111	H11	0.944700	0.229600	0.984500
H121	H12	0.063900	0.321300	0.974900
H131	H13	0.112000	0.505300	0.572100
H141	H14	0.087600	0.581300	0.364600
H151	H15	0.847400	0.785700	0.562900
H161	H16	0.836400	0.816500	0.712300
H171	H17	0.944700	0.754900	0.770400
H181	H18	0.063900	0.653600	0.678700
H191	H19	0.388000	0.427900	0.494700
H201	H20	0.412400	0.635400	0.418700
H211	H21	0.652600	0.437100	0.214300
H221	H22	0.663600	0.287700	0.183500
H231	H23	0.555300	0.229600	0.245100
H241	H24	0.436100	0.321300	0.346400
H251	H25	0.388000	0.505300	0.933200
H261	H26	0.412400	0.581300	0.216700
H271	H27	0.652600	0.785700	0.222800
H281	H28	0.663600	0.816500	0.104200
H291	H29	0.555300	0.754900	0.984500
H301	H30	0.436100	0.653600	0.974900
H311	H31	0.388000	0.066800	0.572100
H321	H32	0.412400	0.783300	0.364600
H331	H33	0.652600	0.777200	0.562900
H341	H34	0.663600	0.895800	0.712300
H351	H35	0.555300	0.015500	0.770400
H361	H36	0.436100	0.025100	0.678700
H371	H37	0.888000	0.933200	0.505300
H381	H38	0.912400	0.216700	0.581300
H391	H39	0.152600	0.222800	0.785700
H401	H40	0.163600	0.104200	0.816500
H411	H41	0.055300	0.984500	0.754900
H421	H42	0.936100	0.974900	0.653600
H431	H43	0.888000	0.572100	0.066800
H441	H44	0.912400	0.364600	0.783300
H451	H45	0.152600	0.562900	0.777200
H461	H46	0.163600	0.712300	0.895800
H471	H47	0.055300	0.770400	0.015500
H481	H48	0.936100	0.678700	0.025100
H491	H49	0.888000	0.494700	0.427900
H501	H50	0.912400	0.418700	0.635400
H511	H51	0.152600	0.214300	0.437100
H521	H52	0.163600	0.183500	0.287700
H531	H53	0.055300	0.245100	0.229600
H541	H54	0.936100	0.346400	0.321300
H551	H55	0.612000	0.572100	0.505300
H561	H56	0.587600	0.364600	0.581300
H571	H57	0.347400	0.562900	0.785700
H581	H58	0.336400	0.712300	0.816500
H591	H59	0.444700	0.770400	0.754900
H601	H60	0.563900	0.678700	0.653600
H611	H61	0.612000	0.494700	0.066800
H621	H62	0.587600	0.418700	0.783300
H631	H63	0.347400	0.214300	0.777200
H641	H64	0.336400	0.183500	0.895800
H651	H65	0.444700	0.245100	0.015500
H661	H66	0.563900	0.346400	0.025100
H671	H67	0.612000	0.933200	0.427900
H681	H68	0.587600	0.216700	0.635400
H691	H69	0.347400	0.222800	0.437100
H701	H70	0.336400	0.104200	0.287700
H711	H71	0.444700	0.984500	0.229600
H721	H72	0.563900	0.974900	0.321300
H731	H73	0.250000	0.829900	0.414950
H741	H74	0.250000	0.585050	0.170100
H751	H75	0.250000	0.585050	0.414950
H761	H76	0.750000	0.170100	0.585050
H771	H77	0.750000	0.414950	0.829900
H781	H78	0.750000	0.414950	0.585050
C11	C1	0.167300	0.035340	0.493980
C21	C2	0.168850	0.941470	0.446270
C31	C3	0.057570	0.809400	0.388180
C41	C4	0.961500	0.831600	0.301360
C51	C5	0.889800	0.826200	0.240900
C61	C6	0.884500	0.896900	0.222300
C71	C7	0.949500	0.970100	0.260500
C81	C8	0.021000	0.976400	0.320700
C91	C9	0.025400	0.906600	0.340800
C101	C10	0.167300	0.458640	0.964660
C111	C11	0.168850	0.504800	0.058530
C121	C12	0.057570	0.578780	0.190600
C131	C13	0.961500	0.469760	0.168400
C141	C14	0.889800	0.414700	0.173800
C151	C15	0.884500	0.325400	0.103100
C161	C16	0.949500	0.290400	0.029900
C171	C17	0.021000	0.344300	0.023600
C181	C18	0.025400	0.434200	0.093400
C191	C19	0.167300	0.506020	0.541360
C201	C20	0.168850	0.553730	0.495200
C211	C21	0.057570	0.611820	0.421220
C221	C22	0.961500	0.698640	0.530240
C231	C23	0.889800	0.759100	0.585300
C241	C24	0.884500	0.777700	0.674600
C251	C25	0.949500	0.739500	0.709600
C261	C26	0.021000	0.679300	0.655700
C271	C27	0.025400	0.659200	0.565800
C281	C28	0.332700	0.458640	0.493980
C291	C29	0.331150	0.504800	0.446270
C301	C30	0.442430	0.578780	0.388180
C311	C31	0.538500	0.469760	0.301360
C321	C32	0.610200	0.414700	0.240900
C331	C33	0.615500	0.325400	0.222300
C341	C34	0.550500	0.290400	0.260500
C351	C35	0.479000	0.344300	0.320700
C361	C36	0.474600	0.434200	0.340800
C371	C37	0.332700	0.506020	0.964660
C381	C38	0.331150	0.553730	0.058530
C391	C39	0.442430	0.611820	0.190600
C401	C40	0.538500	0.698640	0.168400
C411	C41	0.610200	0.759100	0.173800
C421	C42	0.615500	0.777700	0.103100
C431	C43	0.550500	0.739500	0.029900
C441	C44	0.479000	0.679300	0.023600
C451	C45	0.474600	0.659200	0.093400
C461	C46	0.332700	0.035340	0.541360
C471	C47	0.331150	0.941470	0.495200
C481	C48	0.442430	0.809400	0.421220
C491	C49	0.538500	0.831600	0.530240
C501	C50	0.610200	0.826200	0.585300
C511	C51	0.615500	0.896900	0.674600
C521	C52	0.550500	0.970100	0.709600
C531	C53	0.479000	0.976400	0.655700
C541	C54	0.474600	0.906600	0.565800
C551	C55	0.832700	0.964660	0.506020
C561	C56	0.831150	0.058530	0.553730
C571	C57	0.942430	0.190600	0.611820
C581	C58	0.038500	0.168400	0.698640
C591	C59	0.110200	0.173800	0.759100
C601	C60	0.115500	0.103100	0.777700
C611	C61	0.050500	0.029900	0.739500
C621	C62	0.979000	0.023600	0.679300
C631	C63	0.974600	0.093400	0.659200
C641	C64	0.832700	0.541360	0.035340
C651	C65	0.831150	0.495200	0.941470
C661	C66	0.942430	0.421220	0.809400
C671	C67	0.038500	0.530240	0.831600
C681	C68	0.110200	0.585300	0.826200
C691	C69	0.115500	0.674600	0.896900
C701	C70	0.050500	0.709600	0.970100
C711	C71	0.979000	0.655700	0.976400
C721	C72	0.974600	0.565800	0.906600
C731	C73	0.832700	0.493980	0.458640
C741	C74	0.831150	0.446270	0.504800
C751	C75	0.942430	0.388180	0.578780
C761	C76	0.038500	0.301360	0.469760
C771	C77	0.110200	0.240900	0.414700
C781	C78	0.115500	0.222300	0.325400
C791	C79	0.050500	0.260500	0.290400
C801	C80	0.979000	0.320700	0.344300
C811	C81	0.974600	0.340800	0.434200
C821	C82	0.667300	0.541360	0.506020
C831	C83	0.668850	0.495200	0.553730
C841	C84	0.557570	0.421220	0.611820
C851	C85	0.461500	0.530240	0.698640
C861	C86	0.389800	0.585300	0.759100
C871	C87	0.384500	0.674600	0.777700
C881	C88	0.449500	0.709600	0.739500
C891	C89	0.521000	0.655700	0.679300
C901	C90	0.525400	0.565800	0.659200
C911	C91	0.667300	0.493980	0.035340
C921	C92	0.668850	0.446270	0.941470
C931	C93	0.557570	0.388180	0.809400
C941	C94	0.461500	0.301360	0.831600
C951	C95	0.389800	0.240900	0.826200
C961	C96	0.384500	0.222300	0.896900
C971	C97	0.449500	0.260500	0.970100
C981	C98	0.521000	0.320700	0.976400
C991	C99	0.525400	0.340800	0.906600
C1001	C100	0.667300	0.964660	0.458640
C1011	C101	0.668850	0.058530	0.504800
C1021	C102	0.557570	0.190600	0.578780
C1031	C103	0.461500	0.168400	0.469760
C1041	C104	0.389800	0.173800	0.414700
C1051	C105	0.384500	0.103100	0.325400
C1061	C106	0.449500	0.029900	0.290400
C1071	C107	0.521000	0.023600	0.344300
C1081	C108	0.525400	0.093400	0.434200
C1091	C109	0.250000	0.184800	0.592400
C1101	C110	0.250000	0.082400	0.541200
C1111	C111	0.250000	0.893200	0.446600
C1121	C112	0.250000	0.407600	0.815200
C1131	C113	0.250000	0.458800	0.917600
C1141	C114	0.250000	0.553400	0.106800
C1151	C115	0.250000	0.407600	0.592400
C1161	C116	0.250000	0.458800	0.541200
C1171	C117	0.250000	0.553400	0.446600
C1181	C118	0.750000	0.815200	0.407600
C1191	C119	0.750000	0.917600	0.458800
C1201	C120	0.750000	0.106800	0.553400
C1211	C121	0.750000	0.592400	0.184800
C1221	C122	0.750000	0.541200	0.082400
C1231	C123	0.750000	0.446600	0.893200
C1241	C124	0.750000	0.592400	0.407600
C1251	C125	0.750000	0.541200	0.458800
C1261	C126	0.750000	0.446600	0.553400
N11	N1	0.085830	0.890550	0.396540
N21	N2	0.984060	0.771930	0.333100
N31	N3	0.085830	0.505990	0.109450
N41	N4	0.984060	0.561170	0.228070
N51	N5	0.085830	0.603460	0.494010
N61	N6	0.984060	0.666900	0.438830
N71	N7	0.414170	0.505990	0.396540
N81	N8	0.515940	0.561170	0.333100
N91	N9	0.414170	0.603460	0.109450
N101	N10	0.515940	0.666900	0.228070
N111	N11	0.414170	0.890550	0.494010
N121	N12	0.515940	0.771930	0.438830
N131	N13	0.914170	0.109450	0.603460
N141	N14	0.015940	0.228070	0.666900
N151	N15	0.914170	0.494010	0.890550
N161	N16	0.015940	0.438830	0.771930
N171	N17	0.914170	0.396540	0.505990
N181	N18	0.015940	0.333100	0.561170
N191	N19	0.585830	0.494010	0.603460
N201	N20	0.484060	0.438830	0.666900
N211	N21	0.585830	0.396540	0.890550
N221	N22	0.484060	0.333100	0.771930
N231	N23	0.585830	0.109450	0.505990
N241	N24	0.484060	0.228070	0.561170
O11	O1	0.319360	0.223110	0.646690
O21	O2	0.319360	0.423580	0.776890
O31	O3	0.319360	0.353310	0.576420
O41	O4	0.180640	0.423580	0.646690
O51	O5	0.180640	0.353310	0.776890
O61	O6	0.180640	0.223110	0.576420
O71	O7	0.680640	0.776890	0.353310
O81	O8	0.680640	0.576420	0.223110
O91	O9	0.680640	0.646690	0.423580
O101	O10	0.819360	0.576420	0.353310
O111	O11	0.819360	0.646690	0.223110
O121	O12	0.819360	0.776890	0.423580
