data_MIFSUR_freeONLY_PM
_symmetry_space_group_name_H-M	'P1'
_cell_length_a	11.227600
_cell_length_b	32.867000
_cell_length_c	32.867000
_cell_angle_alpha	88.328200
_cell_angle_beta	80.165500
_cell_angle_gamma	80.165600
_symmetry_Int_Tables_number 1

loop_
_symmetry_equiv_pos_as_xyz
'x,y,z'

loop_
_atom_site_label
_atom_site_type_symbol
_atom_site_fract_x
_atom_site_fract_y
_atom_site_fract_z
Nd11	Nd1	0.816810	0.970730	0.171090
Nd21	Nd2	0.317590	0.973730	0.173180
Nd31	Nd3	0.458630	0.529270	0.328910
Nd41	Nd4	0.964490	0.526270	0.326820
Nd51	Nd5	0.987900	0.828910	0.470730
Nd61	Nd6	0.490760	0.826820	0.473740
Nd71	Nd7	0.787540	0.671090	0.029270
Nd81	Nd8	0.291320	0.673180	0.026260
Nd91	Nd9	0.183190	0.029270	0.828910
Nd101	Nd10	0.682410	0.026270	0.826820
Nd111	Nd11	0.541370	0.470730	0.671090
Nd121	Nd12	0.035510	0.473730	0.673180
Nd131	Nd13	0.012100	0.171090	0.529270
Nd141	Nd14	0.509240	0.173180	0.526260
Nd151	Nd15	0.212460	0.328910	0.970730
Nd161	Nd16	0.708680	0.326820	0.973740
Co11	Co1	0.674610	0.036890	0.370830
Co21	Co2	0.582330	0.463110	0.129170
Co31	Co3	0.045440	0.629170	0.536890
Co41	Co4	0.711500	0.870830	0.963110
Co51	Co5	0.325390	0.963110	0.629170
Co61	Co6	0.417670	0.536890	0.870830
Co71	Co7	0.954560	0.370830	0.463110
Co81	Co8	0.288500	0.129170	0.036890
H11	H1	0.690300	0.054900	0.175500
H21	H2	0.756500	0.051300	0.135500
H31	H3	0.846400	0.012300	0.243900
H41	H4	0.947000	0.018600	0.214800
H51	H5	0.372100	0.956600	0.290200
H61	H6	0.698300	0.026100	0.038300
H71	H7	0.318500	0.963000	0.361800
H81	H8	0.178700	0.049400	0.212200
H91	H9	0.297900	0.047000	0.222600
H101	H10	0.444800	0.044400	0.159200
H111	H11	0.392200	0.042800	0.123200
H121	H12	0.260500	0.896200	0.143200
H131	H13	0.242500	0.925200	0.110200
H141	H14	0.653500	0.027900	0.971700
H151	H15	0.424000	0.000600	0.396000
H161	H16	0.635900	0.967200	0.941800
H171	H17	0.664500	0.125300	0.219700
H181	H18	0.843900	0.087200	0.311800
H191	H19	0.549800	0.841100	0.132100
H201	H20	0.757600	0.797700	0.026300
H211	H21	0.822500	0.129300	0.255700
H221	H22	0.950800	0.018600	0.061000
H231	H23	0.101600	0.956700	0.312900
H241	H24	0.663600	0.786000	0.093000
H251	H25	0.936200	0.063500	0.005500
H261	H26	0.010400	0.924700	0.371700
H271	H27	0.056600	0.114900	0.997500
H281	H28	0.957200	0.864500	0.363500
H291	H29	0.164400	0.126600	0.211000
H301	H30	0.412500	0.139600	0.112400
H311	H31	0.120700	0.843600	0.134800
H321	H32	0.276600	0.759100	0.205900
H331	H33	0.347400	0.148000	0.181200
H341	H34	0.262200	0.782900	0.140300
H351	H35	0.420700	0.445100	0.324500
H361	H36	0.443300	0.448700	0.364500
H371	H37	0.602600	0.487700	0.256100
H381	H38	0.680400	0.481400	0.285200
H391	H39	0.118900	0.543400	0.209800
H401	H40	0.262700	0.473900	0.461700
H411	H41	0.143300	0.537000	0.138200
H421	H42	0.940300	0.450600	0.287800
H431	H43	0.067500	0.453000	0.277400
H441	H44	0.148400	0.455600	0.340800
H451	H45	0.058200	0.457200	0.376800
H461	H46	0.799900	0.603800	0.356800
H471	H47	0.777900	0.574800	0.389800
H481	H48	0.153100	0.472100	0.528300
H491	H49	0.320600	0.499400	0.104000
H501	H50	0.044900	0.532800	0.558200
H511	H51	0.509500	0.374700	0.280300
H521	H52	0.742900	0.412800	0.188200
H531	H53	0.023000	0.658900	0.367900
H541	H54	0.081600	0.702300	0.473700
H551	H55	0.707500	0.370700	0.244300
H561	H56	0.530400	0.481400	0.439000
H571	H57	0.871200	0.543300	0.187100
H581	H58	0.042600	0.714000	0.407000
H591	H59	0.505200	0.436500	0.494500
H601	H60	0.806800	0.575300	0.128300
H611	H61	0.669000	0.385100	0.502500
H621	H62	0.685200	0.635500	0.136500
H631	H63	0.002000	0.373400	0.289000
H641	H64	0.164500	0.360400	0.387600
H651	H65	0.599100	0.656400	0.365200
H661	H66	0.741600	0.740900	0.294100
H671	H67	0.176600	0.352000	0.318800
H681	H68	0.685400	0.717100	0.359700
H691	H69	0.865800	0.824500	0.554900
H701	H70	0.892000	0.864500	0.551300
H711	H71	0.090300	0.756100	0.512300
H721	H72	0.161800	0.785200	0.518600
H731	H73	0.662300	0.709800	0.456600
H741	H74	0.736600	0.961700	0.526100
H751	H75	0.680300	0.638200	0.463000
H761	H76	0.390900	0.787800	0.549400
H771	H77	0.520500	0.777400	0.547000
H781	H78	0.604000	0.840800	0.544400
H791	H79	0.515400	0.876800	0.542800
H801	H80	0.403700	0.856800	0.396200
H811	H81	0.352700	0.889800	0.425200
H821	H82	0.625200	0.028300	0.527900
H831	H83	0.820000	0.604000	0.500600
H841	H84	0.577700	0.058200	0.467200
H851	H85	0.884200	0.780300	0.625300
H861	H86	0.155700	0.688200	0.587200
H871	H87	0.681900	0.867900	0.341100
H881	H88	0.783900	0.973700	0.297700
H891	H89	0.078200	0.744300	0.629300
H901	H90	0.011800	0.939000	0.518600
H911	H91	0.414500	0.687100	0.456700
H921	H92	0.756600	0.907000	0.286000
H931	H93	0.941700	0.994500	0.563500
H941	H94	0.382100	0.628300	0.424700
H951	H95	0.054100	0.002500	0.614900
H961	H96	0.320700	0.636500	0.364500
H971	H97	0.375400	0.789000	0.626600
H981	H98	0.524900	0.887600	0.639600
H991	H99	0.255500	0.865200	0.343600
H1001	H100	0.482500	0.794100	0.259100
H1011	H101	0.528600	0.818800	0.648000
H1021	H102	0.402500	0.859700	0.282900
H1031	H103	0.745200	0.675500	0.945100
H1041	H104	0.807800	0.635500	0.948700
H1051	H105	0.858700	0.743900	0.987700
H1061	H106	0.965600	0.714800	0.981400
H1071	H107	0.328700	0.790200	0.043400
H1081	H108	0.724400	0.538300	0.973900
H1091	H109	0.281500	0.861800	0.037000
H1101	H110	0.228100	0.712200	0.950600
H1111	H111	0.344900	0.722600	0.953000
H1121	H112	0.489200	0.659200	0.955600
H1131	H113	0.435000	0.623200	0.957200
H1141	H114	0.156700	0.643200	0.103800
H1151	H115	0.167700	0.610200	0.074800
H1161	H116	0.681400	0.471700	0.972100
H1171	H117	0.424600	0.896000	0.999400
H1181	H118	0.603100	0.441800	0.032800
H1191	H119	0.789800	0.719700	0.874700
H1201	H120	0.931100	0.811800	0.912800
H1211	H121	0.390900	0.632100	0.158900
H1221	H122	0.555300	0.526300	0.202300
H1231	H123	0.951800	0.755700	0.870700
H1241	H124	0.969400	0.561000	0.981400
H1251	H125	0.058300	0.812900	0.043300
H1261	H126	0.449600	0.593000	0.214000
H1271	H127	0.999700	0.505500	0.936500
H1281	H128	0.935100	0.871700	0.075300
H1291	H129	0.171500	0.497500	0.885100
H1301	H130	0.821700	0.863500	0.135500
H1311	H131	0.291000	0.711000	0.873400
H1321	H132	0.552100	0.612400	0.860400
H1331	H133	0.964300	0.634800	0.156400
H1341	H134	0.035700	0.705900	0.240900
H1351	H135	0.495400	0.681200	0.852000
H1361	H136	0.045100	0.640300	0.217100
H1371	H137	0.309700	0.945100	0.824500
H1381	H138	0.243500	0.948700	0.864500
H1391	H139	0.153600	0.987700	0.756100
H1401	H140	0.053000	0.981400	0.785200
H1411	H141	0.627900	0.043400	0.709800
H1421	H142	0.301700	0.973900	0.961700
H1431	H143	0.681500	0.037000	0.638200
H1441	H144	0.821300	0.950600	0.787800
H1451	H145	0.702100	0.953000	0.777400
H1461	H146	0.555200	0.955600	0.840800
H1471	H147	0.607800	0.957200	0.876800
H1481	H148	0.739500	0.103800	0.856800
H1491	H149	0.757500	0.074800	0.889800
H1501	H150	0.346500	0.972100	0.028300
H1511	H151	0.576000	0.999400	0.604000
H1521	H152	0.364100	0.032800	0.058200
H1531	H153	0.335500	0.874700	0.780300
H1541	H154	0.156100	0.912800	0.688200
H1551	H155	0.450200	0.158900	0.867900
H1561	H156	0.242400	0.202300	0.973700
H1571	H157	0.177500	0.870700	0.744300
H1581	H158	0.049200	0.981400	0.939000
H1591	H159	0.898400	0.043300	0.687100
H1601	H160	0.336400	0.214000	0.907000
H1611	H161	0.063800	0.936500	0.994500
H1621	H162	0.989600	0.075300	0.628300
H1631	H163	0.943400	0.885100	0.002500
H1641	H164	0.042800	0.135500	0.636500
H1651	H165	0.835600	0.873400	0.789000
H1661	H166	0.587500	0.860400	0.887600
H1671	H167	0.879300	0.156400	0.865200
H1681	H168	0.723400	0.240900	0.794100
H1691	H169	0.652600	0.852000	0.818800
H1701	H170	0.737800	0.217100	0.859700
H1711	H171	0.579300	0.554900	0.675500
H1721	H172	0.556700	0.551300	0.635500
H1731	H173	0.397400	0.512300	0.743900
H1741	H174	0.319600	0.518600	0.714800
H1751	H175	0.881100	0.456600	0.790200
H1761	H176	0.737300	0.526100	0.538300
H1771	H177	0.856700	0.463000	0.861800
H1781	H178	0.059700	0.549400	0.712200
H1791	H179	0.932500	0.547000	0.722600
H1801	H180	0.851600	0.544400	0.659200
H1811	H181	0.941800	0.542800	0.623200
H1821	H182	0.200100	0.396200	0.643200
H1831	H183	0.222100	0.425200	0.610200
H1841	H184	0.846900	0.527900	0.471700
H1851	H185	0.679400	0.500600	0.896000
H1861	H186	0.955100	0.467200	0.441800
H1871	H187	0.490500	0.625300	0.719700
H1881	H188	0.257100	0.587200	0.811800
H1891	H189	0.977000	0.341100	0.632100
H1901	H190	0.918400	0.297700	0.526300
H1911	H191	0.292500	0.629300	0.755700
H1921	H192	0.469600	0.518600	0.561000
H1931	H193	0.128800	0.456700	0.812900
H1941	H194	0.957400	0.286000	0.593000
H1951	H195	0.494800	0.563500	0.505500
H1961	H196	0.193200	0.424700	0.871700
H1971	H197	0.331000	0.614900	0.497500
H1981	H198	0.314800	0.364500	0.863500
H1991	H199	0.998000	0.626600	0.711000
H2001	H200	0.835500	0.639600	0.612400
H2011	H201	0.400900	0.343600	0.634800
H2021	H202	0.258400	0.259100	0.705900
H2031	H203	0.823400	0.648000	0.681200
H2041	H204	0.314600	0.282900	0.640300
H2051	H205	0.134200	0.175500	0.445100
H2061	H206	0.108000	0.135500	0.448700
H2071	H207	0.909700	0.243900	0.487700
H2081	H208	0.838200	0.214800	0.481400
H2091	H209	0.337700	0.290200	0.543400
H2101	H210	0.263400	0.038300	0.473900
H2111	H211	0.319700	0.361800	0.537000
H2121	H212	0.609100	0.212200	0.450600
H2131	H213	0.479500	0.222600	0.453000
H2141	H214	0.396000	0.159200	0.455600
H2151	H215	0.484600	0.123200	0.457200
H2161	H216	0.596300	0.143200	0.603800
H2171	H217	0.647300	0.110200	0.574800
H2181	H218	0.374800	0.971700	0.472100
H2191	H219	0.180000	0.396000	0.499400
H2201	H220	0.422300	0.941800	0.532800
H2211	H221	0.115800	0.219700	0.374700
H2221	H222	0.844300	0.311800	0.412800
H2231	H223	0.318100	0.132100	0.658900
H2241	H224	0.216100	0.026300	0.702300
H2251	H225	0.921800	0.255700	0.370700
H2261	H226	0.988200	0.061000	0.481400
H2271	H227	0.585500	0.312900	0.543300
H2281	H228	0.243400	0.093000	0.714000
H2291	H229	0.058300	0.005500	0.436500
H2301	H230	0.617900	0.371700	0.575300
H2311	H231	0.945900	0.997500	0.385100
H2321	H232	0.679300	0.363500	0.635500
H2331	H233	0.624600	0.211000	0.373400
H2341	H234	0.475100	0.112400	0.360400
H2351	H235	0.744500	0.134800	0.656400
H2361	H236	0.517500	0.205900	0.740900
H2371	H237	0.471400	0.181200	0.352000
H2381	H238	0.597500	0.140300	0.717100
H2391	H239	0.254800	0.324500	0.054900
H2401	H240	0.192200	0.364500	0.051300
H2411	H241	0.141300	0.256100	0.012300
H2421	H242	0.034400	0.285200	0.018600
H2431	H243	0.671300	0.209800	0.956600
H2441	H244	0.275600	0.461700	0.026100
H2451	H245	0.718500	0.138200	0.963000
H2461	H246	0.771900	0.287800	0.049400
H2471	H247	0.655100	0.277400	0.047000
H2481	H248	0.510800	0.340800	0.044400
H2491	H249	0.565000	0.376800	0.042800
H2501	H250	0.843300	0.356800	0.896200
H2511	H251	0.832300	0.389800	0.925200
H2521	H252	0.318600	0.528300	0.027900
H2531	H253	0.575400	0.104000	0.000600
H2541	H254	0.396900	0.558200	0.967200
H2551	H255	0.210200	0.280300	0.125300
H2561	H256	0.068900	0.188200	0.087200
H2571	H257	0.609100	0.367900	0.841100
H2581	H258	0.444700	0.473700	0.797700
H2591	H259	0.048200	0.244300	0.129300
H2601	H260	0.030600	0.439000	0.018600
H2611	H261	0.941700	0.187100	0.956700
H2621	H262	0.550400	0.407000	0.786000
H2631	H263	0.000300	0.494500	0.063500
H2641	H264	0.064900	0.128300	0.924700
H2651	H265	0.828500	0.502500	0.114900
H2661	H266	0.178300	0.136500	0.864500
H2671	H267	0.709000	0.289000	0.126600
H2681	H268	0.447900	0.387600	0.139600
H2691	H269	0.035700	0.365200	0.843600
H2701	H270	0.964300	0.294100	0.759100
H2711	H271	0.504600	0.318800	0.148000
H2721	H272	0.954900	0.359700	0.782900
C11	C1	0.536160	0.988950	0.237330
C21	C2	0.728410	0.964030	0.091350
C31	C3	0.490030	0.997070	0.283070
C41	C4	0.686710	0.965770	0.049410
C51	C5	0.407600	0.974100	0.304500
C61	C6	0.535880	0.024700	0.305540
C71	C7	0.684030	0.002350	0.026590
C81	C8	0.662910	0.931230	0.030350
C91	C9	0.377700	0.977000	0.347200
C101	C10	0.614890	0.055540	0.287880
C111	C11	0.660240	0.003340	0.986580
C121	C12	0.653900	0.890810	0.050790
C131	C13	0.437200	0.000900	0.367300
C141	C14	0.595990	0.080720	0.253700
C151	C15	0.071460	0.017680	0.122800
C161	C16	0.185870	0.928760	0.238300
C171	C17	0.502400	0.919800	0.114400
C181	C18	0.646690	0.966980	0.969240
C191	C19	0.588510	0.885740	0.090040
C201	C20	0.674580	0.108130	0.242310
C211	C21	0.493540	0.078690	0.229230
C221	C22	0.781190	0.085490	0.297130
C231	C23	0.055050	0.049030	0.089070
C241	C24	0.113810	0.909020	0.273760
C251	C25	0.592040	0.845450	0.105870
C261	C26	0.715900	0.820060	0.042740
C271	C27	0.768830	0.110810	0.263730
C281	C28	0.110970	0.083800	0.085260
C291	C29	0.990600	0.041300	0.058700
C301	C30	0.082600	0.870100	0.271100
C311	C31	0.083600	0.930300	0.311300
C321	C32	0.657830	0.812710	0.082430
C331	C33	0.173650	0.100120	0.116780
C341	C34	0.984500	0.067200	0.025000
C351	C35	0.119800	0.845200	0.233000
C361	C36	0.027200	0.912100	0.345900
C371	C37	0.128360	0.104550	0.158330
C381	C38	0.053500	0.098800	0.021200
C391	C39	0.988700	0.897800	0.191400
C401	C40	0.085100	0.858500	0.196300
C411	C41	0.998600	0.875900	0.340300
C421	C42	0.009640	0.090170	0.178350
C431	C43	0.193450	0.123000	0.182900
C441	C44	0.339840	0.130820	0.124300
C451	C45	0.139300	0.834600	0.160400
C461	C46	0.232300	0.785300	0.202700
C471	C47	0.301980	0.136040	0.165200
C481	C48	0.219700	0.797900	0.163500
C491	C49	0.262440	0.511050	0.262670
C501	C50	0.283790	0.535970	0.408650
C511	C51	0.270170	0.502930	0.216930
C521	C52	0.201890	0.534230	0.450590
C531	C53	0.186200	0.525900	0.195500
C541	C54	0.366120	0.475300	0.194460
C551	C55	0.212970	0.497650	0.473410
C561	C56	0.124490	0.568770	0.469650
C571	C57	0.201900	0.523000	0.152800
C581	C58	0.458310	0.444460	0.212120
C591	C59	0.150160	0.496660	0.513420
C601	C60	0.095500	0.609190	0.449210
C611	C61	0.305400	0.499100	0.132700
C621	C62	0.430410	0.419280	0.246300
C631	C63	0.711940	0.482320	0.377200
C641	C64	0.852930	0.571240	0.261700
C651	C65	0.036600	0.580200	0.385600
C661	C66	0.082910	0.533020	0.530760
C671	C67	0.064290	0.614260	0.409960
C681	C68	0.525020	0.391870	0.257690
C691	C69	0.301460	0.421310	0.270770
C701	C70	0.663810	0.414510	0.202870
C711	C71	0.693150	0.450970	0.410930
C721	C72	0.796590	0.590980	0.226240
C731	C73	0.043360	0.654550	0.394130
C741	C74	0.078700	0.679940	0.457260
C751	C75	0.643370	0.389190	0.236270
C761	C76	0.780030	0.416200	0.414740
C771	C77	0.590600	0.458700	0.441300
C781	C78	0.723800	0.629900	0.228900
C791	C79	0.825200	0.569700	0.188700
C801	C80	0.052970	0.687290	0.417570
C811	C81	0.890550	0.399880	0.383220
C821	C82	0.576700	0.432800	0.475000
C831	C83	0.698000	0.654800	0.267000
C841	C84	0.785200	0.587900	0.154100
C851	C85	0.891240	0.395450	0.341670
C861	C86	0.673500	0.401200	0.478800
C871	C87	0.577900	0.602200	0.308600
C881	C88	0.639900	0.641500	0.303700
C891	C89	0.714800	0.624100	0.159700
C901	C90	0.778160	0.409830	0.321650
C911	C91	0.999350	0.377000	0.317100
C921	C92	0.094960	0.369180	0.375700
C931	C93	0.634300	0.665400	0.339600
C941	C94	0.720300	0.714700	0.297300
C951	C95	0.103220	0.363960	0.334800
C961	C96	0.681100	0.702100	0.336500
C971	C97	0.773490	0.762670	0.488950
C981	C98	0.819760	0.908650	0.464030
C991	C99	0.773100	0.716930	0.497070
C1001	C100	0.736120	0.950590	0.465770
C1011	C101	0.712100	0.695500	0.474100
C1021	C102	0.841420	0.694460	0.524700
C1031	C103	0.710620	0.973410	0.502350
C1041	C104	0.693260	0.969650	0.431230
C1051	C105	0.724900	0.652800	0.477000
C1061	C106	0.902770	0.712120	0.555540
C1071	C107	0.646820	0.013420	0.503340
C1081	C108	0.704690	0.949210	0.390810
C1091	C109	0.804500	0.632700	0.500900
C1101	C110	0.849690	0.746300	0.580720
C1111	C111	0.194260	0.877200	0.517680
C1121	C112	0.424170	0.761700	0.428760
C1131	C113	0.616800	0.885600	0.419800
C1141	C114	0.615930	0.030760	0.466980
C1151	C115	0.678550	0.909960	0.385740
C1161	C116	0.916890	0.757690	0.608130
C1171	C117	0.722770	0.770770	0.578690
C1181	C118	0.078320	0.702870	0.585490
C1191	C119	0.144120	0.910930	0.549030
C1201	C120	0.387570	0.726240	0.409020
C1211	C121	0.697910	0.894130	0.345450
C1221	C122	0.758640	0.957260	0.320060
C1231	C123	0.032560	0.736270	0.610810
C1241	C124	0.196230	0.914740	0.583800
C1251	C125	0.049300	0.941300	0.541300
C1261	C126	0.353700	0.728900	0.370100
C1271	C127	0.394900	0.688700	0.430300
C1281	C128	0.740260	0.917570	0.312710
C1291	C129	0.290430	0.883220	0.600120
C1301	C130	0.009500	0.975000	0.567200
C1311	C131	0.352800	0.767000	0.345200
C1321	C132	0.373100	0.654100	0.412100
C1331	C133	0.286690	0.841670	0.604550
C1341	C134	0.074700	0.978800	0.598800
C1351	C135	0.180100	0.808600	0.397800
C1361	C136	0.281400	0.803700	0.358500
C1371	C137	0.338900	0.659700	0.375900
C1381	C138	0.187990	0.821650	0.590170
C1391	C139	0.376350	0.817100	0.623000
C1401	C140	0.464140	0.875700	0.630820
C1411	C141	0.299700	0.839600	0.334600
C1421	C142	0.435000	0.797300	0.285300
C1431	C143	0.467180	0.834800	0.636040
C1441	C144	0.383200	0.836500	0.297900
C1451	C145	0.525110	0.737330	0.011050
C1461	C146	0.692440	0.591350	0.035970
C1471	C147	0.487100	0.783070	0.002930
C1481	C148	0.652480	0.549410	0.034230
C1491	C149	0.381700	0.804500	0.025900
C1501	C150	0.560580	0.805540	0.975300
C1511	C151	0.686380	0.526590	0.997650
C1521	C152	0.594140	0.530350	0.068770
C1531	C153	0.354700	0.847200	0.023000
C1541	C154	0.670430	0.787880	0.944460
C1551	C155	0.663580	0.486580	0.996660
C1561	C156	0.544710	0.550790	0.109190
C1571	C157	0.438100	0.867300	0.999100
C1581	C158	0.676710	0.753700	0.919280
C1591	C159	0.089140	0.622800	0.982320
C1601	C160	0.114630	0.738300	0.071240
C1611	C161	0.422200	0.614400	0.080200
C1621	C162	0.613670	0.469240	0.033020
C1631	C163	0.474250	0.590040	0.114260
C1641	C164	0.782710	0.742310	0.891870
C1651	C165	0.572230	0.729230	0.921310
C1661	C166	0.866680	0.797130	0.914510
C1671	C167	0.104080	0.589070	0.950970
C1681	C168	0.022830	0.773760	0.090980
C1691	C169	0.437490	0.605870	0.154550
C1701	C170	0.535960	0.542740	0.179940
C1711	C171	0.879640	0.763730	0.889190
C1721	C172	0.194770	0.585260	0.916200
C1731	C173	0.031900	0.558700	0.958700
C1741	C174	0.952700	0.771100	0.129900
C1751	C175	0.013900	0.811300	0.069700
C1761	C176	0.470540	0.582430	0.187290
C1771	C177	0.273770	0.616780	0.899880
C1781	C178	0.051700	0.525000	0.932800
C1791	C179	0.965000	0.733000	0.154800
C1801	C180	0.939300	0.845900	0.087900
C1811	C181	0.232910	0.658330	0.895450
C1821	C182	0.152300	0.521200	0.901200
C1831	C183	0.886500	0.691400	0.102200
C1841	C184	0.943600	0.696300	0.141500
C1851	C185	0.874500	0.840300	0.124100
C1861	C186	0.099810	0.678350	0.909830
C1871	C187	0.316450	0.682900	0.877000
C1881	C188	0.470660	0.624300	0.869180
C1891	C189	0.973900	0.660400	0.165400
C1901	C190	0.017600	0.702700	0.214700
C1911	C191	0.438020	0.665200	0.863960
C1921	C192	0.017600	0.663500	0.202100
C1931	C193	0.463840	0.011050	0.762670
C1941	C194	0.271590	0.035970	0.908650
C1951	C195	0.509970	0.002930	0.716930
C1961	C196	0.313290	0.034230	0.950590
C1971	C197	0.592400	0.025900	0.695500
C1981	C198	0.464120	0.975300	0.694460
C1991	C199	0.315970	0.997650	0.973410
C2001	C200	0.337090	0.068770	0.969650
C2011	C201	0.622300	0.023000	0.652800
C2021	C202	0.385110	0.944460	0.712120
C2031	C203	0.339760	0.996660	0.013420
C2041	C204	0.346100	0.109190	0.949210
C2051	C205	0.562800	0.999100	0.632700
C2061	C206	0.404010	0.919280	0.746300
C2071	C207	0.928540	0.982320	0.877200
C2081	C208	0.814130	0.071240	0.761700
C2091	C209	0.497600	0.080200	0.885600
C2101	C210	0.353310	0.033020	0.030760
C2111	C211	0.411490	0.114260	0.909960
C2121	C212	0.325420	0.891870	0.757690
C2131	C213	0.506460	0.921310	0.770770
C2141	C214	0.218810	0.914510	0.702870
C2151	C215	0.944950	0.950970	0.910930
C2161	C216	0.886190	0.090980	0.726240
C2171	C217	0.407960	0.154550	0.894130
C2181	C218	0.284100	0.179940	0.957260
C2191	C219	0.231170	0.889190	0.736270
C2201	C220	0.889030	0.916200	0.914740
C2211	C221	0.009400	0.958700	0.941300
C2221	C222	0.917400	0.129900	0.728900
C2231	C223	0.916400	0.069700	0.688700
C2241	C224	0.342170	0.187290	0.917570
C2251	C225	0.826350	0.899880	0.883220
C2261	C226	0.015500	0.932800	0.975000
C2271	C227	0.880200	0.154800	0.767000
C2281	C228	0.972800	0.087900	0.654100
C2291	C229	0.871640	0.895450	0.841670
C2301	C230	0.946500	0.901200	0.978800
C2311	C231	0.011300	0.102200	0.808600
C2321	C232	0.914900	0.141500	0.803700
C2331	C233	0.001400	0.124100	0.659700
C2341	C234	0.990360	0.909830	0.821650
C2351	C235	0.806550	0.877000	0.817100
C2361	C236	0.660160	0.869180	0.875700
C2371	C237	0.860700	0.165400	0.839600
C2381	C238	0.767700	0.214700	0.797300
C2391	C239	0.698020	0.863960	0.834800
C2401	C240	0.780300	0.202100	0.836500
C2411	C241	0.737560	0.488950	0.737330
C2421	C242	0.716210	0.464030	0.591350
C2431	C243	0.729830	0.497070	0.783070
C2441	C244	0.798110	0.465770	0.549410
C2451	C245	0.813800	0.474100	0.804500
C2461	C246	0.633880	0.524700	0.805540
C2471	C247	0.787030	0.502350	0.526590
C2481	C248	0.875510	0.431230	0.530350
C2491	C249	0.798100	0.477000	0.847200
C2501	C250	0.541690	0.555540	0.787880
C2511	C251	0.849840	0.503340	0.486580
C2521	C252	0.904500	0.390810	0.550790
C2531	C253	0.694600	0.500900	0.867300
C2541	C254	0.569590	0.580720	0.753700
C2551	C255	0.288060	0.517680	0.622800
C2561	C256	0.147070	0.428760	0.738300
C2571	C257	0.963400	0.419800	0.614400
C2581	C258	0.917090	0.466980	0.469240
C2591	C259	0.935710	0.385740	0.590040
C2601	C260	0.474980	0.608130	0.742310
C2611	C261	0.698540	0.578690	0.729230
C2621	C262	0.336190	0.585490	0.797130
C2631	C263	0.306850	0.549030	0.589070
C2641	C264	0.203410	0.409020	0.773760
C2651	C265	0.956640	0.345450	0.605870
C2661	C266	0.921300	0.320060	0.542740
C2671	C267	0.356630	0.610810	0.763730
C2681	C268	0.219970	0.583800	0.585260
C2691	C269	0.409400	0.541300	0.558700
C2701	C270	0.276200	0.370100	0.771100
C2711	C271	0.174800	0.430300	0.811300
C2721	C272	0.947030	0.312710	0.582430
C2731	C273	0.109450	0.600120	0.616780
C2741	C274	0.423300	0.567200	0.525000
C2751	C275	0.302000	0.345200	0.733000
C2761	C276	0.214800	0.412100	0.845900
C2771	C277	0.108760	0.604550	0.658330
C2781	C278	0.326500	0.598800	0.521200
C2791	C279	0.422100	0.397800	0.691400
C2801	C280	0.360100	0.358500	0.696300
C2811	C281	0.285200	0.375900	0.840300
C2821	C282	0.221840	0.590170	0.678350
C2831	C283	0.000650	0.623000	0.682900
C2841	C284	0.905040	0.630820	0.624300
C2851	C285	0.365700	0.334600	0.660400
C2861	C286	0.279700	0.285300	0.702700
C2871	C287	0.896780	0.636040	0.665200
C2881	C288	0.318900	0.297900	0.663500
C2891	C289	0.226510	0.237330	0.511050
C2901	C290	0.180240	0.091350	0.535970
C2911	C291	0.226900	0.283070	0.502930
C2921	C292	0.263880	0.049410	0.534230
C2931	C293	0.287900	0.304500	0.525900
C2941	C294	0.158580	0.305540	0.475300
C2951	C295	0.289380	0.026590	0.497650
C2961	C296	0.306740	0.030350	0.568770
C2971	C297	0.275100	0.347200	0.523000
C2981	C298	0.097230	0.287880	0.444460
C2991	C299	0.353180	0.986580	0.496660
C3001	C300	0.295310	0.050790	0.609190
C3011	C301	0.195500	0.367300	0.499100
C3021	C302	0.150310	0.253700	0.419280
C3031	C303	0.805740	0.122800	0.482320
C3041	C304	0.575830	0.238300	0.571240
C3051	C305	0.383200	0.114400	0.580200
C3061	C306	0.384070	0.969240	0.533020
C3071	C307	0.321450	0.090040	0.614260
C3081	C308	0.083110	0.242310	0.391870
C3091	C309	0.277230	0.229230	0.421310
C3101	C310	0.921680	0.297130	0.414510
C3111	C311	0.855880	0.089070	0.450970
C3121	C312	0.612430	0.273760	0.590980
C3131	C313	0.302090	0.105870	0.654550
C3141	C314	0.241360	0.042740	0.679940
C3151	C315	0.967440	0.263730	0.389190
C3161	C316	0.803770	0.085260	0.416200
C3171	C317	0.950700	0.058700	0.458700
C3181	C318	0.646300	0.271100	0.629900
C3191	C319	0.605100	0.311300	0.569700
C3201	C320	0.259740	0.082430	0.687290
C3211	C321	0.709570	0.116780	0.399880
C3221	C322	0.990500	0.025000	0.432800
C3231	C323	0.647200	0.233000	0.654800
C3241	C324	0.626900	0.345900	0.587900
C3251	C325	0.713310	0.158330	0.395450
C3261	C326	0.925300	0.021200	0.401200
C3271	C327	0.819900	0.191400	0.602200
C3281	C328	0.718600	0.196300	0.641500
C3291	C329	0.661100	0.340300	0.624100
C3301	C330	0.812010	0.178350	0.409830
C3311	C331	0.623650	0.182900	0.377000
C3321	C332	0.535860	0.124300	0.369180
C3331	C333	0.700300	0.160400	0.665400
C3341	C334	0.565000	0.202700	0.714700
C3351	C335	0.532820	0.165200	0.363960
C3361	C336	0.616800	0.163500	0.702100
C3371	C337	0.474890	0.262670	0.988950
C3381	C338	0.307560	0.408650	0.964030
C3391	C339	0.512900	0.216930	0.997070
C3401	C340	0.347520	0.450590	0.965770
C3411	C341	0.618300	0.195500	0.974100
C3421	C342	0.439420	0.194460	0.024700
C3431	C343	0.313620	0.473410	0.002350
C3441	C344	0.405860	0.469650	0.931230
C3451	C345	0.645300	0.152800	0.977000
C3461	C346	0.329570	0.212120	0.055540
C3471	C347	0.336420	0.513420	0.003340
C3481	C348	0.455290	0.449210	0.890810
C3491	C349	0.561900	0.132700	0.000900
C3501	C350	0.323290	0.246300	0.080720
C3511	C351	0.910860	0.377200	0.017680
C3521	C352	0.885370	0.261700	0.928760
C3531	C353	0.577800	0.385600	0.919800
C3541	C354	0.386330	0.530760	0.966980
C3551	C355	0.525750	0.409960	0.885740
C3561	C356	0.217290	0.257690	0.108130
C3571	C357	0.427770	0.270770	0.078690
C3581	C358	0.133320	0.202870	0.085490
C3591	C359	0.895920	0.410930	0.049030
C3601	C360	0.977170	0.226240	0.909020
C3611	C361	0.562510	0.394130	0.845450
C3621	C362	0.464040	0.457260	0.820060
C3631	C363	0.120360	0.236270	0.110810
C3641	C364	0.805230	0.414740	0.083800
C3651	C365	0.968100	0.441300	0.041300
C3661	C366	0.047300	0.228900	0.870100
C3671	C367	0.986100	0.188700	0.930300
C3681	C368	0.529460	0.417570	0.812710
C3691	C369	0.726230	0.383220	0.100120
C3701	C370	0.948300	0.475000	0.067200
C3711	C371	0.035000	0.267000	0.845200
C3721	C372	0.060700	0.154100	0.912100
C3731	C373	0.767090	0.341670	0.104550
C3741	C374	0.847700	0.478800	0.098800
C3751	C375	0.113500	0.308600	0.897800
C3761	C376	0.056400	0.303700	0.858500
C3771	C377	0.125500	0.159700	0.875900
C3781	C378	0.900190	0.321650	0.090170
C3791	C379	0.683550	0.317100	0.123000
C3801	C380	0.529340	0.375700	0.130820
C3811	C381	0.026100	0.339600	0.834600
C3821	C382	0.982400	0.297300	0.785300
C3831	C383	0.561980	0.334800	0.136040
C3841	C384	0.982400	0.336500	0.797900
N11	N1	0.514060	0.024850	0.347430
N21	N2	0.648470	0.931530	0.990330
N31	N3	0.705530	0.058190	0.309350
N41	N4	0.713770	0.857940	0.027320
N51	N5	0.721710	0.886310	0.900270
N61	N6	0.884250	0.892910	0.949390
N71	N7	0.020900	0.852520	0.304880
N81	N8	0.186300	0.807400	0.236800
N91	N9	0.386340	0.475150	0.152570
N101	N10	0.070330	0.568470	0.509670
N111	N11	0.573070	0.441810	0.190650
N121	N12	0.099030	0.642060	0.472680
N131	N13	0.008290	0.613690	0.599730
N141	N14	0.226550	0.607090	0.550610
N151	N15	0.678300	0.647480	0.195120
N161	N16	0.730500	0.692600	0.263200
N171	N17	0.861490	0.652570	0.524850
N181	N18	0.638800	0.009670	0.431530
N191	N19	0.014880	0.690650	0.558190
N201	N20	0.741090	0.972680	0.357940
N211	N21	0.621980	0.099730	0.386310
N221	N22	0.833640	0.050610	0.392910
N231	N23	0.325780	0.695120	0.352520
N241	N24	0.423100	0.763200	0.307400
N251	N25	0.538910	0.847430	0.975150
N261	N26	0.580000	0.490330	0.068470
N271	N27	0.763720	0.809350	0.941810
N281	N28	0.571710	0.527320	0.142060
N291	N29	0.608020	0.400270	0.113690
N301	N30	0.777160	0.449390	0.107090
N311	N31	0.873420	0.804880	0.147480
N321	N32	0.993700	0.736800	0.192600
N331	N33	0.485940	0.975150	0.652570
N341	N34	0.351530	0.068470	0.009670
N351	N35	0.294470	0.941810	0.690650
N361	N36	0.286230	0.142060	0.972680
N371	N37	0.278290	0.113690	0.099730
N381	N38	0.115750	0.107090	0.050610
N391	N39	0.979100	0.147480	0.695120
N401	N40	0.813700	0.192600	0.763200
N411	N41	0.613660	0.524850	0.847430
N421	N42	0.929670	0.431530	0.490330
N431	N43	0.426930	0.558190	0.809350
N441	N44	0.900970	0.357940	0.527320
N451	N45	0.991710	0.386310	0.400270
N461	N46	0.773450	0.392910	0.449390
N471	N47	0.321700	0.352520	0.804880
N481	N48	0.269500	0.307400	0.736800
N491	N49	0.138510	0.347430	0.475150
N501	N50	0.361200	0.990330	0.568470
N511	N51	0.985120	0.309350	0.441810
N521	N52	0.258910	0.027320	0.642060
N531	N53	0.378020	0.900270	0.613690
N541	N54	0.166360	0.949390	0.607090
N551	N55	0.674220	0.304880	0.647480
N561	N56	0.576900	0.236800	0.692600
N571	N57	0.461090	0.152570	0.024850
N581	N58	0.420000	0.509670	0.931530
N591	N59	0.236280	0.190650	0.058190
N601	N60	0.428290	0.472680	0.857940
N611	N61	0.391980	0.599730	0.886310
N621	N62	0.222840	0.550610	0.892910
N631	N63	0.126580	0.195120	0.852520
N641	N64	0.006300	0.263200	0.807400
O11	O1	0.698390	0.913460	0.183760
O21	O2	0.760090	0.046450	0.160970
O31	O3	0.904480	0.000700	0.225540
O41	O4	0.645470	0.993090	0.224970
O51	O5	0.663240	0.985750	0.120570
O61	O6	0.830720	0.943090	0.094070
O71	O7	0.988740	0.995780	0.132340
O81	O8	0.993960	0.912340	0.156540
O91	O9	0.906240	0.910630	0.221090
O101	O10	0.464690	0.977370	0.216850
O111	O11	0.169230	0.014240	0.137300
O121	O12	0.131880	0.960230	0.221610
O131	O13	0.295210	0.914600	0.226380
O141	O14	0.239500	0.032590	0.220810
O151	O15	0.433330	0.028060	0.140280
O161	O16	0.227720	0.922040	0.137520
O171	O17	0.444790	0.948780	0.096640
O181	O18	0.485970	0.916170	0.153690
O191	O19	0.387120	0.078460	0.249300
O201	O20	0.523250	0.077150	0.190950
O211	O21	0.013240	0.070470	0.211450
O221	O22	0.918050	0.099300	0.160800
O231	O23	0.295610	0.586540	0.316240
O241	O24	0.467510	0.453550	0.339030
O251	O25	0.630720	0.499300	0.274460
O261	O26	0.363530	0.506910	0.275030
O271	O27	0.269560	0.514250	0.379430
O281	O28	0.367880	0.556910	0.405930
O291	O29	0.616860	0.504220	0.367660
O301	O30	0.562840	0.587660	0.343460
O311	O31	0.537960	0.589370	0.278910
O321	O32	0.158910	0.522630	0.283150
O331	O33	0.820770	0.485760	0.362700
O341	O34	0.813720	0.539770	0.278390
O351	O35	0.936190	0.585400	0.273620
O361	O36	0.992900	0.467410	0.279190
O371	O37	0.101670	0.471940	0.359720
O381	O38	0.787280	0.577960	0.362480
O391	O39	0.990210	0.551220	0.403360
O401	O40	0.055830	0.583830	0.346310
O411	O41	0.214880	0.421540	0.250700
O421	O42	0.291350	0.422850	0.309050
O431	O43	0.795160	0.429530	0.288550
O441	O44	0.678150	0.400700	0.339200
O451	O45	0.882150	0.816240	0.413460
O461	O46	0.921060	0.839030	0.546450
O471	O47	0.130020	0.774460	0.500700
O481	O48	0.870440	0.775030	0.493090
O491	O49	0.783810	0.879430	0.485750
O501	O50	0.924790	0.905930	0.443090
O511	O51	0.121080	0.867660	0.495780
O521	O52	0.150500	0.843460	0.412340
O531	O53	0.127330	0.778910	0.410630
O541	O54	0.681540	0.783150	0.477370
O551	O55	0.306530	0.862700	0.514240
O561	O56	0.353490	0.778390	0.460230
O571	O57	0.521590	0.773620	0.414600
O581	O58	0.460310	0.779190	0.532590
O591	O59	0.573610	0.859720	0.528060
O601	O60	0.365240	0.862480	0.422040
O611	O61	0.541430	0.903360	0.448780
O621	O62	0.639660	0.846310	0.416170
O631	O63	0.636420	0.750700	0.578460
O641	O64	0.714200	0.809050	0.577150
O651	O65	0.224690	0.788550	0.570470
O661	O66	0.078850	0.839200	0.599300
O671	O67	0.611850	0.683760	0.086540
O681	O68	0.806540	0.660970	0.953550
O691	O69	0.905180	0.725540	0.999300
O701	O70	0.638560	0.724970	0.006910
O711	O71	0.648990	0.620570	0.014250
O721	O72	0.773810	0.594070	0.056910
O731	O73	0.984520	0.632340	0.004220
O741	O74	0.906300	0.656540	0.087660
O751	O75	0.816870	0.721090	0.089370
O761	O76	0.442060	0.716850	0.022630
O771	O77	0.183470	0.637300	0.985760
O781	O78	0.092110	0.721610	0.039770
O791	O79	0.209810	0.726380	0.085400
O801	O80	0.272090	0.720810	0.967410
O811	O81	0.461390	0.640280	0.971940
O821	O82	0.149760	0.637520	0.077960
O831	O83	0.393570	0.596640	0.051220
O841	O84	0.402140	0.653690	0.083830
O851	O85	0.465580	0.749300	0.921540
O861	O86	0.600400	0.690950	0.922850
O871	O87	0.083710	0.711450	0.929530
O881	O88	0.017350	0.660800	0.900700
O891	O89	0.301610	0.086540	0.816240
O901	O90	0.239910	0.953550	0.839030
O911	O91	0.095520	0.999300	0.774460
O921	O92	0.354530	0.006910	0.775030
O931	O93	0.336760	0.014250	0.879430
O941	O94	0.169280	0.056910	0.905930
O951	O95	0.011260	0.004220	0.867660
O961	O96	0.006040	0.087660	0.843460
O971	O97	0.093760	0.089370	0.778910
O981	O98	0.535310	0.022630	0.783150
O991	O99	0.830770	0.985760	0.862700
O1001	O100	0.868120	0.039770	0.778390
O1011	O101	0.704790	0.085400	0.773620
O1021	O102	0.760500	0.967410	0.779190
O1031	O103	0.566670	0.971940	0.859720
O1041	O104	0.772280	0.077960	0.862480
O1051	O105	0.555210	0.051220	0.903360
O1061	O106	0.514030	0.083830	0.846310
O1071	O107	0.612880	0.921540	0.750700
O1081	O108	0.476750	0.922850	0.809050
O1091	O109	0.986760	0.929530	0.788550
O1101	O110	0.081950	0.900700	0.839200
O1111	O111	0.704390	0.413460	0.683760
O1121	O112	0.532490	0.546450	0.660970
O1131	O113	0.369280	0.500700	0.725540
O1141	O114	0.636470	0.493090	0.724970
O1151	O115	0.730440	0.485750	0.620570
O1161	O116	0.632120	0.443090	0.594070
O1171	O117	0.383140	0.495780	0.632340
O1181	O118	0.437160	0.412340	0.656540
O1191	O119	0.462040	0.410630	0.721090
O1201	O120	0.841090	0.477370	0.716850
O1211	O121	0.179230	0.514240	0.637300
O1221	O122	0.186280	0.460230	0.721610
O1231	O123	0.063810	0.414600	0.726380
O1241	O124	0.007100	0.532590	0.720810
O1251	O125	0.898330	0.528060	0.640280
O1261	O126	0.212720	0.422040	0.637520
O1271	O127	0.009790	0.448780	0.596640
O1281	O128	0.944170	0.416170	0.653690
O1291	O129	0.785120	0.578460	0.749300
O1301	O130	0.708650	0.577150	0.690950
O1311	O131	0.204840	0.570470	0.711450
O1321	O132	0.321850	0.599300	0.660800
O1331	O133	0.117850	0.183760	0.586540
O1341	O134	0.078940	0.160970	0.453550
O1351	O135	0.869980	0.225540	0.499300
O1361	O136	0.129560	0.224970	0.506910
O1371	O137	0.216190	0.120570	0.514250
O1381	O138	0.075210	0.094070	0.556910
O1391	O139	0.878920	0.132340	0.504220
O1401	O140	0.849500	0.156540	0.587660
O1411	O141	0.872670	0.221090	0.589370
O1421	O142	0.318460	0.216850	0.522630
O1431	O143	0.693470	0.137300	0.485760
O1441	O144	0.646510	0.221610	0.539770
O1451	O145	0.478410	0.226380	0.585400
O1461	O146	0.539690	0.220810	0.467410
O1471	O147	0.426390	0.140280	0.471940
O1481	O148	0.634760	0.137520	0.577960
O1491	O149	0.458570	0.096640	0.551220
O1501	O150	0.360340	0.153690	0.583830
O1511	O151	0.363580	0.249300	0.421540
O1521	O152	0.285800	0.190950	0.422850
O1531	O153	0.775310	0.211450	0.429530
O1541	O154	0.921150	0.160800	0.400700
O1551	O155	0.388150	0.316240	0.913460
O1561	O156	0.193460	0.339030	0.046450
O1571	O157	0.094820	0.274460	0.000700
O1581	O158	0.361440	0.275030	0.993090
O1591	O159	0.351010	0.379430	0.985750
O1601	O160	0.226190	0.405930	0.943090
O1611	O161	0.015480	0.367660	0.995780
O1621	O162	0.093700	0.343460	0.912340
O1631	O163	0.183130	0.278910	0.910630
O1641	O164	0.557940	0.283150	0.977370
O1651	O165	0.816530	0.362700	0.014240
O1661	O166	0.907890	0.278390	0.960230
O1671	O167	0.790190	0.273620	0.914600
O1681	O168	0.727910	0.279190	0.032590
O1691	O169	0.538610	0.359720	0.028060
O1701	O170	0.850240	0.362480	0.922040
O1711	O171	0.606430	0.403360	0.948780
O1721	O172	0.597860	0.346310	0.916170
O1731	O173	0.534420	0.250700	0.078460
O1741	O174	0.399600	0.309050	0.077150
O1751	O175	0.916290	0.288550	0.070470
O1761	O176	0.982650	0.339200	0.099300
