data_MIFSAX_freeONLY_PM
_symmetry_space_group_name_H-M	'P1'
_cell_length_a	11.236700
_cell_length_b	32.968200
_cell_length_c	32.968200
_cell_angle_alpha	88.335700
_cell_angle_beta	80.187900
_cell_angle_gamma	80.187700
_symmetry_Int_Tables_number 1

loop_
_symmetry_equiv_pos_as_xyz
'x,y,z'

loop_
_atom_site_label
_atom_site_type_symbol
_atom_site_fract_x
_atom_site_fract_y
_atom_site_fract_z
Pr11	Pr1	0.816460	0.971380	0.171340
Pr21	Pr2	0.316870	0.974080	0.173140
Pr31	Pr3	0.459180	0.528620	0.328660
Pr41	Pr4	0.964090	0.525920	0.326860
Pr51	Pr5	0.987800	0.828660	0.471380
Pr61	Pr6	0.490020	0.826850	0.474080
Pr71	Pr7	0.787840	0.671340	0.028620
Pr81	Pr8	0.290940	0.673150	0.025920
Pr91	Pr9	0.183540	0.028620	0.828660
Pr101	Pr10	0.683130	0.025920	0.826860
Pr111	Pr11	0.540820	0.471380	0.671340
Pr121	Pr12	0.035910	0.474080	0.673140
Pr131	Pr13	0.012200	0.171340	0.528620
Pr141	Pr14	0.509980	0.173150	0.525920
Pr151	Pr15	0.212160	0.328660	0.971380
Pr161	Pr16	0.709060	0.326850	0.974080
Co11	Co1	0.711270	0.871070	0.963590
Co21	Co2	0.045930	0.628930	0.536410
Co31	Co3	0.674860	0.036410	0.371070
Co41	Co4	0.582340	0.463590	0.128930
Co51	Co5	0.288730	0.128930	0.036410
Co61	Co6	0.954070	0.371070	0.463590
Co71	Co7	0.325140	0.963590	0.628930
Co81	Co8	0.417660	0.536410	0.871070
H11	H1	0.702000	0.892200	0.197800
H21	H2	0.638000	0.918000	0.172000
H31	H3	0.959800	0.016500	0.059300
H41	H4	0.935700	0.063900	0.006100
H51	H5	0.066100	0.113700	0.996700
H61	H6	0.414400	0.138900	0.111700
H71	H7	0.347100	0.148200	0.180000
H81	H8	0.165100	0.126700	0.209700
H91	H9	0.555400	0.842300	0.132700
H101	H10	0.663500	0.787400	0.093600
H111	H11	0.759200	0.798900	0.026700
H121	H12	0.635900	0.966800	0.941800
H131	H13	0.652700	0.028300	0.972300
H141	H14	0.697300	0.026000	0.038000
H151	H15	0.667000	0.123600	0.219800
H161	H16	0.824600	0.128100	0.255700
H171	H17	0.842500	0.086600	0.313000
H181	H18	0.423800	0.999500	0.396100
H191	H19	0.318800	0.962600	0.361000
H201	H20	0.375200	0.955500	0.290300
H211	H21	0.102100	0.956500	0.313500
H221	H22	0.015600	0.925400	0.371800
H231	H23	0.957700	0.865500	0.363300
H241	H24	0.268200	0.759700	0.205900
H251	H25	0.267300	0.785500	0.139500
H261	H26	0.127000	0.845200	0.134000
H271	H27	0.165100	0.046800	0.216000
H281	H28	0.289700	0.051900	0.217500
H291	H29	0.510000	0.017700	0.127300
H301	H30	0.443600	0.047300	0.158900
H311	H31	0.251400	0.896100	0.143700
H321	H32	0.236000	0.926200	0.109400
H331	H33	0.790600	0.061500	0.178100
H341	H34	0.678400	0.055300	0.165500
H351	H35	0.919500	0.027500	0.219500
H361	H36	0.976900	0.986400	0.230200
H371	H37	0.292000	0.607800	0.302200
H381	H38	0.228000	0.582000	0.328000
H391	H39	0.535600	0.483500	0.440700
H401	H40	0.505700	0.436100	0.493900
H411	H41	0.676500	0.386300	0.503300
H421	H42	0.165000	0.361100	0.388300
H431	H43	0.175300	0.351800	0.320000
H441	H44	0.001500	0.373300	0.290300
H451	H45	0.030400	0.657700	0.367300
H461	H46	0.044500	0.712600	0.406400
H471	H47	0.084800	0.701100	0.473300
H481	H48	0.044500	0.533200	0.558200
H491	H49	0.153300	0.471700	0.527700
H501	H50	0.261300	0.474000	0.462000
H511	H51	0.510400	0.376400	0.280200
H521	H52	0.708400	0.371900	0.244300
H531	H53	0.742100	0.413400	0.187000
H541	H54	0.319400	0.500500	0.103900
H551	H55	0.142400	0.537400	0.139000
H561	H56	0.121000	0.544500	0.209700
H571	H57	0.872100	0.543500	0.186500
H581	H58	0.812800	0.574600	0.128200
H591	H59	0.686500	0.634500	0.136700
H601	H60	0.733800	0.740300	0.294100
H611	H61	0.692300	0.714500	0.360500
H621	H62	0.606200	0.654800	0.366000
H631	H63	0.927900	0.453200	0.284000
H641	H64	0.059100	0.448100	0.282500
H651	H65	0.155000	0.482300	0.372700
H661	H66	0.149800	0.452700	0.341100
H671	H67	0.791200	0.603900	0.356300
H681	H68	0.771600	0.573800	0.390600
H691	H69	0.530200	0.438500	0.321900
H701	H70	0.399200	0.444700	0.334500
H711	H71	0.666500	0.472500	0.280500
H721	H72	0.693500	0.513600	0.269800
H731	H73	0.899800	0.802200	0.392200
H741	H74	0.810000	0.828000	0.418000
H751	H75	0.019100	0.940700	0.516500
H761	H76	0.941800	0.993900	0.563900
H771	H77	0.062800	0.003300	0.613700
H781	H78	0.526100	0.888300	0.638900
H791	H79	0.527100	0.820000	0.648200
H801	H80	0.374800	0.790300	0.626700
H811	H81	0.688100	0.867300	0.342300
H821	H82	0.757100	0.906400	0.287400
H831	H83	0.785900	0.973300	0.298900
H841	H84	0.577700	0.058200	0.466800
H851	H85	0.625000	0.027700	0.528300
H861	H86	0.735300	0.962000	0.526000
H871	H87	0.886800	0.780200	0.623600
H881	H88	0.080300	0.744300	0.628100
H891	H89	0.155500	0.687000	0.586600
H901	H90	0.819900	0.603900	0.499500
H911	H91	0.679800	0.639000	0.462600
H921	H92	0.665500	0.709700	0.455500
H931	H93	0.415600	0.686500	0.456500
H941	H94	0.387400	0.628200	0.425400
H951	H95	0.321000	0.636700	0.365500
H961	H96	0.474100	0.794100	0.259700
H971	H97	0.406800	0.860500	0.285500
H981	H98	0.261000	0.866000	0.345200
H991	H99	0.381100	0.784000	0.546800
H1001	H100	0.507200	0.782500	0.551900
H1011	H101	0.637300	0.872700	0.517700
H1021	H102	0.602500	0.841100	0.547300
H1031	H103	0.395100	0.856300	0.396100
H1041	H104	0.345400	0.890600	0.426200
H1051	H105	0.968700	0.821900	0.561500
H1061	H106	0.843900	0.834500	0.555300
H1071	H107	0.139000	0.780500	0.527500
H1081	H108	0.207100	0.769800	0.486400
H1091	H109	0.594200	0.697800	0.107800
H1101	H110	0.556000	0.672000	0.082000
H1111	H111	0.976300	0.559300	0.983500
H1121	H112	0.999600	0.506100	0.936100
H1131	H113	0.179800	0.496700	0.886300
H1141	H114	0.553300	0.611700	0.861100
H1151	H115	0.495300	0.680000	0.851800
H1161	H116	0.291800	0.709700	0.873300
H1171	H117	0.397700	0.632700	0.157700
H1181	H118	0.450900	0.593600	0.212600
H1191	H119	0.558100	0.526700	0.201100
H1201	H120	0.602700	0.441800	0.033200
H1211	H121	0.681000	0.472300	0.971700
H1221	H122	0.723300	0.538000	0.974000
H1231	H123	0.790600	0.719800	0.876400
H1241	H124	0.952700	0.755700	0.871900
H1251	H125	0.929100	0.813000	0.913400
H1261	H126	0.423300	0.896100	0.000500
H1271	H127	0.281400	0.861000	0.037400
H1281	H128	0.330700	0.790300	0.044500
H1291	H129	0.058600	0.813500	0.043500
H1301	H130	0.941000	0.871800	0.074600
H1311	H131	0.823200	0.863300	0.134500
H1321	H132	0.027900	0.705900	0.240300
H1331	H133	0.052800	0.639500	0.214500
H1341	H134	0.972200	0.634000	0.154800
H1351	H135	0.211900	0.716000	0.953200
H1361	H136	0.341600	0.717500	0.948100
H1371	H137	0.527700	0.627300	0.982300
H1381	H138	0.490900	0.658900	0.952700
H1391	H139	0.147500	0.643700	0.103900
H1401	H140	0.162200	0.609400	0.073800
H1411	H141	0.852100	0.678100	0.938500
H1421	H142	0.733700	0.665500	0.944700
H1431	H143	0.947000	0.719500	0.972500
H1441	H144	0.963300	0.730200	0.013600
H1451	H145	0.298000	0.107800	0.802200
H1461	H146	0.362000	0.082000	0.828000
H1471	H147	0.040200	0.983500	0.940700
H1481	H148	0.064300	0.936100	0.993900
H1491	H149	0.933900	0.886300	0.003300
H1501	H150	0.585600	0.861100	0.888300
H1511	H151	0.652900	0.851800	0.820000
H1521	H152	0.834900	0.873300	0.790300
H1531	H153	0.444600	0.157700	0.867300
H1541	H154	0.336500	0.212600	0.906400
H1551	H155	0.240800	0.201100	0.973300
H1561	H156	0.364100	0.033200	0.058200
H1571	H157	0.347300	0.971700	0.027700
H1581	H158	0.302700	0.974000	0.962000
H1591	H159	0.333000	0.876400	0.780200
H1601	H160	0.175400	0.871900	0.744300
H1611	H161	0.157500	0.913400	0.687000
H1621	H162	0.576200	0.000500	0.603900
H1631	H163	0.681200	0.037400	0.639000
H1641	H164	0.624800	0.044500	0.709700
H1651	H165	0.897900	0.043500	0.686500
H1661	H166	0.984400	0.074600	0.628200
H1671	H167	0.042300	0.134500	0.636700
H1681	H168	0.731800	0.240300	0.794100
H1691	H169	0.732700	0.214500	0.860500
H1701	H170	0.873000	0.154800	0.866000
H1711	H171	0.834900	0.953200	0.784000
H1721	H172	0.710300	0.948100	0.782500
H1731	H173	0.490000	0.982300	0.872700
H1741	H174	0.556400	0.952700	0.841100
H1751	H175	0.748600	0.103900	0.856300
H1761	H176	0.764000	0.073800	0.890600
H1771	H177	0.209400	0.938500	0.821900
H1781	H178	0.321600	0.944700	0.834500
H1791	H179	0.080500	0.972500	0.780500
H1801	H180	0.023100	0.013600	0.769800
H1811	H181	0.708000	0.392200	0.697800
H1821	H182	0.772000	0.418000	0.672000
H1831	H183	0.464400	0.516500	0.559300
H1841	H184	0.494300	0.563900	0.506100
H1851	H185	0.323500	0.613700	0.496700
H1861	H186	0.835000	0.638900	0.611700
H1871	H187	0.824700	0.648200	0.680000
H1881	H188	0.998500	0.626700	0.709700
H1891	H189	0.969600	0.342300	0.632700
H1901	H190	0.955500	0.287400	0.593600
H1911	H191	0.915200	0.298900	0.526700
H1921	H192	0.955500	0.466800	0.441800
H1931	H193	0.846700	0.528300	0.472300
H1941	H194	0.738700	0.526000	0.538000
H1951	H195	0.489600	0.623600	0.719800
H1961	H196	0.291600	0.628100	0.755700
H1971	H197	0.257900	0.586600	0.813000
H1981	H198	0.680600	0.499500	0.896100
H1991	H199	0.857600	0.462600	0.861000
H2001	H200	0.879000	0.455500	0.790300
H2011	H201	0.127900	0.456500	0.813500
H2021	H202	0.187200	0.425400	0.871800
H2031	H203	0.313500	0.365500	0.863300
H2041	H204	0.266200	0.259700	0.705900
H2051	H205	0.307700	0.285500	0.639500
H2061	H206	0.393800	0.345200	0.634000
H2071	H207	0.072100	0.546800	0.716000
H2081	H208	0.940900	0.551900	0.717500
H2091	H209	0.845000	0.517700	0.627300
H2101	H210	0.850200	0.547300	0.658900
H2111	H211	0.208800	0.396100	0.643700
H2121	H212	0.228400	0.426200	0.609400
H2131	H213	0.469800	0.561500	0.678100
H2141	H214	0.600800	0.555300	0.665500
H2151	H215	0.333500	0.527500	0.719500
H2161	H216	0.306500	0.486400	0.730200
H2171	H217	0.100200	0.197800	0.607800
H2181	H218	0.190000	0.172000	0.582000
H2191	H219	0.980900	0.059300	0.483500
H2201	H220	0.058200	0.006100	0.436100
H2211	H221	0.937200	0.996700	0.386300
H2221	H222	0.473900	0.111700	0.361100
H2231	H223	0.472900	0.180000	0.351800
H2241	H224	0.625200	0.209700	0.373300
H2251	H225	0.311900	0.132700	0.657700
H2261	H226	0.242900	0.093600	0.712600
H2271	H227	0.214100	0.026700	0.701100
H2281	H228	0.422300	0.941800	0.533200
H2291	H229	0.375000	0.972300	0.471700
H2301	H230	0.264700	0.038000	0.474000
H2311	H231	0.113200	0.219800	0.376400
H2321	H232	0.919700	0.255700	0.371900
H2331	H233	0.844500	0.313000	0.413400
H2341	H234	0.180100	0.396100	0.500500
H2351	H235	0.320200	0.361000	0.537400
H2361	H236	0.334500	0.290300	0.544500
H2371	H237	0.584400	0.313500	0.543500
H2381	H238	0.612600	0.371800	0.574600
H2391	H239	0.679000	0.363300	0.634500
H2401	H240	0.525900	0.205900	0.740300
H2411	H241	0.593200	0.139500	0.714500
H2421	H242	0.739000	0.134000	0.654800
H2431	H243	0.618900	0.216000	0.453200
H2441	H244	0.492800	0.217500	0.448100
H2451	H245	0.362700	0.127300	0.482300
H2461	H246	0.397500	0.158900	0.452700
H2471	H247	0.604900	0.143700	0.603900
H2481	H248	0.654600	0.109400	0.573800
H2491	H249	0.031300	0.178100	0.438500
H2501	H250	0.156100	0.165500	0.444700
H2511	H251	0.861000	0.219500	0.472500
H2521	H252	0.792900	0.230200	0.513600
H2531	H253	0.405800	0.302200	0.892200
H2541	H254	0.444000	0.328000	0.918000
H2551	H255	0.023700	0.440700	0.016500
H2561	H256	0.000400	0.493900	0.063900
H2571	H257	0.820200	0.503300	0.113700
H2581	H258	0.446700	0.388300	0.138900
H2591	H259	0.504700	0.320000	0.148200
H2601	H260	0.708200	0.290300	0.126700
H2611	H261	0.602300	0.367300	0.842300
H2621	H262	0.549100	0.406400	0.787400
H2631	H263	0.441900	0.473300	0.798900
H2641	H264	0.397300	0.558200	0.966800
H2651	H265	0.319000	0.527700	0.028300
H2661	H266	0.276700	0.462000	0.026000
H2671	H267	0.209400	0.280200	0.123600
H2681	H268	0.047300	0.244300	0.128100
H2691	H269	0.070900	0.187000	0.086600
H2701	H270	0.576700	0.103900	0.999500
H2711	H271	0.718600	0.139000	0.962600
H2721	H272	0.669300	0.209700	0.955500
H2731	H273	0.941400	0.186500	0.956500
H2741	H274	0.059000	0.128200	0.925400
H2751	H275	0.176800	0.136700	0.865500
H2761	H276	0.972100	0.294100	0.759700
H2771	H277	0.947200	0.360500	0.785500
H2781	H278	0.027800	0.366000	0.845200
H2791	H279	0.788100	0.284000	0.046800
H2801	H280	0.658400	0.282500	0.051900
H2811	H281	0.472300	0.372700	0.017700
H2821	H282	0.509100	0.341100	0.047300
H2831	H283	0.852500	0.356300	0.896100
H2841	H284	0.837800	0.390600	0.926200
H2851	H285	0.147900	0.321900	0.061500
H2861	H286	0.266300	0.334500	0.055300
H2871	H287	0.053000	0.280500	0.027500
H2881	H288	0.036700	0.269800	0.986400
C11	C1	0.069200	0.017900	0.123100
C21	C2	0.054500	0.049500	0.089100
C31	C3	0.994500	0.040300	0.057900
C41	C4	0.986700	0.066700	0.024900
C51	C5	0.059300	0.098400	0.020800
C61	C6	0.111100	0.083400	0.084800
C71	C7	0.174500	0.100500	0.116300
C81	C8	0.341400	0.130400	0.123600
C91	C9	0.302500	0.135900	0.163900
C101	C10	0.193100	0.123000	0.181600
C111	C11	0.126400	0.104900	0.158300
C121	C12	0.010400	0.091100	0.177700
C131	C13	0.501300	0.921300	0.113500
C141	C14	0.588200	0.886100	0.089700
C151	C15	0.594600	0.846500	0.106100
C161	C16	0.658400	0.814000	0.083200
C171	C17	0.717300	0.821200	0.042800
C181	C18	0.656500	0.891600	0.050200
C191	C19	0.665000	0.931400	0.030000
C201	C20	0.645600	0.966700	0.969300
C211	C21	0.659300	0.003800	0.987000
C221	C22	0.682700	0.002200	0.026400
C231	C23	0.685100	0.966000	0.050000
C241	C24	0.729400	0.963500	0.090500
C251	C25	0.492000	0.079300	0.230700
C261	C26	0.594800	0.080100	0.254900
C271	C27	0.676000	0.107000	0.242800
C281	C28	0.770400	0.109900	0.263900
C291	C29	0.780900	0.084700	0.297900
C301	C30	0.616000	0.055500	0.288100
C311	C31	0.538500	0.024400	0.305800
C321	C32	0.438400	0.999800	0.367400
C331	C33	0.378900	0.976400	0.346800
C341	C34	0.409300	0.973300	0.304500
C351	C35	0.489900	0.996600	0.283400
C361	C36	0.535100	0.988900	0.237700
C371	C37	0.113100	0.909000	0.273800
C381	C38	0.083700	0.930300	0.312100
C391	C39	0.030200	0.913000	0.346000
C401	C40	0.999600	0.876900	0.340100
C411	C41	0.081700	0.870000	0.270600
C421	C42	0.119000	0.846000	0.232600
C431	C43	0.228800	0.786500	0.202700
C441	C44	0.221900	0.799900	0.162500
C451	C45	0.143200	0.835800	0.159600
C461	C46	0.083700	0.859600	0.196600
C471	C47	0.990800	0.899400	0.191800
C481	C48	0.187600	0.929000	0.238800
C491	C49	0.710200	0.482100	0.376900
C501	C50	0.693100	0.450500	0.410900
C511	C51	0.592700	0.459700	0.442100
C521	C52	0.578300	0.433300	0.475100
C531	C53	0.678500	0.401600	0.479200
C541	C54	0.779300	0.416600	0.415200
C551	C55	0.891300	0.399500	0.383700
C561	C56	0.095400	0.369600	0.376400
C571	C57	0.102300	0.364100	0.336100
C581	C58	0.997700	0.377000	0.318400
C591	C59	0.889600	0.395100	0.341700
C601	C60	0.779200	0.408900	0.322300
C611	C61	0.036100	0.578700	0.386500
C621	C62	0.064000	0.613900	0.410300
C631	C63	0.047200	0.653500	0.393900
C641	C64	0.055600	0.686000	0.416800
C651	C65	0.081300	0.678800	0.457200
C661	C66	0.098300	0.608400	0.449800
C671	C67	0.126400	0.568600	0.470000
C681	C68	0.081600	0.533300	0.530700
C691	C69	0.150100	0.496200	0.513000
C701	C70	0.211300	0.497800	0.473600
C711	C71	0.201100	0.534000	0.450000
C721	C72	0.283400	0.536500	0.409500
C731	C73	0.302000	0.420700	0.269300
C741	C74	0.429800	0.419900	0.245100
C751	C75	0.525800	0.393000	0.257200
C761	C76	0.644200	0.390100	0.236100
C771	C77	0.663500	0.415300	0.202100
C781	C78	0.459600	0.444500	0.211900
C791	C79	0.368700	0.475600	0.194200
C801	C80	0.305600	0.500200	0.132600
C811	C81	0.202100	0.523600	0.153200
C821	C82	0.187100	0.526700	0.195500
C831	C83	0.269900	0.503400	0.216600
C841	C84	0.261700	0.511100	0.262300
C851	C85	0.795900	0.591000	0.226200
C861	C86	0.826100	0.569700	0.187900
C871	C87	0.789200	0.587000	0.154000
C881	C88	0.716600	0.623100	0.159900
C891	C89	0.722300	0.630000	0.229400
C901	C90	0.697600	0.654000	0.267400
C911	C91	0.718000	0.713500	0.297300
C921	C92	0.684300	0.700100	0.337500
C931	C93	0.638600	0.664200	0.340400
C941	C94	0.639900	0.640400	0.303400
C951	C95	0.582000	0.600600	0.308200
C961	C96	0.855400	0.571000	0.261200
C971	C97	0.192300	0.876900	0.517900
C981	C98	0.143600	0.910900	0.549500
C991	C99	0.052400	0.942100	0.540300
C1001	C100	0.011600	0.975100	0.566700
C1011	C101	0.080100	0.979200	0.598400
C1021	C102	0.195900	0.915200	0.583400
C1031	C103	0.290800	0.883700	0.600500
C1041	C104	0.465000	0.876400	0.630400
C1051	C105	0.466400	0.836100	0.635900
C1061	C106	0.374700	0.818400	0.623000
C1071	C107	0.284700	0.841700	0.604900
C1081	C108	0.188100	0.822300	0.591100
C1091	C109	0.614800	0.886500	0.421300
C1101	C110	0.677900	0.910300	0.386100
C1111	C111	0.700700	0.893900	0.346500
C1121	C112	0.741600	0.916800	0.314000
C1131	C113	0.760100	0.957200	0.321200
C1141	C114	0.706700	0.949800	0.391600
C1151	C115	0.695000	0.970000	0.431400
C1161	C116	0.614900	0.030700	0.466700
C1171	C117	0.646300	0.013000	0.503800
C1181	C118	0.709100	0.973600	0.502200
C1191	C119	0.735100	0.950000	0.466000
C1201	C120	0.819900	0.909500	0.463500
C1211	C121	0.722700	0.769300	0.579300
C1221	C122	0.849700	0.745100	0.580100
C1231	C123	0.918800	0.757200	0.607000
C1241	C124	0.034300	0.736100	0.609900
C1251	C125	0.078800	0.702100	0.584700
C1261	C126	0.904100	0.711900	0.555500
C1271	C127	0.844300	0.694200	0.524400
C1281	C128	0.805800	0.632600	0.499800
C1291	C129	0.725700	0.653200	0.476400
C1301	C130	0.713800	0.695500	0.473300
C1311	C131	0.773300	0.716600	0.496600
C1321	C132	0.772800	0.762300	0.488900
C1331	C133	0.386900	0.726200	0.409000
C1341	C134	0.395800	0.687900	0.430300
C1351	C135	0.376200	0.654000	0.413000
C1361	C136	0.339700	0.659900	0.376900
C1371	C137	0.352300	0.729400	0.370000
C1381	C138	0.351600	0.767400	0.346000
C1391	C139	0.431500	0.797300	0.286500
C1401	C140	0.384400	0.837500	0.299900
C1411	C141	0.302800	0.840400	0.335800
C1421	C142	0.280300	0.803400	0.359600
C1431	C143	0.182600	0.808200	0.399400
C1441	C144	0.426400	0.761200	0.429000
C1451	C145	0.087100	0.623100	0.982100
C1461	C146	0.104000	0.589100	0.950500
C1471	C147	0.034800	0.557900	0.959700
C1481	C148	0.053400	0.524900	0.933300
C1491	C149	0.157700	0.520800	0.901600
C1501	C150	0.194500	0.584800	0.916600
C1511	C151	0.275000	0.616300	0.899500
C1521	C152	0.471800	0.623600	0.869600
C1531	C153	0.438400	0.663900	0.864100
C1541	C154	0.316100	0.681600	0.877000
C1551	C155	0.231300	0.658300	0.895100
C1561	C156	0.101500	0.677700	0.908900
C1571	C157	0.422600	0.613500	0.078700
C1581	C158	0.474300	0.589700	0.113900
C1591	C159	0.441100	0.606100	0.153500
C1601	C160	0.472400	0.583200	0.186000
C1611	C161	0.538500	0.542800	0.178800
C1621	C162	0.548100	0.550200	0.108400
C1631	C163	0.596400	0.530000	0.068600
C1641	C164	0.612300	0.469300	0.033300
C1651	C165	0.663100	0.487000	0.996200
C1661	C166	0.684900	0.526400	0.997800
C1671	C167	0.651100	0.550000	0.034000
C1681	C168	0.692900	0.590500	0.036500
C1691	C169	0.571300	0.730700	0.920700
C1701	C170	0.674900	0.754900	0.919900
C1711	C171	0.783000	0.742800	0.893000
C1721	C172	0.880300	0.763900	0.890100
C1731	C173	0.865600	0.797900	0.915300
C1741	C174	0.671500	0.788100	0.944500
C1751	C175	0.562900	0.805800	0.975600
C1761	C176	0.438200	0.867400	0.000200
C1771	C177	0.355300	0.846800	0.023600
C1781	C178	0.382600	0.804500	0.026700
C1791	C179	0.486500	0.783400	0.003400
C1801	C180	0.524000	0.737700	0.011100
C1811	C181	0.022100	0.773800	0.091000
C1821	C182	0.014000	0.812100	0.069700
C1831	C183	0.943200	0.846000	0.087000
C1841	C184	0.876500	0.840100	0.123100
C1851	C185	0.951700	0.770600	0.130000
C1861	C186	0.965000	0.732600	0.154000
C1871	C187	0.015300	0.702700	0.213500
C1881	C188	0.021800	0.662500	0.200100
C1891	C189	0.979000	0.659600	0.164200
C1901	C190	0.943300	0.696600	0.140400
C1911	C191	0.890200	0.691800	0.100600
C1921	C192	0.116600	0.738800	0.071000
C1931	C193	0.930800	0.982100	0.876900
C1941	C194	0.945500	0.950500	0.910900
C1951	C195	0.005500	0.959700	0.942100
C1961	C196	0.013300	0.933300	0.975100
C1971	C197	0.940700	0.901600	0.979200
C1981	C198	0.888900	0.916600	0.915200
C1991	C199	0.825500	0.899500	0.883700
C2001	C200	0.658600	0.869600	0.876400
C2011	C201	0.697500	0.864100	0.836100
C2021	C202	0.806900	0.877000	0.818400
C2031	C203	0.873600	0.895100	0.841700
C2041	C204	0.989600	0.908900	0.822300
C2051	C205	0.498700	0.078700	0.886500
C2061	C206	0.411800	0.113900	0.910300
C2071	C207	0.405400	0.153500	0.893900
C2081	C208	0.341600	0.186000	0.916800
C2091	C209	0.282700	0.178800	0.957200
C2101	C210	0.343500	0.108400	0.949800
C2111	C211	0.335000	0.068600	0.970000
C2121	C212	0.354400	0.033300	0.030700
C2131	C213	0.340700	0.996200	0.013000
C2141	C214	0.317300	0.997800	0.973600
C2151	C215	0.314900	0.034000	0.950000
C2161	C216	0.270600	0.036500	0.909500
C2171	C217	0.508000	0.920700	0.769300
C2181	C218	0.405200	0.919900	0.745100
C2191	C219	0.324000	0.893000	0.757200
C2201	C220	0.229600	0.890100	0.736100
C2211	C221	0.219100	0.915300	0.702100
C2221	C222	0.384000	0.944500	0.711900
C2231	C223	0.461500	0.975600	0.694200
C2241	C224	0.561600	0.000200	0.632600
C2251	C225	0.621100	0.023600	0.653200
C2261	C226	0.590700	0.026700	0.695500
C2271	C227	0.510100	0.003400	0.716600
C2281	C228	0.464900	0.011100	0.762300
C2291	C229	0.886900	0.091000	0.726200
C2301	C230	0.916300	0.069700	0.687900
C2311	C231	0.969800	0.087000	0.654000
C2321	C232	0.000400	0.123100	0.659900
C2331	C233	0.918300	0.130000	0.729400
C2341	C234	0.881000	0.154000	0.767400
C2351	C235	0.771200	0.213500	0.797300
C2361	C236	0.778100	0.200100	0.837500
C2371	C237	0.856800	0.164200	0.840400
C2381	C238	0.916300	0.140400	0.803400
C2391	C239	0.009200	0.100600	0.808200
C2401	C240	0.812400	0.071000	0.761200
C2411	C241	0.289800	0.517900	0.623100
C2421	C242	0.306900	0.549500	0.589100
C2431	C243	0.407300	0.540300	0.557900
C2441	C244	0.421700	0.566700	0.524900
C2451	C245	0.321500	0.598400	0.520800
C2461	C246	0.220700	0.583400	0.584800
C2471	C247	0.108700	0.600500	0.616300
C2481	C248	0.904600	0.630400	0.623600
C2491	C249	0.897700	0.635900	0.663900
C2501	C250	0.002300	0.623000	0.681600
C2511	C251	0.110400	0.604900	0.658300
C2521	C252	0.220800	0.591100	0.677700
C2531	C253	0.963900	0.421300	0.613500
C2541	C254	0.936000	0.386100	0.589700
C2551	C255	0.952800	0.346500	0.606100
C2561	C256	0.944400	0.314000	0.583200
C2571	C257	0.918700	0.321200	0.542800
C2581	C258	0.901700	0.391600	0.550200
C2591	C259	0.873600	0.431400	0.530000
C2601	C260	0.918400	0.466700	0.469300
C2611	C261	0.849900	0.503800	0.487000
C2621	C262	0.788700	0.502200	0.526400
C2631	C263	0.798900	0.466000	0.550000
C2641	C264	0.716600	0.463500	0.590500
C2651	C265	0.698000	0.579300	0.730700
C2661	C266	0.570200	0.580100	0.754900
C2671	C267	0.474200	0.607000	0.742800
C2681	C268	0.355800	0.609900	0.763900
C2691	C269	0.336500	0.584700	0.797900
C2701	C270	0.540400	0.555500	0.788100
C2711	C271	0.631300	0.524400	0.805800
C2721	C272	0.694400	0.499800	0.867400
C2731	C273	0.797900	0.476400	0.846800
C2741	C274	0.812900	0.473300	0.804500
C2751	C275	0.730100	0.496600	0.783400
C2761	C276	0.738300	0.488900	0.737700
C2771	C277	0.204100	0.409000	0.773800
C2781	C278	0.173900	0.430300	0.812100
C2791	C279	0.210800	0.413000	0.846000
C2801	C280	0.283400	0.376900	0.840100
C2811	C281	0.277700	0.370000	0.770600
C2821	C282	0.302400	0.346000	0.732600
C2831	C283	0.282000	0.286500	0.702700
C2841	C284	0.315700	0.299900	0.662500
C2851	C285	0.361400	0.335800	0.659600
C2861	C286	0.360100	0.359600	0.696600
C2871	C287	0.418000	0.399400	0.691800
C2881	C288	0.144600	0.429000	0.738800
C2891	C289	0.807700	0.123100	0.482100
C2901	C290	0.856400	0.089100	0.450500
C2911	C291	0.947600	0.057900	0.459700
C2921	C292	0.988400	0.024900	0.433300
C2931	C293	0.919900	0.020800	0.401600
C2941	C294	0.804100	0.084800	0.416600
C2951	C295	0.709200	0.116300	0.399500
C2961	C296	0.535000	0.123600	0.369600
C2971	C297	0.533600	0.163900	0.364100
C2981	C298	0.625300	0.181600	0.377000
C2991	C299	0.715300	0.158300	0.395100
C3001	C300	0.811900	0.177700	0.408900
C3011	C301	0.385200	0.113500	0.578700
C3021	C302	0.322100	0.089700	0.613900
C3031	C303	0.299300	0.106100	0.653500
C3041	C304	0.258400	0.083200	0.686000
C3051	C305	0.239900	0.042800	0.678800
C3061	C306	0.293300	0.050200	0.608400
C3071	C307	0.305000	0.030000	0.568600
C3081	C308	0.385100	0.969300	0.533300
C3091	C309	0.353700	0.987000	0.496200
C3101	C310	0.290900	0.026400	0.497800
C3111	C311	0.264900	0.050000	0.534000
C3121	C312	0.180100	0.090500	0.536500
C3131	C313	0.277300	0.230700	0.420700
C3141	C314	0.150300	0.254900	0.419900
C3151	C315	0.081200	0.242800	0.393000
C3161	C316	0.965700	0.263900	0.390100
C3171	C317	0.921200	0.297900	0.415300
C3181	C318	0.095900	0.288100	0.444500
C3191	C319	0.155700	0.305800	0.475600
C3201	C320	0.194200	0.367400	0.500200
C3211	C321	0.274300	0.346800	0.523600
C3221	C322	0.286200	0.304500	0.526700
C3231	C323	0.226700	0.283400	0.503400
C3241	C324	0.227200	0.237700	0.511100
C3251	C325	0.613100	0.273800	0.591000
C3261	C326	0.604200	0.312100	0.569700
C3271	C327	0.623800	0.346000	0.587000
C3281	C328	0.660300	0.340100	0.623100
C3291	C329	0.647700	0.270600	0.630000
C3301	C330	0.648400	0.232600	0.654000
C3311	C331	0.568500	0.202700	0.713500
C3321	C332	0.615600	0.162500	0.700100
C3331	C333	0.697200	0.159600	0.664200
C3341	C334	0.719700	0.196600	0.640400
C3351	C335	0.817400	0.191800	0.600600
C3361	C336	0.573600	0.238800	0.571000
C3371	C337	0.912900	0.376900	0.017900
C3381	C338	0.896000	0.410900	0.049500
C3391	C339	0.965200	0.442100	0.040300
C3401	C340	0.946600	0.475100	0.066700
C3411	C341	0.842300	0.479200	0.098400
C3421	C342	0.805500	0.415200	0.083400
C3431	C343	0.725000	0.383700	0.100500
C3441	C344	0.528200	0.376400	0.130400
C3451	C345	0.561600	0.336100	0.135900
C3461	C346	0.683900	0.318400	0.123000
C3471	C347	0.768700	0.341700	0.104900
C3481	C348	0.898500	0.322300	0.091100
C3491	C349	0.577400	0.386500	0.921300
C3501	C350	0.525700	0.410300	0.886100
C3511	C351	0.558900	0.393900	0.846500
C3521	C352	0.527600	0.416800	0.814000
C3531	C353	0.461500	0.457200	0.821200
C3541	C354	0.451900	0.449800	0.891600
C3551	C355	0.403600	0.470000	0.931400
C3561	C356	0.387700	0.530700	0.966700
C3571	C357	0.336900	0.513000	0.003800
C3581	C358	0.315100	0.473600	0.002200
C3591	C359	0.348900	0.450000	0.966000
C3601	C360	0.307100	0.409500	0.963500
C3611	C361	0.428700	0.269300	0.079300
C3621	C362	0.325100	0.245100	0.080100
C3631	C363	0.217000	0.257200	0.107000
C3641	C364	0.119700	0.236100	0.109900
C3651	C365	0.134400	0.202100	0.084700
C3661	C366	0.328500	0.211900	0.055500
C3671	C367	0.437100	0.194200	0.024400
C3681	C368	0.561800	0.132600	0.999800
C3691	C369	0.644700	0.153200	0.976400
C3701	C370	0.617400	0.195500	0.973300
C3711	C371	0.513500	0.216600	0.996600
C3721	C372	0.476000	0.262300	0.988900
C3731	C373	0.977900	0.226200	0.909000
C3741	C374	0.986000	0.187900	0.930300
C3751	C375	0.056800	0.154000	0.913000
C3761	C376	0.123500	0.159900	0.876900
C3771	C377	0.048300	0.229400	0.870000
C3781	C378	0.035000	0.267400	0.846000
C3791	C379	0.984700	0.297300	0.786500
C3801	C380	0.978200	0.337500	0.799900
C3811	C381	0.021000	0.340400	0.835800
C3821	C382	0.056700	0.303400	0.859600
C3831	C383	0.109800	0.308200	0.899400
C3841	C384	0.883400	0.261200	0.929000
N11	N1	0.117300	0.106800	0.050400
N21	N2	0.279100	0.112800	0.099000
N31	N3	0.646300	0.931600	0.990200
N41	N4	0.714700	0.858400	0.027200
N51	N5	0.705800	0.057800	0.309600
N61	N6	0.517600	0.023500	0.347700
N71	N7	0.020000	0.853400	0.305400
N81	N8	0.185100	0.808000	0.237000
N91	N9	0.774500	0.393200	0.449600
N101	N10	0.990900	0.387200	0.401000
N111	N11	0.068100	0.568400	0.509800
N121	N12	0.100300	0.641600	0.472800
N131	N13	0.573200	0.442200	0.190400
N141	N14	0.388800	0.476500	0.152300
N151	N15	0.678800	0.646600	0.194600
N161	N16	0.730100	0.692000	0.263000
N171	N17	0.167700	0.949600	0.606800
N181	N18	0.378100	0.901000	0.612800
N191	N19	0.636500	0.009800	0.431600
N201	N20	0.741900	0.972800	0.358400
N211	N21	0.015400	0.690400	0.557800
N221	N22	0.865300	0.652300	0.523500
N231	N23	0.325400	0.694600	0.353400
N241	N24	0.422100	0.763000	0.308000
N251	N25	0.224100	0.550400	0.893200
N261	N26	0.391900	0.599000	0.887200
N271	N27	0.577900	0.490200	0.068400
N281	N28	0.573100	0.527200	0.141600
N291	N29	0.763600	0.809600	0.942200
N301	N30	0.541100	0.847700	0.976500
N311	N31	0.873400	0.805400	0.146600
N321	N32	0.993100	0.737000	0.192000
N331	N33	0.882700	0.893200	0.949600
N341	N34	0.720900	0.887200	0.901000
N351	N35	0.353700	0.068400	0.009800
N361	N36	0.285300	0.141600	0.972800
N371	N37	0.294200	0.942200	0.690400
N381	N38	0.482400	0.976500	0.652300
N391	N39	0.980000	0.146600	0.694600
N401	N40	0.814900	0.192000	0.763000
N411	N41	0.225500	0.606800	0.550400
N421	N42	0.009100	0.612800	0.599000
N431	N43	0.931900	0.431600	0.490200
N441	N44	0.899700	0.358400	0.527200
N451	N45	0.426800	0.557800	0.809600
N461	N46	0.611200	0.523500	0.847700
N471	N47	0.321200	0.353400	0.805400
N481	N48	0.269900	0.308000	0.737000
N491	N49	0.832300	0.050400	0.393200
N501	N50	0.621900	0.099000	0.387200
N511	N51	0.363500	0.990200	0.568400
N521	N52	0.258100	0.027200	0.641600
N531	N53	0.984600	0.309600	0.442200
N541	N54	0.134700	0.347700	0.476500
N551	N55	0.674600	0.305400	0.646600
N561	N56	0.577900	0.237000	0.692000
N571	N57	0.775900	0.449600	0.106800
N581	N58	0.608100	0.401000	0.112800
N591	N59	0.422100	0.509800	0.931600
N601	N60	0.426900	0.472800	0.858400
N611	N61	0.236400	0.190400	0.057800
N621	N62	0.458900	0.152300	0.023500
N631	N63	0.126600	0.194600	0.853400
N641	N64	0.006900	0.263000	0.808000
O11	O1	0.488580	0.917230	0.153410
O21	O2	0.444700	0.949300	0.096500
O31	O3	0.831000	0.942700	0.093700
O41	O4	0.664430	0.986070	0.119670
O51	O5	0.987880	0.996700	0.131940
O61	O6	0.166280	0.015140	0.137900
O71	O7	0.917810	0.100030	0.160550
O81	O8	0.011760	0.072020	0.210860
O91	O9	0.522030	0.077690	0.191850
O101	O10	0.386820	0.078670	0.250090
O111	O11	0.643980	0.992830	0.225210
O121	O12	0.462910	0.977630	0.217350
O131	O13	0.133700	0.960100	0.223500
O141	O14	0.295800	0.914600	0.226000
O151	O15	0.993900	0.913200	0.157800
O161	O16	0.906400	0.911000	0.221600
O171	O17	0.238480	0.033360	0.220480
O181	O18	0.433390	0.028740	0.140280
O191	O19	0.221300	0.923800	0.138200
O201	O20	0.701100	0.913900	0.183300
O211	O21	0.759710	0.047250	0.160930
O221	O22	0.904600	0.001700	0.226100
O231	O23	0.059220	0.582770	0.346590
O241	O24	0.990500	0.550700	0.403500
O251	O25	0.367400	0.557300	0.406300
O261	O26	0.270170	0.513930	0.380330
O271	O27	0.616520	0.503300	0.368060
O281	O28	0.819320	0.484860	0.362100
O291	O29	0.678390	0.399970	0.339450
O301	O30	0.794640	0.427980	0.289140
O311	O31	0.291570	0.422310	0.308150
O321	O32	0.215580	0.421330	0.249910
O331	O33	0.362020	0.507170	0.274790
O341	O34	0.157890	0.522370	0.282650
O351	O35	0.817300	0.539900	0.276500
O361	O36	0.936400	0.585400	0.274000
O371	O37	0.564900	0.586800	0.342200
O381	O38	0.539000	0.589000	0.278400
O391	O39	0.992320	0.466640	0.279520
O401	O40	0.102410	0.471260	0.359720
O411	O41	0.783300	0.576200	0.361800
O421	O42	0.298300	0.586100	0.316700
O431	O43	0.467890	0.452750	0.339070
O441	O44	0.632400	0.498300	0.273900
O451	O45	0.641990	0.846590	0.417230
O461	O46	0.541200	0.903500	0.449300
O471	O47	0.924700	0.906300	0.442700
O481	O48	0.784100	0.880330	0.486070
O491	O49	0.119820	0.868060	0.496700
O501	O50	0.304180	0.862100	0.515140
O511	O51	0.078360	0.839450	0.600030
O521	O52	0.222620	0.789140	0.572020
O531	O53	0.713880	0.808150	0.577690
O541	O54	0.636910	0.749910	0.578670
O551	O55	0.869190	0.774790	0.492830
O561	O56	0.680260	0.782650	0.477630
O571	O57	0.357200	0.776500	0.460100
O581	O58	0.521800	0.774000	0.414600
O591	O59	0.151700	0.842200	0.413200
O601	O60	0.128000	0.778400	0.411000
O611	O61	0.458960	0.779520	0.533360
O621	O62	0.573670	0.859720	0.528740
O631	O63	0.359500	0.861800	0.423800
O641	O64	0.884400	0.816700	0.413900
O651	O65	0.920640	0.839070	0.547250
O661	O66	0.130700	0.773900	0.501700
O671	O67	0.405810	0.653410	0.082770
O681	O68	0.394000	0.596500	0.050700
O691	O69	0.773700	0.593700	0.057300
O701	O70	0.650500	0.619670	0.013930
O711	O71	0.984580	0.631940	0.003300
O721	O72	0.181420	0.637900	0.984860
O731	O73	0.017840	0.660550	0.899970
O741	O74	0.083780	0.710860	0.927980
O751	O75	0.599720	0.691850	0.922310
O761	O76	0.465490	0.750090	0.921330
O771	O77	0.636810	0.725210	0.007170
O781	O78	0.440540	0.717350	0.022370
O791	O79	0.093800	0.723500	0.039900
O801	O80	0.210400	0.726000	0.085400
O811	O81	0.907100	0.657800	0.086800
O821	O82	0.817400	0.721600	0.089000
O831	O83	0.271840	0.720480	0.966640
O841	O84	0.462130	0.640280	0.971260
O851	O85	0.145100	0.638200	0.076200
O861	O86	0.615000	0.683300	0.086100
O871	O87	0.806960	0.660930	0.952750
O881	O88	0.906300	0.726100	0.998300
O891	O89	0.511420	0.082770	0.846590
O901	O90	0.555300	0.050700	0.903500
O911	O91	0.169000	0.057300	0.906300
O921	O92	0.335570	0.013930	0.880330
O931	O93	0.012120	0.003300	0.868060
O941	O94	0.833720	0.984860	0.862100
O951	O95	0.082190	0.899970	0.839450
O961	O96	0.988240	0.927980	0.789140
O971	O97	0.477970	0.922310	0.808150
O981	O98	0.613180	0.921330	0.749910
O991	O99	0.356020	0.007170	0.774790
O1001	O100	0.537090	0.022370	0.782650
O1011	O101	0.866300	0.039900	0.776500
O1021	O102	0.704200	0.085400	0.774000
O1031	O103	0.006100	0.086800	0.842200
O1041	O104	0.093600	0.089000	0.778400
O1051	O105	0.761520	0.966640	0.779520
O1061	O106	0.566610	0.971260	0.859720
O1071	O107	0.778700	0.076200	0.861800
O1081	O108	0.298900	0.086100	0.816700
O1091	O109	0.240290	0.952750	0.839070
O1101	O110	0.095400	0.998300	0.773900
O1111	O111	0.940780	0.417230	0.653410
O1121	O112	0.009500	0.449300	0.596500
O1131	O113	0.632600	0.442700	0.593700
O1141	O114	0.729830	0.486070	0.619670
O1151	O115	0.383480	0.496700	0.631940
O1161	O116	0.180680	0.515140	0.637900
O1171	O117	0.321610	0.600030	0.660550
O1181	O118	0.205360	0.572020	0.710860
O1191	O119	0.708430	0.577690	0.691850
O1201	O120	0.784420	0.578670	0.750090
O1211	O121	0.637980	0.492830	0.725210
O1221	O122	0.842110	0.477630	0.717350
O1231	O123	0.182700	0.460100	0.723500
O1241	O124	0.063600	0.414600	0.726000
O1251	O125	0.435100	0.413200	0.657800
O1261	O126	0.461000	0.411000	0.721600
O1271	O127	0.007680	0.533360	0.720480
O1281	O128	0.897590	0.528740	0.640280
O1291	O129	0.216700	0.423800	0.638200
O1301	O130	0.701700	0.413900	0.683300
O1311	O131	0.532110	0.547250	0.660930
O1321	O132	0.367600	0.501700	0.726100
O1331	O133	0.358010	0.153410	0.582770
O1341	O134	0.458800	0.096500	0.550700
O1351	O135	0.075300	0.093700	0.557300
O1361	O136	0.215900	0.119670	0.513930
O1371	O137	0.880180	0.131940	0.503300
O1381	O138	0.695820	0.137900	0.484860
O1391	O139	0.921640	0.160550	0.399970
O1401	O140	0.777380	0.210860	0.427980
O1411	O141	0.286120	0.191850	0.422310
O1421	O142	0.363090	0.250090	0.421330
O1431	O143	0.130810	0.225210	0.507170
O1441	O144	0.319740	0.217350	0.522370
O1451	O145	0.642800	0.223500	0.539900
O1461	O146	0.478200	0.226000	0.585400
O1471	O147	0.848300	0.157800	0.586800
O1481	O148	0.872000	0.221600	0.589000
O1491	O149	0.541040	0.220480	0.466640
O1501	O150	0.426330	0.140280	0.471260
O1511	O151	0.640500	0.138200	0.576200
O1521	O152	0.115600	0.183300	0.586100
O1531	O153	0.079360	0.160930	0.452750
O1541	O154	0.869300	0.226100	0.498300
O1551	O155	0.594190	0.346590	0.917230
O1561	O156	0.606000	0.403500	0.949300
O1571	O157	0.226300	0.406300	0.942700
O1581	O158	0.349500	0.380330	0.986070
O1591	O159	0.015420	0.368060	0.996700
O1601	O160	0.818580	0.362100	0.015140
O1611	O161	0.982160	0.339450	0.100030
O1621	O162	0.916220	0.289140	0.072020
O1631	O163	0.400280	0.308150	0.077690
O1641	O164	0.534510	0.249910	0.078670
O1651	O165	0.363190	0.274790	0.992830
O1661	O166	0.559460	0.282650	0.977630
O1671	O167	0.906200	0.276500	0.960100
O1681	O168	0.789600	0.274000	0.914600
O1691	O169	0.092900	0.342200	0.913200
O1701	O170	0.182600	0.278400	0.911000
O1711	O171	0.728160	0.279520	0.033360
O1721	O172	0.537870	0.359720	0.028740
O1731	O173	0.854900	0.361800	0.923800
O1741	O174	0.385000	0.316700	0.913900
O1751	O175	0.193040	0.339070	0.047250
O1761	O176	0.093700	0.273900	0.001700
