data_MIFTEC_freeONLY_PM
_symmetry_space_group_name_H-M	'P1'
_cell_length_a	11.183400
_cell_length_b	32.982900
_cell_length_c	32.982900
_cell_angle_alpha	88.353000
_cell_angle_beta	80.239300
_cell_angle_gamma	80.239300
_symmetry_Int_Tables_number 1

loop_
_symmetry_equiv_pos_as_xyz
'x,y,z'

loop_
_atom_site_label
_atom_site_type_symbol
_atom_site_fract_x
_atom_site_fract_y
_atom_site_fract_z
Sm11	Sm1	0.318140	0.974770	0.173630
Sm21	Sm2	0.817940	0.972000	0.170790
Sm31	Sm3	0.966540	0.525230	0.326370
Sm41	Sm4	0.460730	0.528000	0.329200
Sm51	Sm5	0.491770	0.826370	0.474770
Sm61	Sm6	0.988720	0.829210	0.472010
Sm71	Sm7	0.292910	0.673630	0.025230
Sm81	Sm8	0.789940	0.670790	0.028000
Sm91	Sm9	0.681860	0.025230	0.826370
Sm101	Sm10	0.182070	0.028000	0.829200
Sm111	Sm11	0.033460	0.474770	0.673630
Sm121	Sm12	0.539280	0.472000	0.670790
Sm131	Sm13	0.508230	0.173630	0.525230
Sm141	Sm14	0.011280	0.170790	0.527990
Sm151	Sm15	0.707090	0.326370	0.974770
Sm161	Sm16	0.210060	0.329210	0.972010
Co11	Co1	0.711620	0.870940	0.963910
Co21	Co2	0.046460	0.629060	0.536100
Co31	Co3	0.675530	0.036090	0.370940
Co41	Co4	0.582560	0.463910	0.129050
Co51	Co5	0.288380	0.129060	0.036100
Co61	Co6	0.953540	0.370940	0.463910
Co71	Co7	0.324480	0.963910	0.629050
Co81	Co8	0.417440	0.536090	0.870950
H11	H1	0.632000	0.914500	0.175500
H21	H2	0.168200	0.127100	0.209500
H31	H3	0.350400	0.148400	0.180000
H41	H4	0.416700	0.139400	0.111000
H51	H5	0.054000	0.114300	0.998700
H61	H6	0.936700	0.063100	0.006300
H71	H7	0.946700	0.019400	0.063000
H81	H8	0.698100	0.026200	0.037800
H91	H9	0.655700	0.027100	0.971900
H101	H10	0.634600	0.967300	0.942700
H111	H11	0.757400	0.798700	0.027900
H121	H12	0.659600	0.788000	0.093800
H131	H13	0.548900	0.843100	0.131700
H141	H14	0.114500	0.846100	0.137500
H151	H15	0.259500	0.786300	0.141700
H161	H16	0.280200	0.763500	0.208100
H171	H17	0.960100	0.866300	0.364700
H181	H18	0.015700	0.927300	0.371700
H191	H19	0.106700	0.958400	0.313600
H201	H20	0.375200	0.955600	0.289400
H211	H21	0.322300	0.961300	0.359700
H221	H22	0.424600	0.999100	0.394500
H231	H23	0.845100	0.086400	0.312200
H241	H24	0.825300	0.128400	0.257000
H251	H25	0.667700	0.125000	0.220800
H261	H26	0.449300	0.043100	0.158900
H271	H27	0.395700	0.041500	0.123500
H281	H28	0.255300	0.898600	0.146600
H291	H29	0.240600	0.926300	0.112700
H301	H30	0.176000	0.047600	0.212400
H311	H31	0.299000	0.049800	0.216800
H321	H32	0.816300	0.059000	0.168600
H331	H33	0.689500	0.055400	0.176000
H341	H34	0.907500	0.028800	0.220600
H351	H35	0.982100	0.989000	0.226000
H361	H36	0.713100	0.901800	0.203400
H371	H37	0.222000	0.585500	0.324500
H381	H38	0.004800	0.372900	0.290500
H391	H39	0.178800	0.351600	0.320000
H401	H40	0.167100	0.360600	0.389000
H411	H41	0.667000	0.385700	0.501300
H421	H42	0.506100	0.436900	0.493700
H431	H43	0.529100	0.480600	0.437000
H441	H44	0.262100	0.473800	0.462200
H451	H45	0.154700	0.472900	0.528100
H461	H46	0.044600	0.532700	0.557300
H471	H47	0.084000	0.701300	0.472100
H481	H48	0.041400	0.712000	0.406200
H491	H49	0.023700	0.656900	0.368300
H501	H50	0.598100	0.653900	0.362500
H511	H51	0.687500	0.713700	0.358300
H521	H52	0.751800	0.736500	0.291900
H531	H53	0.691100	0.633700	0.135300
H541	H54	0.814700	0.572700	0.128300
H551	H55	0.878700	0.541600	0.186400
H561	H56	0.120200	0.544400	0.210600
H571	H57	0.143300	0.538700	0.140300
H581	H58	0.318200	0.500900	0.105500
H591	H59	0.743700	0.413600	0.187800
H601	H60	0.710700	0.371600	0.243000
H611	H61	0.513500	0.375000	0.279200
H621	H62	0.151300	0.456900	0.341100
H631	H63	0.060700	0.458500	0.376500
H641	H64	0.800500	0.601400	0.353400
H651	H65	0.779600	0.573700	0.387300
H661	H66	0.936000	0.452400	0.287600
H671	H67	0.065600	0.450200	0.283200
H681	H68	0.543900	0.441000	0.331400
H691	H69	0.420900	0.444600	0.324000
H701	H70	0.656900	0.471200	0.279400
H711	H71	0.697100	0.511000	0.274000
H721	H72	0.318300	0.598200	0.296600
H731	H73	0.807500	0.824500	0.414500
H741	H74	0.377700	0.790500	0.627100
H751	H75	0.530400	0.820000	0.648400
H761	H76	0.527700	0.889000	0.639400
H771	H77	0.052700	0.001300	0.614300
H781	H78	0.943000	0.993700	0.563100
H791	H79	0.009700	0.937000	0.519400
H801	H80	0.735900	0.962200	0.526200
H811	H81	0.627600	0.028100	0.527100
H821	H82	0.577300	0.057300	0.467300
H831	H83	0.785300	0.972100	0.298700
H841	H84	0.753400	0.906200	0.288000
H851	H85	0.680600	0.868300	0.343100
H861	H86	0.252000	0.862500	0.346100
H871	H87	0.401200	0.858300	0.286300
H881	H88	0.488300	0.791900	0.263500
H891	H89	0.324800	0.635300	0.366300
H901	H90	0.387400	0.628300	0.427300
H911	H91	0.420300	0.686400	0.458400
H921	H92	0.664600	0.710600	0.455600
H931	H93	0.682000	0.640300	0.461300
H941	H94	0.819100	0.605500	0.499100
H951	H95	0.157300	0.687800	0.586400
H961	H96	0.082300	0.743000	0.628400
H971	H97	0.888500	0.779200	0.625000
H981	H98	0.608200	0.841100	0.543100
H991	H99	0.519200	0.876500	0.541500
H1001	H100	0.401900	0.853400	0.398600
H1011	H101	0.353300	0.887300	0.426300
H1021	H102	0.388400	0.787600	0.547600
H1031	H103	0.515800	0.783200	0.549800
H1041	H104	0.984900	0.831400	0.559000
H1051	H105	0.865500	0.824000	0.555400
H1061	H106	0.128100	0.779400	0.528800
H1071	H107	0.208100	0.774000	0.489000
H1081	H108	0.916500	0.796600	0.401800
H1091	H109	0.546500	0.675500	0.085500
H1101	H110	0.295300	0.709500	0.872900
H1111	H111	0.498800	0.680000	0.851600
H1121	H112	0.556100	0.611000	0.860600
H1131	H113	0.168300	0.498700	0.885700
H1141	H114	0.999800	0.506300	0.936900
H1151	H115	0.966100	0.563000	0.980600
H1161	H116	0.724300	0.537800	0.973800
H1171	H117	0.682800	0.471900	0.972900
H1181	H118	0.601900	0.442700	0.032700
H1191	H119	0.556100	0.527900	0.201300
H1201	H120	0.447600	0.593800	0.212000
H1211	H121	0.392000	0.631700	0.156900
H1221	H122	0.960600	0.637500	0.153900
H1231	H123	0.045800	0.641700	0.213700
H1241	H124	0.043700	0.708100	0.236500
H1251	H125	0.826400	0.864700	0.133700
H1261	H126	0.943000	0.871700	0.072700
H1271	H127	0.065100	0.813600	0.041600
H1281	H128	0.330800	0.789400	0.044400
H1291	H129	0.283600	0.859700	0.038700
H1301	H130	0.423700	0.894500	0.000900
H1311	H131	0.931500	0.812200	0.913600
H1321	H132	0.953700	0.757000	0.871600
H1331	H133	0.792700	0.720800	0.875000
H1341	H134	0.492400	0.658900	0.956900
H1351	H135	0.437200	0.623500	0.958500
H1361	H136	0.153900	0.646600	0.101400
H1371	H137	0.166900	0.612700	0.073700
H1381	H138	0.223600	0.712400	0.952400
H1391	H139	0.348800	0.716800	0.950200
H1401	H140	0.875300	0.668600	0.941000
H1411	H141	0.744900	0.676000	0.944600
H1421	H142	0.936300	0.720600	0.971200
H1431	H143	0.971100	0.726000	0.011000
H1441	H144	0.614900	0.703400	0.098200
H1451	H145	0.368000	0.085500	0.824500
H1461	H146	0.831800	0.872900	0.790500
H1471	H147	0.649600	0.851600	0.820000
H1481	H148	0.583300	0.860600	0.889000
H1491	H149	0.946000	0.885700	0.001300
H1501	H150	0.063300	0.936900	0.993700
H1511	H151	0.053300	0.980600	0.937000
H1521	H152	0.301900	0.973800	0.962200
H1531	H153	0.344300	0.972900	0.028100
H1541	H154	0.365400	0.032700	0.057300
H1551	H155	0.242600	0.201300	0.972100
H1561	H156	0.340400	0.212000	0.906200
H1571	H157	0.451100	0.156900	0.868300
H1581	H158	0.885500	0.153900	0.862500
H1591	H159	0.740500	0.213700	0.858300
H1601	H160	0.719800	0.236500	0.791900
H1611	H161	0.039900	0.133700	0.635300
H1621	H162	0.984300	0.072700	0.628300
H1631	H163	0.893300	0.041600	0.686400
H1641	H164	0.624800	0.044400	0.710600
H1651	H165	0.677700	0.038700	0.640300
H1661	H166	0.575400	0.000900	0.605500
H1671	H167	0.154900	0.913600	0.687800
H1681	H168	0.174700	0.871600	0.743000
H1691	H169	0.332300	0.875000	0.779200
H1701	H170	0.550700	0.956900	0.841100
H1711	H171	0.604300	0.958500	0.876500
H1721	H172	0.744700	0.101400	0.853400
H1731	H173	0.759400	0.073700	0.887300
H1741	H174	0.824000	0.952400	0.787600
H1751	H175	0.701000	0.950200	0.783200
H1761	H176	0.183700	0.941000	0.831400
H1771	H177	0.310500	0.944600	0.824000
H1781	H178	0.092500	0.971200	0.779400
H1791	H179	0.017900	0.011000	0.774000
H1801	H180	0.286900	0.098200	0.796600
H1811	H181	0.778000	0.414500	0.675500
H1821	H182	0.995200	0.627100	0.709500
H1831	H183	0.821200	0.648400	0.680000
H1841	H184	0.832900	0.639400	0.611000
H1851	H185	0.333000	0.614300	0.498700
H1861	H186	0.493900	0.563100	0.506300
H1871	H187	0.470900	0.519400	0.563000
H1881	H188	0.737900	0.526200	0.537800
H1891	H189	0.845300	0.527100	0.471900
H1901	H190	0.955400	0.467300	0.442700
H1911	H191	0.916000	0.298700	0.527900
H1921	H192	0.958600	0.288000	0.593800
H1931	H193	0.976300	0.343100	0.631700
H1941	H194	0.401900	0.346100	0.637500
H1951	H195	0.312500	0.286300	0.641700
H1961	H196	0.248200	0.263500	0.708100
H1971	H197	0.308900	0.366300	0.864700
H1981	H198	0.185300	0.427300	0.871700
H1991	H199	0.121300	0.458400	0.813600
H2001	H200	0.879800	0.455600	0.789400
H2011	H201	0.856700	0.461300	0.859700
H2021	H202	0.681800	0.499100	0.894500
H2031	H203	0.256300	0.586400	0.812200
H2041	H204	0.289300	0.628400	0.757000
H2051	H205	0.486500	0.625000	0.720800
H2061	H206	0.848700	0.543100	0.658900
H2071	H207	0.939300	0.541500	0.623500
H2081	H208	0.199500	0.398600	0.646600
H2091	H209	0.220400	0.426300	0.612700
H2101	H210	0.064000	0.547600	0.712400
H2111	H211	0.934400	0.549800	0.716800
H2121	H212	0.456100	0.559000	0.668600
H2131	H213	0.579100	0.555400	0.676000
H2141	H214	0.343100	0.528800	0.720600
H2151	H215	0.302900	0.489000	0.726000
H2161	H216	0.681700	0.401800	0.703400
H2171	H217	0.192500	0.175500	0.585500
H2181	H218	0.622300	0.209500	0.372900
H2191	H219	0.469600	0.180000	0.351600
H2201	H220	0.472300	0.111000	0.360600
H2211	H221	0.947300	0.998700	0.385700
H2221	H222	0.057000	0.006300	0.436900
H2231	H223	0.990300	0.063000	0.480600
H2241	H224	0.264100	0.037800	0.473800
H2251	H225	0.372400	0.971900	0.472900
H2261	H226	0.422700	0.942700	0.532700
H2271	H227	0.214700	0.027900	0.701300
H2281	H228	0.246600	0.093800	0.712000
H2291	H229	0.319400	0.131700	0.656900
H2301	H230	0.748000	0.137500	0.653900
H2311	H231	0.598800	0.141700	0.713700
H2321	H232	0.511700	0.208100	0.736500
H2331	H233	0.675200	0.364700	0.633700
H2341	H234	0.612600	0.371700	0.572700
H2351	H235	0.579700	0.313600	0.541600
H2361	H236	0.335400	0.289400	0.544400
H2371	H237	0.318000	0.359700	0.538700
H2381	H238	0.180900	0.394500	0.500900
H2391	H239	0.842700	0.312200	0.413600
H2401	H240	0.917700	0.257000	0.371600
H2411	H241	0.111500	0.220800	0.375000
H2421	H242	0.391800	0.158900	0.456900
H2431	H243	0.480800	0.123500	0.458500
H2441	H244	0.598100	0.146600	0.601400
H2451	H245	0.646700	0.112700	0.573700
H2461	H246	0.611600	0.212400	0.452400
H2471	H247	0.484200	0.216800	0.450200
H2481	H248	0.015100	0.168600	0.441000
H2491	H249	0.134500	0.176000	0.444600
H2501	H250	0.871900	0.220600	0.471200
H2511	H251	0.791900	0.226000	0.511000
H2521	H252	0.083500	0.203400	0.598200
H2531	H253	0.453500	0.324500	0.914500
H2541	H254	0.704700	0.290500	0.127100
H2551	H255	0.501200	0.320000	0.148400
H2561	H256	0.443900	0.389000	0.139400
H2571	H257	0.831700	0.501300	0.114300
H2581	H258	0.000200	0.493700	0.063100
H2591	H259	0.033900	0.437000	0.019400
H2601	H260	0.275700	0.462200	0.026200
H2611	H261	0.317200	0.528100	0.027100
H2621	H262	0.398100	0.557300	0.967300
H2631	H263	0.443900	0.472100	0.798700
H2641	H264	0.552400	0.406200	0.788000
H2651	H265	0.608000	0.368300	0.843100
H2661	H266	0.039400	0.362500	0.846100
H2671	H267	0.954200	0.358300	0.786300
H2681	H268	0.956300	0.291900	0.763500
H2691	H269	0.173600	0.135300	0.866300
H2701	H270	0.057000	0.128300	0.927300
H2711	H271	0.934900	0.186400	0.958400
H2721	H272	0.669200	0.210600	0.955600
H2731	H273	0.716400	0.140300	0.961300
H2741	H274	0.576300	0.105500	0.999100
H2751	H275	0.068500	0.187800	0.086400
H2761	H276	0.046300	0.243000	0.128400
H2771	H277	0.207300	0.279200	0.125000
H2781	H278	0.507600	0.341100	0.043100
H2791	H279	0.562800	0.376500	0.041500
H2801	H280	0.846100	0.353400	0.898600
H2811	H281	0.833100	0.387300	0.926300
H2821	H282	0.776400	0.287600	0.047600
H2831	H283	0.651200	0.283200	0.049800
H2841	H284	0.124700	0.331400	0.059000
H2851	H285	0.255100	0.324000	0.055400
H2861	H286	0.063700	0.279400	0.028800
H2871	H287	0.028900	0.274000	0.989000
H2881	H288	0.385100	0.296600	0.901800
C11	C1	0.011960	0.091090	0.178190
C21	C2	0.130640	0.105290	0.157830
C31	C3	0.196730	0.123470	0.181470
C41	C4	0.304950	0.136300	0.164000
C51	C5	0.343640	0.130840	0.122880
C61	C6	0.177090	0.100110	0.116110
C71	C7	0.112750	0.083850	0.085250
C81	C8	0.052000	0.098190	0.022410
C91	C9	0.984150	0.067120	0.025980
C101	C10	0.988790	0.041630	0.060190
C111	C11	0.055920	0.049150	0.090010
C121	C12	0.073630	0.017920	0.123220
C131	C13	0.732910	0.964750	0.090230
C141	C14	0.689470	0.966040	0.049020
C151	C15	0.684970	0.002250	0.026210
C161	C16	0.661430	0.002800	0.986940
C171	C17	0.646480	0.967120	0.969920
C181	C18	0.663710	0.931760	0.030820
C191	C19	0.655360	0.891710	0.051170
C201	C20	0.715220	0.821160	0.043800
C211	C21	0.655630	0.814450	0.083090
C221	C22	0.591060	0.847290	0.105590
C231	C23	0.587170	0.886750	0.090310
C241	C24	0.498880	0.921560	0.113480
C251	C25	0.986050	0.899870	0.192830
C261	C26	0.083320	0.861620	0.197740
C271	C27	0.135600	0.837600	0.162800
C281	C28	0.218200	0.801200	0.165000
C291	C29	0.233800	0.789200	0.204800
C301	C30	0.118900	0.848130	0.233670
C311	C31	0.083000	0.873130	0.271870
C321	C32	0.000700	0.877800	0.341400
C331	C33	0.031600	0.914450	0.346150
C341	C34	0.087600	0.932250	0.311950
C351	C35	0.116780	0.911120	0.273920
C361	C36	0.187440	0.930400	0.238520
C371	C37	0.538220	0.988480	0.236880
C381	C38	0.492390	0.996540	0.282280
C391	C39	0.410410	0.973120	0.303660
C401	C40	0.381150	0.975650	0.345450
C411	C41	0.439420	0.999410	0.365950
C421	C42	0.538990	0.023490	0.305130
C431	C43	0.617470	0.054530	0.287930
C441	C44	0.782530	0.084610	0.297330
C451	C45	0.771240	0.109900	0.264620
C461	C46	0.678070	0.107570	0.243090
C471	C47	0.599000	0.079380	0.254220
C481	C48	0.495960	0.078410	0.229470
C491	C49	0.781240	0.408910	0.321810
C501	C50	0.893760	0.394710	0.342170
C511	C51	0.001670	0.376530	0.318530
C521	C52	0.105250	0.363700	0.336000
C531	C53	0.097360	0.369160	0.377120
C541	C54	0.893310	0.399890	0.383890
C551	C55	0.781850	0.416150	0.414750
C561	C56	0.672600	0.401810	0.477590
C571	C57	0.577250	0.432880	0.474020
C581	C58	0.590610	0.458370	0.439810
C591	C59	0.695080	0.450850	0.409990
C601	C60	0.714770	0.482080	0.376780
C611	C61	0.287890	0.535250	0.409770
C621	C62	0.204530	0.533960	0.450980
C631	C63	0.213430	0.497750	0.473790
C641	C64	0.151170	0.497200	0.513060
C651	C65	0.083520	0.532880	0.530080
C661	C66	0.126290	0.568240	0.469180
C671	C67	0.098240	0.608290	0.448830
C681	C68	0.080180	0.678840	0.456200
C691	C69	0.053170	0.685550	0.416910
C701	C70	0.043940	0.652710	0.394410
C711	C71	0.064230	0.613250	0.409690
C721	C72	0.033920	0.578440	0.386520
C731	C73	0.578750	0.600130	0.307170
C741	C74	0.642680	0.638380	0.302260
C751	C75	0.636000	0.662400	0.337200
C761	C76	0.684400	0.698800	0.335000
C771	C77	0.727800	0.710800	0.295200
C781	C78	0.700700	0.651870	0.266330
C791	C79	0.728000	0.626870	0.228130
C801	C80	0.719900	0.622200	0.158600
C811	C81	0.792200	0.585550	0.153850
C821	C82	0.831800	0.567750	0.188050
C831	C83	0.801820	0.588880	0.226080
C841	C84	0.856360	0.569600	0.261480
C851	C85	0.263580	0.511520	0.263120
C861	C86	0.271210	0.503460	0.217720
C871	C87	0.187190	0.526880	0.196340
C881	C88	0.202250	0.524350	0.154550
C891	C89	0.304780	0.500590	0.134050
C901	C90	0.367610	0.476510	0.194870
C911	C91	0.459930	0.445470	0.212070
C921	C92	0.664470	0.415390	0.202670
C931	C93	0.645760	0.390100	0.235380
C941	C94	0.528730	0.392430	0.256910
C951	C95	0.432600	0.420620	0.245780
C961	C96	0.303840	0.421590	0.270530
C971	C97	0.190150	0.821810	0.591090
C981	C98	0.288470	0.842170	0.605290
C991	C99	0.378200	0.818530	0.623470
C1001	C100	0.468950	0.836000	0.636300
C1011	C101	0.466520	0.877120	0.630840
C1021	C102	0.293200	0.883890	0.600110
C1031	C103	0.198000	0.914750	0.583850
C1041	C104	0.074410	0.977590	0.598190
C1051	C105	0.010130	0.974020	0.567120
C1061	C106	0.048980	0.939810	0.541630
C1071	C107	0.145930	0.909990	0.549150
C1081	C108	0.196850	0.876780	0.517920
C1091	C109	0.823140	0.909770	0.464750
C1101	C110	0.738490	0.950980	0.466040
C1111	C111	0.711180	0.973790	0.502250
C1121	C112	0.648370	0.013060	0.502800
C1131	C113	0.616400	0.030080	0.467120
C1141	C114	0.694530	0.969180	0.431760
C1151	C115	0.706530	0.948830	0.391710
C1161	C116	0.759020	0.956200	0.321160
C1171	C117	0.738720	0.916910	0.314450
C1181	C118	0.696650	0.894410	0.347290
C1191	C119	0.677480	0.909690	0.386750
C1201	C120	0.612360	0.886520	0.421560
C1211	C121	0.178880	0.807170	0.399870
C1221	C122	0.281060	0.802260	0.361620
C1231	C123	0.298400	0.837200	0.337600
C1241	C124	0.383200	0.835000	0.301200
C1251	C125	0.438600	0.795200	0.289200
C1261	C126	0.352570	0.766330	0.348130
C1271	C127	0.354870	0.728130	0.373130
C1281	C128	0.342100	0.658600	0.377800
C1291	C129	0.377750	0.653850	0.414450
C1301	C130	0.399550	0.688050	0.432250
C1311	C131	0.390700	0.726080	0.411120
C1321	C132	0.425960	0.761480	0.430400
C1331	C133	0.775100	0.763120	0.488480
C1341	C134	0.774670	0.717720	0.496540
C1351	C135	0.714070	0.696340	0.473120
C1361	C136	0.726600	0.654550	0.475650
C1371	C137	0.805370	0.634050	0.499410
C1381	C138	0.844120	0.694870	0.523490
C1391	C139	0.905400	0.712070	0.554530
C1401	C140	0.079860	0.702670	0.584610
C1411	C141	0.035860	0.735380	0.609900
C1421	C142	0.921160	0.756910	0.607570
C1431	C143	0.853220	0.745780	0.579380
C1441	C144	0.725430	0.770530	0.578410
C1451	C145	0.103050	0.678190	0.908910
C1461	C146	0.235930	0.657830	0.894710
C1471	C147	0.320200	0.681470	0.876530
C1481	C148	0.441250	0.664000	0.863700
C1491	C149	0.474480	0.622880	0.869160
C1501	C150	0.277200	0.616110	0.899890
C1511	C151	0.196600	0.585250	0.916150
C1521	C152	0.150190	0.522410	0.901810
C1531	C153	0.051270	0.525980	0.932880
C1541	C154	0.030420	0.560190	0.958370
C1551	C155	0.105070	0.590010	0.950850
C1561	C156	0.091550	0.623220	0.982080
C1571	C157	0.697660	0.590230	0.035250
C1581	C158	0.655510	0.549020	0.033960
C1591	C159	0.687220	0.526210	0.997750
C1601	C160	0.664230	0.486940	0.997200
C1611	C161	0.613600	0.469920	0.032880
C1621	C162	0.595470	0.530820	0.068240
C1631	C163	0.547070	0.551170	0.108290
C1641	C164	0.536380	0.543800	0.178840
C1651	C165	0.470080	0.583090	0.185550
C1661	C166	0.438350	0.605590	0.152710
C1671	C167	0.473920	0.590310	0.113250
C1681	C168	0.420440	0.613480	0.078440
C1691	C169	0.885920	0.692830	0.100130
C1701	C170	0.944940	0.697740	0.138380
C1711	C171	0.973200	0.662800	0.162400
C1721	C172	0.019400	0.665000	0.198800
C1731	C173	0.023000	0.704800	0.210800
C1741	C174	0.967030	0.733670	0.151870
C1751	C175	0.956130	0.771870	0.126870
C1761	C176	0.878500	0.841400	0.122200
C1771	C177	0.946050	0.846150	0.085550
C1781	C178	0.019850	0.811950	0.067750
C1791	C179	0.027900	0.773920	0.088880
C1801	C180	0.117840	0.738520	0.069600
C1811	C181	0.526700	0.736880	0.011520
C1821	C182	0.488930	0.782280	0.003460
C1831	C183	0.383530	0.803660	0.026880
C1841	C184	0.356800	0.845450	0.024350
C1851	C185	0.438830	0.865950	0.000590
C1861	C186	0.562480	0.805130	0.976510
C1871	C187	0.672000	0.787930	0.945470
C1881	C188	0.867140	0.797330	0.915390
C1891	C189	0.881140	0.764620	0.890100
C1901	C190	0.785640	0.743090	0.892430
C1911	C191	0.678380	0.754220	0.920620
C1921	C192	0.574370	0.729470	0.921590
C1931	C193	0.988040	0.908910	0.821810
C1941	C194	0.869360	0.894710	0.842170
C1951	C195	0.803270	0.876530	0.818530
C1961	C196	0.695050	0.863700	0.836000
C1971	C197	0.656360	0.869160	0.877120
C1981	C198	0.822910	0.899890	0.883890
C1991	C199	0.887250	0.916150	0.914750
C2001	C200	0.948000	0.901810	0.977590
C2011	C201	0.015850	0.932880	0.974020
C2021	C202	0.011210	0.958370	0.939810
C2031	C203	0.944080	0.950850	0.909990
C2041	C204	0.926370	0.982080	0.876780
C2051	C205	0.267090	0.035250	0.909770
C2061	C206	0.310530	0.033960	0.950980
C2071	C207	0.315030	0.997750	0.973790
C2081	C208	0.338570	0.997200	0.013060
C2091	C209	0.353520	0.032880	0.030080
C2101	C210	0.336290	0.068240	0.969180
C2111	C211	0.344640	0.108290	0.948830
C2121	C212	0.284780	0.178840	0.956200
C2131	C213	0.344370	0.185550	0.916910
C2141	C214	0.408940	0.152710	0.894410
C2151	C215	0.412830	0.113250	0.909690
C2161	C216	0.501120	0.078440	0.886520
C2171	C217	0.013950	0.100130	0.807170
C2181	C218	0.916680	0.138380	0.802260
C2191	C219	0.864400	0.162400	0.837200
C2201	C220	0.781800	0.198800	0.835000
C2211	C221	0.766200	0.210800	0.795200
C2221	C222	0.881100	0.151870	0.766330
C2231	C223	0.917000	0.126870	0.728130
C2241	C224	0.999300	0.122200	0.658600
C2251	C225	0.968400	0.085550	0.653850
C2261	C226	0.912400	0.067750	0.688050
C2271	C227	0.883220	0.088880	0.726080
C2281	C228	0.812560	0.069600	0.761480
C2291	C229	0.461780	0.011520	0.763120
C2301	C230	0.507610	0.003460	0.717720
C2311	C231	0.589590	0.026880	0.696340
C2321	C232	0.618850	0.024350	0.654550
C2331	C233	0.560580	0.000590	0.634050
C2341	C234	0.461010	0.976510	0.694870
C2351	C235	0.382530	0.945470	0.712070
C2361	C236	0.217470	0.915390	0.702670
C2371	C237	0.228760	0.890100	0.735380
C2381	C238	0.321930	0.892430	0.756910
C2391	C239	0.401000	0.920620	0.745780
C2401	C240	0.504040	0.921590	0.770530
C2411	C241	0.218760	0.591090	0.678190
C2421	C242	0.106240	0.605290	0.657830
C2431	C243	0.998330	0.623470	0.681470
C2441	C244	0.894750	0.636300	0.664000
C2451	C245	0.902640	0.630840	0.622880
C2461	C246	0.106690	0.600110	0.616110
C2471	C247	0.218150	0.583850	0.585250
C2481	C248	0.327400	0.598190	0.522410
C2491	C249	0.422750	0.567120	0.525980
C2501	C250	0.409390	0.541630	0.560190
C2511	C251	0.304920	0.549150	0.590010
C2521	C252	0.285230	0.517920	0.623220
C2531	C253	0.712110	0.464750	0.590230
C2541	C254	0.795470	0.466040	0.549020
C2551	C255	0.786570	0.502250	0.526210
C2561	C256	0.848830	0.502800	0.486940
C2571	C257	0.916480	0.467120	0.469920
C2581	C258	0.873710	0.431760	0.530820
C2591	C259	0.901760	0.391710	0.551170
C2601	C260	0.919820	0.321160	0.543800
C2611	C261	0.946830	0.314450	0.583090
C2621	C262	0.956060	0.347290	0.605590
C2631	C263	0.935770	0.386750	0.590310
C2641	C264	0.966080	0.421560	0.613480
C2651	C265	0.421250	0.399870	0.692830
C2661	C266	0.357320	0.361620	0.697740
C2671	C267	0.364000	0.337600	0.662800
C2681	C268	0.315600	0.301200	0.665000
C2691	C269	0.272200	0.289200	0.704800
C2701	C270	0.299300	0.348130	0.733670
C2711	C271	0.272000	0.373130	0.771870
C2721	C272	0.280100	0.377800	0.841400
C2731	C273	0.207800	0.414450	0.846150
C2741	C274	0.168200	0.432250	0.811950
C2751	C275	0.198180	0.411120	0.773920
C2761	C276	0.143640	0.430400	0.738520
C2771	C277	0.736420	0.488480	0.736880
C2781	C278	0.728790	0.496540	0.782280
C2791	C279	0.812810	0.473120	0.803660
C2801	C280	0.797750	0.475650	0.845450
C2811	C281	0.695220	0.499410	0.865950
C2821	C282	0.632390	0.523490	0.805130
C2831	C283	0.540070	0.554530	0.787930
C2841	C284	0.335530	0.584610	0.797330
C2851	C285	0.354240	0.609900	0.764620
C2861	C286	0.471270	0.607570	0.743090
C2871	C287	0.567400	0.579380	0.754220
C2881	C288	0.696160	0.578410	0.729470
C2891	C289	0.809850	0.178190	0.408910
C2901	C290	0.711530	0.157830	0.394710
C2911	C291	0.621800	0.181470	0.376530
C2921	C292	0.531050	0.164000	0.363700
C2931	C293	0.533480	0.122880	0.369160
C2941	C294	0.706800	0.116110	0.399890
C2951	C295	0.802000	0.085250	0.416150
C2961	C296	0.925590	0.022410	0.401810
C2971	C297	0.989870	0.025980	0.432880
C2981	C298	0.951020	0.060190	0.458370
C2991	C299	0.854070	0.090010	0.450850
C3001	C300	0.803150	0.123220	0.482080
C3011	C301	0.176860	0.090230	0.535250
C3021	C302	0.261510	0.049020	0.533960
C3031	C303	0.288820	0.026210	0.497750
C3041	C304	0.351630	0.986940	0.497200
C3051	C305	0.383600	0.969920	0.532880
C3061	C306	0.305470	0.030820	0.568240
C3071	C307	0.293470	0.051170	0.608290
C3081	C308	0.240980	0.043800	0.678840
C3091	C309	0.261280	0.083090	0.685550
C3101	C310	0.303350	0.105590	0.652710
C3111	C311	0.322520	0.090310	0.613250
C3121	C312	0.387640	0.113480	0.578440
C3131	C313	0.821120	0.192830	0.600130
C3141	C314	0.718940	0.197740	0.638380
C3151	C315	0.701600	0.162800	0.662400
C3161	C316	0.616800	0.165000	0.698800
C3171	C317	0.561400	0.204800	0.710800
C3181	C318	0.647430	0.233670	0.651870
C3191	C319	0.645130	0.271870	0.626870
C3201	C320	0.657900	0.341400	0.622200
C3211	C321	0.622250	0.346150	0.585550
C3221	C322	0.600450	0.311950	0.567750
C3231	C323	0.609300	0.273920	0.588880
C3241	C324	0.574040	0.238520	0.569600
C3251	C325	0.224900	0.236880	0.511520
C3261	C326	0.225330	0.282280	0.503460
C3271	C327	0.285930	0.303660	0.526880
C3281	C328	0.273400	0.345450	0.524350
C3291	C329	0.194630	0.365950	0.500590
C3301	C330	0.155880	0.305130	0.476510
C3311	C331	0.094600	0.287930	0.445470
C3321	C332	0.920140	0.297330	0.415390
C3331	C333	0.964140	0.264620	0.390100
C3341	C334	0.078840	0.243090	0.392430
C3351	C335	0.146780	0.254220	0.420620
C3361	C336	0.274570	0.229470	0.421590
C3371	C337	0.896950	0.321810	0.091090
C3381	C338	0.764070	0.342170	0.105290
C3391	C339	0.679800	0.318530	0.123470
C3401	C340	0.558750	0.336000	0.136300
C3411	C341	0.525520	0.377120	0.130840
C3421	C342	0.722800	0.383890	0.100110
C3431	C343	0.803400	0.414750	0.083850
C3441	C344	0.849810	0.477590	0.098190
C3451	C345	0.948730	0.474020	0.067120
C3461	C346	0.969580	0.439810	0.041630
C3471	C347	0.894930	0.409990	0.049150
C3481	C348	0.908450	0.376780	0.017920
C3491	C349	0.302340	0.409770	0.964750
C3501	C350	0.344490	0.450980	0.966040
C3511	C351	0.312780	0.473790	0.002250
C3521	C352	0.335770	0.513060	0.002800
C3531	C353	0.386400	0.530080	0.967120
C3541	C354	0.404530	0.469180	0.931760
C3551	C355	0.452930	0.448830	0.891710
C3561	C356	0.463620	0.456200	0.821160
C3571	C357	0.529920	0.416910	0.814450
C3581	C358	0.561650	0.394410	0.847290
C3591	C359	0.526080	0.409690	0.886750
C3601	C360	0.579560	0.386520	0.921560
C3611	C361	0.114080	0.307170	0.899870
C3621	C362	0.055060	0.302260	0.861620
C3631	C363	0.026800	0.337200	0.837600
C3641	C364	0.980600	0.335000	0.801200
C3651	C365	0.977000	0.295200	0.789200
C3661	C366	0.032970	0.266330	0.848130
C3671	C367	0.043870	0.228130	0.873130
C3681	C368	0.121500	0.158600	0.877800
C3691	C369	0.053950	0.153850	0.914450
C3701	C370	0.980150	0.188050	0.932250
C3711	C371	0.972100	0.226080	0.911120
C3721	C372	0.882160	0.261480	0.930400
C3731	C373	0.473300	0.263120	0.988480
C3741	C374	0.511070	0.217720	0.996540
C3751	C375	0.616470	0.196340	0.973120
C3761	C376	0.643200	0.154550	0.975650
C3771	C377	0.561170	0.134050	0.999410
C3781	C378	0.437520	0.194870	0.023490
C3791	C379	0.328000	0.212070	0.054530
C3801	C380	0.132860	0.202670	0.084610
C3811	C381	0.118860	0.235380	0.109900
C3821	C382	0.214360	0.256910	0.107570
C3831	C383	0.321620	0.245780	0.079380
C3841	C384	0.425630	0.270530	0.078410
N11	N1	0.708350	0.057220	0.309480
N21	N2	0.517190	0.023320	0.346700
N31	N3	0.022300	0.855550	0.306050
N41	N4	0.187710	0.811480	0.238500
N51	N5	0.115370	0.106780	0.050880
N61	N6	0.280970	0.113670	0.098790
N71	N7	0.648400	0.931940	0.991060
N81	N8	0.714310	0.858650	0.027930
N91	N9	0.575050	0.442780	0.190520
N101	N10	0.387210	0.476680	0.153300
N111	N11	0.683900	0.644450	0.193950
N121	N12	0.737690	0.688520	0.261500
N131	N13	0.773030	0.393220	0.449120
N141	N14	0.993430	0.386330	0.401210
N151	N15	0.071400	0.568060	0.508940
N161	N16	0.100890	0.641350	0.472070
N171	N17	0.017830	0.690520	0.557220
N181	N18	0.863890	0.653300	0.523320
N191	N19	0.328350	0.693950	0.355550
N201	N20	0.426210	0.761500	0.311480
N211	N21	0.166250	0.949120	0.606780
N221	N22	0.379760	0.901210	0.613670
N231	N23	0.639460	0.008940	0.431940
N241	N24	0.742240	0.972070	0.358650
N251	N25	0.765570	0.809480	0.942780
N261	N26	0.540510	0.846700	0.976680
N271	N27	0.877850	0.806050	0.144450
N281	N28	0.999190	0.738500	0.188520
N291	N29	0.222150	0.550880	0.893220
N301	N30	0.394640	0.598790	0.886330
N311	N31	0.580340	0.491060	0.068060
N321	N32	0.572960	0.527930	0.141350
N331	N33	0.291650	0.942780	0.690520
N341	N34	0.482810	0.976680	0.653300
N351	N35	0.977700	0.144450	0.693950
N361	N36	0.812290	0.188520	0.761500
N371	N37	0.884630	0.893220	0.949120
N381	N38	0.719030	0.886330	0.901210
N391	N39	0.351600	0.068060	0.008940
N401	N40	0.285690	0.141350	0.972070
N411	N41	0.424950	0.557220	0.809480
N421	N42	0.612790	0.523320	0.846700
N431	N43	0.316100	0.355550	0.806050
N441	N44	0.262310	0.311480	0.738500
N451	N45	0.226970	0.606780	0.550880
N461	N46	0.006570	0.613670	0.598790
N471	N47	0.928600	0.431940	0.491060
N481	N48	0.899110	0.358650	0.527930
N491	N49	0.982170	0.309480	0.442780
N501	N50	0.136110	0.346700	0.476680
N511	N51	0.671650	0.306050	0.644450
N521	N52	0.573790	0.238500	0.688520
N531	N53	0.833750	0.050880	0.393220
N541	N54	0.620240	0.098790	0.386330
N551	N55	0.360540	0.991060	0.568060
N561	N56	0.257760	0.027930	0.641350
N571	N57	0.234430	0.190520	0.057220
N581	N58	0.459490	0.153300	0.023320
N591	N59	0.122150	0.193950	0.855550
N601	N60	0.000810	0.261500	0.811480
N611	N61	0.777850	0.449120	0.106780
N621	N62	0.605360	0.401210	0.113670
N631	N63	0.419660	0.508940	0.931940
N641	N64	0.427040	0.472070	0.858650
O11	O1	0.920120	0.099880	0.160880
O21	O2	0.016450	0.071430	0.210870
O31	O3	0.991290	0.996290	0.132930
O41	O4	0.171860	0.014620	0.137260
O51	O5	0.436390	0.026920	0.140500
O61	O6	0.225060	0.924230	0.140050
O71	O7	0.244020	0.033490	0.218870
O81	O8	0.134760	0.962320	0.222960
O91	O9	0.296400	0.916110	0.225690
O101	O10	0.442680	0.949360	0.095080
O111	O11	0.485620	0.919230	0.152530
O121	O12	0.466030	0.977450	0.216490
O131	O13	0.647960	0.992290	0.224190
O141	O14	0.761270	0.045980	0.161080
O151	O15	0.904270	0.001690	0.224770
O161	O16	0.834190	0.944110	0.093510
O171	O17	0.669050	0.986150	0.119550
O181	O18	0.703850	0.915090	0.180010
O191	O19	0.904610	0.913040	0.222140
O201	O20	0.990570	0.914920	0.158740
O211	O21	0.390680	0.078300	0.249540
O221	O22	0.526260	0.076980	0.191500
O231	O23	0.680880	0.400120	0.339120
O241	O24	0.798750	0.428570	0.289130
O251	O25	0.620510	0.503710	0.367070
O261	O26	0.823740	0.485380	0.362740
O271	O27	0.103810	0.473080	0.359500
O281	O28	0.789340	0.575770	0.359950
O291	O29	0.996380	0.466510	0.281130
O301	O30	0.820040	0.537680	0.277040
O311	O31	0.938200	0.583890	0.274310
O321	O32	0.987120	0.550640	0.404920
O331	O33	0.057380	0.580770	0.347470
O341	O34	0.159970	0.522550	0.283510
O351	O35	0.364440	0.507710	0.275810
O361	O36	0.468330	0.454020	0.338920
O371	O37	0.630730	0.498310	0.275230
O381	O38	0.371810	0.555890	0.406490
O391	O39	0.274750	0.513850	0.380450
O401	O40	0.298950	0.584910	0.319990
O411	O41	0.539790	0.586960	0.277860
O421	O42	0.564230	0.585080	0.341260
O431	O43	0.218520	0.421700	0.250460
O441	O44	0.294740	0.423020	0.308500
O451	O45	0.081000	0.839120	0.599880
O461	O46	0.227320	0.789130	0.571430
O471	O47	0.124220	0.867070	0.496290
O481	O48	0.309120	0.862740	0.514620
O491	O49	0.576890	0.859500	0.526920
O501	O50	0.365110	0.859950	0.424230
O511	O51	0.462890	0.781130	0.533490
O521	O52	0.357720	0.777040	0.462320
O531	O53	0.522090	0.774310	0.416110
O541	O54	0.537760	0.904920	0.449360
O551	O55	0.638150	0.847470	0.419230
O561	O56	0.682520	0.783510	0.477450
O571	O57	0.872150	0.775810	0.492290
O581	O58	0.922350	0.838920	0.545980
O591	O59	0.129040	0.775230	0.501690
O601	O60	0.927700	0.906490	0.444110
O611	O61	0.788600	0.880450	0.486150
O621	O62	0.883860	0.819990	0.415090
O631	O63	0.126750	0.777860	0.413040
O641	O64	0.149310	0.841260	0.414920
O651	O65	0.640220	0.750460	0.578300
O661	O66	0.717760	0.808500	0.576980
O671	O67	0.020000	0.660880	0.900120
O681	O68	0.087880	0.710870	0.928570
O691	O69	0.987580	0.632930	0.003710
O701	O70	0.186480	0.637260	0.985380
O711	O71	0.463310	0.640500	0.973080
O721	O72	0.149290	0.640050	0.075770
O731	O73	0.277510	0.718870	0.966510
O741	O74	0.097080	0.722960	0.037680
O751	O75	0.212510	0.725690	0.083890
O761	O76	0.392040	0.595080	0.050640
O771	O77	0.404850	0.652530	0.080770
O781	O78	0.443480	0.716490	0.022550
O791	O79	0.640250	0.724190	0.007710
O801	O80	0.807250	0.661080	0.954020
O811	O81	0.905960	0.724770	0.998310
O821	O82	0.778300	0.593510	0.055890
O831	O83	0.655200	0.619550	0.013850
O841	O84	0.618940	0.680010	0.084910
O851	O85	0.817650	0.722140	0.086960
O861	O86	0.905490	0.658740	0.085080
O871	O87	0.468980	0.749540	0.921700
O881	O88	0.603240	0.691500	0.923020
O891	O89	0.079880	0.900120	0.839120
O901	O90	0.983550	0.928570	0.789130
O911	O91	0.008710	0.003710	0.867070
O921	O92	0.828140	0.985380	0.862740
O931	O93	0.563610	0.973080	0.859500
O941	O94	0.774940	0.075770	0.859950
O951	O95	0.755980	0.966510	0.781130
O961	O96	0.865240	0.037680	0.777040
O971	O97	0.703600	0.083890	0.774310
O981	O98	0.557320	0.050640	0.904920
O991	O99	0.514380	0.080770	0.847470
O1001	O100	0.533970	0.022550	0.783510
O1011	O101	0.352040	0.007710	0.775810
O1021	O102	0.238730	0.954020	0.838920
O1031	O103	0.095730	0.998310	0.775230
O1041	O104	0.165810	0.055890	0.906490
O1051	O105	0.330950	0.013850	0.880450
O1061	O106	0.296150	0.084910	0.819990
O1071	O107	0.095390	0.086960	0.777860
O1081	O108	0.009430	0.085080	0.841260
O1091	O109	0.609320	0.921700	0.750460
O1101	O110	0.473740	0.923020	0.808500
O1111	O111	0.319120	0.599880	0.660880
O1121	O112	0.201250	0.571430	0.710870
O1131	O113	0.379490	0.496290	0.632930
O1141	O114	0.176260	0.514620	0.637260
O1151	O115	0.896190	0.526920	0.640500
O1161	O116	0.210660	0.424230	0.640050
O1171	O117	0.003620	0.533490	0.718870
O1181	O118	0.179960	0.462320	0.722960
O1191	O119	0.061800	0.416110	0.725690
O1201	O120	0.012880	0.449360	0.595080
O1211	O121	0.942620	0.419230	0.652530
O1221	O122	0.840030	0.477450	0.716490
O1231	O123	0.635560	0.492290	0.724190
O1241	O124	0.531670	0.545980	0.661080
O1251	O125	0.369270	0.501690	0.724770
O1261	O126	0.628190	0.444110	0.593510
O1271	O127	0.725250	0.486150	0.619550
O1281	O128	0.701050	0.415090	0.680010
O1291	O129	0.460210	0.413040	0.722140
O1301	O130	0.435770	0.414920	0.658740
O1311	O131	0.781480	0.578300	0.749540
O1321	O132	0.705260	0.576980	0.691500
O1331	O133	0.919000	0.160880	0.400120
O1341	O134	0.772680	0.210870	0.428570
O1351	O135	0.875780	0.132930	0.503710
O1361	O136	0.690880	0.137260	0.485380
O1371	O137	0.423110	0.140500	0.473080
O1381	O138	0.634890	0.140050	0.575770
O1391	O139	0.537110	0.218870	0.466510
O1401	O140	0.642280	0.222960	0.537680
O1411	O141	0.477910	0.225690	0.583890
O1421	O142	0.462240	0.095080	0.550640
O1431	O143	0.361850	0.152530	0.580770
O1441	O144	0.317480	0.216490	0.522550
O1451	O145	0.127850	0.224190	0.507710
O1461	O146	0.077650	0.161080	0.454020
O1471	O147	0.870960	0.224770	0.498310
O1481	O148	0.072300	0.093510	0.555890
O1491	O149	0.211400	0.119550	0.513850
O1501	O150	0.116140	0.180010	0.584910
O1511	O151	0.873250	0.222140	0.586960
O1521	O152	0.850690	0.158740	0.585080
O1531	O153	0.359780	0.249540	0.421700
O1541	O154	0.282240	0.191500	0.423020
O1551	O155	0.980000	0.339120	0.099880
O1561	O156	0.912120	0.289130	0.071430
O1571	O157	0.012420	0.367070	0.996290
O1581	O158	0.813520	0.362740	0.014620
O1591	O159	0.536690	0.359500	0.026920
O1601	O160	0.850710	0.359950	0.924230
O1611	O161	0.722490	0.281130	0.033490
O1621	O162	0.902920	0.277040	0.962320
O1631	O163	0.787490	0.274310	0.916110
O1641	O164	0.607960	0.404920	0.949360
O1651	O165	0.595150	0.347470	0.919230
O1661	O166	0.556520	0.283510	0.977450
O1671	O167	0.359750	0.275810	0.992290
O1681	O168	0.192750	0.338920	0.045980
O1691	O169	0.094040	0.275230	0.001690
O1701	O170	0.221700	0.406490	0.944110
O1711	O171	0.344800	0.380450	0.986150
O1721	O172	0.381060	0.319990	0.915090
O1731	O173	0.182350	0.277860	0.913040
O1741	O174	0.094510	0.341260	0.914920
O1751	O175	0.531020	0.250460	0.078300
O1761	O176	0.396760	0.308500	0.076980
