data_MIHHAN_SL_PM
_symmetry_space_group_name_H-M	'P1'
_cell_length_a	32.153900
_cell_length_b	32.153900
_cell_length_c	32.153900
_cell_angle_alpha	60.000000
_cell_angle_beta	60.000000
_cell_angle_gamma	60.000000
_symmetry_Int_Tables_number 1

loop_
_symmetry_equiv_pos_as_xyz
'x,y,z'

loop_
_atom_site_label
_atom_site_type_symbol
_atom_site_fract_x
_atom_site_fract_y
_atom_site_fract_z
H11	H1	0.441870	0.154520	0.622660
H21	H2	0.808070	0.434920	0.492120
H31	H3	0.958960	0.553620	0.341180
H41	H4	0.723740	0.637530	0.491990
H51	H5	0.807830	0.789630	0.255840
H61	H6	0.959650	0.638090	0.137420
C71	C7	0.432940	0.077900	0.011760
N81	N8	0.430720	0.156370	0.002960
C91	C9	0.410500	0.118980	0.028960
N101	N10	0.422350	0.034160	0.027770
C111	C11	0.113080	0.165740	0.019780
H121	H12	0.354060	0.235830	0.021930
C131	C13	0.157130	0.167260	0.018390
C141	C14	0.248640	0.263260	0.009770
C151	C15	0.322610	0.256410	0.007040
N161	N16	0.285000	0.236580	0.031240
N171	N17	0.205350	0.252700	0.024830
H181	H18	0.846290	0.235580	0.020770
C191	C19	0.935120	0.263690	0.010410
C201	C20	0.871720	0.256310	0.006440
N211	N21	0.904430	0.236670	0.031180
N221	N22	0.973030	0.253750	0.026340
C231	C23	0.936210	0.079560	0.009570
N241	N24	0.868350	0.157630	0.000110
C251	C25	0.900350	0.121160	0.025960
N261	N26	0.974460	0.036130	0.026070
C271	C27	0.334250	0.988010	0.020860
C281	C28	0.159360	0.944430	0.019680
C291	C29	0.248460	0.765620	0.010310
N301	N30	0.326990	0.698310	0.000580
C311	C31	0.290030	0.729880	0.026770
N321	N32	0.204860	0.803680	0.026910
H331	H33	0.149010	0.502220	0.052980
Zn341	Zn34	0.050660	0.696540	0.028650
N351	N35	0.069690	0.640890	0.006700
Zn361	Zn36	0.046540	0.513740	0.031030
N371	N37	0.069860	0.570070	0.007620
C381	C38	0.115080	0.988350	0.018590
H391	H39	0.405810	0.676500	0.020080
C401	C40	0.336070	0.943730	0.019360
C411	C41	0.432740	0.766120	0.009710
C421	C42	0.426170	0.702290	0.005690
N431	N43	0.406070	0.735110	0.030450
N441	N44	0.422250	0.804270	0.025630
H451	H45	0.005220	0.614860	0.052310
C461	C46	0.043760	0.609460	0.025250
Zn471	Zn47	0.863740	0.513520	0.030960
N481	N48	0.900880	0.527970	0.054780
N491	N49	0.809400	0.572000	0.006340
N501	N50	0.974870	0.733410	0.054030
Zn511	Zn51	0.683670	0.880710	0.026390
N521	N52	0.696830	0.805030	0.052470
N531	N53	0.741630	0.899800	0.006370
Zn541	Zn54	0.681150	0.696210	0.030920
N551	N55	0.699000	0.733610	0.051470
N561	N56	0.739860	0.642860	0.005080
Zn571	Zn57	0.866240	0.878860	0.031610
N581	N58	0.903560	0.803630	0.052430
N591	N59	0.812420	0.899570	0.005630
N601	N60	0.971480	0.529650	0.053460
H611	H61	0.750030	0.501150	0.055190
H621	H62	0.669720	0.983530	0.050770
H631	H63	0.973470	0.510220	0.997730
C641	C64	0.951050	0.521270	0.031580
H651	H65	0.977100	0.805990	0.997490
C661	C66	0.954470	0.783460	0.030930
H671	H67	0.678940	0.806910	0.995850
C681	C68	0.690260	0.784420	0.029540
H691	H69	0.783830	0.617920	0.050690
C701	C70	0.778630	0.611580	0.023670
H711	H71	0.787970	0.834720	0.050210
C721	C72	0.781430	0.873460	0.023690
H731	H73	0.163100	0.220340	0.777010
C741	C74	0.114840	0.316660	0.692060
C751	C75	0.160560	0.248040	0.739900
N761	N76	0.114540	0.283590	0.738970
H771	H77	0.149850	0.352110	0.284950
Zn781	Zn78	0.180950	0.195960	0.531040
H791	H79	0.244310	0.127910	0.695140
H801	H80	0.354160	0.235540	0.380040
C811	C81	0.158830	0.165070	0.647420
C821	C82	0.207110	0.139850	0.692820
C831	C83	0.106360	0.190230	0.504650
N841	N84	0.113410	0.140720	0.531480
C851	C85	0.256790	0.132440	0.463070
N861	N86	0.239490	0.162310	0.423630
C871	C87	0.247760	0.263630	0.469050
C881	C88	0.322360	0.256310	0.405470
N891	N89	0.205820	0.151550	0.646900
C901	C90	0.090740	0.121580	0.522860
C911	C91	0.268910	0.146670	0.382820
N921	N92	0.284610	0.236610	0.438330
N931	N93	0.144410	0.179370	0.606920
N941	N94	0.125050	0.221040	0.504200
N951	N95	0.236450	0.138240	0.509970
N961	N96	0.203960	0.253640	0.507220
Zn971	Zn97	0.364500	0.009900	0.084600
H981	H98	0.296830	0.073510	0.924960
C991	C99	0.309090	0.036280	0.952360
C1001	C100	0.301110	0.087320	0.137970
N1011	N101	0.332020	0.070670	0.163550
N1021	N102	0.320420	0.035070	0.988110
C1031	C103	0.316810	0.100390	0.190140
N1041	N104	0.306920	0.066650	0.105870
H1051	H105	0.404380	0.322470	0.378290
C1061	C106	0.334720	0.317330	0.647590
C1071	C107	0.309660	0.248790	0.692760
C1081	C108	0.431590	0.309150	0.469160
C1091	C109	0.424480	0.306820	0.404680
N1101	N110	0.321140	0.284510	0.646930
N1111	N111	0.405480	0.331480	0.437300
N1121	N112	0.421720	0.324510	0.507470
H1131	H113	0.162690	0.074540	0.830350
C1141	C114	0.160290	0.037350	0.842390
N1151	N115	0.114330	0.036150	0.854060
C1161	C116	0.487110	0.165480	0.691770
C1171	C117	0.418650	0.140270	0.740350
C1181	C118	0.478220	0.264080	0.781530
N1191	N119	0.469190	0.262110	0.859990
N1201	N120	0.454310	0.151960	0.738860
C1211	C121	0.495400	0.241900	0.822580
N1221	N122	0.494580	0.253440	0.737760
H1231	H123	0.390530	0.074750	0.695680
H1241	H124	0.488000	0.184780	0.380300
C1251	C125	0.418080	0.037580	0.693210
C1261	C126	0.476400	0.078910	0.469910
C1271	C127	0.473250	0.153250	0.405990
N1281	N128	0.453870	0.036590	0.647300
N1291	N129	0.497550	0.115560	0.439140
N1301	N130	0.491760	0.035210	0.508260
H1311	H131	0.160970	0.127770	0.924250
C1321	C132	0.158580	0.140060	0.951610
N1331	N133	0.112620	0.151870	0.987050
N1341	N134	0.072590	0.180150	0.060340
H1351	H135	0.243800	0.223170	0.829680
C1361	C136	0.158090	0.318780	0.867510
C1371	C137	0.206510	0.250420	0.842130
C1381	C138	0.248610	0.307840	0.966350
N1391	N139	0.326730	0.298600	0.965320
N1401	N140	0.205220	0.286310	0.853340
C1411	C141	0.289750	0.324810	0.944550
N1421	N142	0.205150	0.324190	0.955190
Zn1431	Zn143	0.051060	0.326520	0.214100
C1441	C144	0.076430	0.219390	0.221470
N1451	N145	0.049840	0.203560	0.271040
C1461	C146	0.116940	0.272590	0.278130
N1471	N147	0.156240	0.246400	0.247610
C1481	C148	0.058020	0.153240	0.289780
C1491	C149	0.197320	0.219260	0.262810
N1501	N150	0.077240	0.268370	0.190840
N1511	N151	0.069820	0.304880	0.272770
H1521	H152	0.089300	0.154000	0.772720
C1531	C153	0.389970	0.027660	0.309510
H1541	H154	0.442150	0.070640	0.856570
H1551	H155	0.239760	0.272470	0.621710
H1561	H156	0.376630	0.124720	0.429430
H1571	H157	0.238370	0.154750	0.975010
H1581	H158	0.088320	0.272650	0.858680
H1591	H159	0.324340	0.069550	0.622390
H1601	H160	0.089480	0.069470	0.974950
Zn1611	Zn161	0.048450	0.328690	0.398470
H1621	H162	0.032870	0.215760	0.440880
H1631	H163	0.165990	0.238360	0.368080
C1641	C164	0.077540	0.220190	0.471370
C1651	C165	0.055660	0.195990	0.465740
C1661	C166	0.117200	0.271980	0.322290
C1671	C167	0.161790	0.242020	0.334610
N1681	N168	0.062740	0.146220	0.491720
N1691	N169	0.201900	0.215960	0.304150
N1701	N170	0.078800	0.269400	0.450740
N1711	N171	0.070070	0.304320	0.343220
N1721	N172	0.387560	0.031990	0.266540
H1731	H173	0.376830	0.122380	0.062720
H1741	H174	0.367180	0.061190	0.321570
H1751	H175	0.037280	0.137900	0.329920
H1761	H176	0.230780	0.196840	0.239640
C1771	C177	0.113770	0.316810	0.869950
N1781	N178	0.166800	0.244490	0.843770
C1791	C179	0.120020	0.277690	0.857660
Zn1801	Zn180	0.181500	0.196050	0.081700
H1811	H181	0.138990	0.108330	0.194910
H1821	H182	0.212980	0.194240	0.168550
N1831	N183	0.202780	0.140870	0.946200
C1841	C184	0.109100	0.187580	0.191120
C1851	C185	0.114450	0.135950	0.214990
C1861	C186	0.257060	0.131160	0.138010
C1871	C187	0.245520	0.159320	0.166430
C1881	C188	0.202470	0.154450	0.979630
N1891	N189	0.088670	0.119010	0.264780
N1901	N190	0.275770	0.143320	0.192550
N1911	N191	0.143270	0.182100	0.058690
N1921	N192	0.129630	0.217600	0.141970
N1931	N193	0.236060	0.136450	0.106180
Zn1941	Zn194	0.363960	0.011350	0.531670
H1951	H195	0.362270	0.042400	0.414770
N1961	N196	0.310290	0.033970	0.700710
C1971	C197	0.300870	0.088490	0.463050
C1981	C198	0.328030	0.075710	0.418760
C1991	C199	0.432780	0.079120	0.468880
N2001	N200	0.431530	0.157450	0.401360
C2011	C201	0.323670	0.033740	0.654030
N2021	N202	0.311740	0.105450	0.378530
C2031	C203	0.410690	0.120530	0.432930
N2041	N204	0.307080	0.068260	0.510000
N2051	N205	0.421660	0.035510	0.506870
H2061	H206	0.009700	0.081020	0.271830
H2071	H207	0.406110	0.317920	0.888270
C2081	C208	0.336400	0.315820	0.691610
N2091	N209	0.310570	0.243270	0.736960
C2101	C210	0.433450	0.307320	0.782060
C2111	C211	0.426730	0.303590	0.856430
C2121	C212	0.323920	0.276790	0.736800
N2131	N213	0.406670	0.328180	0.818910
N2141	N214	0.422820	0.322870	0.738670
N2151	N215	0.167670	0.033900	0.945650
C2161	C216	0.121110	0.033620	0.979500
C2171	C217	0.485690	0.166780	0.647710
N2181	N218	0.413150	0.141010	0.700850
C2191	C219	0.474870	0.264390	0.469220
N2201	N220	0.465280	0.263780	0.401380
C2211	C221	0.446670	0.154230	0.654120
C2221	C222	0.490910	0.242060	0.433660
N2231	N223	0.491210	0.252740	0.507690
H2241	H224	0.486860	0.184560	0.940330
N2251	N225	0.413080	0.034860	0.843250
C2261	C226	0.476440	0.078440	0.967250
C2271	C227	0.472500	0.152770	0.960740
C2281	C228	0.446680	0.034660	0.856520
N2291	N229	0.497390	0.115210	0.940710
N2301	N230	0.492220	0.035160	0.956410
H2311	H231	0.094960	0.081400	0.543670
H2321	H232	0.015580	0.107850	0.671860
C2331	C233	0.114640	0.166430	0.691470
N2341	N234	0.167490	0.140480	0.737040
C2351	C235	0.120830	0.153770	0.736790
N2361	N236	0.073470	0.181120	0.677500
H2371	H237	0.256910	0.169350	0.349280
H2381	H238	0.339900	0.088630	0.212500
C2391	C239	0.158650	0.315560	0.647670
N2401	N240	0.204600	0.242930	0.700070
C2411	C241	0.247770	0.308130	0.468100
N2421	N242	0.326310	0.298610	0.400850
C2431	C243	0.204050	0.276730	0.653540
C2441	C244	0.289060	0.324930	0.432180
N2451	N245	0.204060	0.324850	0.505970
H2461	H246	0.071190	0.199330	0.604800
C2471	C247	0.093780	0.187970	0.627240
H2481	H248	0.070610	0.200430	0.115460
C2491	C249	0.093000	0.188950	0.081860
H2501	H250	0.117030	0.299760	0.461710
C2511	C251	0.107800	0.267150	0.471360
H2521	H252	0.119590	0.296820	0.112060
C2531	C253	0.109630	0.264700	0.144560
H2541	H254	0.261810	0.094330	0.574360
C2551	C255	0.267810	0.099460	0.535930
H2561	H256	0.261880	0.090700	0.061550
C2571	C257	0.267390	0.097290	0.088200
H2581	H258	0.042570	0.091650	0.795780
C2591	C259	0.004020	0.097710	0.801190
H2601	H260	0.041650	0.093110	0.061550
C2611	C261	0.003110	0.098440	0.088630
H2621	H262	0.005350	0.349740	0.318450
C2631	C263	0.043890	0.322660	0.312090
H2641	H264	0.027940	0.288810	0.680220
H2651	H265	0.144710	0.292940	0.559620
C2661	C266	0.180110	0.290910	0.527660
C2671	C267	0.458450	0.010890	0.993380
H2681	H268	0.460240	0.290410	0.560980
C2691	C269	0.458060	0.289540	0.528830
H2701	H270	0.461750	0.290570	0.679280
C2711	C271	0.460190	0.289230	0.714430
C2721	C272	0.457720	0.011550	0.528730
H2731	H273	0.025350	0.293140	0.994090
H2741	H274	0.146640	0.291420	0.991770
C2751	C275	0.181580	0.289900	0.990820
H2761	H276	0.391210	0.128240	0.777640
H2771	H277	0.845050	0.320880	0.886630
C2781	C278	0.935800	0.307730	0.781790
C2791	C279	0.871240	0.305440	0.855640
N2801	N280	0.904190	0.329860	0.817600
N2811	N281	0.974400	0.322770	0.738180
Zn2821	Zn282	0.998540	0.011200	0.898450
H2831	H283	0.846340	0.183920	0.938230
C2841	C284	0.930900	0.087070	0.834730
N2851	N285	0.891430	0.069870	0.864950
C2861	C286	0.936710	0.078760	0.965670
C2871	C287	0.872420	0.152800	0.958550
C2881	C288	0.850460	0.099270	0.849590
N2891	N289	0.905440	0.114950	0.939060
N2901	N290	0.977890	0.066700	0.840370
N2911	N291	0.974990	0.034990	0.955710
Zn2921	Zn292	0.551100	0.196010	0.713330
C2931	C293	0.657650	0.190790	0.638630
N2941	N294	0.673680	0.141190	0.645750
C2951	C295	0.605380	0.132800	0.790310
N2961	N296	0.631180	0.163510	0.773600
C2971	C297	0.724090	0.122510	0.622590
C2981	C298	0.658240	0.147930	0.803000
N2991	N299	0.527830	0.179800	0.677070
N3001	N300	0.608520	0.221290	0.657650
N3011	N301	0.572920	0.138820	0.769890
Zn3021	Zn302	0.548930	0.011610	0.531480
C3031	C303	0.605390	0.087000	0.464030
N3041	N304	0.632240	0.069520	0.424760
C3051	C305	0.658670	0.099270	0.383560
N3061	N306	0.573620	0.066170	0.511330
Zn3071	Zn307	0.996370	0.196210	0.083490
C3081	C308	0.971090	0.189670	0.190200
N3091	N309	0.997390	0.140000	0.206100
C3101	C310	0.929750	0.132000	0.138590
N3111	N311	0.890140	0.162390	0.164760
C3121	C312	0.989190	0.121240	0.256440
C3131	C313	0.849220	0.146960	0.191630
N3141	N314	0.970370	0.220350	0.141200
N3151	N315	0.976680	0.137770	0.106340
N3161	N316	0.974870	0.351790	0.227970
N3171	N317	0.580650	0.009910	0.253440
N3181	N318	0.720940	0.010160	0.147550
C3191	C319	0.776510	0.028730	0.263170
Zn3201	Zn320	0.683300	0.326000	0.398900
C3211	C321	0.688720	0.219160	0.473170
N3221	N322	0.738210	0.202980	0.466470
C3231	C323	0.746230	0.272530	0.322220
N3241	N324	0.714890	0.247410	0.338920
C3251	C325	0.756600	0.152640	0.490090
C3261	C326	0.730020	0.220340	0.309670
N3271	N327	0.696870	0.351520	0.435400
N3281	N328	0.658500	0.268320	0.453730
N3291	N329	0.740900	0.304710	0.342580
H3301	H330	0.897110	0.125970	0.058860
H3311	H331	0.523380	0.207170	0.430960
H3321	H332	0.896470	0.206720	0.829260
N3331	N333	0.615400	0.010430	0.111220
C3341	C334	0.730830	0.028090	0.922610
Zn3351	Zn335	0.866710	0.326250	0.583140
C3361	C336	0.940510	0.218910	0.609320
N3371	N337	0.933280	0.203070	0.582800
C3381	C338	0.789280	0.273430	0.649640
N3391	N339	0.806040	0.247680	0.689410
C3401	C340	0.956620	0.152730	0.591040
C3411	C341	0.776770	0.220470	0.730300
N3421	N342	0.903290	0.351300	0.507350
N3431	N343	0.921500	0.267960	0.609940
N3441	N344	0.809700	0.305870	0.602720
N3451	N345	0.973450	0.349610	0.436000
H3461	H346	0.788740	0.197980	0.763870
H3471	H347	0.558880	0.030850	0.174350
C3481	C348	0.573860	0.005360	0.153480
H3491	H349	0.952470	0.137410	0.570340
H3501	H350	0.707500	0.061780	0.900460
H3511	H351	0.694010	0.031000	0.090790
C3521	C352	0.725390	0.005440	0.105760
N3531	N353	0.772080	0.032460	0.919720
H3541	H354	0.796690	0.137030	0.486380
Zn3551	Zn355	0.681410	0.330720	0.580920
H3561	H356	0.768590	0.217610	0.564240
H3571	H357	0.683530	0.241080	0.698350
C3581	C358	0.689340	0.221250	0.609320
C3591	C359	0.741060	0.197450	0.587200
C3601	C360	0.745620	0.273070	0.649440
C3611	C361	0.718040	0.243820	0.694110
N3621	N362	0.758180	0.147630	0.594290
N3631	N363	0.734220	0.217500	0.734380
N3641	N364	0.698800	0.350660	0.505660
N3651	N365	0.659190	0.270420	0.610490
N3661	N366	0.740010	0.305170	0.602160
H3671	H367	0.706650	0.198190	0.321570
H3681	H368	0.788300	0.062410	0.240030
H3691	H369	0.529340	0.208440	0.825920
H3701	H370	0.642860	0.031530	0.227080
C3711	C371	0.622370	0.005580	0.258200
N3721	N372	0.733890	0.032890	0.304540
Zn3731	Zn373	0.865750	0.329100	0.214380
H3741	H374	0.909070	0.216370	0.301150
H3751	H375	0.835090	0.239820	0.216530
C3761	C376	0.938710	0.220060	0.221970
C3771	C377	0.933330	0.196200	0.273600
C3781	C378	0.790570	0.271640	0.278700
C3791	C379	0.802130	0.242730	0.251040
N3801	N380	0.958790	0.146310	0.290610
N3811	N381	0.771420	0.217060	0.267150
N3821	N382	0.903490	0.350290	0.230630
N3831	N383	0.918460	0.269310	0.191960
N3841	N384	0.812060	0.303060	0.273230
C3851	C385	0.934290	0.308110	0.966790
N3861	N386	0.867230	0.298540	0.964720
C3871	C387	0.898550	0.324860	0.944410
N3881	N388	0.972050	0.324870	0.956170
H3891	H389	0.681560	0.087070	0.350130
H3901	H390	0.815570	0.169990	0.214060
H3911	H391	0.816920	0.087270	0.872540
H3921	H392	0.668960	0.348680	0.287190
Zn3931	Zn393	0.998690	0.011310	0.083220
H3941	H394	0.881380	0.041860	0.171860
C3951	C395	0.930050	0.087570	0.139170
C3961	C396	0.885470	0.075200	0.168600
N3971	N397	0.845020	0.105580	0.194550
N3981	N398	0.977470	0.066770	0.107000
H3991	H399	0.739600	0.082360	0.626600
Zn4001	Zn400	0.548580	0.196250	0.531190
H4011	H401	0.661150	0.108640	0.548360
H4021	H402	0.636580	0.193710	0.414610
C4031	C403	0.658040	0.187700	0.502410
C4041	C404	0.681500	0.136040	0.525160
C4051	C405	0.604730	0.131500	0.463660
C4061	C406	0.633980	0.159090	0.418930
N4071	N407	0.731210	0.118760	0.518530
N4081	N408	0.660660	0.142640	0.378850
N4091	N409	0.526170	0.181270	0.606370
N4101	N410	0.609040	0.218040	0.500660
N4111	N411	0.572110	0.137540	0.510810
H4121	H412	0.680820	0.170890	0.791040
Zn4131	Zn413	0.549090	0.013740	0.898580
H4141	H414	0.637000	0.043840	0.896590
C4151	C415	0.605650	0.088600	0.833990
C4161	C416	0.634590	0.076580	0.861840
N4171	N417	0.660950	0.106640	0.845710
N4181	N418	0.573560	0.067860	0.839430
Zn4191	Zn419	0.998500	0.195530	0.714410
H4201	H420	0.882180	0.192510	0.744980
C4211	C421	0.969960	0.187120	0.642010
C4221	C422	0.992330	0.135460	0.647410
C4231	C423	0.930890	0.130920	0.790580
C4241	C424	0.886320	0.158250	0.778220
C4251	C425	0.935410	0.263400	0.782780
N4261	N426	0.867470	0.262850	0.860720
N4271	N427	0.985190	0.118510	0.621690
N4281	N428	0.846040	0.142080	0.808370
C4291	C429	0.899560	0.241300	0.824390
N4301	N430	0.968690	0.217190	0.662400
N4311	N431	0.978130	0.136840	0.769830
N4321	N432	0.973880	0.251760	0.739610
H4331	H433	0.754200	0.349380	0.685440
H4341	H434	0.583280	0.199300	0.603720
C4351	C435	0.549470	0.188180	0.626400
H4361	H436	0.976990	0.295240	0.209790
C4371	C437	0.954430	0.328730	0.221440
H4381	H438	0.678710	0.295060	0.507920
C4391	C439	0.690130	0.328670	0.485530
H4401	H440	0.975740	0.294270	0.509420
C4411	C441	0.953290	0.328020	0.486900
H4421	H442	0.579770	0.300290	0.649140
C4431	C443	0.612090	0.267730	0.639950
H4441	H444	0.928630	0.299270	0.112650
C4451	C445	0.938320	0.266720	0.144870
H4461	H446	0.579710	0.297390	0.461400
C4471	C447	0.612050	0.265040	0.471020
H4481	H448	0.929600	0.296580	0.652010
C4491	C449	0.939120	0.264320	0.642290
H4501	H450	0.528250	0.094050	0.794260
C4511	C451	0.555220	0.099350	0.800570
H4521	H452	0.527590	0.091840	0.575590
C4531	C453	0.554800	0.097840	0.537090
H4541	H454	0.787760	0.348020	0.317480
C4551	C455	0.780970	0.321570	0.311930
H4561	H456	0.784390	0.350480	0.537790
C4571	C457	0.778840	0.323510	0.576360
C4581	C458	0.995520	0.288040	0.715220
C4591	C459	0.995880	0.011760	0.992500
C4601	C460	0.993530	0.290980	0.992580
H4611	H461	0.015490	0.491940	0.671760
N4621	N462	0.074300	0.357440	0.677750
H4631	H463	0.257820	0.509830	0.348660
H4641	H464	0.390890	0.992900	0.830530
C4651	C465	0.486570	0.945300	0.868180
C4661	C466	0.418320	0.990610	0.842670
C4671	C467	0.477100	0.765700	0.966030
N4681	N468	0.468320	0.698220	0.963860
N4691	N469	0.453730	0.944660	0.854610
C4701	C470	0.494080	0.730100	0.943380
N4711	N471	0.493310	0.803840	0.955470
H4721	H472	0.093360	0.570480	0.544380
C4731	C473	0.360360	0.935590	0.191140
N4741	N474	0.310750	0.942480	0.207600
C4751	C475	0.292490	0.919120	0.258010
N4761	N476	0.348430	0.973460	0.061610
N4771	N477	0.390430	0.954860	0.141870
H4781	H478	0.339330	0.646090	0.215410
Zn4791	Zn479	0.181070	0.828720	0.083470
H4801	H480	0.244540	0.992240	0.923070
H4811	H481	0.212590	0.710770	0.171220
C4821	C482	0.207410	0.989800	0.950840
C4831	C483	0.107260	0.801200	0.190710
N4841	N484	0.115400	0.826580	0.207100
C4851	C485	0.257930	0.759560	0.138930
C4861	C486	0.245710	0.714940	0.168360
N4871	N487	0.206270	0.943900	0.986540
C4881	C488	0.091190	0.818770	0.257320
N4891	N489	0.275690	0.674850	0.194920
N4901	N490	0.145030	0.903980	0.060570
N4911	N491	0.126980	0.800260	0.141660
N4921	N492	0.237330	0.806460	0.106330
Zn4931	Zn493	0.363780	0.381440	0.531810
H4941	H494	0.362810	0.468360	0.413570
C4951	C495	0.358930	0.488330	0.503790
N4961	N496	0.309080	0.504890	0.529220
C4971	C497	0.300820	0.436300	0.463000
C4981	C498	0.328340	0.465330	0.418070
C4991	C499	0.290990	0.555160	0.521080
N5001	N500	0.312190	0.491050	0.377810
N5011	N501	0.348820	0.358110	0.607250
N5021	N502	0.388970	0.439200	0.503080
N5031	N503	0.306560	0.404720	0.510220
C5041	C504	0.114800	0.989190	0.867540
N5051	N505	0.074290	0.974800	0.881850
H5061	H506	0.151680	0.583940	0.202480
C5071	C507	0.486720	0.989600	0.647620
Zn5081	Zn508	0.365950	0.828480	0.713870
H5091	H509	0.296890	0.992230	0.777650
H5101	H510	0.280250	0.847490	0.669090
C5111	C511	0.333910	0.944620	0.692110
C5121	C512	0.309020	0.989890	0.740390
C5131	C513	0.359300	0.801060	0.639980
C5141	C514	0.307690	0.823590	0.645240
C5151	C515	0.301820	0.761050	0.790170
N5161	N516	0.332720	0.721280	0.773430
C5171	C517	0.433990	0.766060	0.781090
N5181	N518	0.432410	0.698240	0.859250
N5191	N519	0.320220	0.944080	0.739150
N5201	N520	0.290500	0.815750	0.620290
C5211	C521	0.317410	0.680230	0.802880
C5221	C522	0.411950	0.729870	0.822070
N5231	N523	0.347880	0.904250	0.677600
N5241	N524	0.389400	0.800520	0.659730
N5251	N525	0.307530	0.808140	0.769490
N5261	N526	0.423150	0.804270	0.737470
H5271	H527	0.009940	0.570010	0.783060
Zn5281	Zn528	0.180780	0.381090	0.898500
H5291	H529	0.136240	0.492370	0.812760
C5301	C530	0.106500	0.489080	0.891800
C5311	C531	0.112110	0.512760	0.840100
C5321	C532	0.256780	0.436490	0.834330
N5331	N533	0.240170	0.462250	0.865030
N5341	N534	0.087170	0.562720	0.822720
C5351	C535	0.270140	0.488550	0.849910
N5361	N536	0.143540	0.359600	0.881600
N5371	N537	0.126210	0.439850	0.922050
N5381	N538	0.235680	0.404830	0.839850
H5391	H539	0.248890	0.925950	0.542660
H5401	H540	0.200750	0.390240	0.173480
C5411	C541	0.111180	0.400630	0.146460
C5421	C542	0.174790	0.404810	0.153240
N5431	N543	0.142420	0.379690	0.172940
N5441	N544	0.073330	0.384450	0.156750
H5451	H545	0.309000	0.781510	0.570380
Zn5461	Zn546	0.496840	0.880600	0.398940
H5471	H547	0.384850	0.860660	0.443470
C5481	C548	0.388220	0.907180	0.472630
C5491	C549	0.364510	0.884480	0.467410
C5501	C550	0.442770	0.946920	0.322180
N5511	N551	0.416810	0.986630	0.339060
N5521	N552	0.314580	0.892060	0.492510
N5531	N553	0.520900	0.804810	0.435350
N5541	N554	0.437450	0.907990	0.452860
N5551	N555	0.474740	0.899720	0.343020
H5561	H556	0.324700	0.918190	0.975350
H5571	H557	0.036980	0.628440	0.840990
H5581	H558	0.231430	0.619580	0.238780
H5591	H559	0.441470	0.919360	0.772410
H5601	H560	0.201380	0.522460	0.092020
C5611	C561	0.076250	0.771070	0.921810
N5621	N562	0.049400	0.764220	0.906040
C5631	C563	0.116710	0.620390	0.974560
N5641	N564	0.156100	0.637750	0.947830
C5651	C565	0.111720	0.628540	0.102630
C5661	C566	0.175650	0.554170	0.106490
C5671	C567	0.057510	0.787680	0.855730
C5681	C568	0.197070	0.608240	0.921010
N5691	N569	0.142820	0.591700	0.081780
N5701	N570	0.077120	0.751850	0.970800
N5711	N571	0.073600	0.672190	0.086700
Zn5721	Zn572	0.493820	0.513710	0.583150
C5731	C573	0.387350	0.519580	0.609310
N5741	N574	0.371140	0.568990	0.582520
C5751	C575	0.441570	0.577130	0.649720
N5761	N576	0.415680	0.546430	0.689480
C5771	C577	0.320780	0.587270	0.591010
C5781	C578	0.389150	0.561600	0.730610
N5791	N579	0.519970	0.527070	0.507420
N5801	N580	0.436520	0.489400	0.609760
N5811	N581	0.473450	0.571540	0.602590
H5821	H582	0.365520	0.537390	0.323850
Zn5831	Zn583	0.496070	0.696190	0.216020
H5841	H584	0.409420	0.664160	0.217560
C5851	C585	0.388560	0.769890	0.222860
N5861	N586	0.372260	0.762100	0.272640
C5871	C587	0.441990	0.618880	0.279370
C5881	C588	0.412450	0.631110	0.252030
C5891	C589	0.322060	0.786390	0.290860
N5901	N590	0.385870	0.601120	0.268570
N5911	N591	0.521430	0.732770	0.229550
N5921	N592	0.437570	0.749920	0.192630
N5931	N593	0.474660	0.639410	0.273180
Zn5941	Zn594	0.049350	0.513140	0.398470
H5951	H595	0.032970	0.599820	0.440740
H5961	H596	0.165780	0.515000	0.366970
H5971	H597	0.202030	0.472020	0.226120
C5981	C598	0.078040	0.520620	0.471240
C5991	C599	0.055680	0.572280	0.465720
C6001	C600	0.116450	0.577570	0.322400
C6011	C601	0.161470	0.549530	0.334020
C6021	C602	0.111160	0.445650	0.331210
C6031	C603	0.175730	0.452000	0.257340
N6041	N604	0.062080	0.589270	0.491950
N6051	N605	0.201960	0.565260	0.303370
N6061	N606	0.142890	0.471770	0.295080
N6071	N607	0.079790	0.490630	0.450440
N6081	N608	0.068840	0.572380	0.343780
N6091	N609	0.072600	0.456210	0.374610
H6101	H610	0.240040	0.919480	0.856610
H6111	H611	0.292720	0.358690	0.428350
C6121	C612	0.111300	0.401760	0.330790
N6131	N613	0.179280	0.410550	0.252760
C6141	C614	0.147040	0.385020	0.289390
N6151	N615	0.072760	0.385720	0.374130
H6161	H616	0.306360	0.781980	0.331120
Zn6171	Zn617	0.500860	0.878360	0.213850
H6181	H618	0.388190	0.860990	0.301610
H6191	H619	0.411890	0.996040	0.215480
C6201	C620	0.391210	0.906360	0.222460
C6211	C621	0.367790	0.883970	0.274260
C6221	C622	0.443000	0.946950	0.278120
C6231	C623	0.414110	0.991790	0.250260
N6241	N624	0.317990	0.890760	0.291810
N6251	N625	0.520570	0.803030	0.231460
N6261	N626	0.440260	0.907890	0.191890
N6271	N627	0.475080	0.899600	0.272560
H6281	H628	0.230570	0.620320	0.898210
H6291	H629	0.294370	0.726640	0.059930
H6301	H630	0.036490	0.783910	0.840470
Zn6311	Zn631	0.048880	0.696490	0.214020
H6321	H632	0.029100	0.741290	0.300500
C6331	C633	0.076140	0.770130	0.221730
C6341	C634	0.053320	0.764840	0.273350
C6351	C635	0.116620	0.621070	0.278070
N6361	N636	0.156570	0.637500	0.246860
C6371	C637	0.112210	0.628690	0.146360
N6381	N638	0.179860	0.550390	0.148270
N6391	N639	0.061230	0.789420	0.290880
C6401	C640	0.197700	0.607880	0.262030
C6411	C641	0.148100	0.587580	0.168730
N6421	N642	0.076660	0.750780	0.191290
N6431	N643	0.069390	0.641810	0.272630
N6441	N644	0.074030	0.672450	0.156980
H6451	H645	0.305110	0.627250	0.570040
Zn6461	Zn646	0.498330	0.511460	0.398570
H6471	H647	0.387550	0.598040	0.442990
C6481	C648	0.390170	0.519260	0.472390
C6491	C649	0.366850	0.570960	0.466800
C6501	C650	0.441480	0.575390	0.323840
N6511	N651	0.414810	0.545290	0.341340
N6521	N652	0.316820	0.588680	0.491380
C6531	C653	0.388240	0.560270	0.311730
N6541	N654	0.519080	0.529120	0.436020
N6551	N655	0.439330	0.488620	0.453070
N6561	N656	0.473190	0.570280	0.344580
H6571	H657	0.366680	0.538570	0.764230
Zn6581	Zn658	0.498470	0.696550	0.580970
H6591	H659	0.411150	0.665240	0.699050
C6601	C660	0.390760	0.770330	0.608530
N6611	N661	0.374710	0.762360	0.582740
C6621	C662	0.442040	0.620770	0.649840
C6631	C663	0.413330	0.632570	0.694690
C6641	C664	0.324460	0.786170	0.590570
N6651	N665	0.386850	0.602570	0.734960
N6661	N666	0.520580	0.733670	0.505790
N6671	N667	0.439730	0.750770	0.609640
N6681	N668	0.474220	0.641410	0.602660
H6691	H669	0.165450	0.514500	0.942280
C6701	C670	0.074600	0.519900	0.923160
N6711	N671	0.048820	0.569680	0.906920
C6721	C672	0.116830	0.576200	0.974830
C6731	C673	0.161300	0.548880	0.945200
C6741	C674	0.111080	0.444780	0.102540
N6751	N675	0.178300	0.447150	0.111590
C6761	C676	0.057090	0.588140	0.856590
N6771	N677	0.201480	0.565240	0.918560
C6781	C678	0.146320	0.467720	0.085910
N6791	N679	0.075310	0.489480	0.972280
N6801	N680	0.072910	0.455340	0.086350
H6811	H681	0.378450	0.725980	0.825560
H6821	H682	0.293560	0.358570	0.910920
N6831	N683	0.072410	0.356950	0.884970
H6841	H684	0.258300	0.511110	0.872860
H6851	H685	0.488420	0.677220	0.887250
C6861	C686	0.485200	0.945200	0.691420
N6871	N687	0.412530	0.997760	0.737180
C6881	C688	0.477550	0.766850	0.781250
C6891	C689	0.473980	0.702810	0.855520
C6901	C690	0.446140	0.951150	0.736710
N6911	N691	0.498480	0.735820	0.818050
N6921	N692	0.493220	0.805190	0.737710
H6931	H693	0.521040	0.982070	0.285810
C6941	C694	0.335850	0.988560	0.647880
C6951	C695	0.357320	0.937900	0.504090
N6961	N696	0.307560	0.945680	0.529960
C6971	C697	0.289130	0.921580	0.522290
N6981	N698	0.350410	0.974770	0.606660
N6991	N699	0.387680	0.957690	0.502940
H7001	H700	0.340570	0.646610	0.790990
Zn7011	Zn701	0.181670	0.828560	0.898340
H7021	H702	0.138930	0.845980	0.810770
H7031	H703	0.212860	0.711930	0.896210
H7041	H704	0.354150	0.676950	0.938000
C7051	C705	0.158820	0.944960	0.868830
N7061	N706	0.204440	0.997660	0.843150
C7071	C707	0.109100	0.800360	0.889960
C7081	C708	0.114350	0.822870	0.838360
C7091	C709	0.257700	0.761160	0.833900
C7101	C710	0.245790	0.716290	0.861660
C7111	C711	0.248280	0.766510	0.965940
C7121	C712	0.322640	0.702600	0.958670
C7131	C713	0.204140	0.951050	0.856340
N7141	N714	0.088340	0.816060	0.821470
N7151	N715	0.276090	0.676000	0.845550
N7161	N716	0.284760	0.735520	0.939120
N7171	N717	0.144870	0.903860	0.883330
N7181	N718	0.129750	0.798850	0.919910
N7191	N719	0.236740	0.808610	0.839350
N7201	N720	0.204760	0.805020	0.955660
H7211	H721	0.250690	0.571030	0.540990
Zn7221	Zn722	0.365660	0.379460	0.715660
H7231	H723	0.276950	0.491820	0.672990
H7241	H724	0.364240	0.466310	0.746410
C7251	C725	0.355960	0.488860	0.642510
C7261	C726	0.304260	0.512240	0.648130
C7271	C727	0.300920	0.436020	0.790610
C7281	C728	0.329270	0.464330	0.778940
N7291	N729	0.286920	0.561870	0.622160
N7301	N730	0.313260	0.490630	0.809010
N7311	N731	0.351090	0.356200	0.677870
N7321	N732	0.386390	0.439960	0.662970
N7331	N733	0.306160	0.404110	0.769770
H7341	H734	0.010210	0.925680	0.783840
H7351	H735	0.015470	0.969300	0.195950
N7361	N736	0.074000	0.974460	0.059340
H7371	H737	0.095890	0.838640	0.273090
H7381	H738	0.518230	0.500230	0.685350
C7391	C739	0.485500	0.989370	0.869330
H7401	H740	0.520380	0.582720	0.203300
Zn7411	Zn741	0.365890	0.826370	0.083460
H7421	H742	0.278680	0.847690	0.194630
N7431	N743	0.310490	0.996540	0.946660
C7441	C744	0.357480	0.800760	0.191760
C7451	C745	0.305880	0.823730	0.215210
C7461	C746	0.301320	0.760120	0.139520
N7471	N747	0.331400	0.720820	0.166200
C7481	C748	0.323930	0.949860	0.980210
N7491	N749	0.288410	0.816140	0.265170
C7501	C750	0.316480	0.679560	0.192650
N7511	N751	0.350650	0.902460	0.059790
N7521	N752	0.387890	0.799810	0.142600
N7531	N753	0.306260	0.807590	0.107880
Zn7541	Zn754	0.180870	0.381090	0.531070
C7551	C755	0.106650	0.488750	0.504740
N7561	N756	0.113100	0.504620	0.531820
C7571	C757	0.257250	0.435380	0.463180
N7581	N758	0.240450	0.460610	0.423450
C7591	C759	0.089920	0.555020	0.523290
C7601	C760	0.269680	0.487710	0.382280
N7611	N761	0.144650	0.356020	0.606610
N7621	N762	0.125660	0.439640	0.504250
N7631	N763	0.237090	0.403040	0.510370
H7641	H764	0.252360	0.922990	0.273760
H7651	H765	0.072210	0.412900	0.604330
C7661	C766	0.094600	0.379180	0.626930
H7671	H767	0.368410	0.900080	0.116880
C7681	C768	0.357200	0.922690	0.083130
H7691	H769	0.072030	0.901800	0.116410
C7701	C770	0.094360	0.924320	0.082520
H7711	H771	0.369210	0.413150	0.605230
C7721	C772	0.357710	0.379560	0.627680
H7731	H773	0.072110	0.901650	0.901660
C7741	C774	0.094610	0.924160	0.890300
H7751	H775	0.368010	0.902550	0.604030
C7761	C776	0.356780	0.924730	0.626810
H7771	H777	0.069800	0.414350	0.902330
C7781	C778	0.092620	0.380660	0.891050
H7791	H779	0.464870	0.806710	0.508360
C7801	C780	0.498370	0.784310	0.485650
H7811	H781	0.463460	0.509050	0.509310
C7821	C782	0.497110	0.520410	0.486790
H7831	H783	0.464890	0.805480	0.211400
C7841	C784	0.498550	0.782920	0.222780
H7851	H785	0.469220	0.947080	0.112270
C7861	C786	0.437030	0.937460	0.144930
H7871	H787	0.116870	0.760380	0.112160
C7881	C788	0.107590	0.769560	0.144690
H7891	H789	0.468250	0.409490	0.462900
C7901	C790	0.435990	0.442070	0.472140
H7911	H791	0.468490	0.760560	0.650380
C7921	C792	0.436220	0.769850	0.640820
H7931	H793	0.116070	0.410220	0.001320
C7941	C794	0.106770	0.442690	0.968890
H7951	H795	0.466830	0.948390	0.462200
C7961	C796	0.434510	0.938760	0.471760
H7971	H797	0.119720	0.759480	0.999200
C7981	C798	0.109700	0.769230	0.967050
H7991	H799	0.465830	0.410860	0.651990
C8001	C800	0.433350	0.443020	0.642410
H8011	H801	0.466760	0.759090	0.113420
C8021	C802	0.434440	0.768850	0.145730
H8031	H803	0.118540	0.411080	0.461440
C8041	C804	0.108820	0.443400	0.471170
H8051	H805	0.042750	0.358250	0.793810
C8061	C806	0.004170	0.385190	0.800230
H8071	H807	0.261220	0.871730	0.062250
C8081	C808	0.267540	0.833100	0.089130
H8091	H809	0.262420	0.359610	0.575280
C8101	C810	0.267970	0.386130	0.536490
H8111	H811	0.262630	0.873050	0.794220
C8121	C812	0.268010	0.834480	0.800400
H8131	H813	0.260250	0.359780	0.795350
C8141	C814	0.266720	0.386620	0.800670
H8151	H815	0.519740	0.834950	0.317390
C8161	C816	0.492820	0.873550	0.311800
H8171	H817	0.518220	0.617140	0.537720
C8181	C818	0.491640	0.610780	0.576460
H8191	H819	0.518940	0.614400	0.318920
C8201	C820	0.491930	0.608950	0.312820
H8211	H821	0.004230	0.617560	0.318070
C8221	C822	0.042920	0.611200	0.312500
H8231	H823	0.460900	0.857320	0.993280
C8241	C824	0.459240	0.825200	0.991810
H8251	H825	0.460020	0.975780	0.994590
H8261	H826	0.145890	0.857880	0.994630
C8271	C827	0.181020	0.825600	0.992870
H8281	H828	0.027940	0.976450	0.994690
H8291	H829	0.458740	0.976350	0.560910
H8301	H830	0.460650	0.858130	0.678560
C8311	C831	0.459310	0.825950	0.713800
H8321	H832	0.020180	0.416730	0.118270
C8331	C833	0.052080	0.418470	0.120090
H8341	H834	0.020610	0.731460	0.118920
C8351	C835	0.052680	0.696160	0.120560
H8361	H836	0.018920	0.418060	0.433120
C8371	C837	0.051310	0.419580	0.398080
Zn8381	Zn838	0.999020	0.378900	0.714340
H8391	H839	0.881840	0.467990	0.745030
C8401	C840	0.970440	0.487900	0.641500
C8411	C841	0.992400	0.511970	0.647160
C8421	C842	0.930910	0.435690	0.790100
C8431	C843	0.886080	0.464850	0.778220
N8441	N844	0.984980	0.561850	0.621570
N8451	N845	0.845700	0.490490	0.808900
N8461	N846	0.969500	0.438630	0.661790
N8471	N847	0.978250	0.404030	0.768830
Zn8481	Zn848	0.549340	0.829740	0.897990
H8491	H849	0.637220	0.711880	0.896130
C8501	C850	0.656730	0.801580	0.892030
N8511	N851	0.672950	0.827250	0.842220
C8521	C852	0.604980	0.760990	0.834240
C8531	C853	0.634500	0.716310	0.861500
C8541	C854	0.723200	0.819410	0.823820
N8551	N855	0.661290	0.676370	0.844780
N8561	N856	0.527060	0.904820	0.882730
N8571	N857	0.607730	0.800530	0.922380
N8581	N858	0.572130	0.807780	0.840770
C8591	C859	0.971870	0.937170	0.892460
N8601	N860	0.998210	0.944520	0.842810
C8611	C861	0.989640	0.921460	0.824030
N8621	N862	0.971510	0.955920	0.923170
H8631	H863	0.659990	0.967040	0.550550
C8641	C864	0.656970	0.937860	0.503890
C8651	C865	0.680530	0.943230	0.526590
N8661	N866	0.730540	0.918480	0.518800
N8671	N867	0.527590	0.975240	0.607170
N8681	N868	0.607730	0.957460	0.503210
H8691	H869	0.681960	0.647920	0.789150
H8701	H870	0.739520	0.841860	0.626600
H8711	H871	0.816250	0.509110	0.873830
C8721	C872	0.933770	0.392040	0.242980
N8731	N873	0.881220	0.464350	0.269310
C8741	C874	0.927830	0.430810	0.255580
H8751	H875	0.894840	0.358600	0.910730
C8761	C876	0.561510	0.763830	0.421140
N8771	N877	0.634090	0.711410	0.375140
C8781	C878	0.570990	0.942090	0.331560
C8791	C879	0.600130	0.757910	0.375650
C8801	C880	0.554460	0.978250	0.290110
N8811	N881	0.554420	0.903870	0.374920
H8821	H882	0.908540	0.600310	0.917750
H8831	H883	0.834020	0.515260	0.942440
C8841	C884	0.887070	0.542260	0.095480
N8851	N885	0.841800	0.567510	0.168390
C8861	C886	0.937700	0.520960	0.921920
C8871	C887	0.932710	0.572530	0.897840
C8881	C888	0.788750	0.577610	0.974060
C8891	C889	0.800970	0.549760	0.945030
C8901	C890	0.796790	0.444700	0.104020
N8911	N891	0.718990	0.444710	0.113780
C8921	C892	0.841890	0.554490	0.134660
N8931	N893	0.958590	0.589250	0.848060
N8941	N894	0.770990	0.565790	0.918650
C8951	C895	0.755090	0.466550	0.087900
N8961	N896	0.917060	0.491110	0.971160
N8971	N897	0.839740	0.456690	0.087600
H8981	H898	0.796460	0.868780	0.484530
Zn8991	Zn899	0.683120	0.695860	0.582020
H9001	H900	0.769760	0.737910	0.566110
H9011	H901	0.685200	0.664890	0.699160
C9021	C902	0.711750	0.718690	0.466170
N9031	N903	0.737120	0.672930	0.413730
C9041	C904	0.690250	0.768590	0.610810
C9051	C905	0.741950	0.762990	0.588680
C9061	C906	0.746930	0.619470	0.650240
C9071	C907	0.719510	0.631690	0.694900
C9081	C908	0.614310	0.628120	0.644760
N9091	N909	0.614480	0.549960	0.712430
C9101	C910	0.724070	0.673330	0.460270
N9111	N911	0.758760	0.789260	0.595240
N9121	N912	0.735760	0.601430	0.735120
C9131	C913	0.636380	0.586040	0.680430
N9141	N914	0.697370	0.732760	0.507160
N9151	N915	0.660320	0.747870	0.612340
N9161	N916	0.741150	0.640310	0.602920
N9171	N917	0.626130	0.671300	0.606450
Zn9181	Zn918	0.866420	0.880670	0.215770
C9191	C919	0.888890	0.763720	0.244150
N9201	N920	0.843000	0.711210	0.269940
C9211	C921	0.941000	0.906120	0.222480
N9221	N922	0.933840	0.879580	0.272040
C9231	C923	0.789470	0.947790	0.278850
N9241	N924	0.806040	0.987690	0.247800
C9251	C925	0.799260	0.942680	0.146650
C9261	C926	0.843530	0.757810	0.256490
C9271	C927	0.957130	0.887910	0.290780
C9281	C928	0.757850	0.978860	0.168420
N9291	N929	0.902890	0.804830	0.229510
N9301	N930	0.921980	0.906710	0.191840
N9311	N931	0.810090	0.900680	0.273280
N9321	N932	0.842690	0.904660	0.158030
C9331	C933	0.711470	0.392070	0.421190
N9341	N934	0.737110	0.464750	0.375060
C9351	C935	0.614040	0.399870	0.331590
N9361	N936	0.615110	0.409150	0.253420
C9371	C937	0.723980	0.430780	0.375710
C9381	C938	0.635660	0.382780	0.290590
N9391	N939	0.625230	0.383180	0.375150
C9401	C940	0.933770	0.719240	0.094230
N9411	N941	0.881240	0.673150	0.166520
C9421	C942	0.927840	0.673800	0.132970
C9431	C943	0.560560	0.541640	0.466510
N9441	N944	0.633340	0.567170	0.414300
C9451	C945	0.568560	0.444900	0.645080
N9461	N946	0.578570	0.445890	0.712480
C9471	C947	0.599400	0.553990	0.460780
C9481	C948	0.551980	0.466650	0.681290
N9491	N949	0.551670	0.456200	0.607140
C9501	C950	0.562060	0.718530	0.244080
N9511	N951	0.634810	0.672550	0.269670
C9521	C952	0.569990	0.628710	0.147040
N9531	N953	0.579680	0.550430	0.148030
C9541	C954	0.600870	0.673070	0.256600
C9551	C955	0.553530	0.587190	0.169070
N9561	N956	0.553200	0.672280	0.158240
H9571	H957	0.952230	0.626890	0.570160
C9581	C958	0.933310	0.541330	0.422370
N9591	N959	0.880700	0.567020	0.376660
C9601	C960	0.927290	0.553850	0.377020
N9611	N961	0.974400	0.526860	0.436320
H9621	H962	0.790650	0.537310	0.764140
C9631	C963	0.711340	0.764120	0.093080
N9641	N964	0.736650	0.711970	0.165980
C9651	C965	0.689430	0.907170	0.920000
N9661	N966	0.738870	0.880450	0.903720
C9671	C967	0.747040	0.947010	0.974500
N9681	N968	0.715790	0.986870	0.949310
C9691	C969	0.614890	0.942700	0.101270
C9701	C970	0.723540	0.758430	0.132000
C9711	C971	0.757050	0.888980	0.853360
C9721	C972	0.636300	0.979220	0.084620
N9731	N973	0.659330	0.907620	0.969160
N9741	N974	0.626370	0.904640	0.084420
H9751	H975	0.707360	0.620910	0.897900
C9761	C976	0.889170	0.391650	0.466250
N9771	N977	0.843160	0.464090	0.413740
C9781	C978	0.799050	0.400120	0.645460
N9791	N979	0.720390	0.409780	0.712570
C9801	C980	0.843770	0.430470	0.460310
C9811	C981	0.757760	0.383300	0.681410
N9821	N982	0.842950	0.383150	0.607810
C9831	C983	0.932860	0.390360	0.421780
C9841	C984	0.887140	0.458840	0.373870
N9851	N985	0.933120	0.423230	0.374840
H9861	H986	0.657600	0.714090	0.282270
C9871	C987	0.561220	0.762300	0.245570
C9881	C988	0.629880	0.716590	0.270400
C9891	C989	0.571570	0.941160	0.145920
N9901	N990	0.594370	0.762610	0.258960
N9911	N991	0.549870	0.972000	0.173010
N9921	N992	0.556810	0.902340	0.156060
H9931	H993	0.527330	0.727170	0.909140
Zn9941	Zn994	0.866720	0.511810	0.582700
H9951	H995	0.692440	0.473050	0.733100
C9961	C996	0.889120	0.542460	0.466410
C9971	C997	0.841010	0.567720	0.420820
C9981	C998	0.941000	0.518080	0.608800
N9991	N999	0.933550	0.567720	0.582360
C10001	C1000	0.790850	0.575400	0.650130
N10011	N1001	0.808050	0.545050	0.689580
C10021	C1002	0.798990	0.444780	0.644270
C10031	C1003	0.724260	0.452220	0.707740
N10041	N1004	0.842170	0.555970	0.466830
C10051	C1005	0.956550	0.586680	0.590810
C10061	C1006	0.778620	0.560290	0.730620
N10071	N1007	0.761980	0.471960	0.674810
N10081	N1008	0.903500	0.528060	0.506950
N10091	N1009	0.922240	0.487250	0.609370
N10101	N1010	0.811350	0.569940	0.603040
N10111	N1011	0.842920	0.454640	0.606240
H10121	H1012	0.797040	0.868150	0.837600
H10131	H1013	0.749460	0.634990	0.188780
H10141	H1014	0.766790	0.741360	0.919910
H10151	H1015	0.642220	0.523460	0.091240
C10161	C1016	0.713030	0.719620	0.092150
C10171	C1017	0.737690	0.672040	0.160940
C10181	C1018	0.687950	0.770260	0.922980
C10191	C1019	0.739560	0.765030	0.899380
C10201	C1020	0.745100	0.621850	0.973510
N10211	N1021	0.715030	0.638940	0.946960
C10221	C1022	0.614440	0.629000	0.103440
C10231	C1023	0.621720	0.554820	0.106220
N10241	N1024	0.726510	0.672790	0.125340
N10251	N1025	0.756960	0.789820	0.849370
C10261	C1026	0.730120	0.609000	0.920680
N10271	N1027	0.641480	0.592480	0.082130
N10281	N1028	0.657660	0.750670	0.972240
N10291	N1029	0.624480	0.672640	0.088230
H10301	H1030	0.908540	0.862850	0.918990
H10311	H1031	0.835430	0.996580	0.942980
C10321	C1032	0.889310	0.762970	0.092970
C10331	C1033	0.841370	0.717130	0.161220
C10341	C1034	0.939070	0.907830	0.922780
C10351	C1035	0.933270	0.885820	0.898870
C10361	C1036	0.791130	0.947050	0.974110
C10371	C1037	0.802640	0.992110	0.945530
C10381	C1038	0.799620	0.941430	0.103100
N10391	N1039	0.842360	0.763160	0.125740
N10401	N1040	0.958830	0.893050	0.849020
N10411	N1041	0.763310	0.972330	0.081520
N10421	N1042	0.918850	0.908860	0.972020
N10431	N1043	0.843190	0.902830	0.088080
H10441	H1044	0.749610	0.487790	0.416470
H10451	H1045	0.641750	0.389320	0.733000
C10461	C1046	0.712950	0.391290	0.464940
C10471	C1047	0.737800	0.459940	0.419080
C10481	C1048	0.613190	0.401550	0.643640
C10491	C1049	0.620770	0.404240	0.707610
N10501	N1050	0.726320	0.424520	0.465150
N10511	N1051	0.640270	0.380050	0.674430
N10521	N1052	0.623300	0.386590	0.604960
C10531	C1053	0.932740	0.719350	0.245840
C10541	C1054	0.887000	0.671370	0.271130
N10551	N1055	0.933010	0.672420	0.259620
N10561	N1056	0.973350	0.733640	0.231580
H10571	H1057	0.656190	0.579830	0.337340
H10581	H1058	0.559370	0.472650	0.225500
C10591	C1059	0.559690	0.543220	0.422030
C10601	C1060	0.628380	0.568030	0.374400
C10611	C1061	0.570800	0.444650	0.331470
C10621	C1062	0.573900	0.451830	0.257190
N10631	N1063	0.592900	0.556670	0.375200
N10641	N1064	0.549830	0.471810	0.294670
N10651	N1065	0.555550	0.454830	0.375040
H10661	H1066	0.953230	0.867060	0.330880
H10671	H1067	0.657180	0.634520	0.416880
H10681	H1068	0.555760	0.524980	0.734860
C10691	C1069	0.560980	0.719500	0.465080
C10701	C1070	0.629450	0.671650	0.419310
C10711	C1071	0.569570	0.629800	0.644510
C10721	C1072	0.571530	0.555760	0.708770
N10731	N1073	0.594260	0.672680	0.465420
N10741	N1074	0.547080	0.594260	0.676070
N10751	N1075	0.554410	0.673720	0.606210
H10761	H1076	0.883760	0.580210	0.190600
C10771	C1077	0.931080	0.543630	0.094310
C10781	C1078	0.885980	0.568320	0.163030
N10791	N1079	0.931820	0.556870	0.127310
Zn10801	Zn1080	0.683340	0.878330	0.398960
H10811	H1081	0.683270	0.996770	0.367770
C10821	C1082	0.713090	0.762600	0.421900
C10831	C1083	0.737860	0.717040	0.373970
C10841	C1084	0.687980	0.906550	0.473030
N10851	N1085	0.737810	0.880930	0.465140
C10861	C1086	0.745780	0.947710	0.323000
C10871	C1087	0.717900	0.992530	0.334860
C10881	C1088	0.615170	0.941160	0.332180
N10891	N1089	0.726360	0.763010	0.375030
C10901	C1090	0.756140	0.888830	0.489140
N10911	N1091	0.641780	0.972470	0.296120
N10921	N1092	0.699020	0.803150	0.436130
N10931	N1093	0.657740	0.907540	0.453230
N10941	N1094	0.740380	0.900410	0.343990
N10951	N1095	0.625330	0.902570	0.375730
H10961	H1096	0.804170	0.486510	0.282840
H10971	H1097	0.693510	0.386430	0.175350
C10981	C1098	0.889290	0.390830	0.244960
C10991	C1099	0.841340	0.459090	0.270480
C11001	C1100	0.798220	0.400180	0.147500
C11011	C1101	0.724390	0.402050	0.154930
N11021	N1102	0.842330	0.423640	0.258900
N11031	N1103	0.762640	0.377770	0.173950
N11041	N1104	0.841970	0.385270	0.157270
Zn11051	Zn1105	0.996760	0.381570	0.898680
C11061	C1106	0.970390	0.488970	0.891750
N11071	N1107	0.997130	0.504580	0.842210
C11081	C1108	0.930780	0.434650	0.834600
N11091	N1109	0.890950	0.459840	0.865860
C11101	C1110	0.989110	0.554890	0.823220
C11111	C1111	0.849920	0.487020	0.850490
N11121	N1112	0.969580	0.439980	0.922500
N11131	N1113	0.977810	0.402190	0.840280
Zn11141	Zn1114	0.551070	0.828540	0.713630
C11151	C1115	0.658250	0.801930	0.639560
N11161	N1116	0.673980	0.828990	0.646180
C11171	C1117	0.605480	0.761630	0.789690
N11181	N1118	0.632340	0.722470	0.771980
C11191	C1119	0.724350	0.820600	0.623050
C11201	C1120	0.659030	0.681260	0.801480
N11211	N1121	0.525590	0.904080	0.677470
N11221	N1122	0.609180	0.801360	0.658520
N11231	N1123	0.573420	0.808830	0.769310
H11241	H1124	0.723070	0.790250	0.136350
H11251	H1125	0.605090	0.637260	0.256470
H11261	H1126	0.671220	0.580610	0.683450
H11271	H1127	0.604250	0.789600	0.339790
H11281	H1128	0.753860	0.982830	0.202100
H11291	H1129	0.805970	0.554130	0.139410
C11301	C1130	0.970440	0.938820	0.192080
C11311	C1131	0.992540	0.944530	0.215980
N11321	N1132	0.985450	0.918810	0.265780
N11331	N1133	0.969300	0.959020	0.142880
H11341	H1134	0.959690	0.435250	0.254950
H11351	H1135	0.661470	0.970850	0.809700
C11361	C1136	0.658600	0.940300	0.888710
C11371	C1137	0.681900	0.945980	0.837000
N11381	N1138	0.731550	0.920080	0.819590
N11391	N1139	0.525910	0.975580	0.884000
N11401	N1140	0.609720	0.960710	0.919210
H11411	H1141	0.723750	0.434820	0.340020
H11421	H1142	0.738810	0.839490	0.783500
H11431	H1143	0.603690	0.553560	0.492620
H11441	H1144	0.582440	0.902840	0.902660
C11451	C1145	0.548850	0.925290	0.891180
H11461	H1146	0.582700	0.901720	0.605150
C11471	C1147	0.549020	0.924390	0.627500
H11481	H1148	0.679230	0.805480	0.509270
C11491	C1149	0.690550	0.782980	0.486760
H11501	H1150	0.975360	0.807070	0.211520
C11511	C1151	0.952990	0.784470	0.222840
H11521	H1152	0.976680	0.508230	0.509140
C11531	C1153	0.954120	0.519710	0.486620
H11541	H1154	0.930750	0.408370	0.651400
C11551	C1155	0.940040	0.440980	0.641690
H11561	H1156	0.578620	0.760100	0.001730
C11571	C1157	0.610980	0.769530	0.969260
H11581	H1158	0.929570	0.947530	0.002080
C11591	C1159	0.939150	0.938240	0.969520
H11601	H1160	0.578440	0.948060	0.462830
C11611	C1161	0.610830	0.938600	0.472300
H11621	H1162	0.927250	0.411760	0.001330
C11631	C1163	0.937090	0.443900	0.968760
H11641	H1164	0.580810	0.758640	0.651030
C11651	C1165	0.613030	0.768430	0.641460
H11661	H1166	0.930260	0.948480	0.113010
C11671	C1167	0.939710	0.938920	0.145460
H11681	H1168	0.580750	0.949800	0.998600
C11691	C1169	0.612870	0.940230	0.966100
H11701	H1170	0.527670	0.872860	0.795970
C11711	C1171	0.554700	0.834320	0.801230
H11721	H1172	0.786410	0.614440	0.538390
C11731	C1173	0.780350	0.609060	0.576930
H11741	H1174	0.784940	0.835590	0.319610
C11751	C1175	0.779280	0.874330	0.313070
H11761	H1176	0.586410	0.849670	0.434200
C11771	C1177	0.588300	0.881940	0.399060
H11781	H1178	0.899560	0.419780	0.118720
C11791	C1179	0.864560	0.420350	0.120740
H11801	H1180	0.588570	0.731620	0.553110
C11811	C1181	0.589460	0.696300	0.585150
H11821	H1182	0.901800	0.850140	0.121520
C11831	C1183	0.866700	0.882450	0.122270
H11841	H1184	0.588500	0.415520	0.433960
C11851	C1185	0.589430	0.417420	0.398850
H11861	H1186	0.583770	0.419790	0.552480
C11871	C1187	0.585800	0.420600	0.584770
H11881	H1188	0.585100	0.731490	0.121300
C11891	C1189	0.587140	0.696280	0.122300
H11901	H1190	0.590100	0.849790	0.116590
C11911	C1191	0.590880	0.882150	0.118560
H11921	H1192	0.902390	0.414950	0.554240
C11931	C1193	0.866890	0.417140	0.586070
H11941	H1194	0.297560	0.221370	0.695000
H11951	H1195	0.324290	0.272030	0.772720
H11961	H1196	0.884600	0.486430	0.336730
H11971	H1197	0.803820	0.579840	0.418390
H11981	H1198	0.804180	0.714550	0.188610
H11991	H1199	0.884500	0.634160	0.283400
H12001	H1200	0.749740	0.714650	0.336800
