data_MIHHER_freeONLY_PM
_symmetry_space_group_name_H-M	'P1'
_cell_length_a	32.153900
_cell_length_b	32.153900
_cell_length_c	32.153900
_cell_angle_alpha	60.000000
_cell_angle_beta	60.000000
_cell_angle_gamma	60.000000
_symmetry_Int_Tables_number 1

loop_
_symmetry_equiv_pos_as_xyz
'x,y,z'

loop_
_atom_site_label
_atom_site_type_symbol
_atom_site_fract_x
_atom_site_fract_y
_atom_site_fract_z
Co11	Co1	0.343320	0.525400	0.157860
Co21	Co2	0.525400	0.343320	0.973420
Co31	Co3	0.157860	0.973420	0.343320
Co41	Co4	0.973420	0.157860	0.525400
Co51	Co5	0.343320	0.157860	0.973420
Co61	Co6	0.525400	0.973420	0.157860
Co71	Co7	0.157860	0.343320	0.525400
Co81	Co8	0.973420	0.525400	0.343320
Co91	Co9	0.343320	0.973420	0.525400
Co101	Co10	0.525400	0.157860	0.343320
Co111	Co11	0.157860	0.525400	0.973420
Co121	Co12	0.973420	0.343320	0.157860
Co131	Co13	0.474600	0.656680	0.842140
Co141	Co14	0.656680	0.474600	0.026580
Co151	Co15	0.026580	0.842140	0.656680
Co161	Co16	0.842140	0.026580	0.474600
Co171	Co17	0.842140	0.656680	0.026580
Co181	Co18	0.026580	0.474600	0.842140
Co191	Co19	0.656680	0.842140	0.474600
Co201	Co20	0.474600	0.026580	0.656680
Co211	Co21	0.026580	0.656680	0.474600
Co221	Co22	0.842140	0.474600	0.656680
Co231	Co23	0.474600	0.842140	0.026580
Co241	Co24	0.656680	0.026580	0.842140
Co251	Co25	0.656680	0.474600	0.842140
Co261	Co26	0.474600	0.656680	0.026580
Co271	Co27	0.842140	0.026580	0.656680
Co281	Co28	0.026580	0.842140	0.474600
Co291	Co29	0.656680	0.842140	0.026580
Co301	Co30	0.474600	0.026580	0.842140
Co311	Co31	0.842140	0.656680	0.474600
Co321	Co32	0.026580	0.474600	0.656680
Co331	Co33	0.656680	0.026580	0.474600
Co341	Co34	0.474600	0.842140	0.656680
Co351	Co35	0.842140	0.474600	0.026580
Co361	Co36	0.026580	0.656680	0.842140
Co371	Co37	0.525400	0.343320	0.157860
Co381	Co38	0.343320	0.525400	0.973420
Co391	Co39	0.973420	0.157860	0.343320
Co401	Co40	0.157860	0.973420	0.525400
Co411	Co41	0.157860	0.343320	0.973420
Co421	Co42	0.973420	0.525400	0.157860
Co431	Co43	0.343320	0.157860	0.525400
Co441	Co44	0.525400	0.973420	0.343320
Co451	Co45	0.973420	0.343320	0.525400
Co461	Co46	0.157860	0.525400	0.343320
Co471	Co47	0.525400	0.157860	0.973420
Co481	Co48	0.343320	0.973420	0.157860
H11	H1	0.290800	0.437000	0.203800
H21	H2	0.389500	0.506700	0.237100
H31	H3	0.257100	0.706300	0.189100
H41	H4	0.237000	0.618200	0.147000
H51	H5	0.437000	0.290800	0.068400
H61	H6	0.506700	0.389500	0.866700
H71	H7	0.706300	0.257100	0.847500
H81	H8	0.618200	0.237000	0.997800
H91	H9	0.203800	0.068400	0.290800
H101	H10	0.237100	0.866700	0.389500
H111	H11	0.189100	0.847500	0.257100
H121	H12	0.147000	0.997800	0.237000
H131	H13	0.068400	0.203800	0.437000
H141	H14	0.866700	0.237100	0.506700
H151	H15	0.847500	0.189100	0.706300
H161	H16	0.997800	0.147000	0.618200
H171	H17	0.290800	0.203800	0.068400
H181	H18	0.389500	0.237100	0.866700
H191	H19	0.257100	0.189100	0.847500
H201	H20	0.237000	0.147000	0.997800
H211	H21	0.437000	0.068400	0.203800
H221	H22	0.506700	0.866700	0.237100
H231	H23	0.706300	0.847500	0.189100
H241	H24	0.618200	0.997800	0.147000
H251	H25	0.203800	0.290800	0.437000
H261	H26	0.237100	0.389500	0.506700
H271	H27	0.189100	0.257100	0.706300
H281	H28	0.147000	0.237000	0.618200
H291	H29	0.068400	0.437000	0.290800
H301	H30	0.866700	0.506700	0.389500
H311	H31	0.847500	0.706300	0.257100
H321	H32	0.997800	0.618200	0.237000
H331	H33	0.290800	0.068400	0.437000
H341	H34	0.389500	0.866700	0.506700
H351	H35	0.257100	0.847500	0.706300
H361	H36	0.237000	0.997800	0.618200
H371	H37	0.437000	0.203800	0.290800
H381	H38	0.506700	0.237100	0.389500
H391	H39	0.706300	0.189100	0.257100
H401	H40	0.618200	0.147000	0.237000
H411	H41	0.203800	0.437000	0.068400
H421	H42	0.237100	0.506700	0.866700
H431	H43	0.189100	0.706300	0.847500
H441	H44	0.147000	0.618200	0.997800
H451	H45	0.068400	0.290800	0.203800
H461	H46	0.866700	0.389500	0.237100
H471	H47	0.847500	0.257100	0.189100
H481	H48	0.997800	0.237000	0.147000
H491	H49	0.563000	0.709200	0.796200
H501	H50	0.493300	0.610500	0.762900
H511	H51	0.293700	0.742900	0.810900
H521	H52	0.381800	0.763000	0.853000
H531	H53	0.709200	0.563000	0.931600
H541	H54	0.610500	0.493300	0.133300
H551	H55	0.742900	0.293700	0.152500
H561	H56	0.763000	0.381800	0.002200
H571	H57	0.931600	0.796200	0.709200
H581	H58	0.133300	0.762900	0.610500
H591	H59	0.152500	0.810900	0.742900
H601	H60	0.002200	0.853000	0.763000
H611	H61	0.796200	0.931600	0.563000
H621	H62	0.762900	0.133300	0.493300
H631	H63	0.810900	0.152500	0.293700
H641	H64	0.853000	0.002200	0.381800
H651	H65	0.796200	0.709200	0.931600
H661	H66	0.762900	0.610500	0.133300
H671	H67	0.810900	0.742900	0.152500
H681	H68	0.853000	0.763000	0.002200
H691	H69	0.931600	0.563000	0.796200
H701	H70	0.133300	0.493300	0.762900
H711	H71	0.152500	0.293700	0.810900
H721	H72	0.002200	0.381800	0.853000
H731	H73	0.709200	0.796200	0.563000
H741	H74	0.610500	0.762900	0.493300
H751	H75	0.742900	0.810900	0.293700
H761	H76	0.763000	0.853000	0.381800
H771	H77	0.563000	0.931600	0.709200
H781	H78	0.493300	0.133300	0.610500
H791	H79	0.293700	0.152500	0.742900
H801	H80	0.381800	0.002200	0.763000
H811	H81	0.931600	0.709200	0.563000
H821	H82	0.133300	0.610500	0.493300
H831	H83	0.152500	0.742900	0.293700
H841	H84	0.002200	0.763000	0.381800
H851	H85	0.796200	0.563000	0.709200
H861	H86	0.762900	0.493300	0.610500
H871	H87	0.810900	0.293700	0.742900
H881	H88	0.853000	0.381800	0.763000
H891	H89	0.563000	0.796200	0.931600
H901	H90	0.493300	0.762900	0.133300
H911	H91	0.293700	0.810900	0.152500
H921	H92	0.381800	0.853000	0.002200
H931	H93	0.709200	0.931600	0.796200
H941	H94	0.610500	0.133300	0.762900
H951	H95	0.742900	0.152500	0.810900
H961	H96	0.763000	0.002200	0.853000
H971	H97	0.709200	0.563000	0.796200
H981	H98	0.610500	0.493300	0.762900
H991	H99	0.742900	0.293700	0.810900
H1001	H100	0.763000	0.381800	0.853000
H1011	H101	0.563000	0.709200	0.931600
H1021	H102	0.493300	0.610500	0.133300
H1031	H103	0.293700	0.742900	0.152500
H1041	H104	0.381800	0.763000	0.002200
H1051	H105	0.796200	0.931600	0.709200
H1061	H106	0.762900	0.133300	0.610500
H1071	H107	0.810900	0.152500	0.742900
H1081	H108	0.853000	0.002200	0.763000
H1091	H109	0.931600	0.796200	0.563000
H1101	H110	0.133300	0.762900	0.493300
H1111	H111	0.152500	0.810900	0.293700
H1121	H112	0.002200	0.853000	0.381800
H1131	H113	0.709200	0.796200	0.931600
H1141	H114	0.610500	0.762900	0.133300
H1151	H115	0.742900	0.810900	0.152500
H1161	H116	0.763000	0.853000	0.002200
H1171	H117	0.563000	0.931600	0.796200
H1181	H118	0.493300	0.133300	0.762900
H1191	H119	0.293700	0.152500	0.810900
H1201	H120	0.381800	0.002200	0.853000
H1211	H121	0.796200	0.709200	0.563000
H1221	H122	0.762900	0.610500	0.493300
H1231	H123	0.810900	0.742900	0.293700
H1241	H124	0.853000	0.763000	0.381800
H1251	H125	0.931600	0.563000	0.709200
H1261	H126	0.133300	0.493300	0.610500
H1271	H127	0.152500	0.293700	0.742900
H1281	H128	0.002200	0.381800	0.763000
H1291	H129	0.709200	0.931600	0.563000
H1301	H130	0.610500	0.133300	0.493300
H1311	H131	0.742900	0.152500	0.293700
H1321	H132	0.763000	0.002200	0.381800
H1331	H133	0.563000	0.796200	0.709200
H1341	H134	0.493300	0.762900	0.610500
H1351	H135	0.293700	0.810900	0.742900
H1361	H136	0.381800	0.853000	0.763000
H1371	H137	0.796200	0.563000	0.931600
H1381	H138	0.762900	0.493300	0.133300
H1391	H139	0.810900	0.293700	0.152500
H1401	H140	0.853000	0.381800	0.002200
H1411	H141	0.931600	0.709200	0.796200
H1421	H142	0.133300	0.610500	0.762900
H1431	H143	0.152500	0.742900	0.810900
H1441	H144	0.002200	0.763000	0.853000
H1451	H145	0.437000	0.290800	0.203800
H1461	H146	0.506700	0.389500	0.237100
H1471	H147	0.706300	0.257100	0.189100
H1481	H148	0.618200	0.237000	0.147000
H1491	H149	0.290800	0.437000	0.068400
H1501	H150	0.389500	0.506700	0.866700
H1511	H151	0.257100	0.706300	0.847500
H1521	H152	0.237000	0.618200	0.997800
H1531	H153	0.068400	0.203800	0.290800
H1541	H154	0.866700	0.237100	0.389500
H1551	H155	0.847500	0.189100	0.257100
H1561	H156	0.997800	0.147000	0.237000
H1571	H157	0.203800	0.068400	0.437000
H1581	H158	0.237100	0.866700	0.506700
H1591	H159	0.189100	0.847500	0.706300
H1601	H160	0.147000	0.997800	0.618200
H1611	H161	0.203800	0.290800	0.068400
H1621	H162	0.237100	0.389500	0.866700
H1631	H163	0.189100	0.257100	0.847500
H1641	H164	0.147000	0.237000	0.997800
H1651	H165	0.068400	0.437000	0.203800
H1661	H166	0.866700	0.506700	0.237100
H1671	H167	0.847500	0.706300	0.189100
H1681	H168	0.997800	0.618200	0.147000
H1691	H169	0.290800	0.203800	0.437000
H1701	H170	0.389500	0.237100	0.506700
H1711	H171	0.257100	0.189100	0.706300
H1721	H172	0.237000	0.147000	0.618200
H1731	H173	0.437000	0.068400	0.290800
H1741	H174	0.506700	0.866700	0.389500
H1751	H175	0.706300	0.847500	0.257100
H1761	H176	0.618200	0.997800	0.237000
H1771	H177	0.068400	0.290800	0.437000
H1781	H178	0.866700	0.389500	0.506700
H1791	H179	0.847500	0.257100	0.706300
H1801	H180	0.997800	0.237000	0.618200
H1811	H181	0.203800	0.437000	0.290800
H1821	H182	0.237100	0.506700	0.389500
H1831	H183	0.189100	0.706300	0.257100
H1841	H184	0.147000	0.618200	0.237000
H1851	H185	0.437000	0.203800	0.068400
H1861	H186	0.506700	0.237100	0.866700
H1871	H187	0.706300	0.189100	0.847500
H1881	H188	0.618200	0.147000	0.997800
H1891	H189	0.290800	0.068400	0.203800
H1901	H190	0.389500	0.866700	0.237100
H1911	H191	0.257100	0.847500	0.189100
H1921	H192	0.237000	0.997800	0.147000
H1931	H193	0.406400	0.593600	0.060200
H1941	H194	0.593600	0.406400	0.939800
H1951	H195	0.060200	0.939800	0.406400
H1961	H196	0.939800	0.060200	0.593600
H1971	H197	0.406400	0.060200	0.939800
H1981	H198	0.593600	0.939800	0.060200
H1991	H199	0.060200	0.406400	0.593600
H2001	H200	0.939800	0.593600	0.406400
H2011	H201	0.406400	0.939800	0.593600
H2021	H202	0.593600	0.060200	0.406400
H2031	H203	0.060200	0.593600	0.939800
H2041	H204	0.939800	0.406400	0.060200
H2051	H205	0.406400	0.593600	0.939800
H2061	H206	0.593600	0.406400	0.060200
H2071	H207	0.060200	0.939800	0.593600
H2081	H208	0.939800	0.060200	0.406400
H2091	H209	0.939800	0.593600	0.060200
H2101	H210	0.060200	0.406400	0.939800
H2111	H211	0.593600	0.939800	0.406400
H2121	H212	0.406400	0.060200	0.593600
H2131	H213	0.060200	0.593600	0.406400
H2141	H214	0.939800	0.406400	0.593600
H2151	H215	0.406400	0.939800	0.060200
H2161	H216	0.593600	0.060200	0.939800
H2171	H217	0.451100	0.451100	0.154300
H2181	H218	0.451100	0.451100	0.943500
H2191	H219	0.154300	0.943500	0.451100
H2201	H220	0.943500	0.154300	0.451100
H2211	H221	0.451100	0.154300	0.943500
H2221	H222	0.451100	0.943500	0.154300
H2231	H223	0.154300	0.451100	0.451100
H2241	H224	0.943500	0.451100	0.451100
H2251	H225	0.451100	0.943500	0.451100
H2261	H226	0.451100	0.154300	0.451100
H2271	H227	0.154300	0.451100	0.943500
H2281	H228	0.943500	0.451100	0.154300
H2291	H229	0.548900	0.548900	0.845700
H2301	H230	0.548900	0.548900	0.056500
H2311	H231	0.056500	0.845700	0.548900
H2321	H232	0.845700	0.056500	0.548900
H2331	H233	0.845700	0.548900	0.056500
H2341	H234	0.056500	0.548900	0.845700
H2351	H235	0.548900	0.845700	0.548900
H2361	H236	0.548900	0.056500	0.548900
H2371	H237	0.056500	0.548900	0.548900
H2381	H238	0.845700	0.548900	0.548900
H2391	H239	0.548900	0.845700	0.056500
H2401	H240	0.548900	0.056500	0.845700
H2411	H241	0.260100	0.487300	0.260100
H2421	H242	0.487300	0.260100	0.992500
H2431	H243	0.260100	0.992500	0.260100
H2441	H244	0.992500	0.260100	0.487300
H2451	H245	0.260100	0.260100	0.992500
H2461	H246	0.487300	0.992500	0.260100
H2471	H247	0.260100	0.260100	0.487300
H2481	H248	0.992500	0.487300	0.260100
H2491	H249	0.260100	0.992500	0.487300
H2501	H250	0.487300	0.260100	0.260100
H2511	H251	0.260100	0.487300	0.992500
H2521	H252	0.992500	0.260100	0.260100
H2531	H253	0.512700	0.739900	0.739900
H2541	H254	0.739900	0.512700	0.007500
H2551	H255	0.007500	0.739900	0.739900
H2561	H256	0.739900	0.007500	0.512700
H2571	H257	0.739900	0.739900	0.007500
H2581	H258	0.007500	0.512700	0.739900
H2591	H259	0.739900	0.739900	0.512700
H2601	H260	0.512700	0.007500	0.739900
H2611	H261	0.007500	0.739900	0.512700
H2621	H262	0.739900	0.512700	0.739900
H2631	H263	0.512700	0.739900	0.007500
H2641	H264	0.739900	0.007500	0.739900
H2651	H265	0.376700	0.504700	0.059300
H2661	H266	0.504700	0.376700	0.059300
H2671	H267	0.059300	0.059300	0.376700
H2681	H268	0.059300	0.059300	0.504700
H2691	H269	0.376700	0.059300	0.059300
H2701	H270	0.504700	0.059300	0.059300
H2711	H271	0.059300	0.376700	0.504700
H2721	H272	0.059300	0.504700	0.376700
H2731	H273	0.376700	0.059300	0.504700
H2741	H274	0.504700	0.059300	0.376700
H2751	H275	0.059300	0.504700	0.059300
H2761	H276	0.059300	0.376700	0.059300
H2771	H277	0.495300	0.623300	0.940700
H2781	H278	0.623300	0.495300	0.940700
H2791	H279	0.940700	0.940700	0.623300
H2801	H280	0.940700	0.940700	0.495300
H2811	H281	0.940700	0.623300	0.940700
H2821	H282	0.940700	0.495300	0.940700
H2831	H283	0.623300	0.940700	0.495300
H2841	H284	0.495300	0.940700	0.623300
H2851	H285	0.940700	0.623300	0.495300
H2861	H286	0.940700	0.495300	0.623300
H2871	H287	0.495300	0.940700	0.940700
H2881	H288	0.623300	0.940700	0.940700
C11	C1	0.367770	0.410570	0.186830
C21	C2	0.321100	0.408500	0.201100
C31	C3	0.414790	0.554670	0.166290
C41	C4	0.408400	0.529400	0.216200
C51	C5	0.264780	0.591580	0.222940
C61	C6	0.247750	0.676410	0.208090
C71	C7	0.275200	0.585260	0.090820
C81	C8	0.237140	0.617560	0.117660
C91	C9	0.410570	0.367770	0.034830
C101	C10	0.408500	0.321100	0.069300
C111	C11	0.554670	0.414790	0.864250
C121	C12	0.529400	0.408400	0.846000
C131	C13	0.591580	0.264780	0.920700
C141	C14	0.676410	0.247750	0.867750
C151	C15	0.585260	0.275200	0.048720
C161	C16	0.617560	0.237140	0.027640
C171	C17	0.186830	0.034830	0.367770
C181	C18	0.201100	0.069300	0.321100
C191	C19	0.166290	0.864250	0.414790
C201	C20	0.216200	0.846000	0.408400
C211	C21	0.222940	0.920700	0.264780
C221	C22	0.208090	0.867750	0.247750
C231	C23	0.090820	0.048720	0.275200
C241	C24	0.117660	0.027640	0.237140
C251	C25	0.034830	0.186830	0.410570
C261	C26	0.069300	0.201100	0.408500
C271	C27	0.864250	0.166290	0.554670
C281	C28	0.846000	0.216200	0.529400
C291	C29	0.920700	0.222940	0.591580
C301	C30	0.867750	0.208090	0.676410
C311	C31	0.048720	0.090820	0.585260
C321	C32	0.027640	0.117660	0.617560
C331	C33	0.367770	0.186830	0.034830
C341	C34	0.321100	0.201100	0.069300
C351	C35	0.414790	0.166290	0.864250
C361	C36	0.408400	0.216200	0.846000
C371	C37	0.264780	0.222940	0.920700
C381	C38	0.247750	0.208090	0.867750
C391	C39	0.275200	0.090820	0.048720
C401	C40	0.237140	0.117660	0.027640
C411	C41	0.410570	0.034830	0.186830
C421	C42	0.408500	0.069300	0.201100
C431	C43	0.554670	0.864250	0.166290
C441	C44	0.529400	0.846000	0.216200
C451	C45	0.591580	0.920700	0.222940
C461	C46	0.676410	0.867750	0.208090
C471	C47	0.585260	0.048720	0.090820
C481	C48	0.617560	0.027640	0.117660
C491	C49	0.186830	0.367770	0.410570
C501	C50	0.201100	0.321100	0.408500
C511	C51	0.166290	0.414790	0.554670
C521	C52	0.216200	0.408400	0.529400
C531	C53	0.222940	0.264780	0.591580
C541	C54	0.208090	0.247750	0.676410
C551	C55	0.090820	0.275200	0.585260
C561	C56	0.117660	0.237140	0.617560
C571	C57	0.034830	0.410570	0.367770
C581	C58	0.069300	0.408500	0.321100
C591	C59	0.864250	0.554670	0.414790
C601	C60	0.846000	0.529400	0.408400
C611	C61	0.920700	0.591580	0.264780
C621	C62	0.867750	0.676410	0.247750
C631	C63	0.048720	0.585260	0.275200
C641	C64	0.027640	0.617560	0.237140
C651	C65	0.367770	0.034830	0.410570
C661	C66	0.321100	0.069300	0.408500
C671	C67	0.414790	0.864250	0.554670
C681	C68	0.408400	0.846000	0.529400
C691	C69	0.264780	0.920700	0.591580
C701	C70	0.247750	0.867750	0.676410
C711	C71	0.275200	0.048720	0.585260
C721	C72	0.237140	0.027640	0.617560
C731	C73	0.410570	0.186830	0.367770
C741	C74	0.408500	0.201100	0.321100
C751	C75	0.554670	0.166290	0.414790
C761	C76	0.529400	0.216200	0.408400
C771	C77	0.591580	0.222940	0.264780
C781	C78	0.676410	0.208090	0.247750
C791	C79	0.585260	0.090820	0.275200
C801	C80	0.617560	0.117660	0.237140
C811	C81	0.186830	0.410570	0.034830
C821	C82	0.201100	0.408500	0.069300
C831	C83	0.166290	0.554670	0.864250
C841	C84	0.216200	0.529400	0.846000
C851	C85	0.222940	0.591580	0.920700
C861	C86	0.208090	0.676410	0.867750
C871	C87	0.090820	0.585260	0.048720
C881	C88	0.117660	0.617560	0.027640
C891	C89	0.034830	0.367770	0.186830
C901	C90	0.069300	0.321100	0.201100
C911	C91	0.864250	0.414790	0.166290
C921	C92	0.846000	0.408400	0.216200
C931	C93	0.920700	0.264780	0.222940
C941	C94	0.867750	0.247750	0.208090
C951	C95	0.048720	0.275200	0.090820
C961	C96	0.027640	0.237140	0.117660
C971	C97	0.589430	0.632230	0.813170
C981	C98	0.591500	0.678900	0.798900
C991	C99	0.445330	0.585210	0.833710
C1001	C100	0.470600	0.591600	0.783800
C1011	C101	0.408420	0.735220	0.777060
C1021	C102	0.323590	0.752250	0.791910
C1031	C103	0.414740	0.724800	0.909180
C1041	C104	0.382440	0.762860	0.882340
C1051	C105	0.632230	0.589430	0.965170
C1061	C106	0.678900	0.591500	0.930700
C1071	C107	0.585210	0.445330	0.135750
C1081	C108	0.591600	0.470600	0.154000
C1091	C109	0.735220	0.408420	0.079300
C1101	C110	0.752250	0.323590	0.132250
C1111	C111	0.724800	0.414740	0.951280
C1121	C112	0.762860	0.382440	0.972360
C1131	C113	0.965170	0.813170	0.632230
C1141	C114	0.930700	0.798900	0.678900
C1151	C115	0.135750	0.833710	0.585210
C1161	C116	0.154000	0.783800	0.591600
C1171	C117	0.079300	0.777060	0.735220
C1181	C118	0.132250	0.791910	0.752250
C1191	C119	0.951280	0.909180	0.724800
C1201	C120	0.972360	0.882340	0.762860
C1211	C121	0.813170	0.965170	0.589430
C1221	C122	0.798900	0.930700	0.591500
C1231	C123	0.833710	0.135750	0.445330
C1241	C124	0.783800	0.154000	0.470600
C1251	C125	0.777060	0.079300	0.408420
C1261	C126	0.791910	0.132250	0.323590
C1271	C127	0.909180	0.951280	0.414740
C1281	C128	0.882340	0.972360	0.382440
C1291	C129	0.813170	0.632230	0.965170
C1301	C130	0.798900	0.678900	0.930700
C1311	C131	0.833710	0.585210	0.135750
C1321	C132	0.783800	0.591600	0.154000
C1331	C133	0.777060	0.735220	0.079300
C1341	C134	0.791910	0.752250	0.132250
C1351	C135	0.909180	0.724800	0.951280
C1361	C136	0.882340	0.762860	0.972360
C1371	C137	0.965170	0.589430	0.813170
C1381	C138	0.930700	0.591500	0.798900
C1391	C139	0.135750	0.445330	0.833710
C1401	C140	0.154000	0.470600	0.783800
C1411	C141	0.079300	0.408420	0.777060
C1421	C142	0.132250	0.323590	0.791910
C1431	C143	0.951280	0.414740	0.909180
C1441	C144	0.972360	0.382440	0.882340
C1451	C145	0.632230	0.813170	0.589430
C1461	C146	0.678900	0.798900	0.591500
C1471	C147	0.585210	0.833710	0.445330
C1481	C148	0.591600	0.783800	0.470600
C1491	C149	0.735220	0.777060	0.408420
C1501	C150	0.752250	0.791910	0.323590
C1511	C151	0.724800	0.909180	0.414740
C1521	C152	0.762860	0.882340	0.382440
C1531	C153	0.589430	0.965170	0.632230
C1541	C154	0.591500	0.930700	0.678900
C1551	C155	0.445330	0.135750	0.585210
C1561	C156	0.470600	0.154000	0.591600
C1571	C157	0.408420	0.079300	0.735220
C1581	C158	0.323590	0.132250	0.752250
C1591	C159	0.414740	0.951280	0.724800
C1601	C160	0.382440	0.972360	0.762860
C1611	C161	0.965170	0.632230	0.589430
C1621	C162	0.930700	0.678900	0.591500
C1631	C163	0.135750	0.585210	0.445330
C1641	C164	0.154000	0.591600	0.470600
C1651	C165	0.079300	0.735220	0.408420
C1661	C166	0.132250	0.752250	0.323590
C1671	C167	0.951280	0.724800	0.414740
C1681	C168	0.972360	0.762860	0.382440
C1691	C169	0.813170	0.589430	0.632230
C1701	C170	0.798900	0.591500	0.678900
C1711	C171	0.833710	0.445330	0.585210
C1721	C172	0.783800	0.470600	0.591600
C1731	C173	0.777060	0.408420	0.735220
C1741	C174	0.791910	0.323590	0.752250
C1751	C175	0.909180	0.414740	0.724800
C1761	C176	0.882340	0.382440	0.762860
C1771	C177	0.589430	0.813170	0.965170
C1781	C178	0.591500	0.798900	0.930700
C1791	C179	0.445330	0.833710	0.135750
C1801	C180	0.470600	0.783800	0.154000
C1811	C181	0.408420	0.777060	0.079300
C1821	C182	0.323590	0.791910	0.132250
C1831	C183	0.414740	0.909180	0.951280
C1841	C184	0.382440	0.882340	0.972360
C1851	C185	0.632230	0.965170	0.813170
C1861	C186	0.678900	0.930700	0.798900
C1871	C187	0.585210	0.135750	0.833710
C1881	C188	0.591600	0.154000	0.783800
C1891	C189	0.735220	0.079300	0.777060
C1901	C190	0.752250	0.132250	0.791910
C1911	C191	0.724800	0.951280	0.909180
C1921	C192	0.762860	0.972360	0.882340
C1931	C193	0.632230	0.589430	0.813170
C1941	C194	0.678900	0.591500	0.798900
C1951	C195	0.585210	0.445330	0.833710
C1961	C196	0.591600	0.470600	0.783800
C1971	C197	0.735220	0.408420	0.777060
C1981	C198	0.752250	0.323590	0.791910
C1991	C199	0.724800	0.414740	0.909180
C2001	C200	0.762860	0.382440	0.882340
C2011	C201	0.589430	0.632230	0.965170
C2021	C202	0.591500	0.678900	0.930700
C2031	C203	0.445330	0.585210	0.135750
C2041	C204	0.470600	0.591600	0.154000
C2051	C205	0.408420	0.735220	0.079300
C2061	C206	0.323590	0.752250	0.132250
C2071	C207	0.414740	0.724800	0.951280
C2081	C208	0.382440	0.762860	0.972360
C2091	C209	0.813170	0.965170	0.632230
C2101	C210	0.798900	0.930700	0.678900
C2111	C211	0.833710	0.135750	0.585210
C2121	C212	0.783800	0.154000	0.591600
C2131	C213	0.777060	0.079300	0.735220
C2141	C214	0.791910	0.132250	0.752250
C2151	C215	0.909180	0.951280	0.724800
C2161	C216	0.882340	0.972360	0.762860
C2171	C217	0.965170	0.813170	0.589430
C2181	C218	0.930700	0.798900	0.591500
C2191	C219	0.135750	0.833710	0.445330
C2201	C220	0.154000	0.783800	0.470600
C2211	C221	0.079300	0.777060	0.408420
C2221	C222	0.132250	0.791910	0.323590
C2231	C223	0.951280	0.909180	0.414740
C2241	C224	0.972360	0.882340	0.382440
C2251	C225	0.632230	0.813170	0.965170
C2261	C226	0.678900	0.798900	0.930700
C2271	C227	0.585210	0.833710	0.135750
C2281	C228	0.591600	0.783800	0.154000
C2291	C229	0.735220	0.777060	0.079300
C2301	C230	0.752250	0.791910	0.132250
C2311	C231	0.724800	0.909180	0.951280
C2321	C232	0.762860	0.882340	0.972360
C2331	C233	0.589430	0.965170	0.813170
C2341	C234	0.591500	0.930700	0.798900
C2351	C235	0.445330	0.135750	0.833710
C2361	C236	0.470600	0.154000	0.783800
C2371	C237	0.408420	0.079300	0.777060
C2381	C238	0.323590	0.132250	0.791910
C2391	C239	0.414740	0.951280	0.909180
C2401	C240	0.382440	0.972360	0.882340
C2411	C241	0.813170	0.632230	0.589430
C2421	C242	0.798900	0.678900	0.591500
C2431	C243	0.833710	0.585210	0.445330
C2441	C244	0.783800	0.591600	0.470600
C2451	C245	0.777060	0.735220	0.408420
C2461	C246	0.791910	0.752250	0.323590
C2471	C247	0.909180	0.724800	0.414740
C2481	C248	0.882340	0.762860	0.382440
C2491	C249	0.965170	0.589430	0.632230
C2501	C250	0.930700	0.591500	0.678900
C2511	C251	0.135750	0.445330	0.585210
C2521	C252	0.154000	0.470600	0.591600
C2531	C253	0.079300	0.408420	0.735220
C2541	C254	0.132250	0.323590	0.752250
C2551	C255	0.951280	0.414740	0.724800
C2561	C256	0.972360	0.382440	0.762860
C2571	C257	0.632230	0.965170	0.589430
C2581	C258	0.678900	0.930700	0.591500
C2591	C259	0.585210	0.135750	0.445330
C2601	C260	0.591600	0.154000	0.470600
C2611	C261	0.735220	0.079300	0.408420
C2621	C262	0.752250	0.132250	0.323590
C2631	C263	0.724800	0.951280	0.414740
C2641	C264	0.762860	0.972360	0.382440
C2651	C265	0.589430	0.813170	0.632230
C2661	C266	0.591500	0.798900	0.678900
C2671	C267	0.445330	0.833710	0.585210
C2681	C268	0.470600	0.783800	0.591600
C2691	C269	0.408420	0.777060	0.735220
C2701	C270	0.323590	0.791910	0.752250
C2711	C271	0.414740	0.909180	0.724800
C2721	C272	0.382440	0.882340	0.762860
C2731	C273	0.813170	0.589430	0.965170
C2741	C274	0.798900	0.591500	0.930700
C2751	C275	0.833710	0.445330	0.135750
C2761	C276	0.783800	0.470600	0.154000
C2771	C277	0.777060	0.408420	0.079300
C2781	C278	0.791910	0.323590	0.132250
C2791	C279	0.909180	0.414740	0.951280
C2801	C280	0.882340	0.382440	0.972360
C2811	C281	0.965170	0.632230	0.813170
C2821	C282	0.930700	0.678900	0.798900
C2831	C283	0.135750	0.585210	0.833710
C2841	C284	0.154000	0.591600	0.783800
C2851	C285	0.079300	0.735220	0.777060
C2861	C286	0.132250	0.752250	0.791910
C2871	C287	0.951280	0.724800	0.909180
C2881	C288	0.972360	0.762860	0.882340
C2891	C289	0.410570	0.367770	0.186830
C2901	C290	0.408500	0.321100	0.201100
C2911	C291	0.554670	0.414790	0.166290
C2921	C292	0.529400	0.408400	0.216200
C2931	C293	0.591580	0.264780	0.222940
C2941	C294	0.676410	0.247750	0.208090
C2951	C295	0.585260	0.275200	0.090820
C2961	C296	0.617560	0.237140	0.117660
C2971	C297	0.367770	0.410570	0.034830
C2981	C298	0.321100	0.408500	0.069300
C2991	C299	0.414790	0.554670	0.864250
C3001	C300	0.408400	0.529400	0.846000
C3011	C301	0.264780	0.591580	0.920700
C3021	C302	0.247750	0.676410	0.867750
C3031	C303	0.275200	0.585260	0.048720
C3041	C304	0.237140	0.617560	0.027640
C3051	C305	0.034830	0.186830	0.367770
C3061	C306	0.069300	0.201100	0.321100
C3071	C307	0.864250	0.166290	0.414790
C3081	C308	0.846000	0.216200	0.408400
C3091	C309	0.920700	0.222940	0.264780
C3101	C310	0.867750	0.208090	0.247750
C3111	C311	0.048720	0.090820	0.275200
C3121	C312	0.027640	0.117660	0.237140
C3131	C313	0.186830	0.034830	0.410570
C3141	C314	0.201100	0.069300	0.408500
C3151	C315	0.166290	0.864250	0.554670
C3161	C316	0.216200	0.846000	0.529400
C3171	C317	0.222940	0.920700	0.591580
C3181	C318	0.208090	0.867750	0.676410
C3191	C319	0.090820	0.048720	0.585260
C3201	C320	0.117660	0.027640	0.617560
C3211	C321	0.186830	0.367770	0.034830
C3221	C322	0.201100	0.321100	0.069300
C3231	C323	0.166290	0.414790	0.864250
C3241	C324	0.216200	0.408400	0.846000
C3251	C325	0.222940	0.264780	0.920700
C3261	C326	0.208090	0.247750	0.867750
C3271	C327	0.090820	0.275200	0.048720
C3281	C328	0.117660	0.237140	0.027640
C3291	C329	0.034830	0.410570	0.186830
C3301	C330	0.069300	0.408500	0.201100
C3311	C331	0.864250	0.554670	0.166290
C3321	C332	0.846000	0.529400	0.216200
C3331	C333	0.920700	0.591580	0.222940
C3341	C334	0.867750	0.676410	0.208090
C3351	C335	0.048720	0.585260	0.090820
C3361	C336	0.027640	0.617560	0.117660
C3371	C337	0.367770	0.186830	0.410570
C3381	C338	0.321100	0.201100	0.408500
C3391	C339	0.414790	0.166290	0.554670
C3401	C340	0.408400	0.216200	0.529400
C3411	C341	0.264780	0.222940	0.591580
C3421	C342	0.247750	0.208090	0.676410
C3431	C343	0.275200	0.090820	0.585260
C3441	C344	0.237140	0.117660	0.617560
C3451	C345	0.410570	0.034830	0.367770
C3461	C346	0.408500	0.069300	0.321100
C3471	C347	0.554670	0.864250	0.414790
C3481	C348	0.529400	0.846000	0.408400
C3491	C349	0.591580	0.920700	0.264780
C3501	C350	0.676410	0.867750	0.247750
C3511	C351	0.585260	0.048720	0.275200
C3521	C352	0.617560	0.027640	0.237140
C3531	C353	0.034830	0.367770	0.410570
C3541	C354	0.069300	0.321100	0.408500
C3551	C355	0.864250	0.414790	0.554670
C3561	C356	0.846000	0.408400	0.529400
C3571	C357	0.920700	0.264780	0.591580
C3581	C358	0.867750	0.247750	0.676410
C3591	C359	0.048720	0.275200	0.585260
C3601	C360	0.027640	0.237140	0.617560
C3611	C361	0.186830	0.410570	0.367770
C3621	C362	0.201100	0.408500	0.321100
C3631	C363	0.166290	0.554670	0.414790
C3641	C364	0.216200	0.529400	0.408400
C3651	C365	0.222940	0.591580	0.264780
C3661	C366	0.208090	0.676410	0.247750
C3671	C367	0.090820	0.585260	0.275200
C3681	C368	0.117660	0.617560	0.237140
C3691	C369	0.410570	0.186830	0.034830
C3701	C370	0.408500	0.201100	0.069300
C3711	C371	0.554670	0.166290	0.864250
C3721	C372	0.529400	0.216200	0.846000
C3731	C373	0.591580	0.222940	0.920700
C3741	C374	0.676410	0.208090	0.867750
C3751	C375	0.585260	0.090820	0.048720
C3761	C376	0.617560	0.117660	0.027640
C3771	C377	0.367770	0.034830	0.186830
C3781	C378	0.321100	0.069300	0.201100
C3791	C379	0.414790	0.864250	0.166290
C3801	C380	0.408400	0.846000	0.216200
C3811	C381	0.264780	0.920700	0.222940
C3821	C382	0.247750	0.867750	0.208090
C3831	C383	0.275200	0.048720	0.090820
C3841	C384	0.237140	0.027640	0.117660
C3851	C385	0.413700	0.586300	0.088900
C3861	C386	0.586300	0.413700	0.911100
C3871	C387	0.088900	0.911100	0.413700
C3881	C388	0.911100	0.088900	0.586300
C3891	C389	0.413700	0.088900	0.911100
C3901	C390	0.586300	0.911100	0.088900
C3911	C391	0.088900	0.413700	0.586300
C3921	C392	0.911100	0.586300	0.413700
C3931	C393	0.413700	0.911100	0.586300
C3941	C394	0.586300	0.088900	0.413700
C3951	C395	0.088900	0.586300	0.911100
C3961	C396	0.911100	0.413700	0.088900
C3971	C397	0.413700	0.586300	0.911100
C3981	C398	0.586300	0.413700	0.088900
C3991	C399	0.088900	0.911100	0.586300
C4001	C400	0.911100	0.088900	0.413700
C4011	C401	0.911100	0.586300	0.088900
C4021	C402	0.088900	0.413700	0.911100
C4031	C403	0.586300	0.911100	0.413700
C4041	C404	0.413700	0.088900	0.586300
C4051	C405	0.088900	0.586300	0.413700
C4061	C406	0.911100	0.413700	0.586300
C4071	C407	0.413700	0.911100	0.088900
C4081	C408	0.586300	0.088900	0.911100
C4091	C409	0.431300	0.431300	0.164780
C4101	C410	0.431300	0.431300	0.972620
C4111	C411	0.164780	0.972620	0.431300
C4121	C412	0.972620	0.164780	0.431300
C4131	C413	0.431300	0.164780	0.972620
C4141	C414	0.431300	0.972620	0.164780
C4151	C415	0.164780	0.431300	0.431300
C4161	C416	0.972620	0.431300	0.431300
C4171	C417	0.431300	0.972620	0.431300
C4181	C418	0.431300	0.164780	0.431300
C4191	C419	0.164780	0.431300	0.972620
C4201	C420	0.972620	0.431300	0.164780
C4211	C421	0.568700	0.568700	0.835220
C4221	C422	0.568700	0.568700	0.027380
C4231	C423	0.027380	0.835220	0.568700
C4241	C424	0.835220	0.027380	0.568700
C4251	C425	0.835220	0.568700	0.027380
C4261	C426	0.027380	0.568700	0.835220
C4271	C427	0.568700	0.835220	0.568700
C4281	C428	0.568700	0.027380	0.568700
C4291	C429	0.027380	0.568700	0.568700
C4301	C430	0.835220	0.568700	0.568700
C4311	C431	0.568700	0.835220	0.027380
C4321	C432	0.568700	0.027380	0.835220
C4331	C433	0.254700	0.521300	0.254700
C4341	C434	0.521300	0.254700	0.969300
C4351	C435	0.254700	0.969300	0.254700
C4361	C436	0.969300	0.254700	0.521300
C4371	C437	0.254700	0.254700	0.969300
C4381	C438	0.521300	0.969300	0.254700
C4391	C439	0.254700	0.254700	0.521300
C4401	C440	0.969300	0.521300	0.254700
C4411	C441	0.254700	0.969300	0.521300
C4421	C442	0.521300	0.254700	0.254700
C4431	C443	0.254700	0.521300	0.969300
C4441	C444	0.969300	0.254700	0.254700
C4451	C445	0.478700	0.745300	0.745300
C4461	C446	0.745300	0.478700	0.030700
C4471	C447	0.030700	0.745300	0.745300
C4481	C448	0.745300	0.030700	0.478700
C4491	C449	0.745300	0.745300	0.030700
C4501	C450	0.030700	0.478700	0.745300
C4511	C451	0.745300	0.745300	0.478700
C4521	C452	0.478700	0.030700	0.745300
C4531	C453	0.030700	0.745300	0.478700
C4541	C454	0.745300	0.478700	0.745300
C4551	C455	0.478700	0.745300	0.030700
C4561	C456	0.745300	0.030700	0.745300
C4571	C457	0.343700	0.529780	0.063260
C4581	C458	0.529780	0.343700	0.063260
C4591	C459	0.063260	0.063260	0.343700
C4601	C460	0.063260	0.063260	0.529780
C4611	C461	0.343700	0.063260	0.063260
C4621	C462	0.529780	0.063260	0.063260
C4631	C463	0.063260	0.343700	0.529780
C4641	C464	0.063260	0.529780	0.343700
C4651	C465	0.343700	0.063260	0.529780
C4661	C466	0.529780	0.063260	0.343700
C4671	C467	0.063260	0.529780	0.063260
C4681	C468	0.063260	0.343700	0.063260
C4691	C469	0.470220	0.656300	0.936740
C4701	C470	0.656300	0.470220	0.936740
C4711	C471	0.936740	0.936740	0.656300
C4721	C472	0.936740	0.936740	0.470220
C4731	C473	0.936740	0.656300	0.936740
C4741	C474	0.936740	0.470220	0.936740
C4751	C475	0.656300	0.936740	0.470220
C4761	C476	0.470220	0.936740	0.656300
C4771	C477	0.936740	0.656300	0.470220
C4781	C478	0.936740	0.470220	0.656300
C4791	C479	0.470220	0.936740	0.936740
C4801	C480	0.656300	0.936740	0.936740
N11	N1	0.321620	0.361980	0.211300
N21	N2	0.431400	0.540000	0.233000
N31	N3	0.278330	0.634250	0.191190
N41	N4	0.199310	0.648770	0.096170
N51	N5	0.381080	0.451840	0.172600
N61	N6	0.394040	0.555440	0.136180
N71	N7	0.286020	0.546600	0.215400
N81	N8	0.319870	0.547930	0.101430
N91	N9	0.361980	0.321620	0.105100
N101	N10	0.540000	0.431400	0.795600
N111	N11	0.634250	0.278330	0.896230
N121	N12	0.648770	0.199310	0.055750
N131	N13	0.451840	0.381080	0.994480
N141	N14	0.555440	0.394040	0.914340
N151	N15	0.546600	0.286020	0.951980
N161	N16	0.547930	0.319870	0.030770
N171	N17	0.211300	0.105100	0.321620
N181	N18	0.233000	0.795600	0.431400
N191	N19	0.191190	0.896230	0.278330
N201	N20	0.096170	0.055750	0.199310
N211	N21	0.172600	0.994480	0.381080
N221	N22	0.136180	0.914340	0.394040
N231	N23	0.215400	0.951980	0.286020
N241	N24	0.101430	0.030770	0.319870
N251	N25	0.105100	0.211300	0.361980
N261	N26	0.795600	0.233000	0.540000
N271	N27	0.896230	0.191190	0.634250
N281	N28	0.055750	0.096170	0.648770
N291	N29	0.994480	0.172600	0.451840
N301	N30	0.914340	0.136180	0.555440
N311	N31	0.951980	0.215400	0.546600
N321	N32	0.030770	0.101430	0.547930
N331	N33	0.321620	0.211300	0.105100
N341	N34	0.431400	0.233000	0.795600
N351	N35	0.278330	0.191190	0.896230
N361	N36	0.199310	0.096170	0.055750
N371	N37	0.381080	0.172600	0.994480
N381	N38	0.394040	0.136180	0.914340
N391	N39	0.286020	0.215400	0.951980
N401	N40	0.319870	0.101430	0.030770
N411	N41	0.361980	0.105100	0.211300
N421	N42	0.540000	0.795600	0.233000
N431	N43	0.634250	0.896230	0.191190
N441	N44	0.648770	0.055750	0.096170
N451	N45	0.451840	0.994480	0.172600
N461	N46	0.555440	0.914340	0.136180
N471	N47	0.546600	0.951980	0.215400
N481	N48	0.547930	0.030770	0.101430
N491	N49	0.211300	0.321620	0.361980
N501	N50	0.233000	0.431400	0.540000
N511	N51	0.191190	0.278330	0.634250
N521	N52	0.096170	0.199310	0.648770
N531	N53	0.172600	0.381080	0.451840
N541	N54	0.136180	0.394040	0.555440
N551	N55	0.215400	0.286020	0.546600
N561	N56	0.101430	0.319870	0.547930
N571	N57	0.105100	0.361980	0.321620
N581	N58	0.795600	0.540000	0.431400
N591	N59	0.896230	0.634250	0.278330
N601	N60	0.055750	0.648770	0.199310
N611	N61	0.994480	0.451840	0.381080
N621	N62	0.914340	0.555440	0.394040
N631	N63	0.951980	0.546600	0.286020
N641	N64	0.030770	0.547930	0.319870
N651	N65	0.321620	0.105100	0.361980
N661	N66	0.431400	0.795600	0.540000
N671	N67	0.278330	0.896230	0.634250
N681	N68	0.199310	0.055750	0.648770
N691	N69	0.381080	0.994480	0.451840
N701	N70	0.394040	0.914340	0.555440
N711	N71	0.286020	0.951980	0.546600
N721	N72	0.319870	0.030770	0.547930
N731	N73	0.361980	0.211300	0.321620
N741	N74	0.540000	0.233000	0.431400
N751	N75	0.634250	0.191190	0.278330
N761	N76	0.648770	0.096170	0.199310
N771	N77	0.451840	0.172600	0.381080
N781	N78	0.555440	0.136180	0.394040
N791	N79	0.546600	0.215400	0.286020
N801	N80	0.547930	0.101430	0.319870
N811	N81	0.211300	0.361980	0.105100
N821	N82	0.233000	0.540000	0.795600
N831	N83	0.191190	0.634250	0.896230
N841	N84	0.096170	0.648770	0.055750
N851	N85	0.172600	0.451840	0.994480
N861	N86	0.136180	0.555440	0.914340
N871	N87	0.215400	0.546600	0.951980
N881	N88	0.101430	0.547930	0.030770
N891	N89	0.105100	0.321620	0.211300
N901	N90	0.795600	0.431400	0.233000
N911	N91	0.896230	0.278330	0.191190
N921	N92	0.055750	0.199310	0.096170
N931	N93	0.994480	0.381080	0.172600
N941	N94	0.914340	0.394040	0.136180
N951	N95	0.951980	0.286020	0.215400
N961	N96	0.030770	0.319870	0.101430
N971	N97	0.638020	0.678380	0.788700
N981	N98	0.460000	0.568600	0.767000
N991	N99	0.365750	0.721670	0.808810
N1001	N100	0.351230	0.800690	0.903830
N1011	N101	0.548160	0.618920	0.827400
N1021	N102	0.444560	0.605960	0.863820
N1031	N103	0.453400	0.713980	0.784600
N1041	N104	0.452070	0.680130	0.898570
N1051	N105	0.678380	0.638020	0.894900
N1061	N106	0.568600	0.460000	0.204400
N1071	N107	0.721670	0.365750	0.103770
N1081	N108	0.800690	0.351230	0.944250
N1091	N109	0.618920	0.548160	0.005520
N1101	N110	0.605960	0.444560	0.085660
N1111	N111	0.713980	0.453400	0.048020
N1121	N112	0.680130	0.452070	0.969230
N1131	N113	0.894900	0.788700	0.678380
N1141	N114	0.204400	0.767000	0.568600
N1151	N115	0.103770	0.808810	0.721670
N1161	N116	0.944250	0.903830	0.800690
N1171	N117	0.005520	0.827400	0.618920
N1181	N118	0.085660	0.863820	0.605960
N1191	N119	0.048020	0.784600	0.713980
N1201	N120	0.969230	0.898570	0.680130
N1211	N121	0.788700	0.894900	0.638020
N1221	N122	0.767000	0.204400	0.460000
N1231	N123	0.808810	0.103770	0.365750
N1241	N124	0.903830	0.944250	0.351230
N1251	N125	0.827400	0.005520	0.548160
N1261	N126	0.863820	0.085660	0.444560
N1271	N127	0.784600	0.048020	0.453400
N1281	N128	0.898570	0.969230	0.452070
N1291	N129	0.788700	0.678380	0.894900
N1301	N130	0.767000	0.568600	0.204400
N1311	N131	0.808810	0.721670	0.103770
N1321	N132	0.903830	0.800690	0.944250
N1331	N133	0.827400	0.618920	0.005520
N1341	N134	0.863820	0.605960	0.085660
N1351	N135	0.784600	0.713980	0.048020
N1361	N136	0.898570	0.680130	0.969230
N1371	N137	0.894900	0.638020	0.788700
N1381	N138	0.204400	0.460000	0.767000
N1391	N139	0.103770	0.365750	0.808810
N1401	N140	0.944250	0.351230	0.903830
N1411	N141	0.005520	0.548160	0.827400
N1421	N142	0.085660	0.444560	0.863820
N1431	N143	0.048020	0.453400	0.784600
N1441	N144	0.969230	0.452070	0.898570
N1451	N145	0.678380	0.788700	0.638020
N1461	N146	0.568600	0.767000	0.460000
N1471	N147	0.721670	0.808810	0.365750
N1481	N148	0.800690	0.903830	0.351230
N1491	N149	0.618920	0.827400	0.548160
N1501	N150	0.605960	0.863820	0.444560
N1511	N151	0.713980	0.784600	0.453400
N1521	N152	0.680130	0.898570	0.452070
N1531	N153	0.638020	0.894900	0.678380
N1541	N154	0.460000	0.204400	0.568600
N1551	N155	0.365750	0.103770	0.721670
N1561	N156	0.351230	0.944250	0.800690
N1571	N157	0.548160	0.005520	0.618920
N1581	N158	0.444560	0.085660	0.605960
N1591	N159	0.453400	0.048020	0.713980
N1601	N160	0.452070	0.969230	0.680130
N1611	N161	0.894900	0.678380	0.638020
N1621	N162	0.204400	0.568600	0.460000
N1631	N163	0.103770	0.721670	0.365750
N1641	N164	0.944250	0.800690	0.351230
N1651	N165	0.005520	0.618920	0.548160
N1661	N166	0.085660	0.605960	0.444560
N1671	N167	0.048020	0.713980	0.453400
N1681	N168	0.969230	0.680130	0.452070
N1691	N169	0.788700	0.638020	0.678380
N1701	N170	0.767000	0.460000	0.568600
N1711	N171	0.808810	0.365750	0.721670
N1721	N172	0.903830	0.351230	0.800690
N1731	N173	0.827400	0.548160	0.618920
N1741	N174	0.863820	0.444560	0.605960
N1751	N175	0.784600	0.453400	0.713980
N1761	N176	0.898570	0.452070	0.680130
N1771	N177	0.638020	0.788700	0.894900
N1781	N178	0.460000	0.767000	0.204400
N1791	N179	0.365750	0.808810	0.103770
N1801	N180	0.351230	0.903830	0.944250
N1811	N181	0.548160	0.827400	0.005520
N1821	N182	0.444560	0.863820	0.085660
N1831	N183	0.453400	0.784600	0.048020
N1841	N184	0.452070	0.898570	0.969230
N1851	N185	0.678380	0.894900	0.788700
N1861	N186	0.568600	0.204400	0.767000
N1871	N187	0.721670	0.103770	0.808810
N1881	N188	0.800690	0.944250	0.903830
N1891	N189	0.618920	0.005520	0.827400
N1901	N190	0.605960	0.085660	0.863820
N1911	N191	0.713980	0.048020	0.784600
N1921	N192	0.680130	0.969230	0.898570
N1931	N193	0.678380	0.638020	0.788700
N1941	N194	0.568600	0.460000	0.767000
N1951	N195	0.721670	0.365750	0.808810
N1961	N196	0.800690	0.351230	0.903830
N1971	N197	0.618920	0.548160	0.827400
N1981	N198	0.605960	0.444560	0.863820
N1991	N199	0.713980	0.453400	0.784600
N2001	N200	0.680130	0.452070	0.898570
N2011	N201	0.638020	0.678380	0.894900
N2021	N202	0.460000	0.568600	0.204400
N2031	N203	0.365750	0.721670	0.103770
N2041	N204	0.351230	0.800690	0.944250
N2051	N205	0.548160	0.618920	0.005520
N2061	N206	0.444560	0.605960	0.085660
N2071	N207	0.453400	0.713980	0.048020
N2081	N208	0.452070	0.680130	0.969230
N2091	N209	0.788700	0.894900	0.678380
N2101	N210	0.767000	0.204400	0.568600
N2111	N211	0.808810	0.103770	0.721670
N2121	N212	0.903830	0.944250	0.800690
N2131	N213	0.827400	0.005520	0.618920
N2141	N214	0.863820	0.085660	0.605960
N2151	N215	0.784600	0.048020	0.713980
N2161	N216	0.898570	0.969230	0.680130
N2171	N217	0.894900	0.788700	0.638020
N2181	N218	0.204400	0.767000	0.460000
N2191	N219	0.103770	0.808810	0.365750
N2201	N220	0.944250	0.903830	0.351230
N2211	N221	0.005520	0.827400	0.548160
N2221	N222	0.085660	0.863820	0.444560
N2231	N223	0.048020	0.784600	0.453400
N2241	N224	0.969230	0.898570	0.452070
N2251	N225	0.678380	0.788700	0.894900
N2261	N226	0.568600	0.767000	0.204400
N2271	N227	0.721670	0.808810	0.103770
N2281	N228	0.800690	0.903830	0.944250
N2291	N229	0.618920	0.827400	0.005520
N2301	N230	0.605960	0.863820	0.085660
N2311	N231	0.713980	0.784600	0.048020
N2321	N232	0.680130	0.898570	0.969230
N2331	N233	0.638020	0.894900	0.788700
N2341	N234	0.460000	0.204400	0.767000
N2351	N235	0.365750	0.103770	0.808810
N2361	N236	0.351230	0.944250	0.903830
N2371	N237	0.548160	0.005520	0.827400
N2381	N238	0.444560	0.085660	0.863820
N2391	N239	0.453400	0.048020	0.784600
N2401	N240	0.452070	0.969230	0.898570
N2411	N241	0.788700	0.678380	0.638020
N2421	N242	0.767000	0.568600	0.460000
N2431	N243	0.808810	0.721670	0.365750
N2441	N244	0.903830	0.800690	0.351230
N2451	N245	0.827400	0.618920	0.548160
N2461	N246	0.863820	0.605960	0.444560
N2471	N247	0.784600	0.713980	0.453400
N2481	N248	0.898570	0.680130	0.452070
N2491	N249	0.894900	0.638020	0.678380
N2501	N250	0.204400	0.460000	0.568600
N2511	N251	0.103770	0.365750	0.721670
N2521	N252	0.944250	0.351230	0.800690
N2531	N253	0.005520	0.548160	0.618920
N2541	N254	0.085660	0.444560	0.605960
N2551	N255	0.048020	0.453400	0.713980
N2561	N256	0.969230	0.452070	0.680130
N2571	N257	0.678380	0.894900	0.638020
N2581	N258	0.568600	0.204400	0.460000
N2591	N259	0.721670	0.103770	0.365750
N2601	N260	0.800690	0.944250	0.351230
N2611	N261	0.618920	0.005520	0.548160
N2621	N262	0.605960	0.085660	0.444560
N2631	N263	0.713980	0.048020	0.453400
N2641	N264	0.680130	0.969230	0.452070
N2651	N265	0.638020	0.788700	0.678380
N2661	N266	0.460000	0.767000	0.568600
N2671	N267	0.365750	0.808810	0.721670
N2681	N268	0.351230	0.903830	0.800690
N2691	N269	0.548160	0.827400	0.618920
N2701	N270	0.444560	0.863820	0.605960
N2711	N271	0.453400	0.784600	0.713980
N2721	N272	0.452070	0.898570	0.680130
N2731	N273	0.788700	0.638020	0.894900
N2741	N274	0.767000	0.460000	0.204400
N2751	N275	0.808810	0.365750	0.103770
N2761	N276	0.903830	0.351230	0.944250
N2771	N277	0.827400	0.548160	0.005520
N2781	N278	0.863820	0.444560	0.085660
N2791	N279	0.784600	0.453400	0.048020
N2801	N280	0.898570	0.452070	0.969230
N2811	N281	0.894900	0.678380	0.788700
N2821	N282	0.204400	0.568600	0.767000
N2831	N283	0.103770	0.721670	0.808810
N2841	N284	0.944250	0.800690	0.903830
N2851	N285	0.005520	0.618920	0.827400
N2861	N286	0.085660	0.605960	0.863820
N2871	N287	0.048020	0.713980	0.784600
N2881	N288	0.969230	0.680130	0.898570
N2891	N289	0.361980	0.321620	0.211300
N2901	N290	0.540000	0.431400	0.233000
N2911	N291	0.634250	0.278330	0.191190
N2921	N292	0.648770	0.199310	0.096170
N2931	N293	0.451840	0.381080	0.172600
N2941	N294	0.555440	0.394040	0.136180
N2951	N295	0.546600	0.286020	0.215400
N2961	N296	0.547930	0.319870	0.101430
N2971	N297	0.321620	0.361980	0.105100
N2981	N298	0.431400	0.540000	0.795600
N2991	N299	0.278330	0.634250	0.896230
N3001	N300	0.199310	0.648770	0.055750
N3011	N301	0.381080	0.451840	0.994480
N3021	N302	0.394040	0.555440	0.914340
N3031	N303	0.286020	0.546600	0.951980
N3041	N304	0.319870	0.547930	0.030770
N3051	N305	0.105100	0.211300	0.321620
N3061	N306	0.795600	0.233000	0.431400
N3071	N307	0.896230	0.191190	0.278330
N3081	N308	0.055750	0.096170	0.199310
N3091	N309	0.994480	0.172600	0.381080
N3101	N310	0.914340	0.136180	0.394040
N3111	N311	0.951980	0.215400	0.286020
N3121	N312	0.030770	0.101430	0.319870
N3131	N313	0.211300	0.105100	0.361980
N3141	N314	0.233000	0.795600	0.540000
N3151	N315	0.191190	0.896230	0.634250
N3161	N316	0.096170	0.055750	0.648770
N3171	N317	0.172600	0.994480	0.451840
N3181	N318	0.136180	0.914340	0.555440
N3191	N319	0.215400	0.951980	0.546600
N3201	N320	0.101430	0.030770	0.547930
N3211	N321	0.211300	0.321620	0.105100
N3221	N322	0.233000	0.431400	0.795600
N3231	N323	0.191190	0.278330	0.896230
N3241	N324	0.096170	0.199310	0.055750
N3251	N325	0.172600	0.381080	0.994480
N3261	N326	0.136180	0.394040	0.914340
N3271	N327	0.215400	0.286020	0.951980
N3281	N328	0.101430	0.319870	0.030770
N3291	N329	0.105100	0.361980	0.211300
N3301	N330	0.795600	0.540000	0.233000
N3311	N331	0.896230	0.634250	0.191190
N3321	N332	0.055750	0.648770	0.096170
N3331	N333	0.994480	0.451840	0.172600
N3341	N334	0.914340	0.555440	0.136180
N3351	N335	0.951980	0.546600	0.215400
N3361	N336	0.030770	0.547930	0.101430
N3371	N337	0.321620	0.211300	0.361980
N3381	N338	0.431400	0.233000	0.540000
N3391	N339	0.278330	0.191190	0.634250
N3401	N340	0.199310	0.096170	0.648770
N3411	N341	0.381080	0.172600	0.451840
N3421	N342	0.394040	0.136180	0.555440
N3431	N343	0.286020	0.215400	0.546600
N3441	N344	0.319870	0.101430	0.547930
N3451	N345	0.361980	0.105100	0.321620
N3461	N346	0.540000	0.795600	0.431400
N3471	N347	0.634250	0.896230	0.278330
N3481	N348	0.648770	0.055750	0.199310
N3491	N349	0.451840	0.994480	0.381080
N3501	N350	0.555440	0.914340	0.394040
N3511	N351	0.546600	0.951980	0.286020
N3521	N352	0.547930	0.030770	0.319870
N3531	N353	0.105100	0.321620	0.361980
N3541	N354	0.795600	0.431400	0.540000
N3551	N355	0.896230	0.278330	0.634250
N3561	N356	0.055750	0.199310	0.648770
N3571	N357	0.994480	0.381080	0.451840
N3581	N358	0.914340	0.394040	0.555440
N3591	N359	0.951980	0.286020	0.546600
N3601	N360	0.030770	0.319870	0.547930
N3611	N361	0.211300	0.361980	0.321620
N3621	N362	0.233000	0.540000	0.431400
N3631	N363	0.191190	0.634250	0.278330
N3641	N364	0.096170	0.648770	0.199310
N3651	N365	0.172600	0.451840	0.381080
N3661	N366	0.136180	0.555440	0.394040
N3671	N367	0.215400	0.546600	0.286020
N3681	N368	0.101430	0.547930	0.319870
N3691	N369	0.361980	0.211300	0.105100
N3701	N370	0.540000	0.233000	0.795600
N3711	N371	0.634250	0.191190	0.896230
N3721	N372	0.648770	0.096170	0.055750
N3731	N373	0.451840	0.172600	0.994480
N3741	N374	0.555440	0.136180	0.914340
N3751	N375	0.546600	0.215400	0.951980
N3761	N376	0.547930	0.101430	0.030770
N3771	N377	0.321620	0.105100	0.211300
N3781	N378	0.431400	0.795600	0.233000
N3791	N379	0.278330	0.896230	0.191190
N3801	N380	0.199310	0.055750	0.096170
N3811	N381	0.381080	0.994480	0.172600
N3821	N382	0.394040	0.914340	0.136180
N3831	N383	0.286020	0.951980	0.215400
N3841	N384	0.319870	0.030770	0.101430
