data_MIHHOA_freeONLY_PM
_symmetry_space_group_name_H-M	'P1'
_cell_length_a	13.781800
_cell_length_b	15.061700
_cell_length_c	19.355500
_cell_angle_alpha	90.000000
_cell_angle_beta	90.000000
_cell_angle_gamma	90.000000
_symmetry_Int_Tables_number 1

loop_
_symmetry_equiv_pos_as_xyz
'x,y,z'

loop_
_atom_site_label
_atom_site_type_symbol
_atom_site_fract_x
_atom_site_fract_y
_atom_site_fract_z
Cd11	Cd1	0.697680	0.860970	0.033700
Cd21	Cd2	0.802320	0.139030	0.533700
Cd31	Cd3	0.302320	0.360970	0.466300
Cd41	Cd4	0.197680	0.639030	0.966300
H11	H1	0.756000	0.965100	0.891800
H21	H2	0.666100	0.908400	0.294500
H31	H3	0.599600	0.793300	0.433300
H41	H4	0.768200	0.827000	0.891200
H51	H5	0.915400	0.788400	0.942400
H61	H6	0.063900	0.871700	0.088500
H71	H7	0.888900	0.939700	0.766000
H81	H8	0.959400	0.885100	0.667900
H91	H9	0.111700	0.942400	0.985800
H101	H10	0.831300	0.681500	0.895600
H111	H11	0.963800	0.591300	0.686300
H121	H12	0.004400	0.017500	0.065200
H131	H13	0.998200	0.055400	0.989600
H141	H14	0.848100	0.009100	0.976300
H151	H15	0.846500	0.998900	0.057000
H161	H16	0.695800	0.702300	0.380100
H171	H17	0.989100	0.949200	0.893800
H181	H18	0.042200	0.856900	0.899200
H191	H19	0.670900	0.935300	0.178600
H201	H20	0.800800	0.544900	0.111800
H211	H21	0.766300	0.613000	0.309500
H221	H22	0.926700	0.489800	0.769400
H231	H23	0.755000	0.681300	0.077100
H241	H24	0.910400	0.857400	0.104800
H251	H25	0.913000	0.772500	0.057900
H261	H26	0.826100	0.481000	0.981200
H271	H27	0.888500	0.567500	0.973700
H281	H28	0.778200	0.568700	0.954000
H291	H29	0.879600	0.401100	0.288400
H301	H30	0.917600	0.498100	0.300100
H311	H31	0.814000	0.471000	0.326200
H321	H32	0.765700	0.877500	0.398100
H331	H33	0.718000	0.753300	0.498400
H341	H34	0.714100	0.857600	0.503500
H351	H35	0.002600	0.838900	0.414800
H361	H36	0.927600	0.910900	0.391200
H371	H37	0.844900	0.660900	0.421200
H381	H38	0.956100	0.681700	0.414400
H391	H39	0.968000	0.721300	0.523400
H401	H40	0.868100	0.672100	0.533100
H411	H41	0.843700	0.815400	0.574400
H421	H42	0.977800	0.879600	0.519300
H431	H43	0.744000	0.034900	0.391800
H441	H44	0.833900	0.091600	0.794500
H451	H45	0.900400	0.206700	0.933300
H461	H46	0.731800	0.173000	0.391200
H471	H47	0.584600	0.211600	0.442400
H481	H48	0.436100	0.128300	0.588500
H491	H49	0.611100	0.060300	0.266000
H501	H50	0.540600	0.114900	0.167900
H511	H51	0.388300	0.057600	0.485800
H521	H52	0.668700	0.318500	0.395600
H531	H53	0.536200	0.408700	0.186300
H541	H54	0.495600	0.982500	0.565200
H551	H55	0.501800	0.944600	0.489600
H561	H56	0.651900	0.990900	0.476300
H571	H57	0.653500	0.001100	0.557000
H581	H58	0.804200	0.297700	0.880100
H591	H59	0.510900	0.050800	0.393800
H601	H60	0.457800	0.143100	0.399200
H611	H61	0.829100	0.064700	0.678600
H621	H62	0.699200	0.455100	0.611800
H631	H63	0.733700	0.387000	0.809500
H641	H64	0.573300	0.510200	0.269400
H651	H65	0.745000	0.318700	0.577100
H661	H66	0.589600	0.142600	0.604800
H671	H67	0.587000	0.227500	0.557900
H681	H68	0.673900	0.519000	0.481200
H691	H69	0.611500	0.432500	0.473700
H701	H70	0.721800	0.431300	0.454000
H711	H71	0.620400	0.598900	0.788400
H721	H72	0.582400	0.501900	0.800100
H731	H73	0.686000	0.529000	0.826200
H741	H74	0.734300	0.122500	0.898100
H751	H75	0.782000	0.246700	0.998400
H761	H76	0.785900	0.142400	0.003500
H771	H77	0.497400	0.161100	0.914800
H781	H78	0.572400	0.089100	0.891200
H791	H79	0.655100	0.339100	0.921200
H801	H80	0.543900	0.318300	0.914400
H811	H81	0.532000	0.278700	0.023400
H821	H82	0.631900	0.327900	0.033100
H831	H83	0.656300	0.184600	0.074400
H841	H84	0.522200	0.120400	0.019300
H851	H85	0.244000	0.465100	0.608200
H861	H86	0.333900	0.408400	0.205500
H871	H87	0.400400	0.293300	0.066700
H881	H88	0.231800	0.327000	0.608800
H891	H89	0.084600	0.288400	0.557600
H901	H90	0.936100	0.371700	0.411500
H911	H91	0.111100	0.439700	0.734000
H921	H92	0.040600	0.385100	0.832100
H931	H93	0.888300	0.442400	0.514200
H941	H94	0.168700	0.181500	0.604400
H951	H95	0.036200	0.091300	0.813700
H961	H96	0.995600	0.517500	0.434800
H971	H97	0.001800	0.555400	0.510400
H981	H98	0.151900	0.509100	0.523700
H991	H99	0.153500	0.498900	0.443000
H1001	H100	0.304200	0.202300	0.119900
H1011	H101	0.010900	0.449200	0.606200
H1021	H102	0.957800	0.356900	0.600800
H1031	H103	0.329100	0.435300	0.321400
H1041	H104	0.199200	0.044900	0.388200
H1051	H105	0.233700	0.113000	0.190500
H1061	H106	0.073300	0.989800	0.730600
H1071	H107	0.245000	0.181300	0.422900
H1081	H108	0.089600	0.357400	0.395200
H1091	H109	0.087000	0.272500	0.442100
H1101	H110	0.173900	0.981000	0.518800
H1111	H111	0.111500	0.067500	0.526300
H1121	H112	0.221800	0.068700	0.546000
H1131	H113	0.120400	0.901100	0.211600
H1141	H114	0.082400	0.998100	0.199900
H1151	H115	0.186000	0.971000	0.173800
H1161	H116	0.234300	0.377500	0.101900
H1171	H117	0.282000	0.253300	0.001600
H1181	H118	0.285900	0.357600	0.996500
H1191	H119	0.997400	0.338900	0.085200
H1201	H120	0.072400	0.410900	0.108800
H1211	H121	0.155100	0.160900	0.078800
H1221	H122	0.043900	0.181700	0.085600
H1231	H123	0.032000	0.221300	0.976600
H1241	H124	0.131900	0.172100	0.966900
H1251	H125	0.156300	0.315400	0.925600
H1261	H126	0.022200	0.379600	0.980700
H1271	H127	0.256000	0.534900	0.108200
H1281	H128	0.166100	0.591600	0.705500
H1291	H129	0.099600	0.706700	0.566700
H1301	H130	0.268200	0.673000	0.108800
H1311	H131	0.415400	0.711600	0.057600
H1321	H132	0.563900	0.628300	0.911500
H1331	H133	0.388900	0.560300	0.234000
H1341	H134	0.459400	0.614900	0.332100
H1351	H135	0.611700	0.557600	0.014200
H1361	H136	0.331300	0.818500	0.104400
H1371	H137	0.463800	0.908700	0.313700
H1381	H138	0.504400	0.482500	0.934800
H1391	H139	0.498200	0.444600	0.010400
H1401	H140	0.348100	0.490900	0.023700
H1411	H141	0.346500	0.501100	0.943000
H1421	H142	0.195800	0.797700	0.619900
H1431	H143	0.489100	0.550800	0.106200
H1441	H144	0.542200	0.643100	0.100800
H1451	H145	0.170900	0.564700	0.821400
H1461	H146	0.300800	0.955100	0.888200
H1471	H147	0.266300	0.887000	0.690500
H1481	H148	0.426700	0.010200	0.230600
H1491	H149	0.255000	0.818700	0.922900
H1501	H150	0.410400	0.642600	0.895200
H1511	H151	0.413000	0.727500	0.942100
H1521	H152	0.326100	0.019000	0.018800
H1531	H153	0.388500	0.932500	0.026300
H1541	H154	0.278200	0.931300	0.046000
H1551	H155	0.379600	0.098900	0.711600
H1561	H156	0.417600	0.001900	0.699900
H1571	H157	0.314000	0.029000	0.673800
H1581	H158	0.265700	0.622500	0.601900
H1591	H159	0.218000	0.746700	0.501600
H1601	H160	0.214100	0.642400	0.496500
H1611	H161	0.502600	0.661100	0.585200
H1621	H162	0.427600	0.589100	0.608800
H1631	H163	0.344900	0.839100	0.578800
H1641	H164	0.456100	0.818300	0.585600
H1651	H165	0.468000	0.778700	0.476600
H1661	H166	0.368100	0.827900	0.466900
H1671	H167	0.343700	0.684600	0.425600
H1681	H168	0.477800	0.620400	0.480700
C11	C1	0.682900	0.862600	0.264550
C21	C2	0.826800	0.860500	0.879190
C31	C3	0.901200	0.852000	0.938110
C41	C4	0.704500	0.780200	0.290860
C51	C5	0.927100	0.701400	0.741400
C61	C6	0.034400	0.850900	0.045350
C71	C7	0.732500	0.734500	0.171830
C81	C8	0.870000	0.822600	0.813950
C91	C9	0.884600	0.729500	0.805070
C101	C10	0.898300	0.878800	0.761510
C111	C11	0.940700	0.845000	0.701900
C121	C12	0.043500	0.925800	0.992000
C131	C13	0.859800	0.664500	0.854100
C141	C14	0.939600	0.610200	0.728700
C151	C15	0.985900	0.003700	0.018100
C161	C16	0.878200	0.978910	0.015040
C171	C17	0.693300	0.765870	0.369510
C181	C18	0.876800	0.577500	0.841800
C191	C19	0.733800	0.713500	0.243420
C201	C20	0.999000	0.897700	0.923000
C211	C21	0.685700	0.878600	0.194160
C221	C22	0.785300	0.587600	0.144700
C231	C23	0.764400	0.627900	0.262800
C241	C24	0.916500	0.549800	0.777800
C251	C25	0.757600	0.668600	0.124100
C261	C26	0.791300	0.566300	0.214700
C271	C27	0.926400	0.835700	0.059000
C281	C28	0.091200	0.770000	0.021020
C291	C29	0.836300	0.533600	0.954100
C301	C30	0.861400	0.462600	0.290400
C311	C31	0.771500	0.814500	0.410130
C321	C32	0.752800	0.807700	0.487980
C331	C33	0.935800	0.858200	0.419300
C341	C34	0.894600	0.704800	0.430900
C351	C35	0.900700	0.719800	0.508700
C361	C36	0.851900	0.807800	0.524400
C371	C37	0.915600	0.881500	0.494700
C381	C38	0.871600	0.974000	0.506800
C391	C39	0.817100	0.137400	0.764550
C401	C40	0.673200	0.139500	0.379190
C411	C41	0.598800	0.148000	0.438110
C421	C42	0.795500	0.219800	0.790860
C431	C43	0.572900	0.298600	0.241400
C441	C44	0.465600	0.149100	0.545350
C451	C45	0.767500	0.265500	0.671830
C461	C46	0.630000	0.177400	0.313950
C471	C47	0.615400	0.270500	0.305070
C481	C48	0.601700	0.121200	0.261510
C491	C49	0.559300	0.155000	0.201900
C501	C50	0.456500	0.074200	0.492000
C511	C51	0.640200	0.335500	0.354100
C521	C52	0.560400	0.389800	0.228700
C531	C53	0.514100	0.996300	0.518100
C541	C54	0.621800	0.021090	0.515040
C551	C55	0.806700	0.234130	0.869510
C561	C56	0.623200	0.422500	0.341800
C571	C57	0.766200	0.286500	0.743420
C581	C58	0.501000	0.102300	0.423000
C591	C59	0.814300	0.121400	0.694160
C601	C60	0.714700	0.412400	0.644700
C611	C61	0.735600	0.372100	0.762800
C621	C62	0.583500	0.450200	0.277800
C631	C63	0.742400	0.331400	0.624100
C641	C64	0.708700	0.433700	0.714700
C651	C65	0.573600	0.164300	0.559000
C661	C66	0.408800	0.230000	0.521020
C671	C67	0.663700	0.466400	0.454100
C681	C68	0.638600	0.537400	0.790400
C691	C69	0.728500	0.185500	0.910130
C701	C70	0.747200	0.192300	0.987980
C711	C71	0.564200	0.141800	0.919300
C721	C72	0.605400	0.295200	0.930900
C731	C73	0.599300	0.280200	0.008700
C741	C74	0.648100	0.192200	0.024400
C751	C75	0.584400	0.118500	0.994700
C761	C76	0.628400	0.026000	0.006800
C771	C77	0.317100	0.362600	0.235450
C781	C78	0.173200	0.360500	0.620810
C791	C79	0.098800	0.352000	0.561890
C801	C80	0.295500	0.280200	0.209140
C811	C81	0.072900	0.201400	0.758600
C821	C82	0.965600	0.350900	0.454650
C831	C83	0.267500	0.234500	0.328170
C841	C84	0.130000	0.322600	0.686050
C851	C85	0.115400	0.229500	0.694930
C861	C86	0.101700	0.378800	0.738490
C871	C87	0.059300	0.345000	0.798100
C881	C88	0.956500	0.425800	0.508000
C891	C89	0.140200	0.164500	0.645900
C901	C90	0.060400	0.110200	0.771300
C911	C91	0.014100	0.503700	0.481900
C921	C92	0.121800	0.478910	0.484960
C931	C93	0.306700	0.265870	0.130490
C941	C94	0.123200	0.077500	0.658200
C951	C95	0.266200	0.213500	0.256580
C961	C96	0.001000	0.397700	0.577000
C971	C97	0.314300	0.378600	0.305840
C981	C98	0.214700	0.087600	0.355300
C991	C99	0.235600	0.127900	0.237200
C1001	C100	0.083500	0.049800	0.722200
C1011	C101	0.242400	0.168600	0.375900
C1021	C102	0.208700	0.066300	0.285300
C1031	C103	0.073600	0.335700	0.441000
C1041	C104	0.908800	0.270000	0.478980
C1051	C105	0.163700	0.033600	0.545900
C1061	C106	0.138600	0.962600	0.209600
C1071	C107	0.228500	0.314500	0.089870
C1081	C108	0.247200	0.307700	0.012020
C1091	C109	0.064200	0.358200	0.080700
C1101	C110	0.105400	0.204800	0.069100
C1111	C111	0.099300	0.219800	0.991300
C1121	C112	0.148100	0.307800	0.975600
C1131	C113	0.084400	0.381500	0.005300
C1141	C114	0.128400	0.474000	0.993200
C1151	C115	0.182900	0.637400	0.735450
C1161	C116	0.326800	0.639500	0.120810
C1171	C117	0.401200	0.648000	0.061890
C1181	C118	0.204500	0.719800	0.709140
C1191	C119	0.427100	0.798600	0.258600
C1201	C120	0.534400	0.649100	0.954650
C1211	C121	0.232500	0.765500	0.828170
C1221	C122	0.370000	0.677400	0.186050
C1231	C123	0.384600	0.770500	0.194930
C1241	C124	0.398300	0.621200	0.238490
C1251	C125	0.440700	0.655000	0.298100
C1261	C126	0.543500	0.574200	0.008000
C1271	C127	0.359800	0.835500	0.145900
C1281	C128	0.439600	0.889800	0.271300
C1291	C129	0.485900	0.496300	0.981900
C1301	C130	0.378200	0.521090	0.984960
C1311	C131	0.193300	0.734130	0.630490
C1321	C132	0.376800	0.922500	0.158200
C1331	C133	0.233800	0.786500	0.756580
C1341	C134	0.499000	0.602300	0.077000
C1351	C135	0.185700	0.621400	0.805840
C1361	C136	0.285300	0.912400	0.855300
C1371	C137	0.264400	0.872100	0.737200
C1381	C138	0.416500	0.950200	0.222200
C1391	C139	0.257600	0.831400	0.875900
C1401	C140	0.291300	0.933700	0.785300
C1411	C141	0.426400	0.664300	0.941000
C1421	C142	0.591200	0.730000	0.978980
C1431	C143	0.336300	0.966400	0.045900
C1441	C144	0.361400	0.037400	0.709600
C1451	C145	0.271500	0.685500	0.589870
C1461	C146	0.252800	0.692300	0.512020
C1471	C147	0.435800	0.641800	0.580700
C1481	C148	0.394600	0.795200	0.569100
C1491	C149	0.400700	0.780200	0.491300
C1501	C150	0.351900	0.692200	0.475600
C1511	C151	0.415600	0.618500	0.505300
C1521	C152	0.371600	0.526000	0.493200
N11	N1	0.708200	0.817700	0.148230
N21	N2	0.956300	0.759100	0.690230
N31	N3	0.864000	0.881190	0.007370
N41	N4	0.871400	0.788100	0.393490
N51	N5	0.791800	0.182300	0.648230
N61	N6	0.543700	0.240900	0.190230
N71	N7	0.636000	0.118810	0.507370
N81	N8	0.628600	0.211900	0.893490
N91	N9	0.291800	0.317700	0.351770
N101	N10	0.043700	0.259100	0.809770
N111	N11	0.136000	0.381190	0.492630
N121	N12	0.128600	0.288100	0.106510
N131	N13	0.208200	0.682300	0.851770
N141	N14	0.456300	0.740900	0.309770
N151	N15	0.364000	0.618810	0.992630
N161	N16	0.371400	0.711900	0.606510
O11	O1	0.801200	0.950940	0.866550
O21	O2	0.605400	0.801100	0.391600
O31	O3	0.859600	0.509800	0.886880
O41	O4	0.825000	0.486200	0.232000
O51	O5	0.181620	0.771410	0.027080
O61	O6	0.048300	0.707570	0.992140
O71	O7	0.848200	0.021620	0.456480
O81	O8	0.860700	0.999630	0.567650
O91	O9	0.698800	0.049060	0.366550
O101	O10	0.894600	0.198900	0.891600
O111	O11	0.640400	0.490200	0.386880
O121	O12	0.675000	0.513800	0.732000
O131	O13	0.318380	0.228590	0.527080
O141	O14	0.451700	0.292430	0.492140
O151	O15	0.651800	0.978380	0.956480
O161	O16	0.639300	0.000370	0.067650
O171	O17	0.198800	0.450940	0.633450
O181	O18	0.394600	0.301100	0.108400
O191	O19	0.140400	0.009800	0.613120
O201	O20	0.175000	0.986200	0.268000
O211	O21	0.818380	0.271410	0.472920
O221	O22	0.951700	0.207570	0.507860
O231	O23	0.151800	0.521620	0.043520
O241	O24	0.139300	0.499630	0.932350
O251	O25	0.301200	0.549060	0.133450
O261	O26	0.105400	0.698900	0.608400
O271	O27	0.359600	0.990200	0.113120
O281	O28	0.325000	0.013800	0.768000
O291	O29	0.681620	0.728590	0.972920
O301	O30	0.548300	0.792430	0.007860
O311	O31	0.348200	0.478380	0.543520
O321	O32	0.360700	0.500370	0.432350
