data_MIHHUG_freeONLY_PM
_symmetry_space_group_name_H-M	'P1'
_cell_length_a	13.875600
_cell_length_b	15.116200
_cell_length_c	19.299900
_cell_angle_alpha	90.000000
_cell_angle_beta	90.000000
_cell_angle_gamma	90.000000
_symmetry_Int_Tables_number 1

loop_
_symmetry_equiv_pos_as_xyz
'x,y,z'

loop_
_atom_site_label
_atom_site_type_symbol
_atom_site_fract_x
_atom_site_fract_y
_atom_site_fract_z
Cd11	Cd1	0.197360	0.860480	0.032810
Cd21	Cd2	0.302640	0.139520	0.532810
Cd31	Cd3	0.802640	0.360480	0.467190
Cd41	Cd4	0.697360	0.639520	0.967190
H11	H1	0.259600	0.967800	0.892600
H21	H2	0.270300	0.830200	0.891600
H31	H3	0.415600	0.789100	0.942700
H41	H4	0.408600	0.854800	0.106700
H51	H5	0.411300	0.771200	0.058800
H61	H6	0.158200	0.904800	0.295800
H71	H7	0.389700	0.942400	0.767400
H81	H8	0.197500	0.700400	0.380000
H91	H9	0.541500	0.854600	0.902900
H101	H10	0.490500	0.947000	0.896300
H111	H11	0.164100	0.932000	0.177400
H121	H12	0.346600	0.009300	0.982300
H131	H13	0.346900	0.995400	0.062900
H141	H14	0.332500	0.683800	0.894600
H151	H15	0.263000	0.877800	0.396600
H161	H16	0.300400	0.545000	0.111400
H171	H17	0.262500	0.612500	0.310100
H181	H18	0.460500	0.887100	0.667300
H191	H19	0.462000	0.595500	0.684500
H201	H20	0.253500	0.680400	0.076300
H211	H21	0.499200	0.837400	0.414700
H221	H22	0.425800	0.910000	0.390200
H231	H23	0.424900	0.493400	0.767300
H241	H24	0.329400	0.482800	0.981000
H251	H25	0.391600	0.568800	0.973300
H261	H26	0.281400	0.570700	0.955200
H271	H27	0.097900	0.789200	0.434800
H281	H28	0.215000	0.754100	0.499400
H291	H29	0.211700	0.857900	0.504900
H301	H30	0.341200	0.815800	0.575800
H311	H31	0.461400	0.719900	0.525700
H321	H32	0.360800	0.672800	0.533400
H331	H33	0.474200	0.879900	0.518500
H341	H34	0.343700	0.660400	0.419900
H351	H35	0.453500	0.684300	0.414500
H361	H36	0.610400	0.940700	0.988500
H371	H37	0.563200	0.868000	0.092300
H381	H38	0.505400	0.015500	0.069500
H391	H39	0.498100	0.054300	0.994000
H401	H40	0.368100	0.403600	0.284200
H411	H41	0.401500	0.500700	0.299300
H421	H42	0.296700	0.470900	0.318600
H431	H43	0.240400	0.032200	0.392600
H441	H44	0.229700	0.169800	0.391600
H451	H45	0.084400	0.210900	0.442700
H461	H46	0.091400	0.145200	0.606700
H471	H47	0.088700	0.228800	0.558800
H481	H48	0.341800	0.095200	0.795800
H491	H49	0.110300	0.057600	0.267400
H501	H50	0.302500	0.299600	0.880000
H511	H51	0.958500	0.145400	0.402900
H521	H52	0.009500	0.053000	0.396300
H531	H53	0.335900	0.068000	0.677400
H541	H54	0.153400	0.990700	0.482300
H551	H55	0.153100	0.004600	0.562900
H561	H56	0.167500	0.316200	0.394600
H571	H57	0.237000	0.122200	0.896600
H581	H58	0.199600	0.455000	0.611400
H591	H59	0.237500	0.387500	0.810100
H601	H60	0.039500	0.112900	0.167300
H611	H61	0.038000	0.404500	0.184500
H621	H62	0.246500	0.319600	0.576300
H631	H63	0.000800	0.162600	0.914700
H641	H64	0.074200	0.090000	0.890200
H651	H65	0.075100	0.506600	0.267300
H661	H66	0.170600	0.517200	0.481000
H671	H67	0.108400	0.431200	0.473300
H681	H68	0.218600	0.429300	0.455200
H691	H69	0.402100	0.210800	0.934800
H701	H70	0.285000	0.245900	0.999400
H711	H71	0.288300	0.142100	0.004900
H721	H72	0.158800	0.184200	0.075800
H731	H73	0.038600	0.280100	0.025700
H741	H74	0.139200	0.327200	0.033400
H751	H75	0.025800	0.120100	0.018500
H761	H76	0.156300	0.339600	0.919900
H771	H77	0.046500	0.315700	0.914500
H781	H78	0.889600	0.059300	0.488500
H791	H79	0.936800	0.132000	0.592300
H801	H80	0.994600	0.984500	0.569500
H811	H81	0.001900	0.945700	0.494000
H821	H82	0.131900	0.596400	0.784200
H831	H83	0.098500	0.499300	0.799300
H841	H84	0.203300	0.529100	0.818600
H851	H85	0.740400	0.467800	0.607400
H861	H86	0.729700	0.330200	0.608400
H871	H87	0.584400	0.289100	0.557300
H881	H88	0.591400	0.354800	0.393300
H891	H89	0.588700	0.271200	0.441200
H901	H90	0.841800	0.404800	0.204200
H911	H91	0.610300	0.442400	0.732600
H921	H92	0.802500	0.200400	0.120000
H931	H93	0.458500	0.354600	0.597100
H941	H94	0.509500	0.447000	0.603700
H951	H95	0.835900	0.432000	0.322600
H961	H96	0.653400	0.509300	0.517700
H971	H97	0.653100	0.495400	0.437100
H981	H98	0.667500	0.183800	0.605400
H991	H99	0.737000	0.377800	0.103400
H1001	H100	0.699600	0.045000	0.388600
H1011	H101	0.737500	0.112500	0.189900
H1021	H102	0.539500	0.387100	0.832700
H1031	H103	0.538000	0.095500	0.815500
H1041	H104	0.746500	0.180400	0.423700
H1051	H105	0.500800	0.337400	0.085300
H1061	H106	0.574200	0.410000	0.109800
H1071	H107	0.575100	0.993400	0.732700
H1081	H108	0.670600	0.982800	0.519000
H1091	H109	0.608400	0.068800	0.526700
H1101	H110	0.718600	0.070700	0.544800
H1111	H111	0.902100	0.289200	0.065200
H1121	H112	0.785000	0.254100	0.000600
H1131	H113	0.788300	0.357900	0.995100
H1141	H114	0.658800	0.315800	0.924200
H1151	H115	0.538600	0.219900	0.974300
H1161	H116	0.639200	0.172800	0.966600
H1171	H117	0.525800	0.379900	0.981500
H1181	H118	0.656300	0.160400	0.080100
H1191	H119	0.546500	0.184300	0.085500
H1201	H120	0.389600	0.440700	0.511500
H1211	H121	0.436800	0.368000	0.407700
H1221	H122	0.494600	0.515500	0.430500
H1231	H123	0.501900	0.554300	0.506000
H1241	H124	0.631900	0.903600	0.215800
H1251	H125	0.598500	0.000700	0.200700
H1261	H126	0.703300	0.970900	0.181400
H1271	H127	0.759600	0.532200	0.107400
H1281	H128	0.770300	0.669800	0.108400
H1291	H129	0.915600	0.710900	0.057300
H1301	H130	0.908600	0.645200	0.893300
H1311	H131	0.911300	0.728800	0.941200
H1321	H132	0.658200	0.595200	0.704200
H1331	H133	0.889700	0.557600	0.232600
H1341	H134	0.697500	0.799600	0.620000
H1351	H135	0.041500	0.645400	0.097100
H1361	H136	0.990500	0.553000	0.103700
H1371	H137	0.664100	0.568000	0.822600
H1381	H138	0.846600	0.490700	0.017700
H1391	H139	0.846900	0.504600	0.937100
H1401	H140	0.832500	0.816200	0.105400
H1411	H141	0.763000	0.622200	0.603400
H1421	H142	0.800400	0.955000	0.888600
H1431	H143	0.762500	0.887500	0.689900
H1441	H144	0.960500	0.612900	0.332700
H1451	H145	0.962000	0.904500	0.315500
H1461	H146	0.753500	0.819600	0.923700
H1471	H147	0.999200	0.662600	0.585300
H1481	H148	0.925800	0.590000	0.609800
H1491	H149	0.924900	0.006600	0.232700
H1501	H150	0.829400	0.017200	0.019000
H1511	H151	0.891600	0.931200	0.026700
H1521	H152	0.781400	0.929300	0.044800
H1531	H153	0.597900	0.710800	0.565200
H1541	H154	0.715000	0.745900	0.500600
H1551	H155	0.711700	0.642100	0.495100
H1561	H156	0.841200	0.684200	0.424200
H1571	H157	0.961400	0.780100	0.474300
H1581	H158	0.860800	0.827200	0.466600
H1591	H159	0.974200	0.620100	0.481500
H1601	H160	0.843700	0.839600	0.580100
H1611	H161	0.953500	0.815700	0.585500
H1621	H162	0.110400	0.559300	0.011500
H1631	H163	0.063200	0.632000	0.907700
H1641	H164	0.005400	0.484500	0.930500
H1651	H165	0.998100	0.445700	0.006000
H1661	H166	0.868100	0.096400	0.715800
H1671	H167	0.901500	0.999300	0.700700
H1681	H168	0.796700	0.029100	0.681400
C11	C1	0.329000	0.863200	0.880100
C21	C2	0.200600	0.778200	0.290800
C31	C3	0.402600	0.852700	0.939300
C41	C4	0.425100	0.834100	0.060700
C51	C5	0.427800	0.704400	0.740300
C61	C6	0.176700	0.859900	0.265600
C71	C7	0.384700	0.732800	0.804600
C81	C8	0.371900	0.826300	0.813500
C91	C9	0.398900	0.881800	0.762600
C101	C10	0.192500	0.763600	0.369300
C111	C11	0.498800	0.895900	0.926100
C121	C12	0.180300	0.875900	0.193300
C131	C13	0.228500	0.732300	0.170700
C141	C14	0.377500	0.977600	0.019900
C151	C15	0.360900	0.667400	0.852800
C161	C16	0.230000	0.710800	0.242800
C171	C17	0.268900	0.815300	0.409600
C181	C18	0.283300	0.587200	0.144300
C191	C19	0.260400	0.627000	0.263300
C201	C20	0.287400	0.565800	0.214400
C211	C21	0.441600	0.847300	0.701400
C221	C22	0.438700	0.614100	0.727300
C231	C23	0.255200	0.667600	0.123500
C241	C24	0.433100	0.857700	0.418800
C251	C25	0.377900	0.582100	0.840300
C261	C26	0.415900	0.553400	0.775900
C271	C27	0.339000	0.535500	0.954100
C281	C28	0.249900	0.808100	0.489100
C291	C29	0.348700	0.807500	0.525700
C301	C30	0.395000	0.720000	0.509800
C311	C31	0.412400	0.881500	0.494000
C321	C32	0.368800	0.973100	0.506600
C331	C33	0.391300	0.705500	0.430400
C341	C34	0.542600	0.924300	0.994900
C351	C35	0.534100	0.848200	0.048700
C361	C36	0.486100	0.002400	0.022300
C371	C37	0.588800	0.766700	0.023300
C381	C38	0.348100	0.464300	0.285700
C391	C39	0.171000	0.136800	0.380100
C401	C40	0.299400	0.221800	0.790800
C411	C41	0.097400	0.147300	0.439300
C421	C42	0.074900	0.165900	0.560700
C431	C43	0.072200	0.295600	0.240300
C441	C44	0.323300	0.140100	0.765600
C451	C45	0.115300	0.267200	0.304600
C461	C46	0.128100	0.173700	0.313500
C471	C47	0.101100	0.118200	0.262600
C481	C48	0.307500	0.236400	0.869300
C491	C49	0.001200	0.104100	0.426100
C501	C50	0.319700	0.124100	0.693300
C511	C51	0.271500	0.267700	0.670700
C521	C52	0.122500	0.022400	0.519900
C531	C53	0.139100	0.332600	0.352800
C541	C54	0.270000	0.289200	0.742800
C551	C55	0.231100	0.184700	0.909600
C561	C56	0.216700	0.412800	0.644300
C571	C57	0.239600	0.373000	0.763300
C581	C58	0.212600	0.434200	0.714400
C591	C59	0.058400	0.152700	0.201400
C601	C60	0.061300	0.385900	0.227300
C611	C61	0.244800	0.332400	0.623500
C621	C62	0.066900	0.142300	0.918800
C631	C63	0.122100	0.417900	0.340300
C641	C64	0.084100	0.446600	0.275900
C651	C65	0.161000	0.464500	0.454100
C661	C66	0.250100	0.191900	0.989100
C671	C67	0.151300	0.192500	0.025700
C681	C68	0.105000	0.280000	0.009800
C691	C69	0.087600	0.118500	0.994000
C701	C70	0.131200	0.026900	0.006600
C711	C71	0.108700	0.294500	0.930400
C721	C72	0.957400	0.075700	0.494900
C731	C73	0.965900	0.151800	0.548700
C741	C74	0.013900	0.997600	0.522300
C751	C75	0.911200	0.233300	0.523300
C761	C76	0.151900	0.535700	0.785700
C771	C77	0.671000	0.363200	0.619900
C781	C78	0.799400	0.278200	0.209200
C791	C79	0.597400	0.352700	0.560700
C801	C80	0.574900	0.334100	0.439300
C811	C81	0.572200	0.204400	0.759700
C821	C82	0.823300	0.359900	0.234400
C831	C83	0.615300	0.232800	0.695400
C841	C84	0.628100	0.326300	0.686500
C851	C85	0.601100	0.381800	0.737400
C861	C86	0.807500	0.263600	0.130700
C871	C87	0.501200	0.395900	0.573900
C881	C88	0.819700	0.375900	0.306700
C891	C89	0.771500	0.232300	0.329300
C901	C90	0.622500	0.477600	0.480100
C911	C91	0.639100	0.167400	0.647200
C921	C92	0.770000	0.210800	0.257200
C931	C93	0.731100	0.315300	0.090400
C941	C94	0.716700	0.087200	0.355700
C951	C95	0.739600	0.127000	0.236700
C961	C96	0.712600	0.065800	0.285600
C971	C97	0.558400	0.347300	0.798600
C981	C98	0.561300	0.114100	0.772700
C991	C99	0.744800	0.167600	0.376500
C1001	C100	0.566900	0.357700	0.081200
C1011	C101	0.622100	0.082100	0.659700
C1021	C102	0.584100	0.053400	0.724100
C1031	C103	0.661000	0.035500	0.545900
C1041	C104	0.750100	0.308100	0.010900
C1051	C105	0.651300	0.307500	0.974300
C1061	C106	0.605000	0.220000	0.990200
C1071	C107	0.587600	0.381500	0.006000
C1081	C108	0.631200	0.473100	0.993400
C1091	C109	0.608700	0.205500	0.069600
C1101	C110	0.457400	0.424300	0.505100
C1111	C111	0.465900	0.348200	0.451300
C1121	C112	0.513900	0.502400	0.477700
C1131	C113	0.411200	0.266700	0.476700
C1141	C114	0.651900	0.964300	0.214300
C1151	C115	0.829000	0.636800	0.119900
C1161	C116	0.700600	0.721800	0.709200
C1171	C117	0.902600	0.647300	0.060700
C1181	C118	0.925100	0.665900	0.939300
C1191	C119	0.927800	0.795600	0.259700
C1201	C120	0.676700	0.640100	0.734400
C1211	C121	0.884700	0.767200	0.195400
C1221	C122	0.871900	0.673700	0.186500
C1231	C123	0.898900	0.618200	0.237400
C1241	C124	0.692500	0.736400	0.630700
C1251	C125	0.998800	0.604100	0.073900
C1261	C126	0.680300	0.624100	0.806700
C1271	C127	0.728500	0.767700	0.829300
C1281	C128	0.877500	0.522400	0.980100
C1291	C129	0.860900	0.832600	0.147200
C1301	C130	0.730000	0.789200	0.757200
C1311	C131	0.768900	0.684700	0.590400
C1321	C132	0.783300	0.912800	0.855700
C1331	C133	0.760400	0.873000	0.736700
C1341	C134	0.787400	0.934200	0.785600
C1351	C135	0.941600	0.652700	0.298600
C1361	C136	0.938700	0.885900	0.272700
C1371	C137	0.755200	0.832400	0.876500
C1381	C138	0.933100	0.642300	0.581200
C1391	C139	0.877900	0.917900	0.159700
C1401	C140	0.915900	0.946600	0.224100
C1411	C141	0.839000	0.964500	0.045900
C1421	C142	0.749900	0.691900	0.510900
C1431	C143	0.848700	0.692500	0.474300
C1441	C144	0.895000	0.780000	0.490200
C1451	C145	0.912400	0.618500	0.506000
C1461	C146	0.868800	0.526900	0.493400
C1471	C147	0.891300	0.794500	0.569600
C1481	C148	0.042600	0.575700	0.005100
C1491	C149	0.034100	0.651800	0.951300
C1501	C150	0.986100	0.497600	0.977700
C1511	C151	0.088800	0.733300	0.976700
C1521	C152	0.848100	0.035700	0.714300
N11	N1	0.205200	0.816500	0.148100
N21	N2	0.455800	0.764200	0.690100
N31	N3	0.366700	0.787200	0.393500
N41	N4	0.363700	0.880100	0.009600
N51	N5	0.294800	0.183500	0.648100
N61	N6	0.044200	0.235800	0.190100
N71	N7	0.133300	0.212800	0.893500
N81	N8	0.136300	0.119900	0.509600
N91	N9	0.794800	0.316500	0.351900
N101	N10	0.544200	0.264200	0.809900
N111	N11	0.633300	0.287200	0.106500
N121	N12	0.636300	0.380100	0.490400
N131	N13	0.705200	0.683500	0.851900
N141	N14	0.955800	0.735800	0.309900
N151	N15	0.866700	0.712800	0.606500
N161	N16	0.863700	0.619900	0.990400
O11	O1	0.304900	0.953500	0.867700
O21	O2	0.360400	0.512500	0.885300
O31	O3	0.321200	0.486000	0.230900
O41	O4	0.102600	0.797300	0.393000
O51	O5	0.344900	0.021400	0.456600
O61	O6	0.360000	0.000900	0.567500
O71	O7	0.679700	0.770400	0.029300
O81	O8	0.547400	0.705400	0.994000
O91	O9	0.195100	0.046500	0.367700
O101	O10	0.139600	0.487500	0.385300
O111	O11	0.178800	0.514000	0.730900
O121	O12	0.397400	0.202700	0.893000
O131	O13	0.155100	0.978600	0.956600
O141	O14	0.140000	0.999100	0.067500
O151	O15	0.820300	0.229600	0.529300
O161	O16	0.952600	0.294600	0.494000
O171	O17	0.695100	0.453500	0.632300
O181	O18	0.639600	0.012500	0.614700
O191	O19	0.678800	0.986000	0.269100
O201	O20	0.897400	0.297300	0.107000
O211	O21	0.655100	0.521400	0.043400
O221	O22	0.640000	0.500900	0.932500
O231	O23	0.320300	0.270400	0.470700
O241	O24	0.452600	0.205400	0.506000
O251	O25	0.804900	0.546500	0.132300
O261	O26	0.860400	0.987500	0.114700
O271	O27	0.821200	0.014000	0.769100
O281	O28	0.602600	0.702700	0.607000
O291	O29	0.844900	0.478600	0.543400
O301	O30	0.860000	0.499100	0.432500
O311	O31	0.179700	0.729600	0.970700
O321	O32	0.047400	0.794600	0.006000
