data_MIMSOS_freeONLY_PM
_symmetry_space_group_name_H-M	'P1'
_cell_length_a	12.224100
_cell_length_b	24.898200
_cell_length_c	31.248200
_cell_angle_alpha	90.000000
_cell_angle_beta	90.000000
_cell_angle_gamma	97.846000
_symmetry_Int_Tables_number 1

loop_
_symmetry_equiv_pos_as_xyz
'x,y,z'

loop_
_atom_site_label
_atom_site_type_symbol
_atom_site_fract_x
_atom_site_fract_y
_atom_site_fract_z
Zn11	Zn1	0.696310	0.915180	0.873260
Zn21	Zn2	0.207000	0.932280	0.138350
Zn31	Zn3	0.389310	0.255020	0.730570
Zn41	Zn4	0.410370	0.791380	0.257010
Zn51	Zn5	0.803690	0.584820	0.373260
Zn61	Zn6	0.196310	0.415180	0.626740
Zn71	Zn7	0.293000	0.567720	0.638350
Zn81	Zn8	0.589630	0.208620	0.742990
Zn91	Zn9	0.707000	0.432280	0.361650
Zn101	Zn10	0.303690	0.084820	0.126740
Zn111	Zn11	0.110690	0.244980	0.230570
Zn121	Zn12	0.910370	0.291380	0.242990
Zn131	Zn13	0.889310	0.755020	0.769430
Zn141	Zn14	0.793000	0.067720	0.861650
Zn151	Zn15	0.089630	0.708620	0.757010
Zn161	Zn16	0.610690	0.744980	0.269430
H11	H1	0.767600	0.695300	0.212500
H21	H2	0.350800	0.265000	0.191800
H31	H3	0.716700	0.384100	0.636200
H41	H4	0.478100	0.637100	0.686900
H51	H5	0.563100	0.960500	0.252800
H61	H6	0.728600	0.901400	0.152800
H71	H7	0.166400	0.106300	0.712600
H81	H8	0.061700	0.691600	0.618300
H91	H9	0.736500	0.450800	0.262700
H101	H10	0.739100	0.805900	0.995800
H111	H11	0.394800	0.841700	0.045700
H121	H12	0.085200	0.148500	0.034100
H131	H13	0.558100	0.700600	0.399500
H141	H14	0.149200	0.235000	0.691800
H151	H15	0.833600	0.893700	0.287400
H161	H16	0.634300	0.733100	0.757300
H171	H17	0.187400	0.146400	0.266100
H181	H18	0.162300	0.143900	0.188100
H191	H19	0.277100	0.711100	0.528200
H201	H20	0.687200	0.143100	0.235300
H211	H21	0.441900	0.299400	0.600500
H221	H22	0.554000	0.139700	0.024100
H231	H23	0.993500	0.654700	0.325800
H241	H24	0.545000	0.327800	0.206100
H251	H25	0.393900	0.558000	0.728700
H261	H26	0.812800	0.356900	0.735300
H271	H27	0.441100	0.477000	0.215500
H281	H28	0.461400	0.202300	0.278200
H291	H29	0.459700	0.096800	0.850300
H301	H30	0.605200	0.158300	0.954300
H311	H31	0.106100	0.942000	0.228700
H321	H32	0.750100	0.264200	0.038300
H331	H33	0.040400	0.923100	0.732600
H341	H34	0.941900	0.799400	0.899500
H351	H35	0.420700	0.940100	0.759400
H361	H36	0.525200	0.618600	0.533100
H371	H37	0.991200	0.867400	0.262200
H381	H38	0.961400	0.702300	0.221800
H391	H39	0.232400	0.304700	0.787500
H401	H40	0.459600	0.576900	0.232600
H411	H41	0.227400	0.190700	0.158900
H421	H42	0.529800	0.386500	0.636700
H431	H43	0.283300	0.615900	0.363800
H441	H44	0.974800	0.881400	0.033100
H451	H45	0.316600	0.892000	0.284500
H461	H46	0.561700	0.191600	0.881700
H471	H47	0.491200	0.367400	0.237800
H481	H48	0.959700	0.596800	0.649700
H491	H49	0.286500	0.276300	0.430400
H501	H50	0.796400	0.336200	0.319300
H511	H51	0.737300	0.760900	0.140100
H521	H52	0.713500	0.723700	0.569600
H531	H53	0.038600	0.297700	0.778200
H541	H54	0.063100	0.460500	0.247200
H551	H55	0.045000	0.827800	0.293900
H561	H56	0.134300	0.233100	0.742700
H571	H57	0.521900	0.362900	0.313100
H581	H58	0.821300	0.238000	0.784200
H591	H59	0.579300	0.059900	0.240600
H601	H60	0.149100	0.612500	0.707800
H611	H61	0.986200	0.342500	0.751100
H621	H62	0.656700	0.264700	0.233800
H631	H63	0.436900	0.039500	0.747200
H641	H64	0.666400	0.606300	0.787400
H651	H65	0.683400	0.108000	0.715500
H661	H66	0.513800	0.157500	0.251100
H671	H67	0.786500	0.776300	0.069600
H681	H68	0.420700	0.450200	0.347300
H691	H69	0.606100	0.442000	0.271300
H701	H70	0.006500	0.345300	0.674200
H711	H71	0.590000	0.067400	0.140200
H721	H72	0.749900	0.235800	0.538300
H731	H73	0.079300	0.049800	0.847300
H741	H74	0.777100	0.211100	0.971800
H751	H75	0.732400	0.804700	0.712500
H761	H76	0.105200	0.658300	0.545700
H771	H77	0.455000	0.672200	0.793900
H781	H78	0.021900	0.862900	0.186900
H791	H79	0.237300	0.260900	0.359900
H801	H80	0.936900	0.539500	0.752800
H811	H81	0.493500	0.154700	0.174200
H821	H82	0.740700	0.343000	0.192200
H831	H83	0.978100	0.137100	0.813100
H841	H84	0.850900	0.387500	0.292200
H851	H85	0.260900	0.194100	0.004200
H861	H86	0.470200	0.613500	0.363300
H871	H87	0.343300	0.735300	0.766200
H881	H88	0.910000	0.432600	0.640200
H891	H89	0.029800	0.886500	0.863300
H901	H90	0.426900	0.197300	0.150700
H911	H91	0.736400	0.920500	0.774700
H921	H92	0.722900	0.288900	0.471800
H931	H93	0.073100	0.302700	0.650700
H941	H94	0.321300	0.738000	0.715800
H951	H95	0.914800	0.851500	0.965900
H961	H96	0.649100	0.112500	0.792200
H971	H97	0.816600	0.392000	0.215500
H981	H98	0.296400	0.836200	0.180700
H991	H99	0.228600	0.401400	0.347200
H1001	H100	0.058100	0.200600	0.100500
H1011	H101	0.926900	0.697300	0.349300
H1021	H102	0.837700	0.856100	0.811900
H1031	H103	0.843300	0.235300	0.733800
H1041	H104	0.312600	0.353600	0.766100
H1051	H105	0.262700	0.239100	0.859900
H1061	H106	0.506500	0.845300	0.825800
H1071	H107	0.079300	0.559900	0.259400
H1081	H108	0.090000	0.567400	0.359800
H1091	H109	0.850800	0.765000	0.308200
H1101	H110	0.178700	0.762000	0.215800
H1111	H111	0.486200	0.842500	0.748900
H1121	H112	0.054000	0.639700	0.475900
H1131	H113	0.772600	0.809300	0.841100
H1141	H114	0.236400	0.420500	0.725300
H1151	H115	0.259300	0.657000	0.807800
H1161	H116	0.573100	0.802700	0.849300
H1171	H117	0.156700	0.764700	0.266200
H1181	H118	0.203600	0.663800	0.680700
H1191	H119	0.438300	0.808400	0.118300
H1201	H120	0.678700	0.262000	0.284200
H1211	H121	0.605300	0.916600	0.780400
H1221	H122	0.771400	0.598600	0.652800
H1231	H123	0.199800	0.713000	0.892100
H1241	H124	0.538600	0.797700	0.721800
H1251	H125	0.508800	0.632600	0.762200
H1261	H126	0.579300	0.549800	0.652700
H1271	H127	0.938300	0.308400	0.381700
H1281	H128	0.240700	0.843000	0.307800
H1291	H129	0.025200	0.118600	0.966900
H1301	H130	0.598300	0.320900	0.331700
H1311	H131	0.955000	0.172200	0.706100
H1321	H132	0.236500	0.950800	0.237300
H1331	H133	0.763500	0.049200	0.762700
H1341	H134	0.098300	0.820900	0.168300
H1351	H135	0.187200	0.643100	0.264700
H1361	H136	0.008800	0.132600	0.737800
H1371	H137	0.446000	0.860300	0.975900
H1381	H138	0.894700	0.583400	0.280400
H1391	H139	0.410000	0.932600	0.859800
H1401	H140	0.894800	0.341700	0.454300
H1411	H141	0.759300	0.157000	0.692200
H1421	H142	0.540400	0.423100	0.767400
H1431	H143	0.970200	0.113500	0.136700
H1441	H144	0.762700	0.739100	0.640100
H1451	H145	0.300200	0.787000	0.392100
H1461	H146	0.183400	0.608000	0.784500
H1471	H147	0.239100	0.305900	0.504200
H1481	H148	0.272600	0.309300	0.658900
H1491	H149	0.941100	0.977000	0.284500
H1501	H150	0.271400	0.098600	0.847200
H1511	H151	0.959600	0.076900	0.267400
H1521	H152	0.920700	0.440100	0.740600
H1531	H153	0.333600	0.393700	0.212600
H1541	H154	0.812600	0.853600	0.733900
H1551	H155	0.414800	0.351500	0.534100
H1561	H156	0.763600	0.579500	0.274700
H1571	H157	0.687400	0.646400	0.233900
H1581	H158	0.337700	0.356100	0.688100
H1591	H159	0.250100	0.764200	0.461700
H1601	H160	0.727400	0.690700	0.341100
H1611	H161	0.946000	0.360300	0.524100
H1621	H162	0.105300	0.416600	0.719600
H1631	H163	0.394700	0.083400	0.219600
H1641	H164	0.649200	0.735000	0.808200
H1651	H165	0.783300	0.115900	0.136200
H1661	H166	0.040300	0.403200	0.350300
H1671	H167	0.058900	0.023000	0.715500
H1681	H168	0.474800	0.381400	0.466900
H1691	H169	0.249900	0.735800	0.961700
H1701	H170	0.540300	0.903200	0.149700
H1711	H171	0.263500	0.549200	0.737300
H1721	H172	0.213500	0.223700	0.930400
H1731	H173	0.312800	0.856900	0.764700
H1741	H174	0.216700	0.884100	0.863800
H1751	H175	0.901700	0.179100	0.831700
H1761	H176	0.365700	0.266900	0.242700
H1771	H177	0.013800	0.657500	0.248900
H1781	H178	0.263600	0.079500	0.225300
H1791	H179	0.662300	0.643900	0.311900
H1801	H180	0.222900	0.788900	0.028200
H1811	H181	0.350900	0.887500	0.207800
H1821	H182	0.703600	0.163800	0.819300
H1831	H183	0.865700	0.766900	0.257300
H1841	H184	0.760900	0.694100	0.495800
H1851	H185	0.699800	0.213000	0.607900
H1861	H186	0.893900	0.058000	0.771300
H1871	H187	0.585200	0.648500	0.465900
H1881	H188	0.267600	0.195300	0.287500
H1891	H189	0.800200	0.287000	0.107900
H1901	H190	0.920700	0.950200	0.152700
H1911	H191	0.401700	0.679100	0.668300
H1921	H192	0.558900	0.523000	0.784500
C11	C1	0.187100	0.419330	0.230200
C21	C2	0.581800	0.783540	0.136120
C31	C3	0.536700	0.812660	0.064820
C41	C4	0.097600	0.827970	0.753630
C51	C5	0.841800	0.264440	0.091900
C61	C6	0.251000	0.864270	0.280950
C71	C7	0.201200	0.435100	0.349800
C81	C8	0.106400	0.838230	0.036630
C91	C9	0.364800	0.474090	0.222210
C101	C10	0.232300	0.168840	0.185100
C111	C11	0.597600	0.327970	0.746370
C121	C12	0.784500	0.360110	0.294940
C131	C13	0.343700	0.937310	0.753940
C141	C14	0.381100	0.966000	0.857340
C151	C15	0.831600	0.213250	0.760180
C161	C16	0.796800	0.484160	0.757110
C171	C17	0.135200	0.025910	0.722210
C181	C18	0.382400	0.573120	0.237810
C191	C19	0.715900	0.783050	0.079150
C201	C20	0.891800	0.983410	0.149120
C211	C21	0.004700	0.654390	0.494680
C221	C22	0.450200	0.178150	0.252910
C231	C23	0.462600	0.530760	0.354900
C241	C24	0.049800	0.321850	0.752910
C251	C25	0.256900	0.171380	0.262080
C261	C26	0.670900	0.423000	0.266130
C271	C27	0.189500	0.917870	0.860670
C281	C28	0.151400	0.861240	0.078560
C291	C29	0.170900	0.923000	0.233870
C301	C30	0.779700	0.387880	0.743030
C311	C31	0.667400	0.894970	0.778360
C321	C32	0.145700	0.257580	0.717690
C331	C33	0.810500	0.082130	0.139330
C341	C34	0.642500	0.802410	0.049960
C351	C35	0.870200	0.215350	0.026790
C361	C36	0.811300	0.250370	0.050850
C371	C37	0.420700	0.580890	0.360130
C381	C38	0.910200	0.563880	0.648680
C391	C39	0.089800	0.436120	0.351320
C401	C40	0.701200	0.935100	0.150200
C411	C41	0.962600	0.030760	0.145100
C421	C42	0.108200	0.016590	0.850880
C431	C43	0.552900	0.775180	0.182200
C441	C44	0.688700	0.249630	0.550850
C451	C45	0.156300	0.562690	0.253940
C461	C46	0.658200	0.235560	0.591900
C471	C47	0.083600	0.029770	0.145330
C481	C48	0.069900	0.324650	0.676950
C491	C49	0.354300	0.242420	0.217690
C501	C50	0.686600	0.773910	0.120950
C511	C51	0.687100	0.919330	0.269800
C521	C52	0.447100	0.224820	0.817800
C531	C53	0.645700	0.757580	0.782310
C541	C54	0.188700	0.749630	0.949150
C551	C55	0.119800	0.363780	0.229930
C561	C56	0.963300	0.687340	0.564820
C571	C57	0.465100	0.834560	0.036040
C581	C58	0.565100	0.254340	0.610920
C591	C59	0.117600	0.926880	0.737810
C601	C60	0.536400	0.303740	0.545610
C611	C61	0.298800	0.064900	0.849800
C621	C62	0.857500	0.697590	0.549960
C631	C63	0.249000	0.635730	0.780950
C641	C64	0.927000	0.487870	0.354700
C651	C65	0.902400	0.172030	0.246370
C661	C66	0.313400	0.226090	0.879050
C671	C67	0.537400	0.469240	0.645100
C681	C68	0.129800	0.784650	0.973210
C691	C69	0.812900	0.580670	0.769800
C701	C70	0.651400	0.361240	0.421440
C711	C71	0.784100	0.716950	0.579150
C721	C72	0.838000	0.197830	0.985090
C731	C73	0.451700	0.013340	0.854430
C741	C74	0.370200	0.715350	0.473210
C751	C75	0.265300	0.966200	0.856680
C761	C76	0.334700	0.617630	0.248820
C771	C77	0.331600	0.713250	0.739820
C781	C78	0.864800	0.974090	0.277790
C791	C79	0.606400	0.338230	0.463370
C801	C80	0.215500	0.639890	0.705060
C811	C81	0.930100	0.675350	0.323050
C821	C82	0.391800	0.483410	0.350880
C831	C83	0.318200	0.521150	0.233980
C841	C84	0.734700	0.033800	0.143320
C851	C85	0.329800	0.186390	0.993490
C861	C86	0.284100	0.216950	0.920850
C871	C87	0.767700	0.831160	0.814900
C881	C88	0.513400	0.356800	0.482070
C891	C89	0.743100	0.828620	0.737920
C901	C90	0.504700	0.154390	0.005320
C911	C91	0.418200	0.216460	0.863880
C921	C92	0.579300	0.419110	0.639870
C931	C93	0.486600	0.643200	0.517930
C941	C94	0.521400	0.660590	0.477910
C951	C95	0.918200	0.716460	0.636120
C961	C96	0.934900	0.245660	0.110920
C971	C97	0.893600	0.161770	0.963370
C981	C98	0.619800	0.863780	0.270070
C991	C99	0.724000	0.516570	0.647930
C1001	C100	0.732300	0.668840	0.314900
C1011	C101	0.965100	0.334560	0.463960
C1021	C102	0.329100	0.577000	0.733870
C1031	C103	0.311300	0.750370	0.449150
C1041	C104	0.861300	0.645580	0.435820
C1051	C105	0.380200	0.136220	0.729930
C1061	C106	0.005000	0.787380	0.912100
C1071	C107	0.901100	0.664540	0.479520
C1081	C108	0.798800	0.564900	0.650200
C1091	C109	0.505000	0.287380	0.587900
C1101	C110	0.916400	0.970230	0.854670
C1111	C111	0.557500	0.349440	0.232700
C1121	C112	0.978600	0.839410	0.977910
C1131	C113	0.920700	0.080890	0.139870
C1141	C114	0.665300	0.382370	0.751180
C1151	C115	0.411800	0.654780	0.692680
C1161	C116	0.698900	0.575220	0.779530
C1171	C117	0.301100	0.424780	0.220470
C1181	C118	0.170200	0.313610	0.493490
C1191	C119	0.057500	0.849440	0.267300
C1201	C120	0.950200	0.678150	0.247090
C1211	C121	0.410200	0.063880	0.851320
C1221	C122	0.881100	0.466000	0.642660
C1231	C123	0.995000	0.212620	0.087900
C1241	C124	0.495000	0.712620	0.412100
C1251	C125	0.073000	0.512130	0.645300
C1261	C126	0.203200	0.515840	0.242890
C1271	C127	0.357500	0.197590	0.950040
C1281	C128	0.834700	0.117630	0.251180
C1291	C129	0.681800	0.478850	0.766020
C1301	C130	0.911800	0.154780	0.807320
C1311	C131	0.088200	0.845220	0.192680
C1321	C132	0.167400	0.394970	0.721640
C1331	C133	0.832600	0.605030	0.278360
C1341	C134	0.332600	0.105030	0.221640
C1351	C135	0.402400	0.672030	0.253630
C1361	C136	0.065100	0.754340	0.889080
C1371	C137	0.583600	0.529770	0.354670
C1381	C138	0.296800	0.984160	0.742890
C1391	C139	0.860200	0.535830	0.759050
C1401	C140	0.942500	0.150560	0.732700
C1411	C141	0.715500	0.139890	0.794940
C1421	C142	0.751000	0.364270	0.219050
C1431	C143	0.478600	0.339410	0.522090
C1441	C144	0.021400	0.160590	0.022090
C1451	C145	0.589800	0.936120	0.148680
C1461	C146	0.801100	0.924780	0.279530
C1471	C147	0.341800	0.764440	0.408100
C1481	C148	0.434900	0.745660	0.389080
C1491	C149	0.035200	0.741490	0.843440
C1501	C150	0.829100	0.077000	0.766130
C1511	C151	0.491100	0.197710	0.891760
C1521	C152	0.986600	0.143200	0.982070
C1531	C153	0.348600	0.638760	0.578560
C1541	C154	0.267700	0.331160	0.685100
C1551	C155	0.573000	0.012130	0.854700
C1561	C156	0.947100	0.724820	0.682200
C1571	C157	0.052900	0.275180	0.317800
C1581	C158	0.843700	0.437310	0.746060
C1591	C159	0.081800	0.283540	0.363880
C1601	C160	0.535200	0.241490	0.656560
C1611	C161	0.427000	0.987870	0.145300
C1621	C162	0.312900	0.080670	0.730200
C1631	C163	0.608200	0.516590	0.649120
C1641	C164	0.215900	0.283050	0.420850
C1651	C165	0.848600	0.138760	0.921440
C1661	C166	0.951700	0.513340	0.645570
C1671	C167	0.279700	0.887880	0.756970
C1681	C168	0.338000	0.697830	0.514910
C1691	C169	0.463600	0.696260	0.454390
C1701	C170	0.186600	0.273910	0.379050
C1711	C171	0.276000	0.483430	0.352070
C1721	C172	0.668400	0.286750	0.260180
C1731	C173	0.598900	0.835460	0.979520
C1741	C174	0.463300	0.187340	0.935180
C1751	C175	0.118900	0.534000	0.357340
C1761	C176	0.882400	0.073120	0.262190
C1771	C177	0.168400	0.786750	0.239820
C1781	C178	0.656300	0.062690	0.246060
C1791	C179	0.638700	0.854420	0.935820
C1801	C180	0.703200	0.015840	0.257110
C1811	C181	0.234700	0.533800	0.356680
C1821	C182	0.662000	0.302170	0.485090
C1831	C183	0.689500	0.417870	0.639330
C1841	C184	0.617600	0.426880	0.762190
C1851	C185	0.310500	0.582130	0.360670
C1861	C186	0.639800	0.964170	0.259050
C1871	C187	0.243100	0.328620	0.762080
C1881	C188	0.464800	0.758510	0.343440
C1891	C189	0.079300	0.919110	0.860130
C1901	C190	0.198900	0.075220	0.720470
C1911	C191	0.964800	0.258510	0.156560
C1921	C192	0.138700	0.354420	0.564180
C1931	C193	0.670200	0.813610	0.006510
C1941	C194	0.756900	0.671380	0.237920
C1951	C195	0.629800	0.284650	0.526790
C1961	C196	0.765300	0.466200	0.643320
C1971	C197	0.813400	0.726090	0.620950
C1981	C198	0.162000	0.802170	0.014910
C1991	C199	0.158200	0.735560	0.908100
C2001	C200	0.508900	0.802290	0.108240
C2011	C201	0.880200	0.636220	0.770070
C2021	C202	0.098900	0.335460	0.520480
C2031	C203	0.995300	0.345610	0.505320
C2041	C204	0.548300	0.986660	0.145570
C2051	C205	0.361300	0.145580	0.064180
C2061	C206	0.776000	0.983430	0.147930
C2071	C207	0.401100	0.164540	0.020480
C2081	C208	0.165300	0.882370	0.748820
C2091	C209	0.442500	0.650560	0.767300
C2101	C210	0.048300	0.486660	0.354430
C2111	C211	0.549800	0.821850	0.747090
C2121	C212	0.854300	0.742420	0.282310
C2131	C213	0.430100	0.175350	0.176950
C2141	C214	0.618900	0.034000	0.142660
C2151	C215	0.360200	0.035830	0.740950
C2161	C216	0.749000	0.135730	0.719050
C2171	C217	0.963600	0.196260	0.045610
C2181	C218	0.220300	0.612120	0.256970
C2191	C219	0.720300	0.112120	0.243030
C2201	C220	0.829800	0.686390	0.506510
C2211	C221	0.008900	0.302290	0.391760
C2221	C222	0.034900	0.665440	0.536040
C2231	C223	0.991100	0.697710	0.608240
C2241	C224	0.569900	0.824650	0.823050
C2251	C225	0.142500	0.302410	0.450040
C2261	C226	0.224000	0.016570	0.852070
C2271	C227	0.013400	0.856800	0.017930
C2281	C228	0.036700	0.312660	0.435180
C2291	C229	0.139800	0.464170	0.240950
C2301	C230	0.036400	0.803740	0.954390
C2311	C231	0.588200	0.345220	0.307320
C2321	C232	0.534900	0.165440	0.963960
C2331	C233	0.181800	0.978850	0.733980
C2341	C234	0.635200	0.525910	0.777790
C2351	C235	0.284500	0.860110	0.205060
C2361	C236	0.416400	0.470230	0.645330
C2371	C237	0.818200	0.021150	0.266020
C2381	C238	0.037400	0.969240	0.854900
C2391	C239	0.393600	0.661770	0.536630
C2401	C240	0.495300	0.845610	0.994680
N11	N1	0.651400	0.859830	0.741310
N21	N2	0.187500	0.887900	0.196080
N31	N3	0.252800	0.294640	0.722750
N41	N4	0.825900	0.636650	0.319020
N51	N5	0.674100	0.863350	0.819020
N61	N6	0.447000	0.211420	0.214070
N71	N7	0.174100	0.363350	0.680980
N81	N8	0.752800	0.794640	0.777250
N91	N9	0.553000	0.788580	0.785930
N101	N10	0.229400	0.672720	0.744730
N111	N11	0.928900	0.186760	0.768280
N121	N12	0.571100	0.313240	0.268280
N131	N13	0.153800	0.891220	0.273300
N141	N14	0.247200	0.205360	0.222750
N151	N15	0.687500	0.387900	0.303920
N161	N16	0.747200	0.705360	0.277250
N171	N17	0.325900	0.136650	0.180980
N181	N18	0.770600	0.327280	0.255270
N191	N19	0.346200	0.608780	0.773300
N201	N20	0.312500	0.612100	0.696080
N211	N21	0.846200	0.108780	0.726700
N221	N22	0.653800	0.391220	0.226700
N231	N23	0.151400	0.359830	0.758690
N241	N24	0.071100	0.813240	0.231720
N251	N25	0.348600	0.140170	0.258690
N261	N26	0.428900	0.686760	0.731720
N271	N27	0.812500	0.112100	0.803920
N281	N28	0.729400	0.172720	0.755270
N291	N29	0.053000	0.288580	0.714070
N301	N30	0.947000	0.711420	0.285930
N311	N31	0.270600	0.827280	0.244730
N321	N32	0.848600	0.640170	0.241310
O11	O1	0.775400	0.158530	0.902050
O21	O2	0.994290	0.825010	0.753860
O31	O3	0.357100	0.428660	0.631310
O41	O4	0.981000	0.639550	0.759820
O51	O5	0.959000	0.283590	0.305650
O61	O6	0.519000	0.860450	0.259820
O71	O7	0.610600	0.403490	0.407720
O81	O8	0.151500	0.788280	0.756970
O91	O9	0.866780	0.443580	0.362620
O101	O10	0.379320	0.511750	0.659500
O111	O11	0.541000	0.216410	0.805650
O121	O12	0.110600	0.903490	0.092280
O131	O13	0.593900	0.212240	0.677160
O141	O14	0.330400	0.175580	0.720310
O151	O15	0.642900	0.571340	0.368690
O161	O16	0.406100	0.787760	0.322840
O171	O17	0.108550	0.468240	0.653610
O181	O18	0.005710	0.174990	0.246140
O191	O19	0.120680	0.988250	0.159500
O201	O20	0.093900	0.712240	0.822840
O211	O21	0.348500	0.711720	0.256970
O221	O22	0.275400	0.658530	0.597950
O231	O23	0.830400	0.675580	0.779690
O241	O24	0.459000	0.783590	0.194350
O251	O25	0.725200	0.841980	0.920590
O261	O26	0.724600	0.341470	0.402050
O271	O27	0.127300	0.260990	0.293940
O281	O28	0.857100	0.928660	0.868690
O291	O29	0.872700	0.739010	0.706060
O301	O30	0.627300	0.760990	0.206060
O311	O31	0.366780	0.943580	0.137380
O321	O32	0.906100	0.287760	0.177160
O331	O33	0.879320	0.011750	0.840500
O341	O34	0.019000	0.360450	0.240180
O351	O35	0.774800	0.658020	0.420590
O361	O36	0.224600	0.841470	0.097950
O371	O37	0.669600	0.824420	0.279690
O381	O38	0.481000	0.139550	0.740180
O391	O39	0.372700	0.239010	0.793940
O401	O40	0.389400	0.596510	0.592280
O411	O41	0.142900	0.071340	0.131310
O421	O42	0.633220	0.056420	0.862620
O431	O43	0.133220	0.556420	0.637380
O441	O44	0.169600	0.324420	0.220310
O451	O45	0.225200	0.341980	0.579410
O461	O46	0.889400	0.096510	0.907720
O471	O47	0.620680	0.488250	0.340500
O481	O48	0.651500	0.288280	0.743030
O491	O49	0.583000	0.886520	0.916560
O501	O50	0.848500	0.211720	0.243030
O511	O51	0.546100	0.738860	0.328400
O521	O52	0.505710	0.674990	0.253860
O531	O53	0.391450	0.031760	0.153610
O541	O54	0.046100	0.238860	0.171600
O551	O55	0.917000	0.613480	0.416560
O561	O56	0.453900	0.261140	0.671600
O571	O57	0.041000	0.716410	0.694350
O581	O58	0.494290	0.325010	0.746140
O591	O59	0.417000	0.113480	0.083440
O601	O60	0.274800	0.158020	0.079410
O611	O61	0.083000	0.386520	0.583440
O621	O62	0.953900	0.761140	0.828400
O631	O63	0.608550	0.968240	0.846390
O641	O64	0.891450	0.531760	0.346390
