data_MINVUA01_SL_PM
_symmetry_space_group_name_H-M	'P1'
_cell_length_a	6.812000
_cell_length_b	16.733100
_cell_length_c	13.038000
_cell_angle_alpha	90.000000
_cell_angle_beta	90.000000
_cell_angle_gamma	90.000000
_symmetry_Int_Tables_number 1

loop_
_symmetry_equiv_pos_as_xyz
'x,y,z'

loop_
_atom_site_label
_atom_site_type_symbol
_atom_site_fract_x
_atom_site_fract_y
_atom_site_fract_z
C11	C1	0.804000	0.960000	0.518000
O21	O2	0.844000	0.834000	0.657000
H31	H3	0.660380	0.925240	0.522870
C41	C4	0.304000	0.460000	0.018000
O51	O5	0.344000	0.334000	0.157000
H61	H6	0.160380	0.425240	0.022870
C71	C7	0.196000	0.540000	0.518000
O81	O8	0.156000	0.666000	0.657000
H91	H9	0.339620	0.574760	0.522870
C101	C10	0.696000	0.040000	0.018000
O111	O11	0.656000	0.166000	0.157000
H121	H12	0.839620	0.074760	0.022870
C131	C13	0.196000	0.460000	0.482000
O141	O14	0.156000	0.334000	0.343000
H151	H15	0.339620	0.425240	0.477130
C161	C16	0.696000	0.960000	0.982000
O171	O17	0.656000	0.834000	0.843000
H181	H18	0.839620	0.925240	0.977130
C191	C19	0.804000	0.040000	0.482000
O201	O20	0.844000	0.166000	0.343000
H211	H21	0.660380	0.074760	0.477130
C221	C22	0.304000	0.540000	0.982000
O231	O23	0.344000	0.666000	0.843000
H241	H24	0.160380	0.574760	0.977130
C251	C25	0.196000	0.040000	0.482000
O261	O26	0.156000	0.166000	0.343000
H271	H27	0.339620	0.074760	0.477130
C281	C28	0.696000	0.540000	0.982000
O291	O29	0.656000	0.666000	0.843000
H301	H30	0.839620	0.574760	0.977130
C311	C31	0.804000	0.460000	0.482000
O321	O32	0.844000	0.334000	0.343000
H331	H33	0.660380	0.425240	0.477130
C341	C34	0.304000	0.960000	0.982000
O351	O35	0.344000	0.834000	0.843000
H361	H36	0.160380	0.925240	0.977130
C371	C37	0.804000	0.540000	0.518000
O381	O38	0.844000	0.666000	0.657000
H391	H39	0.660380	0.574760	0.522870
C401	C40	0.304000	0.040000	0.018000
O411	O41	0.344000	0.166000	0.157000
H421	H42	0.160380	0.074760	0.022870
C431	C43	0.196000	0.960000	0.518000
O441	O44	0.156000	0.834000	0.657000
H451	H45	0.339620	0.925240	0.522870
C461	C46	0.696000	0.460000	0.018000
O471	O47	0.656000	0.334000	0.157000
H481	H48	0.839620	0.425240	0.022870
H491	H49	0.500000	0.250000	0.390700
O501	O50	0.500000	0.250000	0.314000
H511	H51	0.000000	0.750000	0.890700
O521	O52	0.000000	0.750000	0.814000
H531	H53	0.500000	0.750000	0.609300
O541	O54	0.500000	0.750000	0.686000
H551	H55	0.000000	0.250000	0.109300
O561	O56	0.000000	0.250000	0.186000
Cr571	Cr57	0.250000	0.750000	0.750000
Cr581	Cr58	0.750000	0.750000	0.750000
Cr591	Cr59	0.750000	0.250000	0.250000
Cr601	Cr60	0.250000	0.250000	0.250000
C611	C61	0.000000	0.946000	0.539000
C621	C62	0.000000	0.875000	0.612000
C631	C63	0.500000	0.446000	0.039000
C641	C64	0.500000	0.375000	0.112000
C651	C65	0.000000	0.554000	0.539000
C661	C66	0.000000	0.625000	0.612000
C671	C67	0.500000	0.054000	0.039000
C681	C68	0.500000	0.125000	0.112000
C691	C69	0.000000	0.446000	0.461000
C701	C70	0.000000	0.375000	0.388000
C711	C71	0.500000	0.946000	0.961000
C721	C72	0.500000	0.875000	0.888000
C731	C73	0.000000	0.054000	0.461000
C741	C74	0.000000	0.125000	0.388000
C751	C75	0.500000	0.554000	0.961000
C761	C76	0.500000	0.625000	0.888000
