data_MISQIQ07_freeONLY_PM
_symmetry_space_group_name_H-M	'P1'
_cell_length_a	9.342900
_cell_length_b	9.342900
_cell_length_c	6.992700
_cell_angle_alpha	90.000000
_cell_angle_beta	90.000000
_cell_angle_gamma	120.000000
_symmetry_Int_Tables_number 1

loop_
_symmetry_equiv_pos_as_xyz
'x,y,z'

loop_
_atom_site_label
_atom_site_type_symbol
_atom_site_fract_x
_atom_site_fract_y
_atom_site_fract_z
Al11	Al1	0.478920	0.641050	0.889530
O11	O1	0.428700	0.698500	0.126300
H11	H1	0.450600	0.646000	0.229500
O21	O2	0.572900	0.851500	0.792500
O31	O3	0.434200	0.967100	0.002800
Al21	Al2	0.358950	0.837870	0.222860
O41	O4	0.301500	0.730200	0.459630
H21	H2	0.354000	0.804600	0.562830
O51	O5	0.148500	0.721400	0.125830
O61	O6	0.032900	0.467100	0.336130
Al31	Al3	0.162130	0.521080	0.556200
O71	O7	0.269800	0.571300	0.792970
H31	H3	0.195400	0.549400	0.896170
O81	O8	0.278600	0.427100	0.459170
O91	O9	0.532900	0.565800	0.669470
Al41	Al4	0.641050	0.478920	0.110470
O101	O10	0.698500	0.428700	0.873700
H41	H4	0.646000	0.450600	0.770500
O111	O11	0.851500	0.572900	0.207500
O121	O12	0.967100	0.434200	0.997200
Al51	Al5	0.837870	0.358950	0.777140
O131	O13	0.730200	0.301500	0.540370
H51	H5	0.804600	0.354000	0.437170
O141	O14	0.721400	0.148500	0.874170
O151	O15	0.467100	0.032900	0.663870
Al61	Al6	0.521080	0.162130	0.443800
O161	O16	0.571300	0.269800	0.207030
H61	H6	0.549400	0.195400	0.103830
O171	O17	0.427100	0.278600	0.540830
O181	O18	0.565800	0.532900	0.330530
P11	P1	0.550670	0.000000	0.833330
P21	P2	0.000000	0.550670	0.166670
P31	P3	0.449330	0.449330	0.500000
F11	F1	0.682200	0.682200	0.000000
F21	F2	0.431800	0.431800	0.000000
F31	F3	0.317800	0.000000	0.333330
F41	F4	0.568200	0.000000	0.333330
F51	F5	0.000000	0.317800	0.666670
F61	F6	0.000000	0.568200	0.666670
