data_MISQIQ_freeONLY_PM
_symmetry_space_group_name_H-M	'P1'
_cell_length_a	9.341500
_cell_length_b	9.341500
_cell_length_c	6.995500
_cell_angle_alpha	90.000000
_cell_angle_beta	90.000000
_cell_angle_gamma	120.000000
_symmetry_Int_Tables_number 1

loop_
_symmetry_equiv_pos_as_xyz
'x,y,z'

loop_
_atom_site_label
_atom_site_type_symbol
_atom_site_fract_x
_atom_site_fract_y
_atom_site_fract_z
Al11	Al1	0.161960	0.521270	0.056250
O11	O1	0.301800	0.730200	0.959900
H11	H1	0.360500	0.831000	0.042900
O21	O2	0.278300	0.427000	0.959200
O31	O3	0.532500	0.565800	0.169100
Al21	Al2	0.478730	0.640690	0.389580
O41	O4	0.269800	0.571600	0.293230
H21	H2	0.169000	0.529500	0.376230
O51	O5	0.573000	0.851300	0.292530
O61	O6	0.434200	0.966700	0.502430
Al31	Al3	0.359310	0.838040	0.722920
O71	O7	0.428400	0.698200	0.626570
H31	H3	0.470500	0.639500	0.709570
O81	O8	0.148700	0.721700	0.625870
O91	O9	0.033300	0.467500	0.835770
Al41	Al4	0.521270	0.161960	0.943750
O101	O10	0.730200	0.301800	0.040100
H41	H4	0.831000	0.360500	0.957100
O111	O11	0.427000	0.278300	0.040800
O121	O12	0.565800	0.532500	0.830900
Al51	Al5	0.640690	0.478730	0.610420
O131	O13	0.571600	0.269800	0.706770
H51	H5	0.529500	0.169000	0.623770
O141	O14	0.851300	0.573000	0.707470
O151	O15	0.966700	0.434200	0.497570
Al61	Al6	0.838040	0.359310	0.277080
O161	O16	0.698200	0.428400	0.373430
H61	H6	0.639500	0.470500	0.290430
O171	O17	0.721700	0.148700	0.374130
O181	O18	0.467500	0.033300	0.164230
P11	P1	0.449300	0.449300	0.000000
P21	P2	0.550700	0.000000	0.333330
P31	P3	0.000000	0.550700	0.666670
F11	F1	0.000000	0.318300	0.166670
F21	F2	0.000000	0.568600	0.166670
F31	F3	0.681700	0.681700	0.500000
F41	F4	0.431400	0.431400	0.500000
F51	F5	0.318300	0.000000	0.833330
F61	F6	0.568600	0.000000	0.833330
