data_MITGIF_freeONLY_PM
_symmetry_space_group_name_H-M	'P1'
_cell_length_a	5.725200
_cell_length_b	13.633700
_cell_length_c	13.633700
_cell_angle_alpha	99.503800
_cell_angle_beta	91.773600
_cell_angle_gamma	88.226400
_symmetry_Int_Tables_number 1

loop_
_symmetry_equiv_pos_as_xyz
'x,y,z'

loop_
_atom_site_label
_atom_site_type_symbol
_atom_site_fract_x
_atom_site_fract_y
_atom_site_fract_z
Yb11	Yb1	0.584340	0.375950	0.100330
Yb21	Yb2	0.415660	0.100330	0.375950
Yb31	Yb3	0.415660	0.624050	0.899670
Yb41	Yb4	0.584340	0.899670	0.624050
H11	H1	0.783100	0.622000	0.378000
H21	H2	0.382900	0.765300	0.234700
H31	H3	0.216900	0.378000	0.622000
H41	H4	0.617100	0.234700	0.765300
C11	C1	0.994200	0.602600	0.260400
C21	C2	0.171700	0.644600	0.218000
C31	C3	0.872300	0.511900	0.206700
C41	C4	0.279600	0.602700	0.118900
C51	C5	0.788900	0.190300	0.084500
C61	C6	0.900600	0.090300	0.048100
C71	C7	0.005800	0.260400	0.602600
C81	C8	0.828300	0.218000	0.644600
C91	C9	0.127700	0.206700	0.511900
C101	C10	0.720400	0.118900	0.602700
C111	C11	0.211100	0.084500	0.190300
C121	C12	0.099400	0.048100	0.090300
C131	C13	0.005800	0.397400	0.739600
C141	C14	0.828300	0.355400	0.782000
C151	C15	0.127700	0.488100	0.793300
C161	C16	0.720400	0.397300	0.881100
C171	C17	0.211100	0.809700	0.915500
C181	C18	0.099400	0.909700	0.951900
C191	C19	0.994200	0.739600	0.397400
C201	C20	0.171700	0.782000	0.355400
C211	C21	0.872300	0.793300	0.488100
C221	C22	0.279600	0.881100	0.397300
C231	C23	0.788900	0.915500	0.809700
C241	C24	0.900600	0.951900	0.909700
C251	C25	0.905000	0.650300	0.349700
C261	C26	0.264000	0.736100	0.263900
C271	C27	0.095000	0.349700	0.650300
C281	C28	0.736000	0.263900	0.736100
C291	C29	0.807000	0.041600	0.958400
C301	C30	0.193000	0.958400	0.041600
O11	O1	0.751300	0.459700	0.253100
O21	O2	0.886700	0.492600	0.113000
O31	O3	0.395200	0.521900	0.113700
O41	O4	0.252200	0.652200	0.051600
O51	O5	0.905200	0.263900	0.129700
O61	O6	0.578600	0.203500	0.062100
O71	O7	0.322800	0.340100	0.215100
O81	O8	0.256700	0.342700	0.994700
O91	O9	0.248700	0.253100	0.459700
O101	O10	0.113300	0.113000	0.492600
O111	O11	0.604800	0.113700	0.521900
O121	O12	0.747800	0.051600	0.652200
O131	O13	0.094800	0.129700	0.263900
O141	O14	0.421400	0.062100	0.203500
O151	O15	0.677200	0.215100	0.340100
O161	O16	0.743300	0.994700	0.342700
O171	O17	0.248700	0.540300	0.746900
O181	O18	0.113300	0.507400	0.887000
O191	O19	0.604800	0.478100	0.886300
O201	O20	0.747800	0.347800	0.948400
O211	O21	0.094800	0.736100	0.870300
O221	O22	0.421400	0.796500	0.937900
O231	O23	0.677200	0.659900	0.784900
O241	O24	0.743300	0.657300	0.005300
O251	O25	0.751300	0.746900	0.540300
O261	O26	0.886700	0.887000	0.507400
O271	O27	0.395200	0.886300	0.478100
O281	O28	0.252200	0.948400	0.347800
O291	O29	0.905200	0.870300	0.736100
O301	O30	0.578600	0.937900	0.796500
O311	O31	0.322800	0.784900	0.659900
O321	O32	0.256700	0.005300	0.657300
