data_MODMOH_charged_PM
_symmetry_space_group_name_H-M	'P1'
_cell_length_a	11.065500
_cell_length_b	13.192100
_cell_length_c	15.783800
_cell_angle_alpha	90.000000
_cell_angle_beta	90.000000
_cell_angle_gamma	114.797000
_symmetry_Int_Tables_number 1

loop_
_symmetry_equiv_pos_as_xyz
'x,y,z'

loop_
_atom_site_label
_atom_site_type_symbol
_atom_site_fract_x
_atom_site_fract_y
_atom_site_fract_z
Cd11	Cd1	0.500000	0.500000	0.500000
Cd21	Cd2	0.000000	0.500000	0.000000
Cd31	Cd3	0.617580	0.235160	0.750000
Cd41	Cd4	0.382420	0.764840	0.750000
Cd51	Cd5	0.382420	0.764840	0.250000
Cd61	Cd6	0.617580	0.235160	0.250000
Cd71	Cd7	0.037520	0.805580	0.500000
Cd81	Cd8	0.962480	0.194420	0.500000
Cd91	Cd9	0.768060	0.805580	0.000000
Cd101	Cd10	0.231940	0.194420	0.000000
C11	C1	0.565390	0.336180	0.653900
C21	C2	0.145800	0.790200	0.387700
C31	C3	0.434610	0.663820	0.653900
C41	C4	0.854200	0.209800	0.387700
C51	C5	0.770790	0.336180	0.846100
C61	C6	0.644400	0.790200	0.112300
C71	C7	0.229210	0.663820	0.846100
C81	C8	0.355600	0.209800	0.112300
C91	C9	0.434610	0.663820	0.346100
C101	C10	0.854200	0.209800	0.612300
C111	C11	0.565390	0.336180	0.346100
C121	C12	0.145800	0.790200	0.612300
C131	C13	0.229210	0.663820	0.153900
C141	C14	0.355600	0.209800	0.887700
C151	C15	0.770790	0.336180	0.153900
C161	C16	0.644400	0.790200	0.887700
C171	C17	0.524000	0.048000	0.750000
C181	C18	0.476000	0.952000	0.750000
C191	C19	0.476000	0.952000	0.250000
C201	C20	0.524000	0.048000	0.250000
C211	C21	0.828300	0.680200	0.500000
C221	C22	0.011100	0.960200	0.500000
C231	C23	0.171700	0.319800	0.500000
C241	C24	0.988900	0.039800	0.500000
C251	C25	0.851900	0.680200	0.000000
C261	C26	0.949100	0.960200	0.000000
C271	C27	0.148100	0.319800	0.000000
C281	C28	0.050900	0.039800	0.000000
N11	N1	0.539520	0.389240	0.607100
N21	N2	0.431800	0.222000	0.838000
N31	N3	0.460480	0.610760	0.607100
N41	N4	0.568200	0.778000	0.838000
N51	N5	0.849720	0.389240	0.892900
N61	N6	0.790200	0.222000	0.662000
N71	N7	0.150280	0.610760	0.892900
N81	N8	0.209800	0.778000	0.662000
N91	N9	0.460480	0.610760	0.392900
N101	N10	0.568200	0.778000	0.162000
N111	N11	0.539520	0.389240	0.392900
N121	N12	0.431800	0.222000	0.162000
N131	N13	0.150280	0.610760	0.107100
N141	N14	0.209800	0.778000	0.338000
N151	N15	0.849720	0.389240	0.107100
N161	N16	0.790200	0.222000	0.338000
N171	N17	0.720100	0.618400	0.500000
N181	N18	0.279900	0.381600	0.500000
N191	N19	0.898300	0.618400	0.000000
N201	N20	0.101700	0.381600	0.000000
H11	H1	0.278800	0.274200	0.677000
H21	H2	0.189000	0.083800	0.676100
H31	H3	0.721200	0.725800	0.677000
H41	H4	0.811000	0.916200	0.676100
H51	H5	0.995400	0.274200	0.823000
H61	H6	0.894800	0.083800	0.823900
H71	H7	0.004600	0.725800	0.823000
H81	H8	0.105200	0.916200	0.823900
C291	C29	0.201000	0.234600	0.707100
C301	C30	0.147600	0.121200	0.706000
C311	C31	0.799000	0.765400	0.707100
C321	C32	0.852400	0.878800	0.706000
C331	C33	0.033600	0.234600	0.792900
C341	C34	0.973600	0.121200	0.794000
C351	C35	0.966400	0.765400	0.792900
C361	C36	0.026400	0.878800	0.794000
C371	C37	0.031000	0.062000	0.750000
C381	C38	0.206200	0.412400	0.750000
C391	C39	0.969000	0.938000	0.750000
C401	C40	0.793800	0.587600	0.750000
N211	N21	0.145000	0.290000	0.750000
N221	N22	0.855000	0.710000	0.750000
H91	H9	0.721200	0.725800	0.323000
H101	H10	0.811000	0.916200	0.323900
H111	H11	0.278800	0.274200	0.323000
H121	H12	0.189000	0.083800	0.323900
H131	H13	0.004600	0.725800	0.177000
H141	H14	0.105200	0.916200	0.176100
H151	H15	0.995400	0.274200	0.177000
H161	H16	0.894800	0.083800	0.176100
C411	C41	0.799000	0.765400	0.292900
C421	C42	0.852400	0.878800	0.294000
C431	C43	0.201000	0.234600	0.292900
C441	C44	0.147600	0.121200	0.294000
C451	C45	0.966400	0.765400	0.207100
C461	C46	0.026400	0.878800	0.206000
C471	C47	0.033600	0.234600	0.207100
C481	C48	0.973600	0.121200	0.206000
C491	C49	0.969000	0.938000	0.250000
C501	C50	0.793800	0.587600	0.250000
C511	C51	0.031000	0.062000	0.250000
C521	C52	0.206200	0.412400	0.250000
N231	N23	0.855000	0.710000	0.250000
N241	N24	0.145000	0.290000	0.250000
