data_MOMSIS_freeONLY_PM
_symmetry_space_group_name_H-M	'P1'
_cell_length_a	20.570000
_cell_length_b	35.815000
_cell_length_c	10.106000
_cell_angle_alpha	90.000000
_cell_angle_beta	114.694000
_cell_angle_gamma	90.000000
_symmetry_Int_Tables_number 1

loop_
_symmetry_equiv_pos_as_xyz
'x,y,z'

loop_
_atom_site_label
_atom_site_type_symbol
_atom_site_fract_x
_atom_site_fract_y
_atom_site_fract_z
Nd11	Nd1	0.757520	0.192590	0.508910
Nd21	Nd2	0.637520	0.030950	0.479230
S11	S1	0.752920	0.973790	0.371900
S21	S2	0.558380	0.035710	0.138100
S31	S3	0.706320	0.110880	0.516400
S41	S4	0.904930	0.157560	0.537900
S51	S5	0.867780	0.267840	0.442870
S61	S6	0.844070	0.252630	0.822360
O11	O1	0.775000	0.936800	0.405000
O21	O2	0.714100	0.979900	0.222200
O31	O3	0.820700	0.995500	0.420900
O41	O4	0.715900	0.987300	0.454600
O51	O5	0.586700	0.027520	0.030400
O61	O6	0.565300	0.002940	0.229100
O71	O7	0.484300	0.048250	0.060700
O81	O8	0.599900	0.065120	0.239100
O91	O9	0.738700	0.075410	0.501700
O101	O10	0.640900	0.100470	0.532300
O111	O11	0.690400	0.135180	0.389800
O121	O12	0.756800	0.132490	0.643000
O131	O13	0.918700	0.118120	0.565800
O141	O14	0.966300	0.177040	0.533400
O151	O15	0.838400	0.163750	0.407800
O161	O16	0.893400	0.176020	0.659800
O171	O17	0.816500	0.248020	0.488400
O181	O18	0.860600	0.255770	0.302500
O191	O19	0.849900	0.307600	0.444000
O201	O20	0.940400	0.261430	0.553700
O211	O21	0.799600	0.219450	0.752400
O221	O22	0.916500	0.246640	0.831600
O231	O23	0.813000	0.286610	0.736800
O241	O24	0.847300	0.256600	0.967700
Nd31	Nd3	0.257520	0.692590	0.508910
Nd41	Nd4	0.137520	0.530950	0.479230
S71	S7	0.252920	0.473790	0.371900
S81	S8	0.058380	0.535710	0.138100
S91	S9	0.206320	0.610880	0.516400
S101	S10	0.404930	0.657560	0.537900
S111	S11	0.367780	0.767840	0.442870
S121	S12	0.344070	0.752630	0.822360
O251	O25	0.275000	0.436800	0.405000
O261	O26	0.214100	0.479900	0.222200
O271	O27	0.320700	0.495500	0.420900
O281	O28	0.215900	0.487300	0.454600
O291	O29	0.086700	0.527520	0.030400
O301	O30	0.065300	0.502940	0.229100
O311	O31	0.984300	0.548250	0.060700
O321	O32	0.099900	0.565120	0.239100
O331	O33	0.238700	0.575410	0.501700
O341	O34	0.140900	0.600470	0.532300
O351	O35	0.190400	0.635180	0.389800
O361	O36	0.256800	0.632490	0.643000
O371	O37	0.418700	0.618120	0.565800
O381	O38	0.466300	0.677040	0.533400
O391	O39	0.338400	0.663750	0.407800
O401	O40	0.393400	0.676020	0.659800
O411	O41	0.316500	0.748020	0.488400
O421	O42	0.360600	0.755770	0.302500
O431	O43	0.349900	0.807600	0.444000
O441	O44	0.440400	0.761430	0.553700
O451	O45	0.299600	0.719450	0.752400
O461	O46	0.416500	0.746640	0.831600
O471	O47	0.313000	0.786610	0.736800
O481	O48	0.347300	0.756600	0.967700
Nd51	Nd5	0.242480	0.192590	0.991090
Nd61	Nd6	0.362480	0.030950	0.020770
S131	S13	0.247080	0.973790	0.128100
S141	S14	0.441620	0.035710	0.361900
S151	S15	0.293680	0.110880	0.983600
S161	S16	0.095070	0.157560	0.962100
S171	S17	0.132220	0.267840	0.057130
S181	S18	0.155930	0.252630	0.677640
O491	O49	0.225000	0.936800	0.095000
O501	O50	0.285900	0.979900	0.277800
O511	O51	0.179300	0.995500	0.079100
O521	O52	0.284100	0.987300	0.045400
O531	O53	0.413300	0.027520	0.469600
O541	O54	0.434700	0.002940	0.270900
O551	O55	0.515700	0.048250	0.439300
O561	O56	0.400100	0.065120	0.260900
O571	O57	0.261300	0.075410	0.998300
O581	O58	0.359100	0.100470	0.967700
O591	O59	0.309600	0.135180	0.110200
O601	O60	0.243200	0.132490	0.857000
O611	O61	0.081300	0.118120	0.934200
O621	O62	0.033700	0.177040	0.966600
O631	O63	0.161600	0.163750	0.092200
O641	O64	0.106600	0.176020	0.840200
O651	O65	0.183500	0.248020	0.011600
O661	O66	0.139400	0.255770	0.197500
O671	O67	0.150100	0.307600	0.056000
O681	O68	0.059600	0.261430	0.946300
O691	O69	0.200400	0.219450	0.747600
O701	O70	0.083500	0.246640	0.668400
O711	O71	0.187000	0.286610	0.763200
O721	O72	0.152700	0.256600	0.532300
Nd71	Nd7	0.742480	0.692590	0.991090
Nd81	Nd8	0.862480	0.530950	0.020770
S191	S19	0.747080	0.473790	0.128100
S201	S20	0.941620	0.535710	0.361900
S211	S21	0.793680	0.610880	0.983600
S221	S22	0.595070	0.657560	0.962100
S231	S23	0.632220	0.767840	0.057130
S241	S24	0.655930	0.752630	0.677640
O731	O73	0.725000	0.436800	0.095000
O741	O74	0.785900	0.479900	0.277800
O751	O75	0.679300	0.495500	0.079100
O761	O76	0.784100	0.487300	0.045400
O771	O77	0.913300	0.527520	0.469600
O781	O78	0.934700	0.502940	0.270900
O791	O79	0.015700	0.548250	0.439300
O801	O80	0.900100	0.565120	0.260900
O811	O81	0.761300	0.575410	0.998300
O821	O82	0.859100	0.600470	0.967700
O831	O83	0.809600	0.635180	0.110200
O841	O84	0.743200	0.632490	0.857000
O851	O85	0.581300	0.618120	0.934200
O861	O86	0.533700	0.677040	0.966600
O871	O87	0.661600	0.663750	0.092200
O881	O88	0.606600	0.676020	0.840200
O891	O89	0.683500	0.748020	0.011600
O901	O90	0.639400	0.755770	0.197500
O911	O91	0.650100	0.807600	0.056000
O921	O92	0.559600	0.761430	0.946300
O931	O93	0.700400	0.719450	0.747600
O941	O94	0.583500	0.746640	0.668400
O951	O95	0.687000	0.786610	0.763200
O961	O96	0.652700	0.756600	0.532300
Nd91	Nd9	0.242480	0.807410	0.491090
Nd101	Nd10	0.362480	0.969050	0.520770
S251	S25	0.247080	0.026210	0.628100
S261	S26	0.441620	0.964290	0.861900
S271	S27	0.293680	0.889120	0.483600
S281	S28	0.095070	0.842440	0.462100
S291	S29	0.132220	0.732160	0.557130
S301	S30	0.155930	0.747370	0.177640
O971	O97	0.225000	0.063200	0.595000
O981	O98	0.285900	0.020100	0.777800
O991	O99	0.179300	0.004500	0.579100
O1001	O100	0.284100	0.012700	0.545400
O1011	O101	0.413300	0.972480	0.969600
O1021	O102	0.434700	0.997060	0.770900
O1031	O103	0.515700	0.951750	0.939300
O1041	O104	0.400100	0.934880	0.760900
O1051	O105	0.261300	0.924590	0.498300
O1061	O106	0.359100	0.899530	0.467700
O1071	O107	0.309600	0.864820	0.610200
O1081	O108	0.243200	0.867510	0.357000
O1091	O109	0.081300	0.881880	0.434200
O1101	O110	0.033700	0.822960	0.466600
O1111	O111	0.161600	0.836250	0.592200
O1121	O112	0.106600	0.823980	0.340200
O1131	O113	0.183500	0.751980	0.511600
O1141	O114	0.139400	0.744230	0.697500
O1151	O115	0.150100	0.692400	0.556000
O1161	O116	0.059600	0.738570	0.446300
O1171	O117	0.200400	0.780550	0.247600
O1181	O118	0.083500	0.753360	0.168400
O1191	O119	0.187000	0.713390	0.263200
O1201	O120	0.152700	0.743400	0.032300
Nd111	Nd11	0.742480	0.307410	0.491090
Nd121	Nd12	0.862480	0.469050	0.520770
S311	S31	0.747080	0.526210	0.628100
S321	S32	0.941620	0.464290	0.861900
S331	S33	0.793680	0.389120	0.483600
S341	S34	0.595070	0.342440	0.462100
S351	S35	0.632220	0.232160	0.557130
S361	S36	0.655930	0.247370	0.177640
O1211	O121	0.725000	0.563200	0.595000
O1221	O122	0.785900	0.520100	0.777800
O1231	O123	0.679300	0.504500	0.579100
O1241	O124	0.784100	0.512700	0.545400
O1251	O125	0.913300	0.472480	0.969600
O1261	O126	0.934700	0.497060	0.770900
O1271	O127	0.015700	0.451750	0.939300
O1281	O128	0.900100	0.434880	0.760900
O1291	O129	0.761300	0.424590	0.498300
O1301	O130	0.859100	0.399530	0.467700
O1311	O131	0.809600	0.364820	0.610200
O1321	O132	0.743200	0.367510	0.357000
O1331	O133	0.581300	0.381880	0.434200
O1341	O134	0.533700	0.322960	0.466600
O1351	O135	0.661600	0.336250	0.592200
O1361	O136	0.606600	0.323980	0.340200
O1371	O137	0.683500	0.251980	0.511600
O1381	O138	0.639400	0.244230	0.697500
O1391	O139	0.650100	0.192400	0.556000
O1401	O140	0.559600	0.238570	0.446300
O1411	O141	0.700400	0.280550	0.247600
O1421	O142	0.583500	0.253360	0.168400
O1431	O143	0.687000	0.213390	0.263200
O1441	O144	0.652700	0.243400	0.032300
Nd131	Nd13	0.757520	0.807410	0.008910
Nd141	Nd14	0.637520	0.969050	0.979230
S371	S37	0.752920	0.026210	0.871900
S381	S38	0.558380	0.964290	0.638100
S391	S39	0.706320	0.889120	0.016400
S401	S40	0.904930	0.842440	0.037900
S411	S41	0.867780	0.732160	0.942870
S421	S42	0.844070	0.747370	0.322360
O1451	O145	0.775000	0.063200	0.905000
O1461	O146	0.714100	0.020100	0.722200
O1471	O147	0.820700	0.004500	0.920900
O1481	O148	0.715900	0.012700	0.954600
O1491	O149	0.586700	0.972480	0.530400
O1501	O150	0.565300	0.997060	0.729100
O1511	O151	0.484300	0.951750	0.560700
O1521	O152	0.599900	0.934880	0.739100
O1531	O153	0.738700	0.924590	0.001700
O1541	O154	0.640900	0.899530	0.032300
O1551	O155	0.690400	0.864820	0.889800
O1561	O156	0.756800	0.867510	0.143000
O1571	O157	0.918700	0.881880	0.065800
O1581	O158	0.966300	0.822960	0.033400
O1591	O159	0.838400	0.836250	0.907800
O1601	O160	0.893400	0.823980	0.159800
O1611	O161	0.816500	0.751980	0.988400
O1621	O162	0.860600	0.744230	0.802500
O1631	O163	0.849900	0.692400	0.944000
O1641	O164	0.940400	0.738570	0.053700
O1651	O165	0.799600	0.780550	0.252400
O1661	O166	0.916500	0.753360	0.331600
O1671	O167	0.813000	0.713390	0.236800
O1681	O168	0.847300	0.743400	0.467700
Nd151	Nd15	0.257520	0.307410	0.008910
Nd161	Nd16	0.137520	0.469050	0.979230
S431	S43	0.252920	0.526210	0.871900
S441	S44	0.058380	0.464290	0.638100
S451	S45	0.206320	0.389120	0.016400
S461	S46	0.404930	0.342440	0.037900
S471	S47	0.367780	0.232160	0.942870
S481	S48	0.344070	0.247370	0.322360
O1691	O169	0.275000	0.563200	0.905000
O1701	O170	0.214100	0.520100	0.722200
O1711	O171	0.320700	0.504500	0.920900
O1721	O172	0.215900	0.512700	0.954600
O1731	O173	0.086700	0.472480	0.530400
O1741	O174	0.065300	0.497060	0.729100
O1751	O175	0.984300	0.451750	0.560700
O1761	O176	0.099900	0.434880	0.739100
O1771	O177	0.238700	0.424590	0.001700
O1781	O178	0.140900	0.399530	0.032300
O1791	O179	0.190400	0.364820	0.889800
O1801	O180	0.256800	0.367510	0.143000
O1811	O181	0.418700	0.381880	0.065800
O1821	O182	0.466300	0.322960	0.033400
O1831	O183	0.338400	0.336250	0.907800
O1841	O184	0.393400	0.323980	0.159800
O1851	O185	0.316500	0.251980	0.988400
O1861	O186	0.360600	0.244230	0.802500
O1871	O187	0.349900	0.192400	0.944000
O1881	O188	0.440400	0.238570	0.053700
O1891	O189	0.299600	0.280550	0.252400
O1901	O190	0.416500	0.253360	0.331600
O1911	O191	0.313000	0.213390	0.236800
O1921	O192	0.347300	0.243400	0.467700
Nd171	Nd17	0.000000	0.220020	0.750000
Nd181	Nd18	0.500000	0.720020	0.750000
Nd191	Nd19	0.000000	0.779980	0.250000
Nd201	Nd20	0.500000	0.279980	0.250000
