data_MONQIR_freeONLY_PM
_symmetry_space_group_name_H-M	'P1'
_cell_length_a	15.114000
_cell_length_b	8.782000
_cell_length_c	15.345000
_cell_angle_alpha	90.000000
_cell_angle_beta	95.378000
_cell_angle_gamma	90.000000
_symmetry_Int_Tables_number 1

loop_
_symmetry_equiv_pos_as_xyz
'x,y,z'

loop_
_atom_site_label
_atom_site_type_symbol
_atom_site_fract_x
_atom_site_fract_y
_atom_site_fract_z
Li11	Li1	0.866580	0.256300	0.361660
N11	N1	0.729180	0.585060	0.167850
N21	N2	0.834550	0.642740	0.974570
N31	N3	0.004570	0.335950	0.143590
N41	N4	0.815130	0.418150	0.253840
C11	C1	0.801830	0.546350	0.126340
C21	C2	0.854300	0.445990	0.178810
C31	C3	0.937140	0.383110	0.159750
C41	C4	0.741780	0.504510	0.242240
C51	C5	0.818730	0.601310	0.042290
C61	C6	0.676030	0.514740	0.309080
F11	F1	0.599470	0.575050	0.273930
F21	F2	0.704630	0.602940	0.377470
F31	F3	0.657680	0.378950	0.341790
Li21	Li2	0.366580	0.756300	0.361660
N51	N5	0.229180	0.085060	0.167850
N61	N6	0.334550	0.142740	0.974570
N71	N7	0.504570	0.835950	0.143590
N81	N8	0.315130	0.918150	0.253840
C71	C7	0.301830	0.046350	0.126340
C81	C8	0.354300	0.945990	0.178810
C91	C9	0.437140	0.883110	0.159750
C101	C10	0.241780	0.004510	0.242240
C111	C11	0.318730	0.101310	0.042290
C121	C12	0.176030	0.014740	0.309080
F41	F4	0.099470	0.075050	0.273930
F51	F5	0.204630	0.102940	0.377470
F61	F6	0.157680	0.878950	0.341790
Li31	Li3	0.133420	0.256300	0.138340
N91	N9	0.270820	0.585060	0.332150
N101	N10	0.165450	0.642740	0.525430
N111	N11	0.995430	0.335950	0.356410
N121	N12	0.184870	0.418150	0.246160
C131	C13	0.198170	0.546350	0.373660
C141	C14	0.145700	0.445990	0.321190
C151	C15	0.062860	0.383110	0.340250
C161	C16	0.258220	0.504510	0.257760
C171	C17	0.181270	0.601310	0.457710
C181	C18	0.323970	0.514740	0.190920
F71	F7	0.400530	0.575050	0.226070
F81	F8	0.295370	0.602940	0.122530
F91	F9	0.342320	0.378950	0.158210
Li41	Li4	0.633420	0.756300	0.138340
N131	N13	0.770820	0.085060	0.332150
N141	N14	0.665450	0.142740	0.525430
N151	N15	0.495430	0.835950	0.356410
N161	N16	0.684870	0.918150	0.246160
C191	C19	0.698170	0.046350	0.373660
C201	C20	0.645700	0.945990	0.321190
C211	C21	0.562860	0.883110	0.340250
C221	C22	0.758220	0.004510	0.257760
C231	C23	0.681270	0.101310	0.457710
C241	C24	0.823970	0.014740	0.190920
F101	F10	0.900530	0.075050	0.226070
F111	F11	0.795370	0.102940	0.122530
F121	F12	0.842320	0.878950	0.158210
Li51	Li5	0.133420	0.743700	0.638340
N171	N17	0.270820	0.414940	0.832150
N181	N18	0.165450	0.357260	0.025430
N191	N19	0.995430	0.664050	0.856410
N201	N20	0.184870	0.581850	0.746160
C251	C25	0.198170	0.453650	0.873660
C261	C26	0.145700	0.554010	0.821190
C271	C27	0.062860	0.616890	0.840250
C281	C28	0.258220	0.495490	0.757760
C291	C29	0.181270	0.398690	0.957710
C301	C30	0.323970	0.485260	0.690920
F131	F13	0.400530	0.424950	0.726070
F141	F14	0.295370	0.397060	0.622530
F151	F15	0.342320	0.621050	0.658210
Li61	Li6	0.633420	0.243700	0.638340
N211	N21	0.770820	0.914940	0.832150
N221	N22	0.665450	0.857260	0.025430
N231	N23	0.495430	0.164050	0.856410
N241	N24	0.684870	0.081850	0.746160
C311	C31	0.698170	0.953650	0.873660
C321	C32	0.645700	0.054010	0.821190
C331	C33	0.562860	0.116890	0.840250
C341	C34	0.758220	0.995490	0.757760
C351	C35	0.681270	0.898690	0.957710
C361	C36	0.823970	0.985260	0.690920
F161	F16	0.900530	0.924950	0.726070
F171	F17	0.795370	0.897060	0.622530
F181	F18	0.842320	0.121050	0.658210
Li71	Li7	0.866580	0.743700	0.861660
N251	N25	0.729180	0.414940	0.667850
N261	N26	0.834550	0.357260	0.474570
N271	N27	0.004570	0.664050	0.643590
N281	N28	0.815130	0.581850	0.753840
C371	C37	0.801830	0.453650	0.626340
C381	C38	0.854300	0.554010	0.678810
C391	C39	0.937140	0.616890	0.659750
C401	C40	0.741780	0.495490	0.742240
C411	C41	0.818730	0.398690	0.542290
C421	C42	0.676030	0.485260	0.809080
F191	F19	0.599470	0.424950	0.773930
F201	F20	0.704630	0.397060	0.877470
F211	F21	0.657680	0.621050	0.841790
Li81	Li8	0.366580	0.243700	0.861660
N291	N29	0.229180	0.914940	0.667850
N301	N30	0.334550	0.857260	0.474570
N311	N31	0.504570	0.164050	0.643590
N321	N32	0.315130	0.081850	0.753840
C431	C43	0.301830	0.953650	0.626340
C441	C44	0.354300	0.054010	0.678810
C451	C45	0.437140	0.116890	0.659750
C461	C46	0.241780	0.995490	0.742240
C471	C47	0.318730	0.898690	0.542290
C481	C48	0.176030	0.985260	0.809080
F221	F22	0.099470	0.924950	0.773930
F231	F23	0.204630	0.897060	0.877470
F241	F24	0.157680	0.121050	0.841790
