data_MORFEG_freeONLY_PM
_symmetry_space_group_name_H-M	'P1'
_cell_length_a	14.631500
_cell_length_b	24.776000
_cell_length_c	33.169000
_cell_angle_alpha	90.000000
_cell_angle_beta	90.000000
_cell_angle_gamma	90.000000
_symmetry_Int_Tables_number 1

loop_
_symmetry_equiv_pos_as_xyz
'x,y,z'

loop_
_atom_site_label
_atom_site_type_symbol
_atom_site_fract_x
_atom_site_fract_y
_atom_site_fract_z
Cu11	Cu1	0.561130	0.175680	0.590360
C11	C1	0.507800	0.079900	0.544420
C21	C2	0.429300	0.052800	0.521500
H11	H1	0.453900	0.033600	0.498500
H21	H2	0.400100	0.026600	0.539000
C31	C3	0.359600	0.105700	0.468500
H31	H3	0.402300	0.090400	0.451200
C41	C4	0.300500	0.114000	0.532900
H41	H4	0.302300	0.104600	0.560000
C51	C5	0.296900	0.142000	0.453700
H51	H5	0.297400	0.151200	0.426600
C61	C6	0.236900	0.149800	0.519710
H61	H6	0.195300	0.164600	0.537900
C71	C7	0.233300	0.164700	0.479300
C81	C8	0.161200	0.201600	0.463600
C91	C9	0.143700	0.204400	0.422700
H71	H7	0.177300	0.183400	0.404800
C101	C10	0.107800	0.233500	0.488440
H81	H8	0.116900	0.232600	0.516200
C111	C11	0.076600	0.238200	0.408470
H91	H9	0.065700	0.239400	0.380900
C121	C12	0.041700	0.266300	0.472580
H101	H10	0.006300	0.287000	0.490000
N11	N1	0.360000	0.092200	0.507430
N21	N2	0.026100	0.269550	0.432730
O11	O1	0.486100	0.122200	0.562700
O21	O2	0.581800	0.055920	0.544120
Cu21	Cu2	0.561130	0.675680	0.090360
C131	C13	0.507800	0.579900	0.044420
C141	C14	0.429300	0.552800	0.021500
H111	H11	0.453900	0.533600	0.998500
H121	H12	0.400100	0.526600	0.039000
C151	C15	0.359600	0.605700	0.968500
H131	H13	0.402300	0.590400	0.951200
C161	C16	0.300500	0.614000	0.032900
H141	H14	0.302300	0.604600	0.060000
C171	C17	0.296900	0.642000	0.953700
H151	H15	0.297400	0.651200	0.926600
C181	C18	0.236900	0.649800	0.019710
H161	H16	0.195300	0.664600	0.037900
C191	C19	0.233300	0.664700	0.979300
C201	C20	0.161200	0.701600	0.963600
C211	C21	0.143700	0.704400	0.922700
H171	H17	0.177300	0.683400	0.904800
C221	C22	0.107800	0.733500	0.988440
H181	H18	0.116900	0.732600	0.016200
C231	C23	0.076600	0.738200	0.908470
H191	H19	0.065700	0.739400	0.880900
C241	C24	0.041700	0.766300	0.972580
H201	H20	0.006300	0.787000	0.990000
N31	N3	0.360000	0.592200	0.007430
N41	N4	0.026100	0.769550	0.932730
O31	O3	0.486100	0.622200	0.062700
O41	O4	0.581800	0.555920	0.044120
Cu31	Cu3	0.061130	0.175680	0.090360
C251	C25	0.007800	0.079900	0.044420
C261	C26	0.929300	0.052800	0.021500
H211	H21	0.953900	0.033600	0.998500
H221	H22	0.900100	0.026600	0.039000
C271	C27	0.859600	0.105700	0.968500
H231	H23	0.902300	0.090400	0.951200
C281	C28	0.800500	0.114000	0.032900
H241	H24	0.802300	0.104600	0.060000
C291	C29	0.796900	0.142000	0.953700
H251	H25	0.797400	0.151200	0.926600
C301	C30	0.736900	0.149800	0.019710
H261	H26	0.695300	0.164600	0.037900
C311	C31	0.733300	0.164700	0.979300
C321	C32	0.661200	0.201600	0.963600
C331	C33	0.643700	0.204400	0.922700
H271	H27	0.677300	0.183400	0.904800
C341	C34	0.607800	0.233500	0.988440
H281	H28	0.616900	0.232600	0.016200
C351	C35	0.576600	0.238200	0.908470
H291	H29	0.565700	0.239400	0.880900
C361	C36	0.541700	0.266300	0.972580
H301	H30	0.506300	0.287000	0.990000
N51	N5	0.860000	0.092200	0.007430
N61	N6	0.526100	0.269550	0.932730
O51	O5	0.986100	0.122200	0.062700
O61	O6	0.081800	0.055920	0.044120
Cu41	Cu4	0.061130	0.675680	0.590360
C371	C37	0.007800	0.579900	0.544420
C381	C38	0.929300	0.552800	0.521500
H311	H31	0.953900	0.533600	0.498500
H321	H32	0.900100	0.526600	0.539000
C391	C39	0.859600	0.605700	0.468500
H331	H33	0.902300	0.590400	0.451200
C401	C40	0.800500	0.614000	0.532900
H341	H34	0.802300	0.604600	0.560000
C411	C41	0.796900	0.642000	0.453700
H351	H35	0.797400	0.651200	0.426600
C421	C42	0.736900	0.649800	0.519710
H361	H36	0.695300	0.664600	0.537900
C431	C43	0.733300	0.664700	0.479300
C441	C44	0.661200	0.701600	0.463600
C451	C45	0.643700	0.704400	0.422700
H371	H37	0.677300	0.683400	0.404800
C461	C46	0.607800	0.733500	0.488440
H381	H38	0.616900	0.732600	0.516200
C471	C47	0.576600	0.738200	0.408470
H391	H39	0.565700	0.739400	0.380900
C481	C48	0.541700	0.766300	0.472580
H401	H40	0.506300	0.787000	0.490000
N71	N7	0.860000	0.592200	0.507430
N81	N8	0.526100	0.769550	0.432730
O71	O7	0.986100	0.622200	0.562700
O81	O8	0.081800	0.555920	0.544120
Cu51	Cu5	0.188870	0.574320	0.590360
C491	C49	0.242200	0.670100	0.544420
C501	C50	0.320700	0.697200	0.521500
H411	H41	0.296100	0.716400	0.498500
H421	H42	0.349900	0.723400	0.539000
C511	C51	0.390400	0.644300	0.468500
H431	H43	0.347700	0.659600	0.451200
C521	C52	0.449500	0.636000	0.532900
H441	H44	0.447700	0.645400	0.560000
C531	C53	0.453100	0.608000	0.453700
H451	H45	0.452600	0.598800	0.426600
C541	C54	0.513100	0.600200	0.519710
H461	H46	0.554700	0.585400	0.537900
C551	C55	0.516700	0.585300	0.479300
C561	C56	0.588800	0.548400	0.463600
C571	C57	0.606300	0.545600	0.422700
H471	H47	0.572700	0.566600	0.404800
C581	C58	0.642200	0.516500	0.488440
H481	H48	0.633100	0.517400	0.516200
C591	C59	0.673400	0.511800	0.408470
H491	H49	0.684300	0.510600	0.380900
C601	C60	0.708300	0.483700	0.472580
H501	H50	0.743700	0.463000	0.490000
N91	N9	0.390000	0.657800	0.507430
N101	N10	0.723900	0.480450	0.432730
O91	O9	0.263900	0.627800	0.562700
O101	O10	0.168200	0.694080	0.544120
Cu61	Cu6	0.188870	0.074320	0.090360
C611	C61	0.242200	0.170100	0.044420
C621	C62	0.320700	0.197200	0.021500
H511	H51	0.296100	0.216400	0.998500
H521	H52	0.349900	0.223400	0.039000
C631	C63	0.390400	0.144300	0.968500
H531	H53	0.347700	0.159600	0.951200
C641	C64	0.449500	0.136000	0.032900
H541	H54	0.447700	0.145400	0.060000
C651	C65	0.453100	0.108000	0.953700
H551	H55	0.452600	0.098800	0.926600
C661	C66	0.513100	0.100200	0.019710
H561	H56	0.554700	0.085400	0.037900
C671	C67	0.516700	0.085300	0.979300
C681	C68	0.588800	0.048400	0.963600
C691	C69	0.606300	0.045600	0.922700
H571	H57	0.572700	0.066600	0.904800
C701	C70	0.642200	0.016500	0.988440
H581	H58	0.633100	0.017400	0.016200
C711	C71	0.673400	0.011800	0.908470
H591	H59	0.684300	0.010600	0.880900
C721	C72	0.708300	0.983700	0.972580
H601	H60	0.743700	0.963000	0.990000
N111	N11	0.390000	0.157800	0.007430
N121	N12	0.723900	0.980450	0.932730
O111	O11	0.263900	0.127800	0.062700
O121	O12	0.168200	0.194080	0.044120
Cu71	Cu7	0.688870	0.574320	0.090360
C731	C73	0.742200	0.670100	0.044420
C741	C74	0.820700	0.697200	0.021500
H611	H61	0.796100	0.716400	0.998500
H621	H62	0.849900	0.723400	0.039000
C751	C75	0.890400	0.644300	0.968500
H631	H63	0.847700	0.659600	0.951200
C761	C76	0.949500	0.636000	0.032900
H641	H64	0.947700	0.645400	0.060000
C771	C77	0.953100	0.608000	0.953700
H651	H65	0.952600	0.598800	0.926600
C781	C78	0.013100	0.600200	0.019710
H661	H66	0.054700	0.585400	0.037900
C791	C79	0.016700	0.585300	0.979300
C801	C80	0.088800	0.548400	0.963600
C811	C81	0.106300	0.545600	0.922700
H671	H67	0.072700	0.566600	0.904800
C821	C82	0.142200	0.516500	0.988440
H681	H68	0.133100	0.517400	0.016200
C831	C83	0.173400	0.511800	0.908470
H691	H69	0.184300	0.510600	0.880900
C841	C84	0.208300	0.483700	0.972580
H701	H70	0.243700	0.463000	0.990000
N131	N13	0.890000	0.657800	0.007430
N141	N14	0.223900	0.480450	0.932730
O131	O13	0.763900	0.627800	0.062700
O141	O14	0.668200	0.694080	0.044120
Cu81	Cu8	0.688870	0.074320	0.590360
C851	C85	0.742200	0.170100	0.544420
C861	C86	0.820700	0.197200	0.521500
H711	H71	0.796100	0.216400	0.498500
H721	H72	0.849900	0.223400	0.539000
C871	C87	0.890400	0.144300	0.468500
H731	H73	0.847700	0.159600	0.451200
C881	C88	0.949500	0.136000	0.532900
H741	H74	0.947700	0.145400	0.560000
C891	C89	0.953100	0.108000	0.453700
H751	H75	0.952600	0.098800	0.426600
C901	C90	0.013100	0.100200	0.519710
H761	H76	0.054700	0.085400	0.537900
C911	C91	0.016700	0.085300	0.479300
C921	C92	0.088800	0.048400	0.463600
C931	C93	0.106300	0.045600	0.422700
H771	H77	0.072700	0.066600	0.404800
C941	C94	0.142200	0.016500	0.488440
H781	H78	0.133100	0.017400	0.516200
C951	C95	0.173400	0.011800	0.408470
H791	H79	0.184300	0.010600	0.380900
C961	C96	0.208300	0.983700	0.472580
H801	H80	0.243700	0.963000	0.490000
N151	N15	0.890000	0.157800	0.507430
N161	N16	0.223900	0.980450	0.432730
O151	O15	0.763900	0.127800	0.562700
O161	O16	0.668200	0.194080	0.544120
Cu91	Cu9	0.188870	0.175680	0.159640
C971	C97	0.242200	0.079900	0.205580
C981	C98	0.320700	0.052800	0.228500
H811	H81	0.296100	0.033600	0.251500
H821	H82	0.349900	0.026600	0.211000
C991	C99	0.390400	0.105700	0.281500
H831	H83	0.347700	0.090400	0.298800
C1001	C100	0.449500	0.114000	0.217100
H841	H84	0.447700	0.104600	0.190000
C1011	C101	0.453100	0.142000	0.296300
H851	H85	0.452600	0.151200	0.323400
C1021	C102	0.513100	0.149800	0.230290
H861	H86	0.554700	0.164600	0.212100
C1031	C103	0.516700	0.164700	0.270700
C1041	C104	0.588800	0.201600	0.286400
C1051	C105	0.606300	0.204400	0.327300
H871	H87	0.572700	0.183400	0.345200
C1061	C106	0.642200	0.233500	0.261560
H881	H88	0.633100	0.232600	0.233800
C1071	C107	0.673400	0.238200	0.341530
H891	H89	0.684300	0.239400	0.369100
C1081	C108	0.708300	0.266300	0.277420
H901	H90	0.743700	0.287000	0.260000
N171	N17	0.390000	0.092200	0.242570
N181	N18	0.723900	0.269550	0.317270
O171	O17	0.263900	0.122200	0.187300
O181	O18	0.168200	0.055920	0.205880
Cu101	Cu10	0.188870	0.675680	0.659640
C1091	C109	0.242200	0.579900	0.705580
C1101	C110	0.320700	0.552800	0.728500
H911	H91	0.296100	0.533600	0.751500
H921	H92	0.349900	0.526600	0.711000
C1111	C111	0.390400	0.605700	0.781500
H931	H93	0.347700	0.590400	0.798800
C1121	C112	0.449500	0.614000	0.717100
H941	H94	0.447700	0.604600	0.690000
C1131	C113	0.453100	0.642000	0.796300
H951	H95	0.452600	0.651200	0.823400
C1141	C114	0.513100	0.649800	0.730290
H961	H96	0.554700	0.664600	0.712100
C1151	C115	0.516700	0.664700	0.770700
C1161	C116	0.588800	0.701600	0.786400
C1171	C117	0.606300	0.704400	0.827300
H971	H97	0.572700	0.683400	0.845200
C1181	C118	0.642200	0.733500	0.761560
H981	H98	0.633100	0.732600	0.733800
C1191	C119	0.673400	0.738200	0.841530
H991	H99	0.684300	0.739400	0.869100
C1201	C120	0.708300	0.766300	0.777420
H1001	H100	0.743700	0.787000	0.760000
N191	N19	0.390000	0.592200	0.742570
N201	N20	0.723900	0.769550	0.817270
O191	O19	0.263900	0.622200	0.687300
O201	O20	0.168200	0.555920	0.705880
Cu111	Cu11	0.688870	0.175680	0.659640
C1211	C121	0.742200	0.079900	0.705580
C1221	C122	0.820700	0.052800	0.728500
H1011	H101	0.796100	0.033600	0.751500
H1021	H102	0.849900	0.026600	0.711000
C1231	C123	0.890400	0.105700	0.781500
H1031	H103	0.847700	0.090400	0.798800
C1241	C124	0.949500	0.114000	0.717100
H1041	H104	0.947700	0.104600	0.690000
C1251	C125	0.953100	0.142000	0.796300
H1051	H105	0.952600	0.151200	0.823400
C1261	C126	0.013100	0.149800	0.730290
H1061	H106	0.054700	0.164600	0.712100
C1271	C127	0.016700	0.164700	0.770700
C1281	C128	0.088800	0.201600	0.786400
C1291	C129	0.106300	0.204400	0.827300
H1071	H107	0.072700	0.183400	0.845200
C1301	C130	0.142200	0.233500	0.761560
H1081	H108	0.133100	0.232600	0.733800
C1311	C131	0.173400	0.238200	0.841530
H1091	H109	0.184300	0.239400	0.869100
C1321	C132	0.208300	0.266300	0.777420
H1101	H110	0.243700	0.287000	0.760000
N211	N21	0.890000	0.092200	0.742570
N221	N22	0.223900	0.269550	0.817270
O211	O21	0.763900	0.122200	0.687300
O221	O22	0.668200	0.055920	0.705880
Cu121	Cu12	0.688870	0.675680	0.159640
C1331	C133	0.742200	0.579900	0.205580
C1341	C134	0.820700	0.552800	0.228500
H1111	H111	0.796100	0.533600	0.251500
H1121	H112	0.849900	0.526600	0.211000
C1351	C135	0.890400	0.605700	0.281500
H1131	H113	0.847700	0.590400	0.298800
C1361	C136	0.949500	0.614000	0.217100
H1141	H114	0.947700	0.604600	0.190000
C1371	C137	0.953100	0.642000	0.296300
H1151	H115	0.952600	0.651200	0.323400
C1381	C138	0.013100	0.649800	0.230290
H1161	H116	0.054700	0.664600	0.212100
C1391	C139	0.016700	0.664700	0.270700
C1401	C140	0.088800	0.701600	0.286400
C1411	C141	0.106300	0.704400	0.327300
H1171	H117	0.072700	0.683400	0.345200
C1421	C142	0.142200	0.733500	0.261560
H1181	H118	0.133100	0.732600	0.233800
C1431	C143	0.173400	0.738200	0.341530
H1191	H119	0.184300	0.739400	0.369100
C1441	C144	0.208300	0.766300	0.277420
H1201	H120	0.243700	0.787000	0.260000
N231	N23	0.890000	0.592200	0.242570
N241	N24	0.223900	0.769550	0.317270
O231	O23	0.763900	0.622200	0.187300
O241	O24	0.668200	0.555920	0.205880
Cu131	Cu13	0.561130	0.574320	0.159640
C1451	C145	0.507800	0.670100	0.205580
C1461	C146	0.429300	0.697200	0.228500
H1211	H121	0.453900	0.716400	0.251500
H1221	H122	0.400100	0.723400	0.211000
C1471	C147	0.359600	0.644300	0.281500
H1231	H123	0.402300	0.659600	0.298800
C1481	C148	0.300500	0.636000	0.217100
H1241	H124	0.302300	0.645400	0.190000
C1491	C149	0.296900	0.608000	0.296300
H1251	H125	0.297400	0.598800	0.323400
C1501	C150	0.236900	0.600200	0.230290
H1261	H126	0.195300	0.585400	0.212100
C1511	C151	0.233300	0.585300	0.270700
C1521	C152	0.161200	0.548400	0.286400
C1531	C153	0.143700	0.545600	0.327300
H1271	H127	0.177300	0.566600	0.345200
C1541	C154	0.107800	0.516500	0.261560
H1281	H128	0.116900	0.517400	0.233800
C1551	C155	0.076600	0.511800	0.341530
H1291	H129	0.065700	0.510600	0.369100
C1561	C156	0.041700	0.483700	0.277420
H1301	H130	0.006300	0.463000	0.260000
N251	N25	0.360000	0.657800	0.242570
N261	N26	0.026100	0.480450	0.317270
O251	O25	0.486100	0.627800	0.187300
O261	O26	0.581800	0.694080	0.205880
Cu141	Cu14	0.561130	0.074320	0.659640
C1571	C157	0.507800	0.170100	0.705580
C1581	C158	0.429300	0.197200	0.728500
H1311	H131	0.453900	0.216400	0.751500
H1321	H132	0.400100	0.223400	0.711000
C1591	C159	0.359600	0.144300	0.781500
H1331	H133	0.402300	0.159600	0.798800
C1601	C160	0.300500	0.136000	0.717100
H1341	H134	0.302300	0.145400	0.690000
C1611	C161	0.296900	0.108000	0.796300
H1351	H135	0.297400	0.098800	0.823400
C1621	C162	0.236900	0.100200	0.730290
H1361	H136	0.195300	0.085400	0.712100
C1631	C163	0.233300	0.085300	0.770700
C1641	C164	0.161200	0.048400	0.786400
C1651	C165	0.143700	0.045600	0.827300
H1371	H137	0.177300	0.066600	0.845200
C1661	C166	0.107800	0.016500	0.761560
H1381	H138	0.116900	0.017400	0.733800
C1671	C167	0.076600	0.011800	0.841530
H1391	H139	0.065700	0.010600	0.869100
C1681	C168	0.041700	0.983700	0.777420
H1401	H140	0.006300	0.963000	0.760000
N271	N27	0.360000	0.157800	0.742570
N281	N28	0.026100	0.980450	0.817270
O271	O27	0.486100	0.127800	0.687300
O281	O28	0.581800	0.194080	0.705880
Cu151	Cu15	0.061130	0.574320	0.659640
C1691	C169	0.007800	0.670100	0.705580
C1701	C170	0.929300	0.697200	0.728500
H1411	H141	0.953900	0.716400	0.751500
H1421	H142	0.900100	0.723400	0.711000
C1711	C171	0.859600	0.644300	0.781500
H1431	H143	0.902300	0.659600	0.798800
C1721	C172	0.800500	0.636000	0.717100
H1441	H144	0.802300	0.645400	0.690000
C1731	C173	0.796900	0.608000	0.796300
H1451	H145	0.797400	0.598800	0.823400
C1741	C174	0.736900	0.600200	0.730290
H1461	H146	0.695300	0.585400	0.712100
C1751	C175	0.733300	0.585300	0.770700
C1761	C176	0.661200	0.548400	0.786400
C1771	C177	0.643700	0.545600	0.827300
H1471	H147	0.677300	0.566600	0.845200
C1781	C178	0.607800	0.516500	0.761560
H1481	H148	0.616900	0.517400	0.733800
C1791	C179	0.576600	0.511800	0.841530
H1491	H149	0.565700	0.510600	0.869100
C1801	C180	0.541700	0.483700	0.777420
H1501	H150	0.506300	0.463000	0.760000
N291	N29	0.860000	0.657800	0.742570
N301	N30	0.526100	0.480450	0.817270
O291	O29	0.986100	0.627800	0.687300
O301	O30	0.081800	0.694080	0.705880
Cu161	Cu16	0.061130	0.074320	0.159640
C1811	C181	0.007800	0.170100	0.205580
C1821	C182	0.929300	0.197200	0.228500
H1511	H151	0.953900	0.216400	0.251500
H1521	H152	0.900100	0.223400	0.211000
C1831	C183	0.859600	0.144300	0.281500
H1531	H153	0.902300	0.159600	0.298800
C1841	C184	0.800500	0.136000	0.217100
H1541	H154	0.802300	0.145400	0.190000
C1851	C185	0.796900	0.108000	0.296300
H1551	H155	0.797400	0.098800	0.323400
C1861	C186	0.736900	0.100200	0.230290
H1561	H156	0.695300	0.085400	0.212100
C1871	C187	0.733300	0.085300	0.270700
C1881	C188	0.661200	0.048400	0.286400
C1891	C189	0.643700	0.045600	0.327300
H1571	H157	0.677300	0.066600	0.345200
C1901	C190	0.607800	0.016500	0.261560
H1581	H158	0.616900	0.017400	0.233800
C1911	C191	0.576600	0.011800	0.341530
H1591	H159	0.565700	0.010600	0.369100
C1921	C192	0.541700	0.983700	0.277420
H1601	H160	0.506300	0.963000	0.260000
N311	N31	0.860000	0.157800	0.242570
N321	N32	0.526100	0.980450	0.317270
O311	O31	0.986100	0.127800	0.187300
O321	O32	0.081800	0.194080	0.205880
Cu171	Cu17	0.438870	0.824320	0.409640
C1931	C193	0.492200	0.920100	0.455580
C1941	C194	0.570700	0.947200	0.478500
H1611	H161	0.546100	0.966400	0.501500
H1621	H162	0.599900	0.973400	0.461000
C1951	C195	0.640400	0.894300	0.531500
H1631	H163	0.597700	0.909600	0.548800
C1961	C196	0.699500	0.886000	0.467100
H1641	H164	0.697700	0.895400	0.440000
C1971	C197	0.703100	0.858000	0.546300
H1651	H165	0.702600	0.848800	0.573400
C1981	C198	0.763100	0.850200	0.480290
H1661	H166	0.804700	0.835400	0.462100
C1991	C199	0.766700	0.835300	0.520700
C2001	C200	0.838800	0.798400	0.536400
C2011	C201	0.856300	0.795600	0.577300
H1671	H167	0.822700	0.816600	0.595200
C2021	C202	0.892200	0.766500	0.511560
H1681	H168	0.883100	0.767400	0.483800
C2031	C203	0.923400	0.761800	0.591530
H1691	H169	0.934300	0.760600	0.619100
C2041	C204	0.958300	0.733700	0.527420
H1701	H170	0.993700	0.713000	0.510000
N331	N33	0.640000	0.907800	0.492570
N341	N34	0.973900	0.730450	0.567270
O331	O33	0.513900	0.877800	0.437300
O341	O34	0.418200	0.944080	0.455880
Cu181	Cu18	0.438870	0.324320	0.909640
C2051	C205	0.492200	0.420100	0.955580
C2061	C206	0.570700	0.447200	0.978500
H1711	H171	0.546100	0.466400	0.001500
H1721	H172	0.599900	0.473400	0.961000
C2071	C207	0.640400	0.394300	0.031500
H1731	H173	0.597700	0.409600	0.048800
C2081	C208	0.699500	0.386000	0.967100
H1741	H174	0.697700	0.395400	0.940000
C2091	C209	0.703100	0.358000	0.046300
H1751	H175	0.702600	0.348800	0.073400
C2101	C210	0.763100	0.350200	0.980290
H1761	H176	0.804700	0.335400	0.962100
C2111	C211	0.766700	0.335300	0.020700
C2121	C212	0.838800	0.298400	0.036400
C2131	C213	0.856300	0.295600	0.077300
H1771	H177	0.822700	0.316600	0.095200
C2141	C214	0.892200	0.266500	0.011560
H1781	H178	0.883100	0.267400	0.983800
C2151	C215	0.923400	0.261800	0.091530
H1791	H179	0.934300	0.260600	0.119100
C2161	C216	0.958300	0.233700	0.027420
H1801	H180	0.993700	0.213000	0.010000
N351	N35	0.640000	0.407800	0.992570
N361	N36	0.973900	0.230450	0.067270
O351	O35	0.513900	0.377800	0.937300
O361	O36	0.418200	0.444080	0.955880
Cu191	Cu19	0.938870	0.824320	0.909640
C2171	C217	0.992200	0.920100	0.955580
C2181	C218	0.070700	0.947200	0.978500
H1811	H181	0.046100	0.966400	0.001500
H1821	H182	0.099900	0.973400	0.961000
C2191	C219	0.140400	0.894300	0.031500
H1831	H183	0.097700	0.909600	0.048800
C2201	C220	0.199500	0.886000	0.967100
H1841	H184	0.197700	0.895400	0.940000
C2211	C221	0.203100	0.858000	0.046300
H1851	H185	0.202600	0.848800	0.073400
C2221	C222	0.263100	0.850200	0.980290
H1861	H186	0.304700	0.835400	0.962100
C2231	C223	0.266700	0.835300	0.020700
C2241	C224	0.338800	0.798400	0.036400
C2251	C225	0.356300	0.795600	0.077300
H1871	H187	0.322700	0.816600	0.095200
C2261	C226	0.392200	0.766500	0.011560
H1881	H188	0.383100	0.767400	0.983800
C2271	C227	0.423400	0.761800	0.091530
H1891	H189	0.434300	0.760600	0.119100
C2281	C228	0.458300	0.733700	0.027420
H1901	H190	0.493700	0.713000	0.010000
N371	N37	0.140000	0.907800	0.992570
N381	N38	0.473900	0.730450	0.067270
O371	O37	0.013900	0.877800	0.937300
O381	O38	0.918200	0.944080	0.955880
Cu201	Cu20	0.938870	0.324320	0.409640
C2291	C229	0.992200	0.420100	0.455580
C2301	C230	0.070700	0.447200	0.478500
H1911	H191	0.046100	0.466400	0.501500
H1921	H192	0.099900	0.473400	0.461000
C2311	C231	0.140400	0.394300	0.531500
H1931	H193	0.097700	0.409600	0.548800
C2321	C232	0.199500	0.386000	0.467100
H1941	H194	0.197700	0.395400	0.440000
C2331	C233	0.203100	0.358000	0.546300
H1951	H195	0.202600	0.348800	0.573400
C2341	C234	0.263100	0.350200	0.480290
H1961	H196	0.304700	0.335400	0.462100
C2351	C235	0.266700	0.335300	0.520700
C2361	C236	0.338800	0.298400	0.536400
C2371	C237	0.356300	0.295600	0.577300
H1971	H197	0.322700	0.316600	0.595200
C2381	C238	0.392200	0.266500	0.511560
H1981	H198	0.383100	0.267400	0.483800
C2391	C239	0.423400	0.261800	0.591530
H1991	H199	0.434300	0.260600	0.619100
C2401	C240	0.458300	0.233700	0.527420
H2001	H200	0.493700	0.213000	0.510000
N391	N39	0.140000	0.407800	0.492570
N401	N40	0.473900	0.230450	0.567270
O391	O39	0.013900	0.377800	0.437300
O401	O40	0.918200	0.444080	0.455880
Cu211	Cu21	0.811130	0.425680	0.409640
C2411	C241	0.757800	0.329900	0.455580
C2421	C242	0.679300	0.302800	0.478500
H2011	H201	0.703900	0.283600	0.501500
H2021	H202	0.650100	0.276600	0.461000
C2431	C243	0.609600	0.355700	0.531500
H2031	H203	0.652300	0.340400	0.548800
C2441	C244	0.550500	0.364000	0.467100
H2041	H204	0.552300	0.354600	0.440000
C2451	C245	0.546900	0.392000	0.546300
H2051	H205	0.547400	0.401200	0.573400
C2461	C246	0.486900	0.399800	0.480290
H2061	H206	0.445300	0.414600	0.462100
C2471	C247	0.483300	0.414700	0.520700
C2481	C248	0.411200	0.451600	0.536400
C2491	C249	0.393700	0.454400	0.577300
H2071	H207	0.427300	0.433400	0.595200
C2501	C250	0.357800	0.483500	0.511560
H2081	H208	0.366900	0.482600	0.483800
C2511	C251	0.326600	0.488200	0.591530
H2091	H209	0.315700	0.489400	0.619100
C2521	C252	0.291700	0.516300	0.527420
H2101	H210	0.256300	0.537000	0.510000
N411	N41	0.610000	0.342200	0.492570
N421	N42	0.276100	0.519550	0.567270
O411	O41	0.736100	0.372200	0.437300
O421	O42	0.831800	0.305920	0.455880
Cu221	Cu22	0.811130	0.925680	0.909640
C2531	C253	0.757800	0.829900	0.955580
C2541	C254	0.679300	0.802800	0.978500
H2111	H211	0.703900	0.783600	0.001500
H2121	H212	0.650100	0.776600	0.961000
C2551	C255	0.609600	0.855700	0.031500
H2131	H213	0.652300	0.840400	0.048800
C2561	C256	0.550500	0.864000	0.967100
H2141	H214	0.552300	0.854600	0.940000
C2571	C257	0.546900	0.892000	0.046300
H2151	H215	0.547400	0.901200	0.073400
C2581	C258	0.486900	0.899800	0.980290
H2161	H216	0.445300	0.914600	0.962100
C2591	C259	0.483300	0.914700	0.020700
C2601	C260	0.411200	0.951600	0.036400
C2611	C261	0.393700	0.954400	0.077300
H2171	H217	0.427300	0.933400	0.095200
C2621	C262	0.357800	0.983500	0.011560
H2181	H218	0.366900	0.982600	0.983800
C2631	C263	0.326600	0.988200	0.091530
H2191	H219	0.315700	0.989400	0.119100
C2641	C264	0.291700	0.016300	0.027420
H2201	H220	0.256300	0.037000	0.010000
N431	N43	0.610000	0.842200	0.992570
N441	N44	0.276100	0.019550	0.067270
O431	O43	0.736100	0.872200	0.937300
O441	O44	0.831800	0.805920	0.955880
Cu231	Cu23	0.311130	0.425680	0.909640
C2651	C265	0.257800	0.329900	0.955580
C2661	C266	0.179300	0.302800	0.978500
H2211	H221	0.203900	0.283600	0.001500
H2221	H222	0.150100	0.276600	0.961000
C2671	C267	0.109600	0.355700	0.031500
H2231	H223	0.152300	0.340400	0.048800
C2681	C268	0.050500	0.364000	0.967100
H2241	H224	0.052300	0.354600	0.940000
C2691	C269	0.046900	0.392000	0.046300
H2251	H225	0.047400	0.401200	0.073400
C2701	C270	0.986900	0.399800	0.980290
H2261	H226	0.945300	0.414600	0.962100
C2711	C271	0.983300	0.414700	0.020700
C2721	C272	0.911200	0.451600	0.036400
C2731	C273	0.893700	0.454400	0.077300
H2271	H227	0.927300	0.433400	0.095200
C2741	C274	0.857800	0.483500	0.011560
H2281	H228	0.866900	0.482600	0.983800
C2751	C275	0.826600	0.488200	0.091530
H2291	H229	0.815700	0.489400	0.119100
C2761	C276	0.791700	0.516300	0.027420
H2301	H230	0.756300	0.537000	0.010000
N451	N45	0.110000	0.342200	0.992570
N461	N46	0.776100	0.519550	0.067270
O451	O45	0.236100	0.372200	0.937300
O461	O46	0.331800	0.305920	0.955880
Cu241	Cu24	0.311130	0.925680	0.409640
C2771	C277	0.257800	0.829900	0.455580
C2781	C278	0.179300	0.802800	0.478500
H2311	H231	0.203900	0.783600	0.501500
H2321	H232	0.150100	0.776600	0.461000
C2791	C279	0.109600	0.855700	0.531500
H2331	H233	0.152300	0.840400	0.548800
C2801	C280	0.050500	0.864000	0.467100
H2341	H234	0.052300	0.854600	0.440000
C2811	C281	0.046900	0.892000	0.546300
H2351	H235	0.047400	0.901200	0.573400
C2821	C282	0.986900	0.899800	0.480290
H2361	H236	0.945300	0.914600	0.462100
C2831	C283	0.983300	0.914700	0.520700
C2841	C284	0.911200	0.951600	0.536400
C2851	C285	0.893700	0.954400	0.577300
H2371	H237	0.927300	0.933400	0.595200
C2861	C286	0.857800	0.983500	0.511560
H2381	H238	0.866900	0.982600	0.483800
C2871	C287	0.826600	0.988200	0.591530
H2391	H239	0.815700	0.989400	0.619100
C2881	C288	0.791700	0.016300	0.527420
H2401	H240	0.756300	0.037000	0.510000
N471	N47	0.110000	0.842200	0.492570
N481	N48	0.776100	0.019550	0.567270
O471	O47	0.236100	0.872200	0.437300
O481	O48	0.331800	0.805920	0.455880
Cu251	Cu25	0.811130	0.824320	0.840360
C2891	C289	0.757800	0.920100	0.794420
C2901	C290	0.679300	0.947200	0.771500
H2411	H241	0.703900	0.966400	0.748500
H2421	H242	0.650100	0.973400	0.789000
C2911	C291	0.609600	0.894300	0.718500
H2431	H243	0.652300	0.909600	0.701200
C2921	C292	0.550500	0.886000	0.782900
H2441	H244	0.552300	0.895400	0.810000
C2931	C293	0.546900	0.858000	0.703700
H2451	H245	0.547400	0.848800	0.676600
C2941	C294	0.486900	0.850200	0.769710
H2461	H246	0.445300	0.835400	0.787900
C2951	C295	0.483300	0.835300	0.729300
C2961	C296	0.411200	0.798400	0.713600
C2971	C297	0.393700	0.795600	0.672700
H2471	H247	0.427300	0.816600	0.654800
C2981	C298	0.357800	0.766500	0.738440
H2481	H248	0.366900	0.767400	0.766200
C2991	C299	0.326600	0.761800	0.658470
H2491	H249	0.315700	0.760600	0.630900
C3001	C300	0.291700	0.733700	0.722580
H2501	H250	0.256300	0.713000	0.740000
N491	N49	0.610000	0.907800	0.757430
N501	N50	0.276100	0.730450	0.682730
O491	O49	0.736100	0.877800	0.812700
O501	O50	0.831800	0.944080	0.794120
Cu261	Cu26	0.811130	0.324320	0.340360
C3011	C301	0.757800	0.420100	0.294420
C3021	C302	0.679300	0.447200	0.271500
H2511	H251	0.703900	0.466400	0.248500
H2521	H252	0.650100	0.473400	0.289000
C3031	C303	0.609600	0.394300	0.218500
H2531	H253	0.652300	0.409600	0.201200
C3041	C304	0.550500	0.386000	0.282900
H2541	H254	0.552300	0.395400	0.310000
C3051	C305	0.546900	0.358000	0.203700
H2551	H255	0.547400	0.348800	0.176600
C3061	C306	0.486900	0.350200	0.269710
H2561	H256	0.445300	0.335400	0.287900
C3071	C307	0.483300	0.335300	0.229300
C3081	C308	0.411200	0.298400	0.213600
C3091	C309	0.393700	0.295600	0.172700
H2571	H257	0.427300	0.316600	0.154800
C3101	C310	0.357800	0.266500	0.238440
H2581	H258	0.366900	0.267400	0.266200
C3111	C311	0.326600	0.261800	0.158470
H2591	H259	0.315700	0.260600	0.130900
C3121	C312	0.291700	0.233700	0.222580
H2601	H260	0.256300	0.213000	0.240000
N511	N51	0.610000	0.407800	0.257430
N521	N52	0.276100	0.230450	0.182730
O511	O51	0.736100	0.377800	0.312700
O521	O52	0.831800	0.444080	0.294120
Cu271	Cu27	0.311130	0.824320	0.340360
C3131	C313	0.257800	0.920100	0.294420
C3141	C314	0.179300	0.947200	0.271500
H2611	H261	0.203900	0.966400	0.248500
H2621	H262	0.150100	0.973400	0.289000
C3151	C315	0.109600	0.894300	0.218500
H2631	H263	0.152300	0.909600	0.201200
C3161	C316	0.050500	0.886000	0.282900
H2641	H264	0.052300	0.895400	0.310000
C3171	C317	0.046900	0.858000	0.203700
H2651	H265	0.047400	0.848800	0.176600
C3181	C318	0.986900	0.850200	0.269710
H2661	H266	0.945300	0.835400	0.287900
C3191	C319	0.983300	0.835300	0.229300
C3201	C320	0.911200	0.798400	0.213600
C3211	C321	0.893700	0.795600	0.172700
H2671	H267	0.927300	0.816600	0.154800
C3221	C322	0.857800	0.766500	0.238440
H2681	H268	0.866900	0.767400	0.266200
C3231	C323	0.826600	0.761800	0.158470
H2691	H269	0.815700	0.760600	0.130900
C3241	C324	0.791700	0.733700	0.222580
H2701	H270	0.756300	0.713000	0.240000
N531	N53	0.110000	0.907800	0.257430
N541	N54	0.776100	0.730450	0.182730
O531	O53	0.236100	0.877800	0.312700
O541	O54	0.331800	0.944080	0.294120
Cu281	Cu28	0.311130	0.324320	0.840360
C3251	C325	0.257800	0.420100	0.794420
C3261	C326	0.179300	0.447200	0.771500
H2711	H271	0.203900	0.466400	0.748500
H2721	H272	0.150100	0.473400	0.789000
C3271	C327	0.109600	0.394300	0.718500
H2731	H273	0.152300	0.409600	0.701200
C3281	C328	0.050500	0.386000	0.782900
H2741	H274	0.052300	0.395400	0.810000
C3291	C329	0.046900	0.358000	0.703700
H2751	H275	0.047400	0.348800	0.676600
C3301	C330	0.986900	0.350200	0.769710
H2761	H276	0.945300	0.335400	0.787900
C3311	C331	0.983300	0.335300	0.729300
C3321	C332	0.911200	0.298400	0.713600
C3331	C333	0.893700	0.295600	0.672700
H2771	H277	0.927300	0.316600	0.654800
C3341	C334	0.857800	0.266500	0.738440
H2781	H278	0.866900	0.267400	0.766200
C3351	C335	0.826600	0.261800	0.658470
H2791	H279	0.815700	0.260600	0.630900
C3361	C336	0.791700	0.233700	0.722580
H2801	H280	0.756300	0.213000	0.740000
N551	N55	0.110000	0.407800	0.757430
N561	N56	0.776100	0.230450	0.682730
O551	O55	0.236100	0.377800	0.812700
O561	O56	0.331800	0.444080	0.794120
Cu291	Cu29	0.438870	0.425680	0.840360
C3371	C337	0.492200	0.329900	0.794420
C3381	C338	0.570700	0.302800	0.771500
H2811	H281	0.546100	0.283600	0.748500
H2821	H282	0.599900	0.276600	0.789000
C3391	C339	0.640400	0.355700	0.718500
H2831	H283	0.597700	0.340400	0.701200
C3401	C340	0.699500	0.364000	0.782900
H2841	H284	0.697700	0.354600	0.810000
C3411	C341	0.703100	0.392000	0.703700
H2851	H285	0.702600	0.401200	0.676600
C3421	C342	0.763100	0.399800	0.769710
H2861	H286	0.804700	0.414600	0.787900
C3431	C343	0.766700	0.414700	0.729300
C3441	C344	0.838800	0.451600	0.713600
C3451	C345	0.856300	0.454400	0.672700
H2871	H287	0.822700	0.433400	0.654800
C3461	C346	0.892200	0.483500	0.738440
H2881	H288	0.883100	0.482600	0.766200
C3471	C347	0.923400	0.488200	0.658470
H2891	H289	0.934300	0.489400	0.630900
C3481	C348	0.958300	0.516300	0.722580
H2901	H290	0.993700	0.537000	0.740000
N571	N57	0.640000	0.342200	0.757430
N581	N58	0.973900	0.519550	0.682730
O571	O57	0.513900	0.372200	0.812700
O581	O58	0.418200	0.305920	0.794120
Cu301	Cu30	0.438870	0.925680	0.340360
C3491	C349	0.492200	0.829900	0.294420
C3501	C350	0.570700	0.802800	0.271500
H2911	H291	0.546100	0.783600	0.248500
H2921	H292	0.599900	0.776600	0.289000
C3511	C351	0.640400	0.855700	0.218500
H2931	H293	0.597700	0.840400	0.201200
C3521	C352	0.699500	0.864000	0.282900
H2941	H294	0.697700	0.854600	0.310000
C3531	C353	0.703100	0.892000	0.203700
H2951	H295	0.702600	0.901200	0.176600
C3541	C354	0.763100	0.899800	0.269710
H2961	H296	0.804700	0.914600	0.287900
C3551	C355	0.766700	0.914700	0.229300
C3561	C356	0.838800	0.951600	0.213600
C3571	C357	0.856300	0.954400	0.172700
H2971	H297	0.822700	0.933400	0.154800
C3581	C358	0.892200	0.983500	0.238440
H2981	H298	0.883100	0.982600	0.266200
C3591	C359	0.923400	0.988200	0.158470
H2991	H299	0.934300	0.989400	0.130900
C3601	C360	0.958300	0.016300	0.222580
H3001	H300	0.993700	0.037000	0.240000
N591	N59	0.640000	0.842200	0.257430
N601	N60	0.973900	0.019550	0.182730
O591	O59	0.513900	0.872200	0.312700
O601	O60	0.418200	0.805920	0.294120
Cu311	Cu31	0.938870	0.425680	0.340360
C3611	C361	0.992200	0.329900	0.294420
C3621	C362	0.070700	0.302800	0.271500
H3011	H301	0.046100	0.283600	0.248500
H3021	H302	0.099900	0.276600	0.289000
C3631	C363	0.140400	0.355700	0.218500
H3031	H303	0.097700	0.340400	0.201200
C3641	C364	0.199500	0.364000	0.282900
H3041	H304	0.197700	0.354600	0.310000
C3651	C365	0.203100	0.392000	0.203700
H3051	H305	0.202600	0.401200	0.176600
C3661	C366	0.263100	0.399800	0.269710
H3061	H306	0.304700	0.414600	0.287900
C3671	C367	0.266700	0.414700	0.229300
C3681	C368	0.338800	0.451600	0.213600
C3691	C369	0.356300	0.454400	0.172700
H3071	H307	0.322700	0.433400	0.154800
C3701	C370	0.392200	0.483500	0.238440
H3081	H308	0.383100	0.482600	0.266200
C3711	C371	0.423400	0.488200	0.158470
H3091	H309	0.434300	0.489400	0.130900
C3721	C372	0.458300	0.516300	0.222580
H3101	H310	0.493700	0.537000	0.240000
N611	N61	0.140000	0.342200	0.257430
N621	N62	0.473900	0.519550	0.182730
O611	O61	0.013900	0.372200	0.312700
O621	O62	0.918200	0.305920	0.294120
Cu321	Cu32	0.938870	0.925680	0.840360
C3731	C373	0.992200	0.829900	0.794420
C3741	C374	0.070700	0.802800	0.771500
H3111	H311	0.046100	0.783600	0.748500
H3121	H312	0.099900	0.776600	0.789000
C3751	C375	0.140400	0.855700	0.718500
H3131	H313	0.097700	0.840400	0.701200
C3761	C376	0.199500	0.864000	0.782900
H3141	H314	0.197700	0.854600	0.810000
C3771	C377	0.203100	0.892000	0.703700
H3151	H315	0.202600	0.901200	0.676600
C3781	C378	0.263100	0.899800	0.769710
H3161	H316	0.304700	0.914600	0.787900
C3791	C379	0.266700	0.914700	0.729300
C3801	C380	0.338800	0.951600	0.713600
C3811	C381	0.356300	0.954400	0.672700
H3171	H317	0.322700	0.933400	0.654800
C3821	C382	0.392200	0.983500	0.738440
H3181	H318	0.383100	0.982600	0.766200
C3831	C383	0.423400	0.988200	0.658470
H3191	H319	0.434300	0.989400	0.630900
C3841	C384	0.458300	0.016300	0.722580
H3201	H320	0.493700	0.037000	0.740000
N631	N63	0.140000	0.842200	0.757430
N641	N64	0.473900	0.019550	0.682730
O631	O63	0.013900	0.872200	0.812700
O641	O64	0.918200	0.805920	0.794120
N651	N65	0.625000	0.228900	0.625000
N661	N66	0.625000	0.276700	0.625000
N671	N67	0.625000	0.322800	0.625000
N681	N68	0.625000	0.728900	0.125000
N691	N69	0.625000	0.776700	0.125000
N701	N70	0.625000	0.822800	0.125000
N711	N71	0.125000	0.521100	0.625000
N721	N72	0.125000	0.473300	0.625000
N731	N73	0.125000	0.427200	0.625000
N741	N74	0.125000	0.021100	0.125000
N751	N75	0.125000	0.973300	0.125000
N761	N76	0.125000	0.927200	0.125000
N771	N77	0.625000	0.021100	0.625000
N781	N78	0.625000	0.973300	0.625000
N791	N79	0.625000	0.927200	0.625000
N801	N80	0.125000	0.228900	0.125000
N811	N81	0.125000	0.276700	0.125000
N821	N82	0.125000	0.322800	0.125000
N831	N83	0.125000	0.728900	0.625000
N841	N84	0.125000	0.776700	0.625000
N851	N85	0.125000	0.822800	0.625000
N861	N86	0.625000	0.521100	0.125000
N871	N87	0.625000	0.473300	0.125000
N881	N88	0.625000	0.427200	0.125000
N891	N89	0.375000	0.771100	0.375000
N901	N90	0.375000	0.723300	0.375000
N911	N91	0.375000	0.677200	0.375000
N921	N92	0.375000	0.271100	0.875000
N931	N93	0.375000	0.223300	0.875000
N941	N94	0.375000	0.177200	0.875000
N951	N95	0.875000	0.478900	0.375000
N961	N96	0.875000	0.526700	0.375000
N971	N97	0.875000	0.572800	0.375000
N981	N98	0.875000	0.978900	0.875000
N991	N99	0.875000	0.026700	0.875000
N1001	N100	0.875000	0.072800	0.875000
N1011	N101	0.875000	0.771100	0.875000
N1021	N102	0.875000	0.723300	0.875000
N1031	N103	0.875000	0.677200	0.875000
N1041	N104	0.875000	0.271100	0.375000
N1051	N105	0.875000	0.223300	0.375000
N1061	N106	0.875000	0.177200	0.375000
N1071	N107	0.375000	0.478900	0.875000
N1081	N108	0.375000	0.526700	0.875000
N1091	N109	0.375000	0.572800	0.875000
N1101	N110	0.375000	0.978900	0.375000
N1111	N111	0.375000	0.026700	0.375000
N1121	N112	0.375000	0.072800	0.375000
O651	O65	0.625000	0.125000	0.625000
O661	O66	0.125000	0.625000	0.625000
O671	O67	0.125000	0.125000	0.125000
O681	O68	0.625000	0.625000	0.125000
O691	O69	0.375000	0.875000	0.375000
O701	O70	0.875000	0.375000	0.375000
O711	O71	0.875000	0.875000	0.875000
O721	O72	0.375000	0.375000	0.875000
