data_MOXDOT_charged_PM
_symmetry_space_group_name_H-M	'P1'
_cell_length_a	14.187000
_cell_length_b	22.550000
_cell_length_c	25.681000
_cell_angle_alpha	92.096000
_cell_angle_beta	90.000000
_cell_angle_gamma	90.000000
_symmetry_Int_Tables_number 1

loop_
_symmetry_equiv_pos_as_xyz
'x,y,z'

loop_
_atom_site_label
_atom_site_type_symbol
_atom_site_fract_x
_atom_site_fract_y
_atom_site_fract_z
Co11	Co1	0.283240	0.908380	0.907240
Co21	Co2	0.217220	0.585290	0.904390
Co31	Co3	0.250130	0.746970	0.904730
Co41	Co4	0.716760	0.908380	0.407240
Co51	Co5	0.782780	0.585290	0.404390
Co61	Co6	0.749870	0.746970	0.404730
H11	H1	0.335300	0.116000	0.007200
H21	H2	0.310400	0.217200	0.001400
H31	H3	0.213000	0.190800	0.855400
H41	H4	0.237900	0.089600	0.861200
H51	H5	0.168700	0.389100	0.006400
H61	H6	0.195900	0.287600	0.003300
H71	H7	0.284200	0.296700	0.855200
H81	H8	0.256900	0.398200	0.858300
H91	H9	0.939300	0.765200	0.524000
H101	H10	0.020200	0.765300	0.602500
H111	H11	0.910900	0.925100	0.641900
H121	H12	0.829900	0.925000	0.563400
H131	H13	0.010700	0.756000	0.692100
H141	H14	0.090100	0.750000	0.767500
H151	H15	0.132800	0.928300	0.767800
H161	H16	0.049300	0.934000	0.688400
H171	H17	0.901300	0.603600	0.870100
H181	H18	0.754800	0.648700	0.864900
H191	H19	0.873400	0.806900	0.900400
H201	H20	0.019800	0.761800	0.905500
H211	H21	0.631500	0.687700	0.904700
H221	H22	0.481500	0.731300	0.913800
H231	H23	0.595600	0.881500	0.869700
H241	H24	0.742000	0.840600	0.862000
H251	H25	0.635900	0.559100	0.254400
H261	H26	0.555400	0.563100	0.175900
H271	H27	0.500800	0.735900	0.205300
H281	H28	0.581200	0.731900	0.283800
H291	H29	0.501600	0.735900	0.115100
H301	H30	0.426900	0.734700	0.035900
H311	H31	0.327800	0.576000	0.058300
H321	H32	0.404500	0.572500	0.137800
H331	H33	0.664700	0.116000	0.507200
H341	H34	0.689600	0.217200	0.501400
H351	H35	0.787000	0.190800	0.355400
H361	H36	0.762100	0.089600	0.361200
H371	H37	0.831300	0.389100	0.506400
H381	H38	0.804100	0.287600	0.503300
H391	H39	0.715800	0.296700	0.355200
H401	H40	0.743100	0.398200	0.358300
H411	H41	0.060700	0.765200	0.024000
H421	H42	0.979800	0.765300	0.102500
H431	H43	0.089100	0.925100	0.141900
H441	H44	0.170100	0.925000	0.063400
H451	H45	0.989300	0.756000	0.192100
H461	H46	0.909900	0.750000	0.267500
H471	H47	0.867200	0.928300	0.267800
H481	H48	0.950700	0.934000	0.188400
H491	H49	0.098700	0.603600	0.370100
H501	H50	0.245200	0.648700	0.364900
H511	H51	0.126600	0.806900	0.400400
H521	H52	0.980200	0.761800	0.405500
H531	H53	0.368500	0.687700	0.404700
H541	H54	0.518500	0.731300	0.413800
H551	H55	0.404400	0.881500	0.369700
H561	H56	0.258000	0.840600	0.362000
H571	H57	0.364100	0.559100	0.754400
H581	H58	0.444600	0.563100	0.675900
H591	H59	0.499200	0.735900	0.705300
H601	H60	0.418800	0.731900	0.783800
H611	H61	0.498400	0.735900	0.615100
H621	H62	0.573100	0.734700	0.535900
H631	H63	0.672200	0.576000	0.558300
H641	H64	0.595500	0.572500	0.637800
C11	C1	0.295850	0.028000	0.938240
C21	C2	0.310760	0.130950	0.976770
C31	C3	0.295860	0.191600	0.973270
C41	C4	0.259240	0.214010	0.927800
C51	C5	0.237530	0.175780	0.885830
C61	C6	0.252420	0.115130	0.889330
C71	C7	0.289040	0.092720	0.934800
C81	C8	0.210090	0.403720	0.932670
C91	C9	0.191820	0.370580	0.976120
C101	C10	0.208150	0.309760	0.974260
C111	C11	0.242740	0.282080	0.928940
C121	C12	0.261010	0.315220	0.885480
C131	C13	0.244680	0.376040	0.887340
C141	C14	0.211840	0.471840	0.934130
C151	C15	0.825640	0.845420	0.483710
C161	C16	0.876580	0.845090	0.535920
C171	C17	0.933580	0.797240	0.547620
C181	C18	0.982090	0.797290	0.594650
C191	C19	0.973600	0.845180	0.629970
C201	C20	0.916600	0.893030	0.618270
C211	C21	0.868090	0.892980	0.571240
C221	C22	0.029250	0.843910	0.678370
C231	C23	0.038400	0.790260	0.706360
C241	C24	0.084230	0.786250	0.751770
C251	C25	0.124570	0.840010	0.775840
C261	C26	0.109750	0.893610	0.751720
C271	C27	0.060370	0.897530	0.703060
C281	C28	0.178590	0.838910	0.826730
C291	C29	0.071770	0.649230	0.895460
C301	C30	0.975080	0.678180	0.888270
C311	C31	0.895670	0.644310	0.876130
C321	C32	0.807910	0.671360	0.873070
C331	C33	0.799550	0.732280	0.882150
C341	C34	0.878950	0.766150	0.894290
C351	C35	0.966710	0.739100	0.897350
C361	C36	0.701280	0.759950	0.883890
C371	C37	0.623970	0.727700	0.898160
C381	C38	0.532940	0.753440	0.903290
C391	C39	0.523780	0.810980	0.892350
C401	C40	0.602990	0.841750	0.877200
C411	C41	0.691060	0.818040	0.872520
C421	C42	0.430220	0.842340	0.898320
C431	C43	0.669850	0.645330	0.328760
C441	C44	0.616510	0.645120	0.276850
C451	C45	0.608800	0.594530	0.244550
C461	C46	0.560610	0.596910	0.197550
C471	C47	0.520120	0.649880	0.182840
C481	C48	0.527840	0.700470	0.215140
C491	C49	0.576030	0.698090	0.262140
C501	C50	0.465390	0.651750	0.132870
C511	C51	0.468800	0.702350	0.103240
C521	C52	0.422570	0.701390	0.056170
C531	C53	0.370290	0.654000	0.037350
C541	C54	0.364810	0.608190	0.068980
C551	C55	0.411140	0.605390	0.117290
C561	C56	0.315420	0.657920	0.986970
C571	C57	0.704150	0.028000	0.438240
C581	C58	0.689240	0.130950	0.476770
C591	C59	0.704140	0.191600	0.473270
C601	C60	0.740760	0.214010	0.427800
C611	C61	0.762470	0.175780	0.385830
C621	C62	0.747580	0.115130	0.389330
C631	C63	0.710960	0.092720	0.434800
C641	C64	0.789910	0.403720	0.432670
C651	C65	0.808180	0.370580	0.476120
C661	C66	0.791850	0.309760	0.474260
C671	C67	0.757260	0.282080	0.428940
C681	C68	0.738990	0.315220	0.385480
C691	C69	0.755320	0.376040	0.387340
C701	C70	0.788160	0.471840	0.434130
C711	C71	0.174360	0.845420	0.983710
C721	C72	0.123420	0.845090	0.035920
C731	C73	0.066420	0.797240	0.047620
C741	C74	0.017910	0.797290	0.094650
C751	C75	0.026400	0.845180	0.129970
C761	C76	0.083400	0.893030	0.118270
C771	C77	0.131910	0.892980	0.071240
C781	C78	0.970750	0.843910	0.178370
C791	C79	0.961600	0.790260	0.206360
C801	C80	0.915770	0.786250	0.251770
C811	C81	0.875430	0.840010	0.275840
C821	C82	0.890250	0.893610	0.251720
C831	C83	0.939630	0.897530	0.203060
C841	C84	0.821410	0.838910	0.326730
C851	C85	0.928230	0.649230	0.395460
C861	C86	0.024920	0.678180	0.388270
C871	C87	0.104330	0.644310	0.376130
C881	C88	0.192090	0.671360	0.373070
C891	C89	0.200450	0.732280	0.382150
C901	C90	0.121050	0.766150	0.394290
C911	C91	0.033290	0.739100	0.397350
C921	C92	0.298720	0.759950	0.383890
C931	C93	0.376030	0.727700	0.398160
C941	C94	0.467060	0.753440	0.403290
C951	C95	0.476220	0.810980	0.392350
C961	C96	0.397010	0.841750	0.377200
C971	C97	0.308940	0.818040	0.372520
C981	C98	0.569780	0.842340	0.398320
C991	C99	0.330150	0.645330	0.828760
C1001	C100	0.383490	0.645120	0.776850
C1011	C101	0.391200	0.594530	0.744550
C1021	C102	0.439390	0.596910	0.697550
C1031	C103	0.479880	0.649880	0.682840
C1041	C104	0.472160	0.700470	0.715140
C1051	C105	0.423970	0.698090	0.762140
C1061	C106	0.534610	0.651750	0.632870
C1071	C107	0.531200	0.702350	0.603240
C1081	C108	0.577430	0.701390	0.556170
C1091	C109	0.629710	0.654000	0.537350
C1101	C110	0.635190	0.608190	0.568980
C1111	C111	0.588860	0.605390	0.617290
C1121	C112	0.684580	0.657920	0.486970
O11	O1	0.143230	0.679370	0.902580
O21	O2	0.074630	0.594270	0.892430
O31	O3	0.359590	0.814230	0.908890
O41	O4	0.424110	0.897040	0.895720
O51	O5	0.196300	0.791120	0.842040
O61	O6	0.207930	0.887870	0.843380
O71	O7	0.836730	0.801900	0.453010
O81	O8	0.779490	0.890700	0.474510
O91	O9	0.266610	0.995690	0.902940
O101	O10	0.344040	0.008390	0.975880
O111	O11	0.711180	0.600550	0.338690
O121	O12	0.663860	0.692140	0.356600
O131	O13	0.279160	0.608300	0.972950
O141	O14	0.310910	0.703730	0.966700
O151	O15	0.234000	0.499070	0.902800
O161	O16	0.148500	0.491950	0.972320
O171	O17	0.856770	0.679370	0.402580
O181	O18	0.925370	0.594270	0.392430
O191	O19	0.640410	0.814230	0.408890
O201	O20	0.575890	0.897040	0.395720
O211	O21	0.803700	0.791120	0.342040
O221	O22	0.792070	0.887870	0.343380
O231	O23	0.163270	0.801900	0.953010
O241	O24	0.220510	0.890700	0.974510
O251	O25	0.733390	0.995690	0.402940
O261	O26	0.655960	0.008390	0.475880
O271	O27	0.288820	0.600550	0.838690
O281	O28	0.336140	0.692140	0.856600
O291	O29	0.720840	0.608300	0.472950
O301	O30	0.689090	0.703730	0.466700
O311	O31	0.766000	0.499070	0.402800
O321	O32	0.851500	0.491950	0.472320
Co71	Co7	0.283240	0.091620	0.592750
Co81	Co8	0.217220	0.414710	0.595610
Co91	Co9	0.250130	0.253030	0.595270
Co101	Co10	0.716760	0.091620	0.092750
Co111	Co11	0.782780	0.414710	0.095610
Co121	Co12	0.749870	0.253030	0.095270
H651	H65	0.335300	0.884000	0.492800
H661	H66	0.310400	0.782800	0.498600
H671	H67	0.213000	0.809200	0.644600
H681	H68	0.237900	0.910400	0.638800
H691	H69	0.168700	0.610900	0.493600
H701	H70	0.195900	0.712400	0.496700
H711	H71	0.284200	0.703300	0.644800
H721	H72	0.256900	0.601800	0.641700
H731	H73	0.939300	0.234800	0.976000
H741	H74	0.020200	0.234700	0.897500
H751	H75	0.910900	0.074900	0.858100
H761	H76	0.829900	0.075000	0.936600
H771	H77	0.010700	0.244000	0.807900
H781	H78	0.090100	0.250000	0.732500
H791	H79	0.132800	0.071700	0.732200
H801	H80	0.049300	0.066000	0.811600
H811	H81	0.901300	0.396400	0.629900
H821	H82	0.754800	0.351300	0.635100
H831	H83	0.873400	0.193100	0.599600
H841	H84	0.019800	0.238200	0.594500
H851	H85	0.631500	0.312300	0.595300
H861	H86	0.481500	0.268700	0.586200
H871	H87	0.595600	0.118500	0.630300
H881	H88	0.742000	0.159400	0.638000
H891	H89	0.635900	0.440900	0.245600
H901	H90	0.555400	0.436900	0.324100
H911	H91	0.500800	0.264100	0.294700
H921	H92	0.581200	0.268100	0.216200
H931	H93	0.501600	0.264100	0.384900
H941	H94	0.426900	0.265300	0.464100
H951	H95	0.327800	0.424000	0.441700
H961	H96	0.404500	0.427500	0.362200
H971	H97	0.664700	0.884000	0.992800
H981	H98	0.689600	0.782800	0.998600
H991	H99	0.787000	0.809200	0.144600
H1001	H100	0.762100	0.910400	0.138800
H1011	H101	0.831300	0.610900	0.993600
H1021	H102	0.804100	0.712400	0.996700
H1031	H103	0.715800	0.703300	0.144800
H1041	H104	0.743100	0.601800	0.141700
H1051	H105	0.060700	0.234800	0.476000
H1061	H106	0.979800	0.234700	0.397500
H1071	H107	0.089100	0.074900	0.358100
H1081	H108	0.170100	0.075000	0.436600
H1091	H109	0.989300	0.244000	0.307900
H1101	H110	0.909900	0.250000	0.232500
H1111	H111	0.867200	0.071700	0.232200
H1121	H112	0.950700	0.066000	0.311600
H1131	H113	0.098700	0.396400	0.129900
H1141	H114	0.245200	0.351300	0.135100
H1151	H115	0.126600	0.193100	0.099600
H1161	H116	0.980200	0.238200	0.094500
H1171	H117	0.368500	0.312300	0.095300
H1181	H118	0.518500	0.268700	0.086200
H1191	H119	0.404400	0.118500	0.130300
H1201	H120	0.258000	0.159400	0.138000
H1211	H121	0.364100	0.440900	0.745600
H1221	H122	0.444600	0.436900	0.824100
H1231	H123	0.499200	0.264100	0.794700
H1241	H124	0.418800	0.268100	0.716200
H1251	H125	0.498400	0.264100	0.884900
H1261	H126	0.573100	0.265300	0.964100
H1271	H127	0.672200	0.424000	0.941700
H1281	H128	0.595500	0.427500	0.862200
C1131	C113	0.295850	0.972000	0.561760
C1141	C114	0.310760	0.869050	0.523230
C1151	C115	0.295860	0.808400	0.526730
C1161	C116	0.259240	0.785990	0.572200
C1171	C117	0.237530	0.824220	0.614170
C1181	C118	0.252420	0.884870	0.610670
C1191	C119	0.289040	0.907280	0.565200
C1201	C120	0.210090	0.596280	0.567330
C1211	C121	0.191820	0.629420	0.523880
C1221	C122	0.208150	0.690240	0.525740
C1231	C123	0.242740	0.717920	0.571060
C1241	C124	0.261010	0.684780	0.614520
C1251	C125	0.244680	0.623960	0.612660
C1261	C126	0.211840	0.528160	0.565860
C1271	C127	0.825640	0.154580	0.016290
C1281	C128	0.876580	0.154910	0.964080
C1291	C129	0.933580	0.202760	0.952380
C1301	C130	0.982090	0.202710	0.905350
C1311	C131	0.973600	0.154820	0.870030
C1321	C132	0.916600	0.106970	0.881730
C1331	C133	0.868090	0.107020	0.928760
C1341	C134	0.029250	0.156090	0.821630
C1351	C135	0.038400	0.209740	0.793640
C1361	C136	0.084230	0.213750	0.748230
C1371	C137	0.124570	0.159990	0.724160
C1381	C138	0.109750	0.106390	0.748280
C1391	C139	0.060370	0.102470	0.796940
C1401	C140	0.178590	0.161090	0.673270
C1411	C141	0.071770	0.350770	0.604540
C1421	C142	0.975080	0.321820	0.611730
C1431	C143	0.895670	0.355690	0.623870
C1441	C144	0.807910	0.328640	0.626930
C1451	C145	0.799550	0.267720	0.617850
C1461	C146	0.878950	0.233850	0.605710
C1471	C147	0.966710	0.260900	0.602650
C1481	C148	0.701280	0.240050	0.616110
C1491	C149	0.623970	0.272300	0.601840
C1501	C150	0.532940	0.246560	0.596710
C1511	C151	0.523780	0.189020	0.607650
C1521	C152	0.602990	0.158250	0.622800
C1531	C153	0.691060	0.181960	0.627480
C1541	C154	0.430220	0.157660	0.601680
C1551	C155	0.669850	0.354670	0.171240
C1561	C156	0.616510	0.354880	0.223150
C1571	C157	0.608800	0.405470	0.255450
C1581	C158	0.560610	0.403090	0.302450
C1591	C159	0.520120	0.350120	0.317160
C1601	C160	0.527840	0.299530	0.284860
C1611	C161	0.576030	0.301910	0.237860
C1621	C162	0.465390	0.348250	0.367130
C1631	C163	0.468800	0.297650	0.396760
C1641	C164	0.422570	0.298610	0.443830
C1651	C165	0.370290	0.346000	0.462650
C1661	C166	0.364810	0.391810	0.431020
C1671	C167	0.411140	0.394610	0.382710
C1681	C168	0.315420	0.342080	0.513030
C1691	C169	0.704150	0.972000	0.061760
C1701	C170	0.689240	0.869050	0.023230
C1711	C171	0.704140	0.808400	0.026730
C1721	C172	0.740760	0.785990	0.072200
C1731	C173	0.762470	0.824220	0.114170
C1741	C174	0.747580	0.884870	0.110670
C1751	C175	0.710960	0.907280	0.065200
C1761	C176	0.789910	0.596280	0.067330
C1771	C177	0.808180	0.629420	0.023880
C1781	C178	0.791850	0.690240	0.025740
C1791	C179	0.757260	0.717920	0.071060
C1801	C180	0.738990	0.684780	0.114520
C1811	C181	0.755320	0.623960	0.112660
C1821	C182	0.788160	0.528160	0.065860
C1831	C183	0.174360	0.154580	0.516290
C1841	C184	0.123420	0.154910	0.464080
C1851	C185	0.066420	0.202760	0.452380
C1861	C186	0.017910	0.202710	0.405350
C1871	C187	0.026400	0.154820	0.370030
C1881	C188	0.083400	0.106970	0.381730
C1891	C189	0.131910	0.107020	0.428760
C1901	C190	0.970750	0.156090	0.321630
C1911	C191	0.961600	0.209740	0.293640
C1921	C192	0.915770	0.213750	0.248230
C1931	C193	0.875430	0.159990	0.224160
C1941	C194	0.890250	0.106390	0.248280
C1951	C195	0.939630	0.102470	0.296940
C1961	C196	0.821410	0.161090	0.173270
C1971	C197	0.928230	0.350770	0.104540
C1981	C198	0.024920	0.321820	0.111730
C1991	C199	0.104330	0.355690	0.123870
C2001	C200	0.192090	0.328640	0.126930
C2011	C201	0.200450	0.267720	0.117850
C2021	C202	0.121050	0.233850	0.105710
C2031	C203	0.033290	0.260900	0.102650
C2041	C204	0.298720	0.240050	0.116110
C2051	C205	0.376030	0.272300	0.101840
C2061	C206	0.467060	0.246560	0.096710
C2071	C207	0.476220	0.189020	0.107650
C2081	C208	0.397010	0.158250	0.122800
C2091	C209	0.308940	0.181960	0.127480
C2101	C210	0.569780	0.157660	0.101680
C2111	C211	0.330150	0.354670	0.671240
C2121	C212	0.383490	0.354880	0.723150
C2131	C213	0.391200	0.405470	0.755450
C2141	C214	0.439390	0.403090	0.802450
C2151	C215	0.479880	0.350120	0.817160
C2161	C216	0.472160	0.299530	0.784860
C2171	C217	0.423970	0.301910	0.737860
C2181	C218	0.534610	0.348250	0.867130
C2191	C219	0.531200	0.297650	0.896760
C2201	C220	0.577430	0.298610	0.943830
C2211	C221	0.629710	0.346000	0.962650
C2221	C222	0.635190	0.391810	0.931020
C2231	C223	0.588860	0.394610	0.882710
C2241	C224	0.684580	0.342080	0.013030
O331	O33	0.143230	0.320630	0.597420
O341	O34	0.074630	0.405730	0.607570
O351	O35	0.359590	0.185770	0.591110
O361	O36	0.424110	0.102960	0.604280
O371	O37	0.196300	0.208880	0.657960
O381	O38	0.207930	0.112130	0.656620
O391	O39	0.836730	0.198100	0.046990
O401	O40	0.779490	0.109300	0.025490
O411	O41	0.266610	0.004310	0.597060
O421	O42	0.344040	0.991610	0.524120
O431	O43	0.711180	0.399450	0.161310
O441	O44	0.663860	0.307860	0.143400
O451	O45	0.279160	0.391700	0.527050
O461	O46	0.310910	0.296270	0.533300
O471	O47	0.234000	0.500930	0.597200
O481	O48	0.148500	0.508050	0.527680
O491	O49	0.856770	0.320630	0.097420
O501	O50	0.925370	0.405730	0.107570
O511	O51	0.640410	0.185770	0.091110
O521	O52	0.575890	0.102960	0.104280
O531	O53	0.803700	0.208880	0.157960
O541	O54	0.792070	0.112130	0.156620
O551	O55	0.163270	0.198100	0.546990
O561	O56	0.220510	0.109300	0.525490
O571	O57	0.733390	0.004310	0.097060
O581	O58	0.655960	0.991610	0.024120
O591	O59	0.288820	0.399450	0.661310
O601	O60	0.336140	0.307860	0.643400
O611	O61	0.720840	0.391700	0.027050
O621	O62	0.689090	0.296270	0.033300
O631	O63	0.766000	0.500930	0.097200
O641	O64	0.851500	0.508050	0.027680
H1291	H129	0.727000	0.499500	0.886500
H1301	H130	0.740400	0.565300	0.870100
H1311	H131	0.655700	0.527600	0.847900
H1321	H132	0.489000	0.537100	0.927500
H1331	H133	0.510000	0.589800	0.891100
H1341	H134	0.510700	0.600400	0.951700
H1351	H135	0.638800	0.529600	0.949000
H1361	H136	0.661300	0.590100	0.938100
C2251	C225	0.694940	0.535300	0.877800
C2261	C226	0.525230	0.572610	0.923670
N11	N1	0.632590	0.557280	0.924870
H1371	H137	0.813700	0.979200	0.867800
H1381	H138	0.775900	0.981800	0.925200
H1391	H139	0.770300	0.922400	0.891700
H1401	H140	0.896500	0.908600	0.939500
H1411	H141	0.925100	0.969800	0.940400
H1421	H142	0.034300	0.956500	0.882100
H1431	H143	0.974500	0.908600	0.851200
H1441	H144	0.029000	0.891500	0.901600
C2271	C227	0.807030	0.957460	0.898990
C2281	C228	0.994510	0.922390	0.885250
N21	N2	0.906360	0.939520	0.919010
H1451	H145	0.727000	0.500500	0.613500
H1461	H146	0.740400	0.434700	0.629900
H1471	H147	0.655700	0.472400	0.652100
H1481	H148	0.489000	0.462900	0.572500
H1491	H149	0.510000	0.410200	0.608900
H1501	H150	0.510700	0.399600	0.548300
H1511	H151	0.638800	0.470400	0.551000
H1521	H152	0.661300	0.409900	0.561900
C2291	C229	0.694940	0.464700	0.622200
C2301	C230	0.525230	0.427390	0.576330
N31	N3	0.632590	0.442720	0.575130
H1531	H153	0.813700	0.020800	0.632200
H1541	H154	0.775900	0.018200	0.574800
H1551	H155	0.770300	0.077600	0.608300
H1561	H156	0.896500	0.091400	0.560500
H1571	H157	0.925100	0.030200	0.559600
H1581	H158	0.034300	0.043500	0.617900
H1591	H159	0.974500	0.091400	0.648800
H1601	H160	0.029000	0.108500	0.598400
C2311	C231	0.807030	0.042540	0.601000
C2321	C232	0.994510	0.077610	0.614750
N41	N4	0.906360	0.060480	0.580990
H1611	H161	0.273000	0.500500	0.113500
H1621	H162	0.259600	0.434700	0.129900
H1631	H163	0.344300	0.472400	0.152100
H1641	H164	0.511000	0.462900	0.072500
H1651	H165	0.490000	0.410200	0.108900
H1661	H166	0.489300	0.399600	0.048300
H1671	H167	0.361200	0.470400	0.051000
H1681	H168	0.338700	0.409900	0.061900
C2331	C233	0.305060	0.464700	0.122200
C2341	C234	0.474770	0.427390	0.076330
N51	N5	0.367410	0.442720	0.075130
H1691	H169	0.186300	0.020800	0.132200
H1701	H170	0.224100	0.018200	0.074800
H1711	H171	0.229700	0.077600	0.108300
H1721	H172	0.103500	0.091400	0.060500
H1731	H173	0.074900	0.030200	0.059600
H1741	H174	0.965700	0.043500	0.117900
H1751	H175	0.025500	0.091400	0.148800
H1761	H176	0.971000	0.108500	0.098400
C2351	C235	0.192970	0.042540	0.101000
C2361	C236	0.005490	0.077610	0.114750
N61	N6	0.093640	0.060480	0.080990
H1771	H177	0.273000	0.499500	0.386500
H1781	H178	0.259600	0.565300	0.370100
H1791	H179	0.344300	0.527600	0.347900
H1801	H180	0.511000	0.537100	0.427500
H1811	H181	0.490000	0.589800	0.391100
H1821	H182	0.489300	0.600400	0.451700
H1831	H183	0.361200	0.529600	0.449000
H1841	H184	0.338700	0.590100	0.438100
C2371	C237	0.305060	0.535300	0.377800
C2381	C238	0.474770	0.572610	0.423670
N71	N7	0.367410	0.557280	0.424870
H1851	H185	0.186300	0.979200	0.367800
H1861	H186	0.224100	0.981800	0.425200
H1871	H187	0.229700	0.922400	0.391700
H1881	H188	0.103500	0.908600	0.439500
H1891	H189	0.074900	0.969800	0.440400
H1901	H190	0.965700	0.956500	0.382100
H1911	H191	0.025500	0.908600	0.351200
H1921	H192	0.971000	0.891500	0.401600
C2391	C239	0.192970	0.957460	0.398990
C2401	C240	0.005490	0.922390	0.385250
N81	N8	0.093640	0.939520	0.419010
