data_MOXKAN_freeONLY_PM
_symmetry_space_group_name_H-M	'P1'
_cell_length_a	14.024000
_cell_length_b	23.253000
_cell_length_c	23.455000
_cell_angle_alpha	107.680000
_cell_angle_beta	90.000000
_cell_angle_gamma	90.000000
_symmetry_Int_Tables_number 1

loop_
_symmetry_equiv_pos_as_xyz
'x,y,z'

loop_
_atom_site_label
_atom_site_type_symbol
_atom_site_fract_x
_atom_site_fract_y
_atom_site_fract_z
Ce11	Ce1	0.557280	0.752500	0.207640
Ce21	Ce2	0.797170	0.488880	0.226360
Ce31	Ce3	0.442720	0.247500	0.792360
Ce41	Ce4	0.800490	0.223120	0.996380
Ce51	Ce5	0.144700	0.257800	0.209240
Ce61	Ce6	0.942720	0.252500	0.707640
Ce71	Ce7	0.297170	0.011120	0.273650
Ce81	Ce8	0.644700	0.242200	0.290760
Ce91	Ce9	0.199510	0.776880	0.003620
Ce101	Ce10	0.202830	0.511120	0.773650
Ce111	Ce11	0.699510	0.723120	0.496390
Ce121	Ce12	0.855300	0.742200	0.790760
Ce131	Ce13	0.057280	0.747500	0.292360
Ce141	Ce14	0.702830	0.988880	0.726350
Ce151	Ce15	0.300490	0.276880	0.503620
Ce161	Ce16	0.355300	0.757800	0.709240
H11	H1	0.154800	0.273200	0.632500
H21	H2	0.717600	0.135100	0.460500
H31	H3	0.397100	0.599600	0.606500
H41	H4	0.443400	0.427300	0.102600
H51	H5	0.329500	0.367300	0.910900
H61	H6	0.902600	0.304900	0.271900
H71	H7	0.363700	0.373900	0.745600
H81	H8	0.726500	0.047800	0.609100
H91	H9	0.273500	0.952200	0.390900
H101	H10	0.678300	0.545300	0.605900
H111	H11	0.370000	0.306800	0.035600
H121	H12	0.735800	0.362000	0.110200
H131	H13	0.422900	0.705600	0.466800
H141	H14	0.905600	0.832100	0.533200
H151	H15	0.148100	0.629000	0.453600
H161	H16	0.052200	0.172600	0.800400
H171	H17	0.595500	0.110800	0.174800
H181	H18	0.097700	0.154200	0.685800
H191	H19	0.491400	0.788500	0.849100
H201	H20	0.991400	0.711500	0.650900
H211	H21	0.535500	0.656100	0.041500
H221	H22	0.314600	0.391600	0.652500
H231	H23	0.464500	0.343900	0.958500
H241	H24	0.685400	0.608400	0.347500
H251	H25	0.958300	0.456100	0.094300
H261	H26	0.212200	0.195000	0.839300
H271	H27	0.081300	0.108000	0.263100
H281	H28	0.543700	0.064500	0.846300
H291	H29	0.845200	0.726800	0.367500
H301	H30	0.746500	0.639300	0.612700
H311	H31	0.140700	0.771700	0.627600
H321	H32	0.508600	0.211500	0.150900
H331	H33	0.940100	0.506200	0.773100
H341	H34	0.397200	0.510500	0.879400
H351	H35	0.904500	0.610800	0.674800
H361	H36	0.094400	0.167900	0.466800
H371	H37	0.246500	0.860700	0.887300
H381	H38	0.764200	0.862000	0.610200
H391	H39	0.227100	0.737000	0.838500
H401	H40	0.068700	0.761300	0.883700
H411	H41	0.801600	0.874300	0.095400
H421	H42	0.077100	0.205600	0.966800
H431	H43	0.787800	0.805000	0.160700
H441	H44	0.404500	0.889200	0.825200
H451	H45	0.287800	0.695000	0.339300
H461	H46	0.957600	0.305800	0.579800
H471	H47	0.552200	0.327400	0.699600
H481	H48	0.170500	0.867300	0.410900
H491	H49	0.136300	0.873900	0.245600
H501	H50	0.947800	0.827400	0.199600
H511	H51	0.064300	0.285300	0.452300
H521	H52	0.564300	0.214700	0.047700
H531	H53	0.345200	0.773200	0.132500
H541	H54	0.272900	0.237000	0.338500
H551	H55	0.931300	0.238700	0.116300
H561	H56	0.028400	0.865100	0.810400
H571	H57	0.196200	0.858900	0.769600
H581	H58	0.036100	0.651500	0.987300
H591	H59	0.097400	0.695100	0.728100
H601	H60	0.831000	0.280300	0.861800
H611	H61	0.435700	0.785300	0.952300
H621	H62	0.935700	0.714700	0.547700
H631	H63	0.274000	0.138400	0.703000
H641	H64	0.235800	0.138000	0.389800
H651	H65	0.597700	0.345800	0.814200
H661	H66	0.282400	0.864900	0.539500
H671	H67	0.594400	0.332100	0.033200
H681	H68	0.195800	0.196600	0.049300
H691	H69	0.390600	0.870900	0.272800
H701	H70	0.402600	0.195100	0.228100
H711	H71	0.609400	0.129100	0.727200
H721	H72	0.698400	0.374300	0.595400
H731	H73	0.541700	0.956100	0.594300
H741	H74	0.829500	0.132700	0.589100
H751	H75	0.087600	0.997200	0.974800
H761	H76	0.701000	0.194800	0.713800
H771	H77	0.301600	0.625700	0.404600
H781	H78	0.581300	0.392000	0.236900
H791	H79	0.058900	0.875200	0.680100
H801	H80	0.008600	0.288500	0.349100
H811	H81	0.198400	0.125700	0.904600
H821	H82	0.630000	0.693200	0.964400
H831	H83	0.095500	0.389200	0.325200
H841	H84	0.226500	0.452200	0.890900
H851	H85	0.753500	0.139300	0.112700
H861	H86	0.890600	0.629100	0.227200
H871	H87	0.902300	0.845800	0.314200
H881	H88	0.814600	0.108400	0.847500
H891	H89	0.156500	0.004600	0.127800
H901	H90	0.983300	0.156400	0.898500
H911	H91	0.556600	0.572700	0.897400
H921	H92	0.922900	0.794400	0.033200
H931	H93	0.727100	0.763000	0.661500
H941	H94	0.635900	0.131500	0.374100
H951	H95	0.303800	0.358900	0.269600
H961	H96	0.264200	0.638000	0.889800
H971	H97	0.431300	0.261300	0.383700
H981	H98	0.471600	0.365100	0.310400
H991	H99	0.897200	0.989500	0.620600
H1001	H100	0.267400	0.143100	0.245500
H1011	H101	0.135900	0.368500	0.125900
H1021	H102	0.943400	0.072700	0.397400
H1031	H103	0.963900	0.348500	0.012700
H1041	H104	0.941100	0.124800	0.319900
H1051	H105	0.528400	0.634900	0.689600
H1061	H106	0.964500	0.156100	0.541500
H1071	H107	0.559900	0.006200	0.273100
H1081	H108	0.542400	0.805800	0.079800
H1091	H109	0.863700	0.126100	0.754400
H1101	H110	0.767400	0.356900	0.254500
H1111	H111	0.897100	0.900400	0.893500
H1121	H112	0.558900	0.624800	0.819900
H1131	H113	0.648100	0.871000	0.046400
H1141	H114	0.055800	0.543800	0.664700
H1151	H115	0.035500	0.843900	0.458500
H1161	H116	0.529900	0.860100	0.666200
H1171	H117	0.732600	0.856900	0.754500
H1181	H118	0.405600	0.667900	0.966800
H1191	H119	0.185400	0.891600	0.152500
H1201	H120	0.782400	0.635100	0.960500
H1211	H121	0.304200	0.696600	0.549300
H1221	H122	0.587600	0.502800	0.525200
H1231	H123	0.444200	0.043800	0.164700
H1241	H124	0.351900	0.129000	0.953600
H1251	H125	0.056600	0.927300	0.602600
H1261	H126	0.774000	0.361600	0.797000
H1271	H127	0.226000	0.638400	0.203000
H1281	H128	0.516700	0.656400	0.398500
H1291	H129	0.041700	0.543900	0.905700
H1301	H130	0.016700	0.843600	0.101500
H1311	H131	0.669000	0.780300	0.361800
H1321	H132	0.636300	0.626100	0.254400
H1331	H133	0.364100	0.868500	0.625900
H1341	H134	0.470100	0.139900	0.333800
H1351	H135	0.087500	0.364700	0.551000
H1361	H136	0.670500	0.632700	0.089100
H1371	H137	0.842400	0.409300	0.738900
H1381	H138	0.602800	0.489500	0.120600
H1391	H139	0.577100	0.294400	0.533200
H1401	H140	0.712200	0.305000	0.660700
H1411	H141	0.440100	0.993800	0.726900
H1421	H142	0.321700	0.454700	0.394100
H1431	H143	0.441100	0.375200	0.180100
H1441	H144	0.413300	0.423700	0.535500
H1451	H145	0.456300	0.935500	0.153700
H1461	H146	0.970100	0.360100	0.166200
H1471	H147	0.130000	0.806800	0.535600
H1481	H148	0.555800	0.956200	0.835300
H1491	H149	0.657600	0.909300	0.238900
H1501	H150	0.086700	0.923700	0.035500
H1511	H151	0.299000	0.805200	0.286200
H1521	H152	0.232600	0.643100	0.745500
H1531	H153	0.587500	0.135300	0.949000
H1541	H154	0.447800	0.672600	0.300400
H1551	H155	0.109400	0.370900	0.772800
H1561	H156	0.029900	0.639900	0.833800
H1571	H157	0.536100	0.848500	0.512700
H1581	H158	0.799000	0.694800	0.213800
H1591	H159	0.568700	0.738700	0.616300
H1601	H160	0.157600	0.590700	0.261100
H1611	H161	0.912400	0.002800	0.025200
H1621	H162	0.418700	0.608000	0.763100
H1631	H163	0.971600	0.134900	0.189600
H1641	H164	0.343500	0.504600	0.627800
H1651	H165	0.640700	0.728300	0.872400
H1661	H166	0.253500	0.360700	0.387300
H1671	H167	0.851900	0.371000	0.546400
H1681	H168	0.457600	0.194200	0.920200
H1691	H169	0.772900	0.263000	0.161500
H1701	H170	0.864100	0.631500	0.874100
H1711	H171	0.859300	0.228300	0.372400
H1721	H172	0.483300	0.343600	0.601500
H1731	H173	0.043700	0.435500	0.653700
H1741	H174	0.458300	0.043900	0.405700
H1751	H175	0.402300	0.654200	0.185800
H1761	H176	0.331000	0.219700	0.638200
H1771	H177	0.956300	0.564500	0.346300
H1781	H178	0.059900	0.493800	0.226900
H1791	H179	0.843500	0.995400	0.872200
H1801	H180	0.602900	0.400400	0.393500
H1811	H181	0.217600	0.364900	0.039500
H1821	H182	0.870000	0.193200	0.464400
H1831	H183	0.726000	0.861600	0.297000
H1841	H184	0.913300	0.076300	0.964500
H1851	H185	0.821700	0.045300	0.105900
H1861	H186	0.169000	0.719700	0.138200
H1871	H187	0.586700	0.576300	0.464500
H1881	H188	0.597400	0.804900	0.771900
H1891	H189	0.695800	0.303400	0.450700
H1901	H190	0.944200	0.456200	0.335300
H1911	H191	0.042400	0.694200	0.420200
H1921	H192	0.102900	0.099600	0.106500
H1931	H193	0.342400	0.090700	0.761100
H1941	H194	0.359300	0.271700	0.127600
H1951	H195	0.412500	0.864700	0.051000
H1961	H196	0.773500	0.547800	0.109100
H1971	H197	0.804200	0.803400	0.950700
H1981	H198	0.412400	0.497200	0.474800
H1991	H199	0.178300	0.954700	0.894100
H2001	H200	0.656500	0.495400	0.372200
H2011	H201	0.696200	0.641100	0.730400
H2021	H202	0.912500	0.635300	0.449000
H2031	H203	0.918700	0.892000	0.736900
H2041	H204	0.463900	0.151500	0.487300
H2051	H205	0.102800	0.010500	0.379400
H2061	H206	0.201000	0.305200	0.786200
H2071	H207	0.803800	0.141100	0.230400
H2081	H208	0.654800	0.226800	0.867500
C11	C1	0.742900	0.814600	0.134000
C21	C2	0.264000	0.672720	0.216460
C31	C3	0.063500	0.211000	0.008170
C41	C4	0.890200	0.310800	0.589100
C51	C5	0.757100	0.314600	0.634000
C61	C6	0.515300	0.726920	0.588990
C71	C7	0.468600	0.071310	0.199980
C81	C8	0.141700	0.181000	0.706320
C91	C9	0.751200	0.850200	0.098300
C101	C10	0.090500	0.586550	0.252600
C111	C11	0.242900	0.685400	0.366000
C121	C12	0.584200	0.866490	0.543340
C131	C13	0.031400	0.571310	0.699980
C141	C14	0.047700	0.392600	0.295020
C151	C15	0.505700	0.692490	0.326650
C161	C16	0.142900	0.095180	0.136860
C171	C17	0.063400	0.830370	0.787210
C181	C18	0.432700	0.780100	0.862320
C191	C19	0.678800	0.682700	0.934700
C201	C20	0.235100	0.121720	0.213180
C211	C21	0.844300	0.172220	0.232820
C221	C22	0.673200	0.455330	0.350930
C231	C23	0.090200	0.187770	0.511650
C241	C24	0.248800	0.149800	0.901700
C251	C25	0.484300	0.123740	0.292050
C261	C26	0.672800	0.619520	0.126070
C271	C27	0.590200	0.312230	0.988350
C281	C28	0.257100	0.185400	0.866000
C291	C29	0.436600	0.330370	0.287210
C301	C30	0.117700	0.962700	0.969100
C311	C31	0.123200	0.747340	0.140520
C321	C32	0.936500	0.789000	0.991830
C331	C33	0.075700	0.040600	0.359200
C341	C34	0.827200	0.119520	0.626070
C351	C35	0.124100	0.210600	0.053100
C361	C36	0.653600	0.614180	0.214850
C371	C37	0.817000	0.202800	0.385900
C381	C38	0.172800	0.880480	0.373930
C391	C39	0.461000	0.316090	0.622420
C401	C40	0.586600	0.922090	0.585520
C411	C41	0.628100	0.119810	0.916860
C421	C42	0.317000	0.297200	0.114100
C431	C43	0.992700	0.071400	0.368900
C441	C44	0.321200	0.317300	0.065300
C451	C45	0.268600	0.424790	0.866450
C461	C46	0.735100	0.378280	0.286820
C471	C47	0.436500	0.711000	0.508170
C481	C48	0.641700	0.319000	0.793680
C491	C49	0.878300	0.754290	0.399980
C501	C50	0.399500	0.237660	0.245050
C511	C51	0.764000	0.827280	0.283540
C521	C52	0.808700	0.650600	0.884100
C531	C53	0.731400	0.575210	0.133550
C541	C54	0.909800	0.812230	0.488350
C551	C55	0.041600	0.533600	0.231000
C561	C56	0.007300	0.928600	0.631100
C571	C57	0.378300	0.745710	0.100020
C581	C58	0.371900	0.880190	0.083140
C591	C59	0.015300	0.773080	0.911010
C601	C60	0.882300	0.037300	0.030900
C611	C61	0.876800	0.252660	0.859480
C621	C62	0.424300	0.540600	0.859200
C631	C63	0.551800	0.106360	0.730770
C641	C64	0.251200	0.649800	0.401700
C651	C65	0.390200	0.189200	0.910900
C661	C66	0.876700	0.077900	0.999900
C671	C67	0.086600	0.577910	0.914480
C681	C68	0.231400	0.924790	0.366450
C691	C69	0.205300	0.887200	0.920400
C701	C70	0.198000	0.264250	0.761980
C711	C71	0.768600	0.075210	0.633550
C721	C72	0.567300	0.219900	0.137680
C731	C73	0.698000	0.235750	0.738020
C741	C74	0.236000	0.172720	0.716460
C751	C75	0.104400	0.419140	0.637340
C761	C76	0.794700	0.112800	0.079600
C771	C77	0.015700	0.623740	0.792050
C781	C78	0.590500	0.913450	0.247400
C791	C79	0.913400	0.422090	0.085520
C801	C80	0.531400	0.928690	0.800020
C811	C81	0.623300	0.577900	0.499900
C821	C82	0.039000	0.816090	0.122420
C831	C83	0.875900	0.789400	0.946900
C841	C84	0.183000	0.797200	0.614100
C851	C85	0.492700	0.428600	0.131100
C861	C86	0.109800	0.689200	0.410900
C871	C87	0.600500	0.762340	0.754950
C881	C88	0.288300	0.750160	0.855960
C891	C89	0.327200	0.380480	0.873930
C901	C90	0.932700	0.719900	0.637680
C911	C91	0.520800	0.318960	0.949810
C921	C92	0.494300	0.307510	0.673350
C931	C93	0.344300	0.327780	0.267180
C941	C94	0.415800	0.133510	0.456660
C951	C95	0.952300	0.607400	0.704980
C961	C96	0.857100	0.904820	0.863140
C971	C97	0.623200	0.752660	0.359480
C981	C98	0.788300	0.749840	0.644040
C991	C99	0.376800	0.247340	0.640520
C1001	C100	0.846400	0.114180	0.714850
C1011	C101	0.802000	0.735750	0.238020
C1021	C102	0.705300	0.612800	0.579600
C1031	C103	0.904100	0.723370	0.583070
C1041	C104	0.871900	0.619810	0.416860
C1051	C105	0.069100	0.088700	0.294200
C1061	C106	0.452300	0.892600	0.795020
C1071	C107	0.821200	0.182700	0.434700
C1081	C108	0.302000	0.764250	0.261980
C1091	C109	0.051800	0.393640	0.769230
C1101	C110	0.357100	0.595180	0.636860
C1111	C111	0.764900	0.878280	0.786820
C1121	C112	0.005700	0.807510	0.173350
C1131	C113	0.736000	0.327280	0.783540
C1141	C114	0.289000	0.127540	0.404680
C1151	C115	0.020800	0.181040	0.550190
C1161	C116	0.346400	0.385820	0.785150
C1171	C117	0.358300	0.681000	0.206320
C1181	C118	0.211000	0.627540	0.904680
C1191	C119	0.264900	0.621720	0.713180
C1201	C120	0.968600	0.428690	0.300020
C1211	C121	0.655700	0.672220	0.732820
C1221	C122	0.123300	0.922100	0.000100
C1231	C123	0.541600	0.966400	0.269000
C1241	C124	0.979200	0.818960	0.449810
C1251	C125	0.084200	0.633510	0.956660
C1261	C126	0.936600	0.169630	0.212790
C1271	C127	0.858300	0.819000	0.293680
C1281	C128	0.155700	0.827780	0.767180
C1291	C129	0.899500	0.262340	0.254950
C1301	C130	0.609800	0.810800	0.089100
C1311	C131	0.294700	0.387200	0.420400
C1321	C132	0.711000	0.872460	0.595320
C1331	C133	0.789000	0.372460	0.095320
C1341	C134	0.395600	0.919140	0.137340
C1351	C135	0.326800	0.544670	0.649070
C1361	C136	0.895600	0.580860	0.362660
C1371	C137	0.128100	0.380190	0.583140
C1381	C138	0.624100	0.289400	0.446900
C1391	C139	0.067300	0.280100	0.362320
C1401	C140	0.409500	0.086550	0.752600
C1411	C141	0.375900	0.710600	0.553100
C1421	C142	0.507300	0.571400	0.868900
C1431	C143	0.121700	0.245710	0.600020
C1441	C144	0.547700	0.107400	0.204980
C1451	C145	0.382300	0.462700	0.469100
C1461	C146	0.563500	0.289000	0.491830
C1471	C147	0.515700	0.876260	0.707950
C1481	C148	0.683000	0.702800	0.885900
C1491	C149	0.604400	0.080860	0.862660
C1501	C150	0.100500	0.737660	0.745050
C1511	C151	0.711700	0.249840	0.144040
C1521	C152	0.211700	0.250160	0.355960
C1531	C153	0.409800	0.687770	0.011650
C1541	C154	0.984300	0.376260	0.207950
C1551	C155	0.617700	0.537300	0.530900
C1561	C156	0.430900	0.588700	0.794200
C1571	C157	0.448200	0.893640	0.269230
C1581	C158	0.376700	0.422100	0.500100
C1591	C159	0.479200	0.681040	0.050190
C1601	C160	0.251700	0.395540	0.638230
C1611	C161	0.539000	0.683910	0.377580
C1621	C162	0.642900	0.404820	0.363140
C1631	C163	0.248300	0.895540	0.138230
C1641	C164	0.621700	0.254290	0.899980
C1651	C165	0.458400	0.033600	0.731000
C1661	C166	0.751700	0.104460	0.861770
C1671	C167	0.173200	0.044670	0.149070
C1681	C168	0.178800	0.817300	0.565300
C1691	C169	0.909500	0.413450	0.747400
C1701	C170	0.826800	0.955330	0.850930
C1711	C171	0.563400	0.669630	0.712790
C1721	C172	0.961000	0.183910	0.877580
C1731	C173	0.915800	0.366490	0.043340
C1741	C174	0.958400	0.466400	0.769000
C1751	C175	0.095900	0.276630	0.416930
C1761	C176	0.575700	0.459400	0.140800
C1771	C177	0.948200	0.606360	0.230770
C1781	C178	0.748800	0.350200	0.598300
C1791	C179	0.153600	0.885820	0.285150
C1801	C180	0.413400	0.077910	0.414480
C1811	C181	0.930900	0.911300	0.705800
C1821	C182	0.595900	0.223370	0.083070
C1831	C183	0.308700	0.849400	0.615900
C1841	C184	0.484700	0.273080	0.411010
C1851	C185	0.984700	0.226920	0.088990
C1861	C186	0.994300	0.192490	0.826650
C1871	C187	0.404100	0.776630	0.916930
C1881	C188	0.748300	0.604460	0.361770
C1891	C189	0.924300	0.959400	0.640800
C1901	C190	0.191300	0.349400	0.115900
C1911	C191	0.569100	0.411300	0.205800
C1921	C192	0.691300	0.150600	0.384100
N11	N1	0.652500	0.789600	0.128310
N21	N2	0.740800	0.148710	0.432450
N31	N3	0.184700	0.429650	0.673390
N41	N4	0.622300	0.644360	0.178230
N51	N5	0.266800	0.561140	0.698410
N61	N6	0.727700	0.774000	0.247400
N71	N7	0.315300	0.929650	0.173390
N81	N8	0.169700	0.939790	0.918760
N91	N9	0.720000	0.571770	0.190840
N101	N10	0.489600	0.398230	0.173000
N111	N11	0.027900	0.772660	0.772870
N121	N12	0.071600	0.581560	0.755760
N131	N13	0.678500	0.626090	0.531110
N141	N14	0.642000	0.237180	0.177690
N151	N15	0.222900	0.364410	0.582850
N161	N16	0.616700	0.259710	0.764700
N171	N17	0.817900	0.854520	0.821610
N181	N18	0.320000	0.268390	0.239920
N191	N19	0.152500	0.710400	0.371690
N201	N20	0.530800	0.865760	0.247690
N211	N21	0.311100	0.758000	0.913220
N221	N22	0.240800	0.351290	0.067550
N231	N23	0.960400	0.781310	0.392670
N241	N24	0.811100	0.742000	0.586780
N251	N25	0.449600	0.954060	0.283230
N261	N26	0.664200	0.834310	0.549390
N271	N27	0.347500	0.210400	0.871690
N281	N28	0.780000	0.071770	0.690840
N291	N29	0.557600	0.141370	0.264080
N301	N30	0.969200	0.365760	0.747690
N311	N31	0.334000	0.152370	0.930320
N321	N32	0.233200	0.061140	0.198410
N331	N33	0.939800	0.237610	0.814010
N341	N34	0.733200	0.438860	0.301590
N351	N35	0.182100	0.145480	0.178390
N361	N36	0.527200	0.721410	0.530790
N371	N37	0.331500	0.073930	0.380370
N381	N38	0.844300	0.770750	0.456330
N391	N39	0.925800	0.779140	0.894390
N401	N40	0.122300	0.855640	0.321770
N411	N41	0.030800	0.634240	0.252310
N421	N42	0.734700	0.182450	0.353980
N431	N43	0.539600	0.281310	0.892670
N441	N44	0.227700	0.726000	0.252600
N451	N45	0.834000	0.347630	0.569680
N461	N46	0.765300	0.682450	0.853980
N471	N47	0.560200	0.737610	0.314010
N481	N48	0.330300	0.439790	0.418760
N491	N49	0.116700	0.240290	0.735300
N501	N50	0.766800	0.938860	0.801590
N511	N51	0.180000	0.768390	0.739920
N521	N52	0.472800	0.278590	0.469210
N531	N53	0.759200	0.648710	0.932450
N541	N54	0.439800	0.262390	0.685990
N551	N55	0.164200	0.665690	0.950610
N561	N56	0.624400	0.448340	0.187730
N571	N57	0.883300	0.759710	0.264700
N581	N58	0.830300	0.060210	0.081240
N591	N59	0.571600	0.918440	0.744240
N601	N60	0.722900	0.135590	0.917150
N611	N61	0.668500	0.926070	0.619630
N621	N62	0.772300	0.274000	0.747400
N631	N63	0.280000	0.428230	0.809160
N641	N64	0.386500	0.277200	0.600580
N651	N65	0.875600	0.948340	0.687730
N661	N66	0.317900	0.645480	0.678390
N671	N67	0.469200	0.134240	0.752310
N681	N68	0.472100	0.272660	0.272870
N691	N69	0.039600	0.218690	0.607330
N701	N70	0.377700	0.355640	0.821770
N711	N71	0.682100	0.354520	0.321610
N721	N72	0.858000	0.737180	0.677690
N731	N73	0.831500	0.426070	0.119630
N741	N74	0.113500	0.777200	0.100580
N751	N75	0.574200	0.279140	0.394390
N761	N76	0.428400	0.081560	0.255760
N771	N77	0.821500	0.126090	0.031110
N781	N78	0.124400	0.051660	0.312270
N791	N79	0.688900	0.242000	0.086780
N801	N80	0.272300	0.226000	0.752600
N811	N81	0.942400	0.641370	0.764080
N821	N82	0.989600	0.101770	0.327000
N831	N83	0.886500	0.222800	0.899420
N841	N84	0.820000	0.231610	0.260080
N851	N85	0.847500	0.289600	0.628310
N861	N86	0.383300	0.740290	0.235300
N871	N87	0.510400	0.601770	0.827000
N881	N88	0.178500	0.873910	0.968890
N891	N89	0.972800	0.221410	0.030790
N901	N90	0.684700	0.070350	0.826610
N911	N91	0.321500	0.373910	0.468890
N921	N92	0.666000	0.847630	0.069680
N931	N93	0.277100	0.864410	0.082850
N941	N94	0.358000	0.762820	0.822310
N951	N95	0.425800	0.720860	0.605610
N961	N96	0.344300	0.729250	0.043670
N971	N97	0.877700	0.144360	0.678230
N981	N98	0.265300	0.817550	0.646020
N991	N99	0.949600	0.545940	0.216770
N1001	N100	0.027200	0.778590	0.969210
N1011	N101	0.168500	0.573930	0.880370
N1021	N102	0.460400	0.718690	0.107330
N1031	N103	0.060200	0.762390	0.185990
N1041	N104	0.335800	0.165690	0.450610
N1051	N105	0.680000	0.731610	0.760080
N1061	N106	0.669700	0.560210	0.581240
N1071	N107	0.234700	0.317550	0.146020
N1081	N108	0.010400	0.898230	0.673000
N1091	N109	0.815300	0.570350	0.326610
N1101	N110	0.375600	0.551660	0.812270
N1111	N111	0.155700	0.229250	0.543670
N1121	N112	0.166000	0.652370	0.430320
N1131	N113	0.613500	0.722800	0.399420
N1141	N114	0.527900	0.727340	0.727130
N1151	N115	0.142000	0.262820	0.322310
N1161	N116	0.259200	0.851290	0.567550
N1171	N117	0.777100	0.635590	0.417150
N1181	N118	0.188900	0.258000	0.413220
N1191	N119	0.074200	0.220860	0.105610
N1201	N120	0.050400	0.454060	0.783230
N1211	N121	0.928400	0.418440	0.244240
N1221	N122	0.835800	0.334310	0.049390
N1231	N123	0.057600	0.358630	0.235920
N1241	N124	0.220000	0.928230	0.309160
N1251	N125	0.550400	0.045940	0.716770
N1261	N126	0.442400	0.858630	0.735920
N1271	N127	0.972100	0.227340	0.227130
N1281	N128	0.655700	0.270750	0.956330
