data_MOXNUJ_freeONLY_PM
_symmetry_space_group_name_H-M	'P1'
_cell_length_a	9.803980
_cell_length_b	16.838600
_cell_length_c	16.838600
_cell_angle_alpha	85.138400
_cell_angle_beta	73.075200
_cell_angle_gamma	73.075300
_symmetry_Int_Tables_number 1

loop_
_symmetry_equiv_pos_as_xyz
'x,y,z'

loop_
_atom_site_label
_atom_site_type_symbol
_atom_site_fract_x
_atom_site_fract_y
_atom_site_fract_z
Cu11	Cu1	0.000000	0.500000	0.500000
Cu21	Cu2	0.500000	0.000000	0.000000
Cu31	Cu3	0.500000	0.500000	0.000000
Cu41	Cu4	0.500000	0.000000	0.500000
H11	H1	0.275700	0.520800	0.385200
H21	H2	0.514200	0.446400	0.323400
H31	H3	0.406700	0.241300	0.421900
H41	H4	0.169600	0.322000	0.476200
H51	H5	0.698100	0.348900	0.236700
H61	H6	0.754600	0.361100	0.312100
H71	H7	0.952100	0.376500	0.755500
H81	H8	0.100600	0.314500	0.706300
H91	H9	0.104400	0.382300	0.763300
H101	H10	0.681700	0.979200	0.114800
H111	H11	0.784000	0.053600	0.176600
H121	H12	0.569900	0.258700	0.078100
H131	H13	0.467800	0.178000	0.023800
H141	H14	0.783700	0.151100	0.263300
H151	H15	0.927800	0.138900	0.187900
H161	H16	0.584100	0.123500	0.744500
H171	H17	0.621400	0.185500	0.793700
H181	H18	0.750000	0.117700	0.736700
H191	H19	0.660900	0.614800	0.020800
H201	H20	0.837600	0.676600	0.946400
H211	H21	0.828600	0.578100	0.741300
H221	H22	0.645800	0.523800	0.822000
H231	H23	0.934800	0.763300	0.848900
H241	H24	0.066700	0.687900	0.861100
H251	H25	0.707600	0.244500	0.876500
H261	H26	0.806900	0.293700	0.814500
H271	H27	0.867700	0.236700	0.882300
H281	H28	0.796500	0.885200	0.479200
H291	H29	0.960600	0.823400	0.553600
H301	H30	0.648000	0.921900	0.758700
H311	H31	0.491600	0.976200	0.678000
H321	H32	0.047000	0.736700	0.651100
H331	H33	0.115700	0.812100	0.638900
H341	H34	0.328600	0.255500	0.623500
H351	H35	0.415100	0.206300	0.685500
H361	H36	0.486700	0.263300	0.617700
H371	H37	0.724300	0.479200	0.614800
H381	H38	0.485800	0.553600	0.676600
H391	H39	0.593300	0.758700	0.578100
H401	H40	0.830400	0.678000	0.523800
H411	H41	0.301900	0.651100	0.763300
H421	H42	0.245400	0.638900	0.687900
H431	H43	0.047900	0.623500	0.244500
H441	H44	0.899400	0.685500	0.293700
H451	H45	0.895600	0.617700	0.236700
H461	H46	0.318300	0.020800	0.885200
H471	H47	0.216000	0.946400	0.823400
H481	H48	0.430100	0.741300	0.921900
H491	H49	0.532200	0.822000	0.976200
H501	H50	0.216300	0.848900	0.736700
H511	H51	0.072200	0.861100	0.812100
H521	H52	0.415900	0.876500	0.255500
H531	H53	0.378600	0.814500	0.206300
H541	H54	0.250000	0.882300	0.263300
H551	H55	0.339100	0.385200	0.979200
H561	H56	0.162400	0.323400	0.053600
H571	H57	0.171400	0.421900	0.258700
H581	H58	0.354200	0.476200	0.178000
H591	H59	0.065200	0.236700	0.151100
H601	H60	0.933300	0.312100	0.138900
H611	H61	0.292400	0.755500	0.123500
H621	H62	0.193100	0.706300	0.185500
H631	H63	0.132300	0.763300	0.117700
H641	H64	0.203500	0.114800	0.520800
H651	H65	0.039400	0.176600	0.446400
H661	H66	0.352000	0.078100	0.241300
H671	H67	0.508400	0.023800	0.322000
H681	H68	0.953000	0.263300	0.348900
H691	H69	0.884300	0.187900	0.361100
H701	H70	0.671400	0.744500	0.376500
H711	H71	0.584900	0.793700	0.314500
H721	H72	0.513300	0.736700	0.382300
C11	C1	0.303190	0.463650	0.392810
C21	C2	0.446280	0.419720	0.356000
C31	C3	0.487520	0.336080	0.367860
C41	C4	0.382460	0.298480	0.413640
C51	C5	0.241460	0.347480	0.446640
C61	C6	0.734160	0.320910	0.282470
C71	C7	0.064660	0.430330	0.653350
C81	C8	0.054440	0.370360	0.726360
C91	C9	0.659650	0.036350	0.107190
C101	C10	0.722000	0.080280	0.144000
C111	C11	0.691460	0.163920	0.132140
C121	C12	0.594580	0.201520	0.086360
C131	C13	0.535580	0.152520	0.053360
C141	C14	0.837540	0.179090	0.217530
C151	C15	0.648340	0.069670	0.846650
C161	C16	0.651160	0.129640	0.773640
C171	C17	0.696000	0.607190	0.963650
C181	C18	0.802280	0.644000	0.919720
C191	C19	0.855380	0.632140	0.836080
C201	C20	0.796100	0.586360	0.798480
C211	C21	0.688100	0.553360	0.847480
C221	C22	0.016630	0.717530	0.820910
C231	C23	0.718010	0.346650	0.930330
C241	C24	0.780800	0.273640	0.870360
C251	C25	0.766840	0.892810	0.536350
C261	C26	0.866000	0.856000	0.580280
C271	C27	0.823600	0.867860	0.663920
C281	C28	0.680940	0.913640	0.701520
C291	C29	0.588940	0.946640	0.652520
C301	C30	0.055070	0.782470	0.679090
C311	C31	0.494990	0.153350	0.569670
C321	C32	0.424800	0.226360	0.629640
C331	C33	0.696810	0.536350	0.607190
C341	C34	0.553720	0.580280	0.644000
C351	C35	0.512480	0.663920	0.632140
C361	C36	0.617540	0.701520	0.586360
C371	C37	0.758540	0.652520	0.553360
C381	C38	0.265840	0.679090	0.717530
C391	C39	0.935340	0.569670	0.346650
C401	C40	0.945560	0.629640	0.273640
C411	C41	0.340350	0.963650	0.892810
C421	C42	0.278000	0.919720	0.856000
C431	C43	0.308540	0.836080	0.867860
C441	C44	0.405420	0.798480	0.913640
C451	C45	0.464420	0.847480	0.946640
C461	C46	0.162460	0.820910	0.782470
C471	C47	0.351660	0.930330	0.153350
C481	C48	0.348840	0.870360	0.226360
C491	C49	0.304000	0.392810	0.036350
C501	C50	0.197720	0.356000	0.080280
C511	C51	0.144620	0.367860	0.163920
C521	C52	0.203900	0.413640	0.201520
C531	C53	0.311900	0.446640	0.152520
C541	C54	0.983370	0.282470	0.179090
C551	C55	0.281990	0.653350	0.069670
C561	C56	0.219200	0.726360	0.129640
C571	C57	0.233160	0.107190	0.463650
C581	C58	0.134000	0.144000	0.419720
C591	C59	0.176400	0.132140	0.336080
C601	C60	0.319060	0.086360	0.298480
C611	C61	0.411060	0.053360	0.347480
C621	C62	0.944930	0.217530	0.320910
C631	C63	0.505010	0.846650	0.430330
C641	C64	0.575200	0.773640	0.370360
C651	C65	0.875000	0.250000	0.250000
C661	C66	0.125000	0.750000	0.750000
N11	N1	0.202090	0.428600	0.438780
N21	N2	0.569470	0.071400	0.061220
N31	N3	0.640870	0.561220	0.928600
N41	N4	0.630690	0.938780	0.571400
N51	N5	0.797910	0.571400	0.561220
N61	N6	0.430530	0.928600	0.938780
N71	N7	0.359130	0.438780	0.071400
N81	N8	0.369310	0.061220	0.428600
O11	O1	0.625800	0.285090	0.337110
O21	O2	0.004310	0.431360	0.600700
O31	O3	0.149310	0.474360	0.652500
O41	O4	0.748000	0.214910	0.162890
O51	O5	0.536370	0.068640	0.899300
O61	O6	0.776170	0.025640	0.847500
O71	O7	0.962910	0.662890	0.785090
O81	O8	0.605010	0.399300	0.931360
O91	O9	0.801810	0.347500	0.974360
O101	O10	0.910890	0.837110	0.714910
O111	O11	0.435670	0.100700	0.568640
O121	O12	0.623670	0.152500	0.525640
O131	O13	0.374200	0.714910	0.662890
O141	O14	0.995690	0.568640	0.399300
O151	O15	0.850690	0.525640	0.347500
O161	O16	0.252000	0.785090	0.837110
O171	O17	0.463630	0.931360	0.100700
O181	O18	0.223830	0.974360	0.152500
O191	O19	0.037090	0.337110	0.214910
O201	O20	0.394990	0.600700	0.068640
O211	O21	0.198190	0.652500	0.025640
O221	O22	0.089110	0.162890	0.285090
O231	O23	0.564330	0.899300	0.431360
O241	O24	0.376330	0.847500	0.474360
