data_MOXPUL_freeONLY_PM
_symmetry_space_group_name_H-M	'P1'
_cell_length_a	7.423000
_cell_length_b	30.337000
_cell_length_c	30.337000
_cell_angle_alpha	90.000000
_cell_angle_beta	90.000000
_cell_angle_gamma	90.000000
_symmetry_Int_Tables_number 1

loop_
_symmetry_equiv_pos_as_xyz
'x,y,z'

loop_
_atom_site_label
_atom_site_type_symbol
_atom_site_fract_x
_atom_site_fract_y
_atom_site_fract_z
Cu11	Cu1	0.903350	0.525900	0.525810
Cu21	Cu2	0.903350	0.974100	0.974190
Cu31	Cu3	0.403350	0.474190	0.025910
Cu41	Cu4	0.403350	0.025810	0.474100
Cu51	Cu5	0.096650	0.474090	0.474190
Cu61	Cu6	0.096650	0.025900	0.025810
Cu71	Cu7	0.596650	0.525810	0.974100
Cu81	Cu8	0.596650	0.974190	0.525910
H11	H1	0.511500	0.540100	0.539800
H21	H2	0.296200	0.578000	0.578500
H31	H3	0.697000	0.639600	0.639500
H41	H4	0.894600	0.600800	0.600600
H51	H5	0.275500	0.556700	0.658700
H61	H6	0.195500	0.568500	0.705600
H71	H7	0.064500	0.561200	0.665000
H81	H8	0.969200	0.626600	0.702900
H91	H9	0.218600	0.738300	0.660800
H101	H10	0.425900	0.694700	0.624000
H111	H11	0.810200	0.687000	0.731800
H121	H12	0.965600	0.709400	0.759600
H131	H13	0.273800	0.482200	0.629400
H141	H14	0.435500	0.473100	0.596600
H151	H15	0.296700	0.435000	0.607700
H161	H16	0.723000	0.370500	0.517600
H171	H17	0.707500	0.391800	0.565100
H181	H18	0.563500	0.403500	0.528400
H191	H19	0.511500	0.959900	0.960200
H201	H20	0.296200	0.922000	0.921500
H211	H21	0.697000	0.860400	0.860500
H221	H22	0.894600	0.899200	0.899400
H231	H23	0.275500	0.943300	0.841300
H241	H24	0.195500	0.931500	0.794400
H251	H25	0.064500	0.938800	0.835000
H261	H26	0.969200	0.873400	0.797100
H271	H27	0.218600	0.761700	0.839200
H281	H28	0.425900	0.805300	0.876000
H291	H29	0.810200	0.813000	0.768200
H301	H30	0.965600	0.790600	0.740400
H311	H31	0.273800	0.017800	0.870600
H321	H32	0.435500	0.026900	0.903400
H331	H33	0.296700	0.065000	0.892300
H341	H34	0.723000	0.129500	0.982400
H351	H35	0.707500	0.108200	0.934900
H361	H36	0.563500	0.096500	0.971600
H371	H37	0.011500	0.460200	0.040100
H381	H38	0.796200	0.421500	0.078000
H391	H39	0.197000	0.360500	0.139600
H401	H40	0.394600	0.399400	0.100800
H411	H41	0.775500	0.341300	0.056700
H421	H42	0.695500	0.294400	0.068500
H431	H43	0.564500	0.335000	0.061200
H441	H44	0.469200	0.297100	0.126600
H451	H45	0.718600	0.339200	0.238300
H461	H46	0.925900	0.376000	0.194700
H471	H47	0.310200	0.268200	0.187000
H481	H48	0.465600	0.240400	0.209400
H491	H49	0.773800	0.370600	0.982200
H501	H50	0.935500	0.403400	0.973100
H511	H51	0.796700	0.392300	0.935000
H521	H52	0.223000	0.482400	0.870500
H531	H53	0.207500	0.434900	0.891800
H541	H54	0.063500	0.471600	0.903500
H551	H55	0.011500	0.039800	0.459900
H561	H56	0.796200	0.078500	0.422000
H571	H57	0.197000	0.139500	0.360400
H581	H58	0.394600	0.100600	0.399200
H591	H59	0.775500	0.158700	0.443300
H601	H60	0.695500	0.205600	0.431500
H611	H61	0.564500	0.165000	0.438800
H621	H62	0.469200	0.202900	0.373400
H631	H63	0.718600	0.160800	0.261700
H641	H64	0.925900	0.124000	0.305300
H651	H65	0.310200	0.231800	0.313000
H661	H66	0.465600	0.259600	0.290600
H671	H67	0.773800	0.129400	0.517800
H681	H68	0.935500	0.096600	0.526900
H691	H69	0.796700	0.107700	0.565000
H701	H70	0.223000	0.017600	0.629500
H711	H71	0.207500	0.065100	0.608200
H721	H72	0.063500	0.028400	0.596500
H731	H73	0.488500	0.459900	0.460200
H741	H74	0.703800	0.422000	0.421500
H751	H75	0.303000	0.360400	0.360500
H761	H76	0.105400	0.399200	0.399400
H771	H77	0.724500	0.443300	0.341300
H781	H78	0.804500	0.431500	0.294400
H791	H79	0.935500	0.438800	0.335000
H801	H80	0.030800	0.373400	0.297100
H811	H81	0.781400	0.261700	0.339200
H821	H82	0.574100	0.305300	0.376000
H831	H83	0.189800	0.313000	0.268200
H841	H84	0.034400	0.290600	0.240400
H851	H85	0.726200	0.517800	0.370600
H861	H86	0.564500	0.526900	0.403400
H871	H87	0.703300	0.565000	0.392300
H881	H88	0.277000	0.629500	0.482400
H891	H89	0.292500	0.608200	0.434900
H901	H90	0.436500	0.596500	0.471600
H911	H91	0.488500	0.040100	0.039800
H921	H92	0.703800	0.078000	0.078500
H931	H93	0.303000	0.139600	0.139500
H941	H94	0.105400	0.100800	0.100600
H951	H95	0.724500	0.056700	0.158700
H961	H96	0.804500	0.068500	0.205600
H971	H97	0.935500	0.061200	0.165000
H981	H98	0.030800	0.126600	0.202900
H991	H99	0.781400	0.238300	0.160800
H1001	H100	0.574100	0.194700	0.124000
H1011	H101	0.189800	0.187000	0.231800
H1021	H102	0.034400	0.209400	0.259600
H1031	H103	0.726200	0.982200	0.129400
H1041	H104	0.564500	0.973100	0.096600
H1051	H105	0.703300	0.935000	0.107700
H1061	H106	0.277000	0.870500	0.017600
H1071	H107	0.292500	0.891800	0.065100
H1081	H108	0.436500	0.903500	0.028400
H1091	H109	0.988500	0.539800	0.959900
H1101	H110	0.203800	0.578500	0.922000
H1111	H111	0.803000	0.639500	0.860400
H1121	H112	0.605400	0.600600	0.899200
H1131	H113	0.224500	0.658700	0.943300
H1141	H114	0.304500	0.705600	0.931500
H1151	H115	0.435500	0.665000	0.938800
H1161	H116	0.530800	0.702900	0.873400
H1171	H117	0.281400	0.660800	0.761700
H1181	H118	0.074100	0.624000	0.805300
H1191	H119	0.689800	0.731800	0.813000
H1201	H120	0.534400	0.759600	0.790600
H1211	H121	0.226200	0.629400	0.017800
H1221	H122	0.064500	0.596600	0.026900
H1231	H123	0.203300	0.607700	0.065000
H1241	H124	0.777000	0.517600	0.129500
H1251	H125	0.792500	0.565100	0.108200
H1261	H126	0.936500	0.528400	0.096500
H1271	H127	0.988500	0.960200	0.540100
H1281	H128	0.203800	0.921500	0.578000
H1291	H129	0.803000	0.860500	0.639600
H1301	H130	0.605400	0.899400	0.600800
H1311	H131	0.224500	0.841300	0.556700
H1321	H132	0.304500	0.794400	0.568500
H1331	H133	0.435500	0.835000	0.561200
H1341	H134	0.530800	0.797100	0.626600
H1351	H135	0.281400	0.839200	0.738300
H1361	H136	0.074100	0.876000	0.694700
H1371	H137	0.689800	0.768200	0.687000
H1381	H138	0.534400	0.740400	0.709400
H1391	H139	0.226200	0.870600	0.482200
H1401	H140	0.064500	0.903400	0.473100
H1411	H141	0.203300	0.892300	0.435000
H1421	H142	0.777000	0.982400	0.370500
H1431	H143	0.792500	0.934900	0.391800
H1441	H144	0.936500	0.971600	0.403500
C11	C1	0.466800	0.613210	0.613740
C21	C2	0.549400	0.560840	0.560890
C31	C3	0.418800	0.583540	0.583930
C41	C4	0.654400	0.618890	0.619000
C51	C5	0.771200	0.595830	0.595830
C61	C6	0.330300	0.639600	0.639420
C71	C7	0.074800	0.685830	0.685800
C81	C8	0.192100	0.619400	0.663430
C91	C9	0.181000	0.572500	0.674100
C101	C10	0.060400	0.641300	0.687200
C111	C11	0.210900	0.707400	0.661900
C121	C12	0.333400	0.680700	0.639800
C131	C13	0.877800	0.714400	0.736000
C141	C14	0.310400	0.466500	0.603060
C151	C15	0.197800	0.480250	0.566050
C161	C16	0.801100	0.433860	0.519410
C171	C17	0.689300	0.396800	0.533900
C181	C18	0.466800	0.886790	0.886260
C191	C19	0.549400	0.939160	0.939110
C201	C20	0.418800	0.916460	0.916070
C211	C21	0.654400	0.881110	0.881000
C221	C22	0.771200	0.904170	0.904170
C231	C23	0.330300	0.860400	0.860580
C241	C24	0.074800	0.814170	0.814200
C251	C25	0.192100	0.880600	0.836570
C261	C26	0.181000	0.927500	0.825900
C271	C27	0.060400	0.858700	0.812800
C281	C28	0.210900	0.792600	0.838100
C291	C29	0.333400	0.819300	0.860200
C301	C30	0.877800	0.785600	0.764000
C311	C31	0.310400	0.033500	0.896940
C321	C32	0.197800	0.019750	0.933950
C331	C33	0.801100	0.066140	0.980590
C341	C34	0.689300	0.103200	0.966100
C351	C35	0.966800	0.386260	0.113210
C361	C36	0.049400	0.439110	0.060840
C371	C37	0.918800	0.416070	0.083540
C381	C38	0.154400	0.381000	0.118890
C391	C39	0.271200	0.404170	0.095830
C401	C40	0.830300	0.360580	0.139600
C411	C41	0.574800	0.314200	0.185830
C421	C42	0.692100	0.336570	0.119400
C431	C43	0.681000	0.325900	0.072500
C441	C44	0.560400	0.312800	0.141300
C451	C45	0.710900	0.338100	0.207400
C461	C46	0.833400	0.360200	0.180700
C471	C47	0.377800	0.264000	0.214400
C481	C48	0.810400	0.396940	0.966500
C491	C49	0.697800	0.433950	0.980250
C501	C50	0.301100	0.480590	0.933860
C511	C51	0.189300	0.466100	0.896800
C521	C52	0.966800	0.113740	0.386790
C531	C53	0.049400	0.060890	0.439160
C541	C54	0.918800	0.083930	0.416460
C551	C55	0.154400	0.119000	0.381110
C561	C56	0.271200	0.095830	0.404170
C571	C57	0.830300	0.139420	0.360400
C581	C58	0.574800	0.185800	0.314170
C591	C59	0.692100	0.163430	0.380600
C601	C60	0.681000	0.174100	0.427500
C611	C61	0.560400	0.187200	0.358700
C621	C62	0.710900	0.161900	0.292600
C631	C63	0.833400	0.139800	0.319300
C641	C64	0.377800	0.236000	0.285600
C651	C65	0.810400	0.103060	0.533500
C661	C66	0.697800	0.066050	0.519750
C671	C67	0.301100	0.019410	0.566140
C681	C68	0.189300	0.033900	0.603200
C691	C69	0.533200	0.386790	0.386260
C701	C70	0.450600	0.439160	0.439110
C711	C71	0.581200	0.416460	0.416070
C721	C72	0.345600	0.381110	0.381000
C731	C73	0.228800	0.404170	0.404170
C741	C74	0.669700	0.360400	0.360580
C751	C75	0.925200	0.314170	0.314200
C761	C76	0.807900	0.380600	0.336570
C771	C77	0.819000	0.427500	0.325900
C781	C78	0.939600	0.358700	0.312800
C791	C79	0.789100	0.292600	0.338100
C801	C80	0.666600	0.319300	0.360200
C811	C81	0.122200	0.285600	0.264000
C821	C82	0.689600	0.533500	0.396940
C831	C83	0.802200	0.519750	0.433950
C841	C84	0.198900	0.566140	0.480590
C851	C85	0.310700	0.603200	0.466100
C861	C86	0.533200	0.113210	0.113740
C871	C87	0.450600	0.060840	0.060890
C881	C88	0.581200	0.083540	0.083930
C891	C89	0.345600	0.118890	0.119000
C901	C90	0.228800	0.095830	0.095830
C911	C91	0.669700	0.139600	0.139420
C921	C92	0.925200	0.185830	0.185800
C931	C93	0.807900	0.119400	0.163430
C941	C94	0.819000	0.072500	0.174100
C951	C95	0.939600	0.141300	0.187200
C961	C96	0.789100	0.207400	0.161900
C971	C97	0.666600	0.180700	0.139800
C981	C98	0.122200	0.214400	0.236000
C991	C99	0.689600	0.966500	0.103060
C1001	C100	0.802200	0.980250	0.066050
C1011	C101	0.198900	0.933860	0.019410
C1021	C102	0.310700	0.896800	0.033900
C1031	C103	0.033200	0.613740	0.886790
C1041	C104	0.950600	0.560890	0.939160
C1051	C105	0.081200	0.583930	0.916460
C1061	C106	0.845600	0.619000	0.881110
C1071	C107	0.728800	0.595830	0.904170
C1081	C108	0.169700	0.639420	0.860400
C1091	C109	0.425200	0.685800	0.814170
C1101	C110	0.307900	0.663430	0.880600
C1111	C111	0.319000	0.674100	0.927500
C1121	C112	0.439600	0.687200	0.858700
C1131	C113	0.289100	0.661900	0.792600
C1141	C114	0.166600	0.639800	0.819300
C1151	C115	0.622200	0.736000	0.785600
C1161	C116	0.189600	0.603060	0.033500
C1171	C117	0.302200	0.566050	0.019750
C1181	C118	0.698900	0.519410	0.066140
C1191	C119	0.810700	0.533900	0.103200
C1201	C120	0.033200	0.886260	0.613210
C1211	C121	0.950600	0.939110	0.560840
C1221	C122	0.081200	0.916070	0.583540
C1231	C123	0.845600	0.881000	0.618890
C1241	C124	0.728800	0.904170	0.595830
C1251	C125	0.169700	0.860580	0.639600
C1261	C126	0.425200	0.814200	0.685830
C1271	C127	0.307900	0.836570	0.619400
C1281	C128	0.319000	0.825900	0.572500
C1291	C129	0.439600	0.812800	0.641300
C1301	C130	0.289100	0.838100	0.707400
C1311	C131	0.166600	0.860200	0.680700
C1321	C132	0.622200	0.764000	0.714400
C1331	C133	0.189600	0.896940	0.466500
C1341	C134	0.302200	0.933950	0.480250
C1351	C135	0.698900	0.980590	0.433860
C1361	C136	0.810700	0.966100	0.396800
C1371	C137	0.750000	0.750000	0.750000
C1381	C138	0.250000	0.250000	0.250000
N11	N1	0.724800	0.566380	0.566490
N21	N2	0.724800	0.933620	0.933510
N31	N3	0.224800	0.433510	0.066380
N41	N4	0.224800	0.066490	0.433620
N51	N5	0.275200	0.433620	0.433510
N61	N6	0.275200	0.066380	0.066490
N71	N7	0.775200	0.566490	0.933620
N81	N8	0.775200	0.933510	0.566380
O11	O1	0.766800	0.470570	0.536510
O21	O2	0.075300	0.508240	0.572270
O31	O3	0.924900	0.427810	0.491680
O41	O4	0.234600	0.463410	0.529150
O51	O5	0.968400	0.724000	0.697900
O61	O6	0.766800	0.029430	0.963490
O71	O7	0.075300	0.991760	0.927730
O81	O8	0.924900	0.072190	0.008320
O91	O9	0.234600	0.036590	0.970850
O101	O10	0.968400	0.776000	0.802100
O111	O11	0.266800	0.463490	0.970570
O121	O12	0.575300	0.427730	0.008240
O131	O13	0.424900	0.508320	0.927810
O141	O14	0.734600	0.470850	0.963410
O151	O15	0.468400	0.302100	0.224000
O161	O16	0.266800	0.036510	0.529430
O171	O17	0.575300	0.072270	0.491760
O181	O18	0.424900	0.991680	0.572190
O191	O19	0.734600	0.029150	0.536590
O201	O20	0.468400	0.197900	0.276000
O211	O21	0.233200	0.529430	0.463490
O221	O22	0.924700	0.491760	0.427730
O231	O23	0.075100	0.572190	0.508320
O241	O24	0.765400	0.536590	0.470850
O251	O25	0.031600	0.276000	0.302100
O261	O26	0.233200	0.970570	0.036510
O271	O27	0.924700	0.008240	0.072270
O281	O28	0.075100	0.927810	0.991680
O291	O29	0.765400	0.963410	0.029150
O301	O30	0.031600	0.224000	0.197900
O311	O31	0.733200	0.536510	0.029430
O321	O32	0.424700	0.572270	0.991760
O331	O33	0.575100	0.491680	0.072190
O341	O34	0.265400	0.529150	0.036590
O351	O35	0.531600	0.697900	0.776000
O361	O36	0.733200	0.963490	0.470570
O371	O37	0.424700	0.927730	0.508240
O381	O38	0.575100	0.008320	0.427810
O391	O39	0.265400	0.970850	0.463410
O401	O40	0.531600	0.802100	0.724000
