data_MUFYAP_freeONLY_PM
_symmetry_space_group_name_H-M	'P1'
_cell_length_a	8.560700
_cell_length_b	14.102300
_cell_length_c	20.294000
_cell_angle_alpha	88.539200
_cell_angle_beta	86.499800
_cell_angle_gamma	81.251900
_symmetry_Int_Tables_number 1

loop_
_symmetry_equiv_pos_as_xyz
'x,y,z'

loop_
_atom_site_label
_atom_site_type_symbol
_atom_site_fract_x
_atom_site_fract_y
_atom_site_fract_z
H11	H1	0.407000	0.648700	0.269200
H21	H2	0.237000	0.906900	0.606300
H31	H3	0.053400	0.927600	0.610100
C11	C1	0.252500	0.588300	0.092270
C21	C2	0.387300	0.536200	0.047260
C31	C3	0.490500	0.450800	0.058740
C41	C4	0.504300	0.387600	0.121800
C51	C5	0.127100	0.932700	0.090110
C61	C6	0.977600	0.910500	0.061900
C71	C7	0.821600	0.956600	0.077650
C81	C8	0.723800	0.848400	0.015940
C91	C9	0.875400	0.803800	0.997910
C101	C10	0.919000	0.721100	0.950200
C111	C11	0.782300	0.045500	0.118900
C121	C12	0.575600	0.812500	0.997200
C131	C13	0.206300	0.582200	0.403440
C141	C14	0.091500	0.535300	0.450650
C151	C15	0.982500	0.545200	0.559020
C161	C16	0.989900	0.599900	0.621930
C171	C17	0.492700	0.021500	0.352100
C181	C18	0.481300	0.945200	0.406400
C191	C19	0.345000	0.905400	0.426950
C201	C20	0.495700	0.799100	0.496360
C211	C21	0.631000	0.840600	0.474330
C221	C22	0.795200	0.804400	0.497000
C231	C23	0.496500	0.717300	0.544680
C241	C24	0.177600	0.933100	0.405630
N11	N1	0.071400	0.577700	0.509350
N21	N2	0.356500	0.833500	0.471820
N31	N3	0.000600	0.835800	0.022090
N41	N4	0.696400	0.923600	0.055610
N51	N5	0.621600	0.913700	0.431630
O11	O1	0.215600	0.675700	0.079240
O21	O2	0.023300	0.615300	0.263420
H41	H4	0.929800	0.629500	0.296100
H51	H5	0.022100	0.677100	0.239500
O31	O3	0.185700	0.542600	0.136310
O41	O4	0.093500	0.379400	0.196280
H61	H6	0.993400	0.360100	0.214000
H71	H7	0.116700	0.343700	0.154700
N61	N6	0.400600	0.582600	0.989070
O51	O5	0.394800	0.606200	0.232240
H81	H8	0.487100	0.613500	0.202100
O61	O6	0.438300	0.419800	0.174640
O71	O7	0.360600	0.347300	0.302240
H91	H9	0.457100	0.309400	0.282600
H101	H10	0.376000	0.343000	0.350100
O81	O8	0.586800	0.306700	0.114740
O91	O9	0.345100	0.149600	0.174180
H111	H11	0.435100	0.126900	0.141300
H121	H12	0.285800	0.202100	0.146400
O101	O10	0.065000	0.688200	0.942710
O111	O11	0.029500	0.162400	0.194080
H131	H13	0.956300	0.152300	0.159500
H141	H14	0.960900	0.204300	0.225500
O121	O12	0.808900	0.695100	0.921190
O131	O13	0.195400	0.172600	0.309460
H151	H15	0.247200	0.232600	0.307200
H161	H16	0.182000	0.163500	0.358500
O141	O14	0.254900	0.891200	0.063850
O151	O15	0.438700	0.945000	0.171000
H171	H17	0.387500	0.930400	0.130400
H181	H18	0.524100	0.979700	0.153500
O161	O16	0.109800	0.989300	0.137750
O171	O17	0.143800	0.882500	0.590910
O181	O18	0.530600	0.744300	0.030410
O191	O19	0.497500	0.855700	0.951530
O201	O20	0.830100	0.121000	0.095510
O211	O21	0.702100	0.039000	0.171630
O221	O22	0.278500	0.536200	0.356980
O231	O23	0.224600	0.666000	0.418490
O241	O24	0.033200	0.681100	0.613520
O251	O25	0.962100	0.560300	0.676190
O261	O26	0.445500	0.003900	0.297440
O271	O27	0.557600	0.092000	0.365980
O281	O28	0.149300	0.000500	0.363640
O291	O29	0.223200	0.860500	0.257150
H191	H19	0.317700	0.835500	0.263800
H201	H20	0.193600	0.836700	0.222700
O301	O30	0.076700	0.886500	0.432840
O311	O31	0.939200	0.005300	0.268400
H211	H21	0.862600	0.005700	0.234720
H221	H22	0.889900	0.051900	0.301000
O321	O32	0.361800	0.690600	0.558600
O331	O33	0.624400	0.681200	0.566840
O341	O34	0.845700	0.840500	0.544510
O351	O35	0.876100	0.741100	0.459890
Gd11	Gd1	0.275040	0.762860	0.980960
Gd21	Gd2	0.231670	0.485810	0.247660
Gd31	Gd3	0.118990	0.759550	0.514280
Gd41	Gd4	0.211560	0.030190	0.241490
H231	H23	0.593000	0.351300	0.730800
H241	H24	0.763000	0.093100	0.393700
H251	H25	0.946600	0.072400	0.389900
C251	C25	0.747500	0.411700	0.907730
C261	C26	0.612700	0.463800	0.952740
C271	C27	0.509500	0.549200	0.941260
C281	C28	0.495700	0.612400	0.878200
C291	C29	0.872900	0.067300	0.909890
C301	C30	0.022400	0.089500	0.938100
C311	C31	0.178400	0.043400	0.922350
C321	C32	0.276200	0.151600	0.984060
C331	C33	0.124600	0.196200	0.002090
C341	C34	0.081000	0.278900	0.049800
C351	C35	0.217700	0.954500	0.881100
C361	C36	0.424400	0.187500	0.002800
C371	C37	0.793700	0.417800	0.596560
C381	C38	0.908500	0.464700	0.549350
C391	C39	0.017500	0.454800	0.440980
C401	C40	0.010100	0.400100	0.378070
C411	C41	0.507300	0.978500	0.647900
C421	C42	0.518700	0.054800	0.593600
C431	C43	0.655000	0.094600	0.573050
C441	C44	0.504300	0.200900	0.503640
C451	C45	0.369000	0.159400	0.525670
C461	C46	0.204800	0.195600	0.503000
C471	C47	0.503500	0.282700	0.455320
C481	C48	0.822400	0.066900	0.594370
N71	N7	0.928600	0.422300	0.490650
N81	N8	0.643500	0.166500	0.528180
N91	N9	0.999400	0.164200	0.977910
N101	N10	0.303600	0.076400	0.944390
N111	N11	0.378400	0.086300	0.568370
O361	O36	0.784400	0.324300	0.920760
O371	O37	0.976700	0.384700	0.736580
H261	H26	0.070200	0.370500	0.703900
H271	H27	0.977900	0.322900	0.760500
O381	O38	0.814300	0.457400	0.863690
O391	O39	0.906500	0.620600	0.803720
H281	H28	0.006600	0.639900	0.786000
H291	H29	0.883300	0.656300	0.845300
N121	N12	0.599400	0.417400	0.010930
O401	O40	0.605200	0.393800	0.767760
H301	H30	0.512900	0.386500	0.797900
O411	O41	0.561700	0.580200	0.825360
O421	O42	0.639400	0.652700	0.697760
H311	H31	0.542900	0.690600	0.717400
H321	H32	0.624000	0.657000	0.649900
O431	O43	0.413200	0.693300	0.885260
O441	O44	0.654900	0.850400	0.825820
H331	H33	0.564900	0.873100	0.858700
H341	H34	0.714200	0.797900	0.853600
O451	O45	0.935000	0.311800	0.057290
O461	O46	0.970500	0.837600	0.805920
H351	H35	0.043700	0.847700	0.840500
H361	H36	0.039100	0.795700	0.774500
O471	O47	0.191100	0.304900	0.078810
O481	O48	0.804600	0.827400	0.690540
H371	H37	0.752800	0.767400	0.692800
H381	H38	0.818000	0.836500	0.641500
O491	O49	0.745100	0.108800	0.936150
O501	O50	0.561300	0.055000	0.829000
H391	H39	0.612500	0.069600	0.869600
H401	H40	0.475900	0.020300	0.846500
O511	O51	0.890200	0.010700	0.862250
O521	O52	0.856200	0.117500	0.409090
O531	O53	0.469400	0.255700	0.969590
O541	O54	0.502500	0.144300	0.048470
O551	O55	0.169900	0.879000	0.904490
O561	O56	0.297900	0.961000	0.828370
O571	O57	0.721500	0.463800	0.643020
O581	O58	0.775400	0.334000	0.581510
O591	O59	0.966800	0.318900	0.386480
O601	O60	0.037900	0.439700	0.323810
O611	O61	0.554500	0.996100	0.702560
O621	O62	0.442400	0.908000	0.634020
O631	O63	0.850700	0.999500	0.636360
O641	O64	0.776800	0.139500	0.742850
H411	H41	0.682300	0.164500	0.736200
H421	H42	0.806400	0.163300	0.777300
O651	O65	0.923300	0.113500	0.567160
O661	O66	0.060800	0.994700	0.731600
H431	H43	0.137400	0.994300	0.765280
H441	H44	0.110100	0.948100	0.699000
O671	O67	0.638200	0.309400	0.441400
O681	O68	0.375600	0.318800	0.433160
O691	O69	0.154300	0.159500	0.455490
O701	O70	0.123900	0.258900	0.540110
Gd51	Gd5	0.724960	0.237140	0.019040
Gd61	Gd6	0.768330	0.514190	0.752340
Gd71	Gd7	0.881010	0.240450	0.485720
Gd81	Gd8	0.788440	0.969810	0.758510
