data_MUHPOV_freeONLY_PM
_symmetry_space_group_name_H-M	'P1'
_cell_length_a	12.414300
_cell_length_b	7.716600
_cell_length_c	18.327000
_cell_angle_alpha	90.000000
_cell_angle_beta	90.000000
_cell_angle_gamma	90.000000
_symmetry_Int_Tables_number 1

loop_
_symmetry_equiv_pos_as_xyz
'x,y,z'

loop_
_atom_site_label
_atom_site_type_symbol
_atom_site_fract_x
_atom_site_fract_y
_atom_site_fract_z
In11	In1	0.433620	0.711180	0.303510
In21	In2	0.623050	0.284020	0.451640
P11	P1	0.365400	0.370600	0.405900
H11	H1	0.382000	0.220000	0.366000
P21	P2	0.191910	0.871700	0.350070
H21	H2	0.171000	0.729000	0.384000
P31	P3	0.447110	0.748600	0.122340
H31	H3	0.541000	0.703000	0.098000
O11	O1	0.351500	0.496200	0.342300
O21	O2	0.290300	0.864700	0.299900
O31	O3	0.463300	0.814100	0.412800
O41	O4	0.518000	0.960200	0.283600
O51	O5	0.091000	0.903600	0.305800
O61	O6	0.426300	0.649900	0.192800
O71	O7	0.467900	0.402800	0.448700
O81	O8	0.369200	0.682100	0.064000
O91	O9	0.266800	0.367800	0.454400
O101	O10	0.205300	0.997900	0.413100
O111	O11	0.536600	0.035600	0.471000
O121	O12	0.592400	0.181200	0.341600
O131	O13	0.448600	0.944100	0.131300
C11	C1	0.510900	0.956400	0.414700
C21	C2	0.542500	0.038900	0.340000
In31	In3	0.566380	0.288820	0.803510
In41	In4	0.376950	0.715980	0.951640
P41	P4	0.634600	0.629400	0.905900
H41	H4	0.618000	0.780000	0.866000
P51	P5	0.808090	0.128300	0.850070
H51	H5	0.829000	0.271000	0.884000
P61	P6	0.552890	0.251400	0.622340
H61	H6	0.459000	0.297000	0.598000
O141	O14	0.648500	0.503800	0.842300
O151	O15	0.709700	0.135300	0.799900
O161	O16	0.536700	0.185900	0.912800
O171	O17	0.482000	0.039800	0.783600
O181	O18	0.909000	0.096400	0.805800
O191	O19	0.573700	0.350100	0.692800
O201	O20	0.532100	0.597200	0.948700
O211	O21	0.630800	0.317900	0.564000
O221	O22	0.733200	0.632200	0.954400
O231	O23	0.794700	0.002100	0.913100
O241	O24	0.463400	0.964400	0.971000
O251	O25	0.407600	0.818800	0.841600
O261	O26	0.551400	0.055900	0.631300
C31	C3	0.489100	0.043600	0.914700
C41	C4	0.457500	0.961100	0.840000
In51	In5	0.933620	0.788820	0.303510
In61	In6	0.123050	0.215980	0.451640
P71	P7	0.865400	0.129400	0.405900
H71	H7	0.882000	0.280000	0.366000
P81	P8	0.691910	0.628300	0.350070
H81	H8	0.671000	0.771000	0.384000
P91	P9	0.947110	0.751400	0.122340
H91	H9	0.041000	0.797000	0.098000
O271	O27	0.851500	0.003800	0.342300
O281	O28	0.790300	0.635300	0.299900
O291	O29	0.963300	0.685900	0.412800
O301	O30	0.018000	0.539800	0.283600
O311	O31	0.591000	0.596400	0.305800
O321	O32	0.926300	0.850100	0.192800
O331	O33	0.967900	0.097200	0.448700
O341	O34	0.869200	0.817900	0.064000
O351	O35	0.766800	0.132200	0.454400
O361	O36	0.705300	0.502100	0.413100
O371	O37	0.036600	0.464400	0.471000
O381	O38	0.092400	0.318800	0.341600
O391	O39	0.948600	0.555900	0.131300
C51	C5	0.010900	0.543600	0.414700
C61	C6	0.042500	0.461100	0.340000
In71	In7	0.066380	0.211180	0.803510
In81	In8	0.876950	0.784020	0.951640
P101	P10	0.134600	0.870600	0.905900
H101	H10	0.118000	0.720000	0.866000
P111	P11	0.308090	0.371700	0.850070
H111	H11	0.329000	0.229000	0.884000
P121	P12	0.052890	0.248600	0.622340
H121	H12	0.959000	0.203000	0.598000
O401	O40	0.148500	0.996200	0.842300
O411	O41	0.209700	0.364700	0.799900
O421	O42	0.036700	0.314100	0.912800
O431	O43	0.982000	0.460200	0.783600
O441	O44	0.409000	0.403600	0.805800
O451	O45	0.073700	0.149900	0.692800
O461	O46	0.032100	0.902800	0.948700
O471	O47	0.130800	0.182100	0.564000
O481	O48	0.233200	0.867800	0.954400
O491	O49	0.294700	0.497900	0.913100
O501	O50	0.963400	0.535600	0.971000
O511	O51	0.907600	0.681200	0.841600
O521	O52	0.051400	0.444100	0.631300
C71	C7	0.989100	0.456400	0.914700
C81	C8	0.957500	0.538900	0.840000
