data_MUNPAN_freeONLY_PM
_symmetry_space_group_name_H-M	'P1'
_cell_length_a	13.063000
_cell_length_b	13.129000
_cell_length_c	22.324000
_cell_angle_alpha	90.000000
_cell_angle_beta	90.000000
_cell_angle_gamma	95.149000
_symmetry_Int_Tables_number 1

loop_
_symmetry_equiv_pos_as_xyz
'x,y,z'

loop_
_atom_site_label
_atom_site_type_symbol
_atom_site_fract_x
_atom_site_fract_y
_atom_site_fract_z
Zn11	Zn1	0.238310	0.630690	0.206720
Zn21	Zn2	0.214100	0.608700	0.077000
H11	H1	0.169800	0.491700	0.307000
H21	H2	0.161500	0.491300	0.411900
H31	H3	0.288700	0.785300	0.410000
H41	H4	0.291700	0.776900	0.305200
H51	H5	0.464400	0.646600	0.591500
H61	H6	0.460200	0.638200	0.698000
H71	H7	0.964900	0.642600	0.692200
H81	H8	0.967800	0.647800	0.586400
H91	H9	0.915800	0.612200	0.250400
H101	H10	0.742800	0.624300	0.261700
H111	H11	0.567200	0.628900	0.215400
H121	H12	0.537100	0.621600	0.034300
H131	H13	0.711100	0.606600	0.023700
H141	H14	0.886100	0.598300	0.069700
H151	H15	0.300100	0.321100	0.240000
H161	H16	0.314000	0.146600	0.251200
H171	H17	0.284200	0.968200	0.210700
H181	H18	0.183400	0.923100	0.039700
H191	H19	0.185800	0.097800	0.025300
H201	H20	0.207000	0.275000	0.067500
H211	H21	0.120200	0.484200	0.974100
H221	H22	0.116000	0.490500	0.869700
H231	H23	0.296400	0.758400	0.877200
H241	H24	0.295800	0.745600	0.981800
C11	C1	0.237000	0.424900	0.145100
C21	C2	0.030500	0.605800	0.150300
C31	C3	0.228000	0.815900	0.136100
C41	C4	0.422100	0.631800	0.134100
C51	C5	0.194300	0.551400	0.328400
C61	C6	0.187900	0.550600	0.390700
C71	C7	0.221700	0.639700	0.420200
C81	C8	0.263100	0.724800	0.389500
C91	C9	0.265900	0.718400	0.327400
C101	C10	0.313900	0.651400	0.514400
C111	C11	0.311400	0.646800	0.581100
C121	C12	0.400800	0.645000	0.612200
C131	C13	0.398400	0.640900	0.675800
C141	C14	0.306000	0.640900	0.705000
C151	C15	0.305000	0.634300	0.771200
C161	C16	0.208700	0.632000	0.799400
C171	C17	0.112800	0.633000	0.769300
C181	C18	0.117800	0.641700	0.703100
C191	C19	0.028500	0.643200	0.671500
C201	C20	0.029900	0.645800	0.608300
C211	C21	0.121700	0.645400	0.578800
C221	C22	0.121500	0.640400	0.512200
C231	C23	0.215100	0.646700	0.610300
C241	C24	0.213700	0.642200	0.673800
C251	C25	0.916000	0.606100	0.158500
C261	C26	0.872900	0.612400	0.216100
C271	C27	0.770700	0.618700	0.222700
C281	C28	0.703800	0.616900	0.171600
C291	C29	0.597000	0.624300	0.176800
C301	C30	0.535800	0.625000	0.127100
C311	C31	0.579500	0.619700	0.068700
C321	C32	0.682600	0.611700	0.062600
C331	C33	0.747200	0.611000	0.112800
C341	C34	0.855600	0.604200	0.108000
C351	C35	0.250400	0.312600	0.152000
C361	C36	0.283100	0.275400	0.207800
C371	C37	0.289700	0.172000	0.214500
C381	C38	0.260800	0.102700	0.167100
C391	C39	0.261800	0.995100	0.174000
C401	C40	0.231000	0.929700	0.128200
C411	C41	0.202600	0.968700	0.071600
C421	C42	0.203200	0.071900	0.063400
C431	C43	0.229700	0.141400	0.111400
C441	C44	0.226300	0.247900	0.104900
C451	C45	0.156400	0.540100	0.953900
C461	C46	0.153700	0.542800	0.892100
C471	C47	0.208000	0.625100	0.863700
C481	C48	0.260400	0.701500	0.896500
C491	C49	0.259540	0.693560	0.958560
N11	N1	0.233600	0.633000	0.297700
N21	N2	0.219100	0.641500	0.485700
N31	N3	0.208200	0.613400	0.986400
O11	O1	0.237500	0.476900	0.192900
O21	O2	0.226000	0.459600	0.093500
O31	O3	0.084300	0.620100	0.197200
O41	O4	0.063300	0.592300	0.098900
O51	O5	0.242800	0.783200	0.188000
O61	O6	0.211400	0.762100	0.090300
O71	O7	0.389100	0.638500	0.185700
O81	O8	0.370300	0.630700	0.087100
O91	O9	0.394300	0.657000	0.486200
O101	O10	0.382700	0.632800	0.801200
O111	O11	0.032800	0.629500	0.797400
O121	O12	0.044600	0.636500	0.482100
Zn31	Zn3	0.761690	0.369310	0.706720
Zn41	Zn4	0.785900	0.391300	0.577000
H251	H25	0.830200	0.508300	0.807000
H261	H26	0.838500	0.508700	0.911900
H271	H27	0.711300	0.214700	0.910000
H281	H28	0.708300	0.223100	0.805200
H291	H29	0.535600	0.353400	0.091500
H301	H30	0.539800	0.361800	0.198000
H311	H31	0.035100	0.357400	0.192200
H321	H32	0.032200	0.352200	0.086400
H331	H33	0.084200	0.387800	0.750400
H341	H34	0.257200	0.375700	0.761700
H351	H35	0.432800	0.371100	0.715400
H361	H36	0.462900	0.378400	0.534300
H371	H37	0.288900	0.393400	0.523700
H381	H38	0.113900	0.401700	0.569700
H391	H39	0.699900	0.678900	0.740000
H401	H40	0.686000	0.853400	0.751200
H411	H41	0.715800	0.031800	0.710700
H421	H42	0.816600	0.076900	0.539700
H431	H43	0.814200	0.902200	0.525300
H441	H44	0.793000	0.725000	0.567500
H451	H45	0.879800	0.515800	0.474100
H461	H46	0.884000	0.509500	0.369700
H471	H47	0.703600	0.241600	0.377200
H481	H48	0.704200	0.254400	0.481800
C501	C50	0.763000	0.575100	0.645100
C511	C51	0.969500	0.394200	0.650300
C521	C52	0.772000	0.184100	0.636100
C531	C53	0.577900	0.368200	0.634100
C541	C54	0.805700	0.448600	0.828400
C551	C55	0.812100	0.449400	0.890700
C561	C56	0.778300	0.360300	0.920200
C571	C57	0.736900	0.275200	0.889500
C581	C58	0.734100	0.281600	0.827400
C591	C59	0.686100	0.348600	0.014400
C601	C60	0.688600	0.353200	0.081100
C611	C61	0.599200	0.355000	0.112200
C621	C62	0.601600	0.359100	0.175800
C631	C63	0.694000	0.359100	0.205000
C641	C64	0.695000	0.365700	0.271200
C651	C65	0.791300	0.368000	0.299400
C661	C66	0.887200	0.367000	0.269300
C671	C67	0.882200	0.358300	0.203100
C681	C68	0.971500	0.356800	0.171500
C691	C69	0.970100	0.354200	0.108300
C701	C70	0.878300	0.354600	0.078800
C711	C71	0.878500	0.359600	0.012200
C721	C72	0.784900	0.353300	0.110300
C731	C73	0.786300	0.357800	0.173800
C741	C74	0.084000	0.393900	0.658500
C751	C75	0.127100	0.387600	0.716100
C761	C76	0.229300	0.381300	0.722700
C771	C77	0.296200	0.383100	0.671600
C781	C78	0.403000	0.375700	0.676800
C791	C79	0.464200	0.375000	0.627100
C801	C80	0.420500	0.380300	0.568700
C811	C81	0.317400	0.388300	0.562600
C821	C82	0.252800	0.389000	0.612800
C831	C83	0.144400	0.395800	0.608000
C841	C84	0.749600	0.687400	0.652000
C851	C85	0.716900	0.724600	0.707800
C861	C86	0.710300	0.828000	0.714500
C871	C87	0.739200	0.897300	0.667100
C881	C88	0.738200	0.004900	0.674000
C891	C89	0.769000	0.070300	0.628200
C901	C90	0.797400	0.031300	0.571600
C911	C91	0.796800	0.928100	0.563400
C921	C92	0.770300	0.858600	0.611400
C931	C93	0.773700	0.752100	0.604900
C941	C94	0.843600	0.459900	0.453900
C951	C95	0.846300	0.457200	0.392100
C961	C96	0.792000	0.374900	0.363700
C971	C97	0.739600	0.298500	0.396500
C981	C98	0.740460	0.306440	0.458560
N41	N4	0.766400	0.367000	0.797700
N51	N5	0.780900	0.358500	0.985700
N61	N6	0.791800	0.386600	0.486400
O131	O13	0.762500	0.523100	0.692900
O141	O14	0.774000	0.540400	0.593500
O151	O15	0.915700	0.379900	0.697200
O161	O16	0.936700	0.407700	0.598900
O171	O17	0.757200	0.216800	0.688000
O181	O18	0.788600	0.237900	0.590300
O191	O19	0.610900	0.361500	0.685700
O201	O20	0.629700	0.369300	0.587100
O211	O21	0.605700	0.343000	0.986200
O221	O22	0.617300	0.367200	0.301200
O231	O23	0.967200	0.370500	0.297400
O241	O24	0.955400	0.363500	0.982100
