data_MURBEI_freeONLY_PM
_symmetry_space_group_name_H-M	'P1'
_cell_length_a	19.724400
_cell_length_b	17.081400
_cell_length_c	9.955400
_cell_angle_alpha	90.000000
_cell_angle_beta	90.000000
_cell_angle_gamma	90.000000
_symmetry_Int_Tables_number 1

loop_
_symmetry_equiv_pos_as_xyz
'x,y,z'

loop_
_atom_site_label
_atom_site_type_symbol
_atom_site_fract_x
_atom_site_fract_y
_atom_site_fract_z
In11	In1	0.181280	0.840140	0.913880
O11	O1	0.299480	0.855240	0.926500
O21	O2	0.229360	0.954960	0.930200
O31	O3	0.298630	0.215190	0.069500
O41	O4	0.405540	0.243920	0.100300
O51	O5	0.193740	0.834500	0.683800
O61	O6	0.110670	0.901450	0.774000
O71	O7	0.197100	0.834100	0.158700
O81	O8	0.110400	0.888100	0.061900
H11	H1	0.423500	0.906800	0.951700
H21	H2	0.282100	0.076100	0.007800
H31	H3	0.479900	0.125900	0.065400
H41	H4	0.039500	0.966900	0.614000
H51	H5	0.183300	0.840100	0.417500
H61	H6	0.041800	0.959800	0.208200
C11	C1	0.463900	0.011900	0.009600
C21	C2	0.412400	0.959100	0.975200
C31	C3	0.345900	0.982800	0.975400
C41	C4	0.328100	0.059900	0.008300
C51	C5	0.379600	0.112100	0.041600
C61	C6	0.445600	0.089200	0.042300
C71	C7	0.289200	0.927300	0.939100
C81	C8	0.360300	0.195500	0.074100
C91	C9	0.029600	0.973600	0.413700
C101	C10	0.058900	0.949400	0.532000
C111	C11	0.116100	0.900300	0.538400
C121	C12	0.144700	0.873400	0.417400
C131	C13	0.115200	0.896900	0.299400
C141	C14	0.059900	0.945200	0.293000
C151	C15	0.142200	0.876600	0.672500
C161	C16	0.142900	0.870300	0.166400
In21	In2	0.818720	0.159860	0.913880
O91	O9	0.700520	0.144760	0.926500
O101	O10	0.770640	0.045040	0.930200
O111	O11	0.701370	0.784810	0.069500
O121	O12	0.594460	0.756080	0.100300
O131	O13	0.806260	0.165500	0.683800
O141	O14	0.889330	0.098550	0.774000
O151	O15	0.802900	0.165900	0.158700
O161	O16	0.889600	0.111900	0.061900
H71	H7	0.576500	0.093200	0.951700
H81	H8	0.717900	0.923900	0.007800
H91	H9	0.520100	0.874100	0.065400
H101	H10	0.960500	0.033100	0.614000
H111	H11	0.816700	0.159900	0.417500
H121	H12	0.958200	0.040200	0.208200
C171	C17	0.536100	0.988100	0.009600
C181	C18	0.587600	0.040900	0.975200
C191	C19	0.654100	0.017200	0.975400
C201	C20	0.671900	0.940100	0.008300
C211	C21	0.620400	0.887900	0.041600
C221	C22	0.554400	0.910800	0.042300
C231	C23	0.710800	0.072700	0.939100
C241	C24	0.639700	0.804500	0.074100
C251	C25	0.970400	0.026400	0.413700
C261	C26	0.941100	0.050600	0.532000
C271	C27	0.883900	0.099700	0.538400
C281	C28	0.855300	0.126600	0.417400
C291	C29	0.884800	0.103100	0.299400
C301	C30	0.940100	0.054800	0.293000
C311	C31	0.857800	0.123400	0.672500
C321	C32	0.857100	0.129700	0.166400
In31	In3	0.318720	0.340140	0.086120
O171	O17	0.200520	0.355240	0.073500
O181	O18	0.270640	0.454960	0.069800
O191	O19	0.201370	0.715190	0.930500
O201	O20	0.094460	0.743920	0.899700
O211	O21	0.306260	0.334500	0.316200
O221	O22	0.389330	0.401450	0.226000
O231	O23	0.302900	0.334100	0.841300
O241	O24	0.389600	0.388100	0.938100
H131	H13	0.076500	0.406800	0.048300
H141	H14	0.217900	0.576100	0.992200
H151	H15	0.020100	0.625900	0.934600
H161	H16	0.460500	0.466900	0.386000
H171	H17	0.316700	0.340100	0.582500
H181	H18	0.458200	0.459800	0.791800
C331	C33	0.036100	0.511900	0.990400
C341	C34	0.087600	0.459100	0.024800
C351	C35	0.154100	0.482800	0.024600
C361	C36	0.171900	0.559900	0.991700
C371	C37	0.120400	0.612100	0.958400
C381	C38	0.054400	0.589200	0.957700
C391	C39	0.210800	0.427300	0.060900
C401	C40	0.139700	0.695500	0.925900
C411	C41	0.470400	0.473600	0.586300
C421	C42	0.441100	0.449400	0.468000
C431	C43	0.383900	0.400300	0.461600
C441	C44	0.355300	0.373400	0.582600
C451	C45	0.384800	0.396900	0.700600
C461	C46	0.440100	0.445200	0.707000
C471	C47	0.357800	0.376600	0.327500
C481	C48	0.357100	0.370300	0.833600
In41	In4	0.681280	0.659860	0.086120
O251	O25	0.799480	0.644760	0.073500
O261	O26	0.729360	0.545040	0.069800
O271	O27	0.798630	0.284810	0.930500
O281	O28	0.905540	0.256080	0.899700
O291	O29	0.693740	0.665500	0.316200
O301	O30	0.610670	0.598550	0.226000
O311	O31	0.697100	0.665900	0.841300
O321	O32	0.610400	0.611900	0.938100
H191	H19	0.923500	0.593200	0.048300
H201	H20	0.782100	0.423900	0.992200
H211	H21	0.979900	0.374100	0.934600
H221	H22	0.539500	0.533100	0.386000
H231	H23	0.683300	0.659900	0.582500
H241	H24	0.541800	0.540200	0.791800
C491	C49	0.963900	0.488100	0.990400
C501	C50	0.912400	0.540900	0.024800
C511	C51	0.845900	0.517200	0.024600
C521	C52	0.828100	0.440100	0.991700
C531	C53	0.879600	0.387900	0.958400
C541	C54	0.945600	0.410800	0.957700
C551	C55	0.789200	0.572700	0.060900
C561	C56	0.860300	0.304500	0.925900
C571	C57	0.529600	0.526400	0.586300
C581	C58	0.558900	0.550600	0.468000
C591	C59	0.616100	0.599700	0.461600
C601	C60	0.644700	0.626600	0.582600
C611	C61	0.615200	0.603100	0.700600
C621	C62	0.559900	0.554800	0.707000
C631	C63	0.642200	0.623400	0.327500
C641	C64	0.642900	0.629700	0.833600
