data_MURCAD_freeONLY_PM
_symmetry_space_group_name_H-M	'P1'
_cell_length_a	10.154000
_cell_length_b	10.154000
_cell_length_c	15.512100
_cell_angle_alpha	72.082100
_cell_angle_beta	72.082100
_cell_angle_gamma	86.507800
_symmetry_Int_Tables_number 1

loop_
_symmetry_equiv_pos_as_xyz
'x,y,z'

loop_
_atom_site_label
_atom_site_type_symbol
_atom_site_fract_x
_atom_site_fract_y
_atom_site_fract_z
Cu11	Cu1	0.553990	0.008010	0.313520
Cu21	Cu2	0.991990	0.446010	0.186480
Cu31	Cu3	0.446010	0.991990	0.686480
Cu41	Cu4	0.008010	0.553990	0.813520
H11	H1	0.838000	0.154000	0.026000
H21	H2	0.776000	0.200000	0.311000
H31	H3	0.429000	0.257000	0.374000
H41	H4	0.572000	0.232000	0.406000
H51	H5	0.438000	0.278000	0.217000
H61	H6	0.597000	0.249000	0.154000
H71	H7	0.402000	0.484000	0.273000
H81	H8	0.846000	0.162000	0.474000
H91	H9	0.800000	0.224000	0.189000
H101	H10	0.743000	0.571000	0.126000
H111	H11	0.768000	0.428000	0.094000
H121	H12	0.722000	0.562000	0.283000
H131	H13	0.751000	0.403000	0.346000
H141	H14	0.516000	0.598000	0.227000
H151	H15	0.162000	0.846000	0.974000
H161	H16	0.224000	0.800000	0.689000
H171	H17	0.571000	0.743000	0.626000
H181	H18	0.428000	0.768000	0.594000
H191	H19	0.562000	0.722000	0.783000
H201	H20	0.403000	0.751000	0.846000
H211	H21	0.598000	0.516000	0.727000
H221	H22	0.154000	0.838000	0.526000
H231	H23	0.200000	0.776000	0.811000
H241	H24	0.257000	0.429000	0.874000
H251	H25	0.232000	0.572000	0.906000
H261	H26	0.278000	0.438000	0.717000
H271	H27	0.249000	0.597000	0.654000
H281	H28	0.484000	0.402000	0.773000
C11	C1	0.879600	0.961800	0.076700
C21	C2	0.980800	0.865000	0.061100
C31	C3	0.901900	0.094500	0.015900
C41	C4	0.747100	0.922500	0.156300
C51	C5	0.968300	0.720500	0.128500
C61	C6	0.528500	0.276300	0.358800
C71	C7	0.547000	0.295400	0.196400
C81	C8	0.038200	0.120400	0.423300
C91	C9	0.135000	0.019200	0.438900
C101	C10	0.905500	0.098100	0.484100
C111	C11	0.077500	0.252900	0.343700
C121	C12	0.279500	0.031700	0.371500
C131	C13	0.723700	0.471500	0.141200
C141	C14	0.704600	0.453000	0.303600
C151	C15	0.120400	0.038200	0.923300
C161	C16	0.019200	0.135000	0.938900
C171	C17	0.098100	0.905500	0.984100
C181	C18	0.252900	0.077500	0.843700
C191	C19	0.031700	0.279500	0.871500
C201	C20	0.471500	0.723700	0.641200
C211	C21	0.453000	0.704600	0.803600
C221	C22	0.961800	0.879600	0.576700
C231	C23	0.865000	0.980800	0.561100
C241	C24	0.094500	0.901900	0.515900
C251	C25	0.922500	0.747100	0.656300
C261	C26	0.720500	0.968300	0.628500
C271	C27	0.276300	0.528500	0.858800
C281	C28	0.295400	0.547000	0.696400
C291	C29	0.749100	0.250900	0.250000
C301	C30	0.505800	0.494200	0.250000
C311	C31	0.250900	0.749100	0.750000
C321	C32	0.494200	0.505800	0.750000
N11	N1	0.597100	0.219300	0.278600
N21	N2	0.557000	0.425000	0.331300
N31	N3	0.780700	0.402900	0.221400
N41	N4	0.575000	0.443000	0.168700
N51	N5	0.402900	0.780700	0.721400
N61	N6	0.443000	0.575000	0.668700
N71	N7	0.219300	0.597100	0.778600
N81	N8	0.425000	0.557000	0.831300
O11	O1	0.703800	0.011600	0.199100
O21	O2	0.686400	0.811000	0.173100
O31	O3	0.986300	0.623500	0.089200
O41	O4	0.946200	0.700400	0.213100
O51	O5	0.681100	0.952700	0.410900
O61	O6	0.507700	0.810500	0.334100
O71	O7	0.988400	0.296200	0.300900
O81	O8	0.189000	0.313600	0.326900
O91	O9	0.376500	0.013700	0.410800
O101	O10	0.299600	0.053800	0.286900
O111	O11	0.047300	0.318900	0.089100
O121	O12	0.189500	0.492300	0.165900
O131	O13	0.296200	0.988400	0.800900
O141	O14	0.313600	0.189000	0.826900
O151	O15	0.013700	0.376500	0.910800
O161	O16	0.053800	0.299600	0.786900
O171	O17	0.318900	0.047300	0.589100
O181	O18	0.492300	0.189500	0.665900
O191	O19	0.011600	0.703800	0.699100
O201	O20	0.811000	0.686400	0.673100
O211	O21	0.623500	0.986300	0.589200
O221	O22	0.700400	0.946200	0.713100
O231	O23	0.952700	0.681100	0.910900
O241	O24	0.810500	0.507700	0.834100
