data_MUSCIN_freeONLY_PM
_symmetry_space_group_name_H-M	'P1'
_cell_length_a	18.928000
_cell_length_b	19.711000
_cell_length_c	23.099500
_cell_angle_alpha	112.906000
_cell_angle_beta	90.000000
_cell_angle_gamma	90.000000
_symmetry_Int_Tables_number 1

loop_
_symmetry_equiv_pos_as_xyz
'x,y,z'

loop_
_atom_site_label
_atom_site_type_symbol
_atom_site_fract_x
_atom_site_fract_y
_atom_site_fract_z
Ce11	Ce1	0.013760	0.620420	0.024160
Ce21	Ce2	0.996050	0.886090	0.983590
Ce31	Ce3	0.513760	0.879580	0.475840
Ce41	Ce4	0.496050	0.613910	0.516410
Ce51	Ce5	0.986240	0.379580	0.975840
Ce61	Ce6	0.003950	0.113910	0.016410
Ce71	Ce7	0.486240	0.120420	0.524160
Ce81	Ce8	0.503950	0.386090	0.483590
H11	H1	0.967400	0.945500	0.174900
H21	H2	0.844800	0.766000	0.136100
H31	H3	0.900900	0.010400	0.263300
H41	H4	0.809500	0.066200	0.350000
H51	H5	0.641700	0.890000	0.347100
H61	H6	0.717700	0.096800	0.422400
H71	H7	0.178900	0.363000	0.830400
H81	H8	0.112100	0.566800	0.855300
H91	H9	0.263700	0.366800	0.758700
H101	H10	0.346800	0.390800	0.685000
H111	H11	0.305600	0.618200	0.673000
H121	H12	0.416700	0.429000	0.622000
H131	H13	0.703700	0.434800	0.604000
H141	H14	0.682200	0.653500	0.656500
H151	H15	0.798800	0.451600	0.670500
H161	H16	0.892900	0.494300	0.759700
H171	H17	0.914600	0.751400	0.843100
H181	H18	0.973300	0.552800	0.840800
H191	H19	0.150700	0.772700	0.948800
H201	H20	0.328300	0.791700	0.944500
H211	H21	0.277500	0.733700	0.953500
H221	H22	0.268700	0.754800	0.895100
H231	H23	0.310700	0.902000	0.002100
H241	H24	0.239700	0.936900	0.992000
H251	H25	0.249700	0.918100	0.051500
H261	H26	0.205200	0.592600	0.001900
H271	H27	0.282000	0.776300	0.121600
H281	H28	0.229300	0.781500	0.071100
H291	H29	0.200900	0.764500	0.127800
H301	H30	0.311100	0.596900	0.045800
H311	H31	0.351900	0.671300	0.062000
H321	H32	0.315900	0.653700	0.115700
H331	H33	0.839300	0.737600	0.995300
H341	H34	0.664500	0.776000	0.973900
H351	H35	0.710100	0.704100	0.953800
H361	H36	0.704000	0.756300	0.025000
H371	H37	0.704100	0.859300	0.951600
H381	H38	0.773000	0.899000	0.985800
H391	H39	0.776500	0.842700	0.915800
H401	H40	0.956900	0.694300	0.178400
H411	H41	0.079400	0.840700	0.299900
H421	H42	0.117400	0.770200	0.252800
H431	H43	0.089000	0.829900	0.229500
H441	H44	0.976800	0.830600	0.326900
H451	H45	0.919700	0.812900	0.273900
H461	H46	0.941500	0.752600	0.299100
H471	H47	0.467400	0.554500	0.325100
H481	H48	0.344800	0.734000	0.363900
H491	H49	0.400900	0.489600	0.236700
H501	H50	0.309500	0.433800	0.150000
H511	H51	0.141700	0.610000	0.152900
H521	H52	0.217700	0.403200	0.077600
H531	H53	0.678900	0.137000	0.669600
H541	H54	0.612100	0.933200	0.644700
H551	H55	0.763700	0.133200	0.741300
H561	H56	0.846800	0.109200	0.815000
H571	H57	0.805600	0.881800	0.827000
H581	H58	0.916700	0.071000	0.878000
H591	H59	0.203700	0.065200	0.896000
H601	H60	0.182200	0.846500	0.843500
H611	H61	0.298800	0.048400	0.829500
H621	H62	0.392900	0.005700	0.740300
H631	H63	0.414600	0.748600	0.656900
H641	H64	0.473300	0.947200	0.659200
H651	H65	0.650700	0.727300	0.551200
H661	H66	0.828300	0.708300	0.555500
H671	H67	0.777500	0.766300	0.546500
H681	H68	0.768700	0.745200	0.604900
H691	H69	0.810700	0.598000	0.497900
H701	H70	0.739700	0.563100	0.508000
H711	H71	0.749700	0.581900	0.448500
H721	H72	0.705200	0.907400	0.498100
H731	H73	0.782000	0.723700	0.378400
H741	H74	0.729300	0.718500	0.428900
H751	H75	0.700900	0.735500	0.372200
H761	H76	0.811100	0.903100	0.454200
H771	H77	0.851900	0.828700	0.438000
H781	H78	0.815900	0.846300	0.384300
H791	H79	0.339300	0.762400	0.504700
H801	H80	0.164500	0.724000	0.526100
H811	H81	0.210100	0.795900	0.546200
H821	H82	0.204000	0.743700	0.475000
H831	H83	0.204100	0.640700	0.548400
H841	H84	0.273000	0.601000	0.514200
H851	H85	0.276500	0.657300	0.584200
H861	H86	0.456900	0.805700	0.321600
H871	H87	0.579400	0.659300	0.200100
H881	H88	0.617400	0.729800	0.247200
H891	H89	0.589000	0.670100	0.270500
H901	H90	0.476800	0.669400	0.173100
H911	H91	0.419700	0.687100	0.226100
H921	H92	0.441500	0.747400	0.200900
H931	H93	0.032600	0.054500	0.825100
H941	H94	0.155200	0.234000	0.863900
H951	H95	0.099100	0.989600	0.736700
H961	H96	0.190500	0.933800	0.650000
H971	H97	0.358300	0.110000	0.652900
H981	H98	0.282300	0.903200	0.577600
H991	H99	0.821100	0.637000	0.169600
H1001	H100	0.887900	0.433200	0.144700
H1011	H101	0.736300	0.633200	0.241300
H1021	H102	0.653200	0.609200	0.315000
H1031	H103	0.694400	0.381800	0.327000
H1041	H104	0.583300	0.571000	0.378000
H1051	H105	0.296300	0.565200	0.396000
H1061	H106	0.317800	0.346500	0.343500
H1071	H107	0.201200	0.548400	0.329500
H1081	H108	0.107100	0.505700	0.240300
H1091	H109	0.085400	0.248600	0.156900
H1101	H110	0.026700	0.447200	0.159200
H1111	H111	0.849300	0.227300	0.051200
H1121	H112	0.671700	0.208300	0.055500
H1131	H113	0.722500	0.266300	0.046500
H1141	H114	0.731300	0.245200	0.104900
H1151	H115	0.689300	0.098000	0.997900
H1161	H116	0.760300	0.063100	0.008000
H1171	H117	0.750300	0.081900	0.948500
H1181	H118	0.794800	0.407400	0.998100
H1191	H119	0.718000	0.223700	0.878400
H1201	H120	0.770700	0.218500	0.928900
H1211	H121	0.799100	0.235500	0.872200
H1221	H122	0.688900	0.403100	0.954200
H1231	H123	0.648100	0.328700	0.938000
H1241	H124	0.684100	0.346300	0.884300
H1251	H125	0.160700	0.262400	0.004700
H1261	H126	0.335500	0.224000	0.026100
H1271	H127	0.289900	0.295900	0.046200
H1281	H128	0.296000	0.243700	0.975000
H1291	H129	0.295900	0.140700	0.048400
H1301	H130	0.227000	0.101000	0.014200
H1311	H131	0.223500	0.157300	0.084200
H1321	H132	0.043100	0.305700	0.821600
H1331	H133	0.920600	0.159300	0.700100
H1341	H134	0.882600	0.229800	0.747200
H1351	H135	0.911000	0.170100	0.770500
H1361	H136	0.023200	0.169400	0.673100
H1371	H137	0.080300	0.187100	0.726100
H1381	H138	0.058500	0.247400	0.700900
H1391	H139	0.532600	0.445500	0.674900
H1401	H140	0.655200	0.266000	0.636100
H1411	H141	0.599100	0.510400	0.763300
H1421	H142	0.690500	0.566200	0.850000
H1431	H143	0.858300	0.390000	0.847100
H1441	H144	0.782300	0.596800	0.922400
H1451	H145	0.321100	0.863000	0.330400
H1461	H146	0.387900	0.066800	0.355300
H1471	H147	0.236300	0.866800	0.258700
H1481	H148	0.153200	0.890800	0.185000
H1491	H149	0.194400	0.118200	0.173000
H1501	H150	0.083300	0.929000	0.122000
H1511	H151	0.796300	0.934800	0.104000
H1521	H152	0.817800	0.153500	0.156500
H1531	H153	0.701200	0.951600	0.170500
H1541	H154	0.607100	0.994300	0.259700
H1551	H155	0.585400	0.251400	0.343100
H1561	H156	0.526700	0.052800	0.340800
H1571	H157	0.349300	0.272700	0.448800
H1581	H158	0.171700	0.291700	0.444500
H1591	H159	0.222500	0.233700	0.453500
H1601	H160	0.231300	0.254800	0.395100
H1611	H161	0.189300	0.402000	0.502100
H1621	H162	0.260300	0.436900	0.492000
H1631	H163	0.250300	0.418100	0.551500
H1641	H164	0.294800	0.092600	0.501900
H1651	H165	0.218000	0.276300	0.621600
H1661	H166	0.270700	0.281500	0.571100
H1671	H167	0.299100	0.264500	0.627800
H1681	H168	0.188900	0.096900	0.545800
H1691	H169	0.148100	0.171300	0.562000
H1701	H170	0.184100	0.153700	0.615700
H1711	H171	0.660700	0.237600	0.495300
H1721	H172	0.835500	0.276000	0.473900
H1731	H173	0.789900	0.204100	0.453800
H1741	H174	0.796000	0.256300	0.525000
H1751	H175	0.795900	0.359300	0.451600
H1761	H176	0.727000	0.399000	0.485800
H1771	H177	0.723500	0.342700	0.415800
H1781	H178	0.543100	0.194300	0.678400
H1791	H179	0.420600	0.340700	0.799900
H1801	H180	0.382600	0.270200	0.752800
H1811	H181	0.411000	0.329900	0.729500
H1821	H182	0.523200	0.330600	0.826900
H1831	H183	0.580300	0.312900	0.773900
H1841	H184	0.558500	0.252600	0.799100
C11	C1	0.958400	0.806900	0.090500
C21	C2	0.913900	0.849400	0.147500
C31	C3	0.929300	0.922600	0.185300
C41	C4	0.856000	0.814500	0.160900
C51	C5	0.889200	0.962100	0.237900
C61	C6	0.815700	0.855500	0.213100
C71	C7	0.831600	0.928200	0.251800
C81	C8	0.779600	0.959900	0.303700
C91	C9	0.727500	0.908900	0.304000
C101	C10	0.776000	0.031200	0.348800
C111	C11	0.674300	0.925500	0.347400
C121	C12	0.720800	0.048900	0.392300
C131	C13	0.670800	0.998200	0.392400
C141	C14	0.611600	0.022400	0.439500
C151	C15	0.089200	0.464800	0.902400
C161	C16	0.138600	0.464700	0.851400
C171	C17	0.182700	0.404700	0.821000
C181	C18	0.141100	0.526300	0.835500
C191	C19	0.187900	0.524900	0.789600
C201	C20	0.234400	0.467000	0.759900
C211	C21	0.232500	0.405900	0.776700
C221	C22	0.283100	0.480300	0.716100
C231	C23	0.272500	0.548900	0.711800
C241	C24	0.338200	0.436000	0.682300
C251	C25	0.313700	0.572700	0.675000
C261	C26	0.380100	0.459100	0.644700
C271	C27	0.368600	0.526900	0.640100
C281	C28	0.414100	0.551400	0.598300
C291	C29	0.616300	0.528800	0.583500
C301	C30	0.681800	0.542200	0.624400
C311	C31	0.718400	0.482400	0.628600
C321	C32	0.705200	0.613100	0.659200
C331	C33	0.763500	0.623000	0.697900
C341	C34	0.775700	0.492100	0.668300
C351	C35	0.798400	0.562800	0.704900
C361	C36	0.854700	0.586800	0.753000
C371	C37	0.896800	0.545400	0.776400
C381	C38	0.862700	0.664100	0.780200
C391	C39	0.910200	0.700300	0.827300
C401	C40	0.945300	0.580700	0.825300
C411	C41	0.951400	0.657800	0.850600
C421	C42	0.002100	0.697300	0.903800
C431	C43	0.166600	0.819300	0.974500
C441	C44	0.280800	0.773100	0.938900
C451	C45	0.260400	0.902900	0.007700
C461	C46	0.195700	0.641200	0.028000
C471	C47	0.239300	0.756800	0.098800
C481	C48	0.312100	0.648300	0.072700
C491	C49	0.833200	0.777400	0.983700
C501	C50	0.706400	0.754500	0.982900
C511	C51	0.754000	0.853900	0.955700
C521	C52	0.001700	0.715300	0.186200
C531	C53	0.080400	0.805300	0.257400
C541	C54	0.958100	0.793000	0.289500
C551	C55	0.458400	0.693100	0.409500
C561	C56	0.413900	0.650600	0.352500
C571	C57	0.429300	0.577400	0.314700
C581	C58	0.356000	0.685500	0.339100
C591	C59	0.389200	0.537900	0.262100
C601	C60	0.315700	0.644500	0.286900
C611	C61	0.331600	0.571800	0.248200
C621	C62	0.279600	0.540100	0.196300
C631	C63	0.227500	0.591100	0.196000
C641	C64	0.276000	0.468800	0.151200
C651	C65	0.174300	0.574500	0.152600
C661	C66	0.220800	0.451100	0.107700
C671	C67	0.170800	0.501800	0.107600
C681	C68	0.111600	0.477600	0.060500
C691	C69	0.589200	0.035200	0.597600
C701	C70	0.638600	0.035300	0.648600
C711	C71	0.682700	0.095300	0.679000
C721	C72	0.641100	0.973700	0.664500
C731	C73	0.687900	0.975100	0.710400
C741	C74	0.734400	0.033000	0.740100
C751	C75	0.732500	0.094100	0.723300
C761	C76	0.783100	0.019700	0.783900
C771	C77	0.772500	0.951100	0.788200
C781	C78	0.838200	0.064000	0.817700
C791	C79	0.813700	0.927300	0.825000
C801	C80	0.880100	0.040900	0.855300
C811	C81	0.868600	0.973100	0.859900
C821	C82	0.914100	0.948600	0.901700
C831	C83	0.116300	0.971200	0.916500
C841	C84	0.181800	0.957800	0.875600
C851	C85	0.218400	0.017600	0.871400
C861	C86	0.205200	0.886900	0.840800
C871	C87	0.263500	0.877000	0.802100
C881	C88	0.275700	0.007900	0.831700
C891	C89	0.298400	0.937200	0.795100
C901	C90	0.354700	0.913200	0.747000
C911	C91	0.396800	0.954600	0.723600
C921	C92	0.362700	0.835900	0.719800
C931	C93	0.410200	0.799700	0.672700
C941	C94	0.445300	0.919300	0.674700
C951	C95	0.451400	0.842200	0.649400
C961	C96	0.502100	0.802700	0.596200
C971	C97	0.666600	0.680700	0.525500
C981	C98	0.780800	0.726900	0.561100
C991	C99	0.760400	0.597100	0.492300
C1001	C100	0.695700	0.858800	0.472000
C1011	C101	0.739300	0.743200	0.401200
C1021	C102	0.812100	0.851700	0.427300
C1031	C103	0.333200	0.722600	0.516300
C1041	C104	0.206400	0.745500	0.517100
C1051	C105	0.254000	0.646100	0.544300
C1061	C106	0.501700	0.784700	0.313800
C1071	C107	0.580400	0.694700	0.242600
C1081	C108	0.458100	0.707000	0.210500
C1091	C109	0.041600	0.193100	0.909500
C1101	C110	0.086100	0.150600	0.852500
C1111	C111	0.070700	0.077400	0.814700
C1121	C112	0.144000	0.185500	0.839100
C1131	C113	0.110800	0.037900	0.762100
C1141	C114	0.184300	0.144500	0.786900
C1151	C115	0.168400	0.071800	0.748200
C1161	C116	0.220400	0.040100	0.696300
C1171	C117	0.272500	0.091100	0.696000
C1181	C118	0.224000	0.968800	0.651200
C1191	C119	0.325700	0.074500	0.652600
C1201	C120	0.279200	0.951100	0.607700
C1211	C121	0.329200	0.001800	0.607600
C1221	C122	0.388400	0.977600	0.560500
C1231	C123	0.910800	0.535200	0.097600
C1241	C124	0.861400	0.535300	0.148600
C1251	C125	0.817300	0.595300	0.179000
C1261	C126	0.858900	0.473700	0.164500
C1271	C127	0.812100	0.475100	0.210400
C1281	C128	0.765600	0.533000	0.240100
C1291	C129	0.767500	0.594100	0.223300
C1301	C130	0.716900	0.519700	0.283900
C1311	C131	0.727500	0.451100	0.288200
C1321	C132	0.661800	0.564000	0.317700
C1331	C133	0.686300	0.427300	0.325000
C1341	C134	0.619900	0.540900	0.355300
C1351	C135	0.631400	0.473100	0.359900
C1361	C136	0.585900	0.448600	0.401700
C1371	C137	0.383700	0.471200	0.416500
C1381	C138	0.318200	0.457800	0.375600
C1391	C139	0.281600	0.517600	0.371400
C1401	C140	0.294800	0.386900	0.340800
C1411	C141	0.236500	0.377000	0.302100
C1421	C142	0.224300	0.507900	0.331700
C1431	C143	0.201600	0.437200	0.295100
C1441	C144	0.145300	0.413200	0.247000
C1451	C145	0.103200	0.454600	0.223600
C1461	C146	0.137300	0.335900	0.219800
C1471	C147	0.089800	0.299700	0.172700
C1481	C148	0.054700	0.419300	0.174700
C1491	C149	0.048600	0.342200	0.149400
C1501	C150	0.997900	0.302700	0.096200
C1511	C151	0.833400	0.180700	0.025500
C1521	C152	0.719200	0.226900	0.061100
C1531	C153	0.739600	0.097100	0.992300
C1541	C154	0.804300	0.358800	0.972000
C1551	C155	0.760700	0.243200	0.901200
C1561	C156	0.687900	0.351700	0.927300
C1571	C157	0.166800	0.222600	0.016300
C1581	C158	0.293600	0.245500	0.017100
C1591	C159	0.246000	0.146100	0.044300
C1601	C160	0.998300	0.284700	0.813800
C1611	C161	0.919600	0.194700	0.742600
C1621	C162	0.041900	0.207000	0.710500
C1631	C163	0.541600	0.306900	0.590500
C1641	C164	0.586100	0.349400	0.647500
C1651	C165	0.570700	0.422600	0.685300
C1661	C166	0.644000	0.314500	0.660900
C1671	C167	0.610800	0.462100	0.737900
C1681	C168	0.684300	0.355500	0.713100
C1691	C169	0.668400	0.428200	0.751800
C1701	C170	0.720400	0.459900	0.803700
C1711	C171	0.772500	0.408900	0.804000
C1721	C172	0.724000	0.531200	0.848800
C1731	C173	0.825700	0.425500	0.847400
C1741	C174	0.779200	0.548900	0.892300
C1751	C175	0.829200	0.498200	0.892400
C1761	C176	0.888400	0.522400	0.939500
C1771	C177	0.410800	0.964800	0.402400
C1781	C178	0.361400	0.964700	0.351400
C1791	C179	0.317300	0.904700	0.321000
C1801	C180	0.358900	0.026300	0.335500
C1811	C181	0.312100	0.024900	0.289600
C1821	C182	0.265600	0.967000	0.259900
C1831	C183	0.267500	0.905900	0.276700
C1841	C184	0.216900	0.980300	0.216100
C1851	C185	0.227500	0.048900	0.211800
C1861	C186	0.161800	0.936000	0.182300
C1871	C187	0.186300	0.072700	0.175000
C1881	C188	0.119900	0.959100	0.144700
C1891	C189	0.131400	0.026900	0.140100
C1901	C190	0.085900	0.051400	0.098300
C1911	C191	0.883700	0.028800	0.083500
C1921	C192	0.818200	0.042200	0.124400
C1931	C193	0.781600	0.982400	0.128600
C1941	C194	0.794800	0.113100	0.159200
C1951	C195	0.736500	0.123000	0.197900
C1961	C196	0.724300	0.992100	0.168300
C1971	C197	0.701600	0.062800	0.204900
C1981	C198	0.645300	0.086800	0.253000
C1991	C199	0.603200	0.045400	0.276400
C2001	C200	0.637300	0.164100	0.280200
C2011	C201	0.589800	0.200300	0.327300
C2021	C202	0.554700	0.080700	0.325300
C2031	C203	0.548600	0.157800	0.350600
C2041	C204	0.497900	0.197300	0.403800
C2051	C205	0.333400	0.319300	0.474500
C2061	C206	0.219200	0.273100	0.438900
C2071	C207	0.239600	0.402900	0.507700
C2081	C208	0.304300	0.141200	0.528000
C2091	C209	0.260700	0.256800	0.598800
C2101	C210	0.187900	0.148300	0.572700
C2111	C211	0.666800	0.277400	0.483700
C2121	C212	0.793600	0.254500	0.482900
C2131	C213	0.746000	0.353900	0.455700
C2141	C214	0.498300	0.215300	0.686200
C2151	C215	0.419600	0.305300	0.757400
C2161	C216	0.541900	0.293000	0.789500
S11	S1	0.738730	0.824310	0.238750
S21	S2	0.197910	0.593980	0.758460
S31	S3	0.804020	0.707270	0.745550
S41	S4	0.238730	0.675690	0.261250
S51	S5	0.697910	0.906020	0.741540
S61	S6	0.304020	0.792730	0.754450
S71	S7	0.261270	0.175690	0.761250
S81	S8	0.802090	0.406020	0.241540
S91	S9	0.195980	0.292730	0.254450
S101	S10	0.761270	0.324310	0.738750
S111	S11	0.302090	0.093980	0.258460
S121	S12	0.695980	0.207270	0.245550
N11	N1	0.232600	0.831600	0.974300
N21	N2	0.247300	0.683100	0.064300
N31	N3	0.767000	0.794700	0.976800
N41	N4	0.013300	0.767400	0.242100
N51	N5	0.732600	0.668400	0.525700
N61	N6	0.747300	0.816900	0.435700
N71	N7	0.267000	0.705300	0.523200
N81	N8	0.513300	0.732600	0.257900
N91	N9	0.767400	0.168400	0.025700
N101	N10	0.752700	0.316900	0.935700
N111	N11	0.233000	0.205300	0.023200
N121	N12	0.986700	0.232600	0.757900
N131	N13	0.267400	0.331600	0.474300
N141	N14	0.252700	0.183100	0.564300
N151	N15	0.733000	0.294700	0.476800
N161	N16	0.486700	0.267400	0.742100
O11	O1	0.000500	0.842860	0.070960
O21	O2	0.952100	0.737510	0.067310
O31	O3	0.574600	0.971800	0.444900
O41	O4	0.602000	0.088500	0.469600
O51	O5	0.681700	0.811900	0.194000
O61	O6	0.755100	0.765600	0.258500
O71	O7	0.075500	0.405520	0.907420
O81	O8	0.060800	0.524200	0.934400
O91	O9	0.414000	0.618070	0.606270
O101	O10	0.138500	0.591800	0.717900
O111	O11	0.215800	0.663440	0.806740
O121	O12	0.600600	0.463640	0.550440
O131	O13	0.582200	0.585670	0.587270
O141	O14	0.755400	0.755300	0.790600
O151	O15	0.843700	0.737300	0.707200
O161	O16	0.023300	0.662820	0.936220
O171	O17	0.020700	0.761220	0.911220
O181	O18	0.451900	0.502940	0.556440
O191	O19	0.123800	0.862190	0.004590
O201	O20	0.137400	0.665600	0.028700
O211	O21	0.887100	0.807070	0.976870
O221	O22	0.046400	0.692100	0.143000
O231	O23	0.500500	0.657140	0.429040
O241	O24	0.452100	0.762490	0.432690
O251	O25	0.074600	0.528200	0.055100
O261	O26	0.102000	0.411500	0.030400
O271	O27	0.181700	0.688100	0.306000
O281	O28	0.255100	0.734400	0.241500
O291	O29	0.575500	0.094480	0.592580
O301	O30	0.560800	0.975800	0.565600
O311	O31	0.914000	0.881930	0.893730
O321	O32	0.638500	0.908200	0.782100
O331	O33	0.715800	0.836560	0.693260
O341	O34	0.100600	0.036360	0.949560
O351	O35	0.082200	0.914330	0.912730
O361	O36	0.255400	0.744700	0.709400
O371	O37	0.343700	0.762700	0.792800
O381	O38	0.523300	0.837180	0.563780
O391	O39	0.520700	0.738780	0.588780
O401	O40	0.951900	0.997060	0.943560
O411	O41	0.623800	0.637810	0.495410
O421	O42	0.637400	0.834400	0.471300
O431	O43	0.387100	0.692930	0.523130
O441	O44	0.546400	0.807900	0.357000
O451	O45	0.999500	0.157140	0.929040
O461	O46	0.047900	0.262490	0.932690
O471	O47	0.425400	0.028200	0.555100
O481	O48	0.398000	0.911500	0.530400
O491	O49	0.318300	0.188100	0.806000
O501	O50	0.244900	0.234400	0.741500
O511	O51	0.924500	0.594480	0.092580
O521	O52	0.939200	0.475800	0.065600
O531	O53	0.586000	0.381930	0.393730
O541	O54	0.861500	0.408200	0.282100
O551	O55	0.784200	0.336560	0.193260
O561	O56	0.399400	0.536360	0.449560
O571	O57	0.417800	0.414330	0.412730
O581	O58	0.244600	0.244700	0.209400
O591	O59	0.156300	0.262700	0.292800
O601	O60	0.976700	0.337180	0.063780
O611	O61	0.979300	0.238780	0.088780
O621	O62	0.548100	0.497060	0.443560
O631	O63	0.876200	0.137810	0.995410
O641	O64	0.862600	0.334400	0.971300
O651	O65	0.112900	0.192930	0.023130
O661	O66	0.953600	0.307900	0.857000
O671	O67	0.499500	0.342860	0.570960
O681	O68	0.547900	0.237510	0.567310
O691	O69	0.925400	0.471800	0.944900
O701	O70	0.898000	0.588500	0.969600
O711	O71	0.818300	0.311900	0.694000
O721	O72	0.744900	0.265600	0.758500
O731	O73	0.424500	0.905520	0.407420
O741	O74	0.439200	0.024200	0.434400
O751	O75	0.086000	0.118070	0.106270
O761	O76	0.361500	0.091800	0.217900
O771	O77	0.284200	0.163440	0.306740
O781	O78	0.899400	0.963640	0.050440
O791	O79	0.917800	0.085670	0.087270
O801	O80	0.744600	0.255300	0.290600
O811	O81	0.656300	0.237300	0.207200
O821	O82	0.476700	0.162820	0.436220
O831	O83	0.479300	0.261220	0.411220
O841	O84	0.048100	0.002940	0.056440
O851	O85	0.376200	0.362190	0.504590
O861	O86	0.362600	0.165600	0.528700
O871	O87	0.612900	0.307070	0.476870
O881	O88	0.453600	0.192100	0.643000
