data_MUTNAQ_freeONLY_PM
_symmetry_space_group_name_H-M	'P1'
_cell_length_a	7.934100
_cell_length_b	11.550000
_cell_length_c	18.115700
_cell_angle_alpha	90.000000
_cell_angle_beta	90.000000
_cell_angle_gamma	90.000000
_symmetry_Int_Tables_number 1

loop_
_symmetry_equiv_pos_as_xyz
'x,y,z'

loop_
_atom_site_label
_atom_site_type_symbol
_atom_site_fract_x
_atom_site_fract_y
_atom_site_fract_z
C11	C1	0.305000	0.927500	0.268430
C21	C2	0.387400	0.821100	0.264000
H11	H1	0.424800	0.783800	0.307800
C31	C3	0.414800	0.769600	0.196250
H21	H2	0.473000	0.697800	0.193700
C41	C4	0.358400	0.821400	0.132080
C51	C5	0.274900	0.927600	0.136600
H31	H3	0.235600	0.964100	0.092900
C61	C6	0.249100	0.980000	0.204100
H41	H4	0.192600	0.052400	0.206500
C71	C7	0.384800	0.770700	0.059190
N11	N1	0.273500	0.982300	0.336910
H51	H5	0.290000	0.050000	0.333000
H61	H6	0.317000	0.955000	0.368000
N21	N2	0.438200	0.669600	0.039040
C81	C8	0.695000	0.072500	0.268430
C91	C9	0.612600	0.178900	0.264000
H71	H7	0.575200	0.216200	0.307800
C101	C10	0.585200	0.230400	0.196250
H81	H8	0.527000	0.302200	0.193700
C111	C11	0.641600	0.178600	0.132080
C121	C12	0.725100	0.072400	0.136600
H91	H9	0.764400	0.035900	0.092900
C131	C13	0.750900	0.020000	0.204100
H101	H10	0.807400	0.947600	0.206500
C141	C14	0.615200	0.229300	0.059190
N31	N3	0.726500	0.017700	0.336910
H111	H11	0.710000	0.950000	0.333000
H121	H12	0.683000	0.045000	0.368000
N41	N4	0.561800	0.330400	0.039040
C151	C15	0.195000	0.427500	0.231570
C161	C16	0.112600	0.321100	0.236000
H131	H13	0.075200	0.283800	0.192200
C171	C17	0.085200	0.269600	0.303750
H141	H14	0.027000	0.197800	0.306300
C181	C18	0.141600	0.321400	0.367920
C191	C19	0.225100	0.427600	0.363400
H151	H15	0.264400	0.464100	0.407100
C201	C20	0.250900	0.480000	0.295900
H161	H16	0.307400	0.552400	0.293500
C211	C21	0.115200	0.270700	0.440810
N51	N5	0.226500	0.482300	0.163090
H171	H17	0.210000	0.550000	0.167000
H181	H18	0.183000	0.455000	0.132000
N61	N6	0.061800	0.169600	0.460960
C221	C22	0.805000	0.572500	0.231570
C231	C23	0.887400	0.678900	0.236000
H191	H19	0.924800	0.716200	0.192200
C241	C24	0.914800	0.730400	0.303750
H201	H20	0.973000	0.802200	0.306300
C251	C25	0.858400	0.678600	0.367920
C261	C26	0.774900	0.572400	0.363400
H211	H21	0.735600	0.535900	0.407100
C271	C27	0.749100	0.520000	0.295900
H221	H22	0.692600	0.447600	0.293500
C281	C28	0.884800	0.729300	0.440810
N71	N7	0.773500	0.517700	0.163090
H231	H23	0.790000	0.450000	0.167000
H241	H24	0.817000	0.545000	0.132000
N81	N8	0.938200	0.830400	0.460960
C291	C29	0.695000	0.072500	0.731570
C301	C30	0.612600	0.178900	0.736000
H251	H25	0.575200	0.216200	0.692200
C311	C31	0.585200	0.230400	0.803750
H261	H26	0.527000	0.302200	0.806300
C321	C32	0.641600	0.178600	0.867920
C331	C33	0.725100	0.072400	0.863400
H271	H27	0.764400	0.035900	0.907100
C341	C34	0.750900	0.020000	0.795900
H281	H28	0.807400	0.947600	0.793500
C351	C35	0.615200	0.229300	0.940810
N91	N9	0.726500	0.017700	0.663090
H291	H29	0.710000	0.950000	0.667000
H301	H30	0.683000	0.045000	0.632000
N101	N10	0.561800	0.330400	0.960960
C361	C36	0.305000	0.927500	0.731570
C371	C37	0.387400	0.821100	0.736000
H311	H31	0.424800	0.783800	0.692200
C381	C38	0.414800	0.769600	0.803750
H321	H32	0.473000	0.697800	0.806300
C391	C39	0.358400	0.821400	0.867920
C401	C40	0.274900	0.927600	0.863400
H331	H33	0.235600	0.964100	0.907100
C411	C41	0.249100	0.980000	0.795900
H341	H34	0.192600	0.052400	0.793500
C421	C42	0.384800	0.770700	0.940810
N111	N11	0.273500	0.982300	0.663090
H351	H35	0.290000	0.050000	0.667000
H361	H36	0.317000	0.955000	0.632000
N121	N12	0.438200	0.669600	0.960960
C431	C43	0.805000	0.572500	0.768430
C441	C44	0.887400	0.678900	0.764000
H371	H37	0.924800	0.716200	0.807800
C451	C45	0.914800	0.730400	0.696250
H381	H38	0.973000	0.802200	0.693700
C461	C46	0.858400	0.678600	0.632080
C471	C47	0.774900	0.572400	0.636600
H391	H39	0.735600	0.535900	0.592900
C481	C48	0.749100	0.520000	0.704100
H401	H40	0.692600	0.447600	0.706500
C491	C49	0.884800	0.729300	0.559190
N131	N13	0.773500	0.517700	0.836910
H411	H41	0.790000	0.450000	0.833000
H421	H42	0.817000	0.545000	0.868000
N141	N14	0.938200	0.830400	0.539040
C501	C50	0.195000	0.427500	0.768430
C511	C51	0.112600	0.321100	0.764000
H431	H43	0.075200	0.283800	0.807800
C521	C52	0.085200	0.269600	0.696250
H441	H44	0.027000	0.197800	0.693700
C531	C53	0.141600	0.321400	0.632080
C541	C54	0.225100	0.427600	0.636600
H451	H45	0.264400	0.464100	0.592900
C551	C55	0.250900	0.480000	0.704100
H461	H46	0.307400	0.552400	0.706500
C561	C56	0.115200	0.270700	0.559190
N151	N15	0.226500	0.482300	0.836910
H471	H47	0.210000	0.550000	0.833000
H481	H48	0.183000	0.455000	0.868000
N161	N16	0.061800	0.169600	0.539040
Ag11	Ag1	0.000000	0.000000	0.401020
Ag21	Ag2	0.500000	0.500000	0.098980
Ag31	Ag3	0.000000	0.000000	0.598980
Ag41	Ag4	0.500000	0.500000	0.901020
O11	O1	0.350000	0.839000	0.000000
O21	O2	0.650000	0.161000	0.000000
O31	O3	0.150000	0.339000	0.500000
O41	O4	0.850000	0.661000	0.500000
