data_MUVGUG_freeONLY_PM
_symmetry_space_group_name_H-M	'P1'
_cell_length_a	11.419000
_cell_length_b	12.670000
_cell_length_c	14.752000
_cell_angle_alpha	90.000000
_cell_angle_beta	90.000000
_cell_angle_gamma	90.000000
_symmetry_Int_Tables_number 1

loop_
_symmetry_equiv_pos_as_xyz
'x,y,z'

loop_
_atom_site_label
_atom_site_type_symbol
_atom_site_fract_x
_atom_site_fract_y
_atom_site_fract_z
Zn11	Zn1	0.500000	0.500000	0.250000
Zn21	Zn2	0.500000	0.500000	0.750000
H11	H1	0.910800	0.655500	0.274800
H21	H2	0.698000	0.779700	0.136100
H31	H3	0.709700	0.650400	0.276400
H41	H4	0.839500	0.909100	0.135500
H51	H5	0.089200	0.344500	0.274800
H61	H6	0.302000	0.220300	0.136100
H71	H7	0.290300	0.349600	0.276400
H81	H8	0.160500	0.090900	0.135500
H91	H9	0.089200	0.655500	0.225200
H101	H10	0.302000	0.779700	0.363900
H111	H11	0.290300	0.650400	0.223600
H121	H12	0.160500	0.909100	0.364500
H131	H13	0.910800	0.344500	0.225200
H141	H14	0.698000	0.220300	0.363900
H151	H15	0.709700	0.349600	0.223600
H161	H16	0.839500	0.090900	0.364500
H171	H17	0.089200	0.344500	0.725200
H181	H18	0.302000	0.220300	0.863900
H191	H19	0.290300	0.349600	0.723600
H201	H20	0.160500	0.090900	0.864500
H211	H21	0.910800	0.655500	0.725200
H221	H22	0.698000	0.779700	0.863900
H231	H23	0.709700	0.650400	0.723600
H241	H24	0.839500	0.909100	0.864500
H251	H25	0.910800	0.344500	0.774800
H261	H26	0.698000	0.220300	0.636100
H271	H27	0.709700	0.349600	0.776400
H281	H28	0.839500	0.090900	0.635500
H291	H29	0.089200	0.655500	0.774800
H301	H30	0.302000	0.779700	0.636100
H311	H31	0.290300	0.650400	0.776400
H321	H32	0.160500	0.909100	0.635500
C11	C1	0.750800	0.588400	0.265100
C21	C2	0.871900	0.592000	0.265000
C31	C3	0.538200	0.651500	0.080410
C41	C4	0.724300	0.807400	0.081400
C51	C5	0.920600	0.090000	0.080400
C61	C6	0.807400	0.886000	0.081000
C71	C7	0.249200	0.411600	0.265100
C81	C8	0.128100	0.408000	0.265000
C91	C9	0.461800	0.348500	0.080410
C101	C10	0.275700	0.192600	0.081400
C111	C11	0.079400	0.910000	0.080400
C121	C12	0.192600	0.114000	0.081000
C131	C13	0.249200	0.588400	0.234900
C141	C14	0.128100	0.592000	0.235000
C151	C15	0.461800	0.651500	0.419590
C161	C16	0.275700	0.807400	0.418600
C171	C17	0.079400	0.090000	0.419600
C181	C18	0.192600	0.886000	0.419000
C191	C19	0.750800	0.411600	0.234900
C201	C20	0.871900	0.408000	0.235000
C211	C21	0.538200	0.348500	0.419590
C221	C22	0.724300	0.192600	0.418600
C231	C23	0.920600	0.910000	0.419600
C241	C24	0.807400	0.114000	0.419000
C251	C25	0.249200	0.411600	0.734900
C261	C26	0.128100	0.408000	0.735000
C271	C27	0.461800	0.348500	0.919590
C281	C28	0.275700	0.192600	0.918600
C291	C29	0.079400	0.910000	0.919600
C301	C30	0.192600	0.114000	0.919000
C311	C31	0.750800	0.588400	0.734900
C321	C32	0.871900	0.592000	0.735000
C331	C33	0.538200	0.651500	0.919590
C341	C34	0.724300	0.807400	0.918600
C351	C35	0.920600	0.090000	0.919600
C361	C36	0.807400	0.886000	0.919000
C371	C37	0.750800	0.411600	0.765100
C381	C38	0.871900	0.408000	0.765000
C391	C39	0.538200	0.348500	0.580410
C401	C40	0.724300	0.192600	0.581400
C411	C41	0.920600	0.910000	0.580400
C421	C42	0.807400	0.114000	0.581000
C431	C43	0.249200	0.588400	0.765100
C441	C44	0.128100	0.592000	0.765000
C451	C45	0.461800	0.651500	0.580410
C461	C46	0.275700	0.807400	0.581400
C471	C47	0.079400	0.090000	0.580400
C481	C48	0.192600	0.886000	0.581000
C491	C49	0.585000	0.691500	0.000000
C501	C50	0.678300	0.768400	0.000000
C511	C51	0.932000	0.023600	0.000000
C521	C52	0.842900	0.931500	0.000000
C531	C53	0.415000	0.308500	0.000000
C541	C54	0.321700	0.231600	0.000000
C551	C55	0.068000	0.976400	0.000000
C561	C56	0.157100	0.068500	0.000000
C571	C57	0.415000	0.691500	0.500000
C581	C58	0.321700	0.768400	0.500000
C591	C59	0.068000	0.023600	0.500000
C601	C60	0.157100	0.931500	0.500000
C611	C61	0.585000	0.308500	0.500000
C621	C62	0.678300	0.231600	0.500000
C631	C63	0.932000	0.976400	0.500000
C641	C64	0.842900	0.068500	0.500000
C651	C65	0.934700	0.500000	0.250000
C661	C66	0.065300	0.500000	0.250000
C671	C67	0.065300	0.500000	0.750000
C681	C68	0.934700	0.500000	0.750000
N11	N1	0.899000	0.135700	0.144800
N21	N2	0.501280	0.619700	0.147480
N31	N3	0.101000	0.864300	0.144800
N41	N4	0.498720	0.380300	0.147480
N51	N5	0.101000	0.135700	0.355200
N61	N6	0.498720	0.619700	0.352520
N71	N7	0.899000	0.864300	0.355200
N81	N8	0.501280	0.380300	0.352520
N91	N9	0.101000	0.864300	0.855200
N101	N10	0.498720	0.380300	0.852520
N111	N11	0.899000	0.135700	0.855200
N121	N12	0.501280	0.619700	0.852520
N131	N13	0.899000	0.864300	0.644800
N141	N14	0.501280	0.380300	0.647480
N151	N15	0.101000	0.135700	0.644800
N161	N16	0.498720	0.619700	0.647480
N171	N17	0.689700	0.500000	0.250000
N181	N18	0.310300	0.500000	0.250000
N191	N19	0.310300	0.500000	0.750000
N201	N20	0.689700	0.500000	0.750000
