data_MUVMOG_freeONLY_PM
_symmetry_space_group_name_H-M	'P1'
_cell_length_a	19.046000
_cell_length_b	19.046000
_cell_length_c	8.330600
_cell_angle_alpha	90.000000
_cell_angle_beta	90.000000
_cell_angle_gamma	120.000000
_symmetry_Int_Tables_number 1

loop_
_symmetry_equiv_pos_as_xyz
'x,y,z'

loop_
_atom_site_label
_atom_site_type_symbol
_atom_site_fract_x
_atom_site_fract_y
_atom_site_fract_z
Ga11	Ga1	0.736980	0.263130	0.125900
Ga21	Ga2	0.813440	0.000000	0.000000
P11	P1	0.821670	0.910800	0.318500
P21	P2	0.831710	0.168400	0.100800
H11	H1	0.840000	0.184000	0.257000
P31	P3	0.582570	0.164980	0.331800
O11	O1	0.776200	0.887300	0.494000
H21	H2	0.246800	0.162400	0.478700
H31	H3	0.764700	0.927300	0.571500
O21	O2	0.911500	0.955000	0.348000
O31	O3	0.796800	0.964400	0.228700
O41	O4	0.796700	0.833000	0.227900
O51	O5	0.708200	0.289400	0.939200
O61	O6	0.786300	0.082000	0.048100
O71	O7	0.918700	0.214100	0.053600
O81	O8	0.540300	0.080200	0.395800
O91	O9	0.653100	0.178500	0.228000
O101	O10	0.611000	0.224300	0.473700
O111	O11	0.526200	0.178800	0.228500
O121	O12	0.788300	0.211900	0.040500
O131	O13	0.852900	0.926700	0.947600
H41	H4	0.904200	0.950000	0.938000
Ga31	Ga3	0.736870	0.473850	0.125900
Ga41	Ga4	0.000000	0.813440	0.000000
P41	P4	0.089200	0.910870	0.318500
P51	P5	0.831600	0.663310	0.100800
H51	H5	0.816000	0.656000	0.257000
P61	P6	0.835020	0.417590	0.331800
O141	O14	0.112700	0.888900	0.494000
H61	H6	0.837600	0.084400	0.478700
H71	H7	0.072700	0.837400	0.571500
O151	O15	0.045000	0.956500	0.348000
O161	O16	0.035600	0.832400	0.228700
O171	O17	0.167000	0.963700	0.227900
O181	O18	0.710600	0.418800	0.939200
O191	O19	0.918000	0.704300	0.048100
O201	O20	0.785900	0.704600	0.053600
O211	O21	0.919800	0.460100	0.395800
O221	O22	0.821500	0.474600	0.228000
O231	O23	0.775700	0.386700	0.473700
O241	O24	0.821200	0.347400	0.228500
O251	O25	0.788100	0.576400	0.040500
O261	O26	0.073300	0.926200	0.947600
H81	H8	0.050000	0.954200	0.938000
Ga51	Ga5	0.526150	0.263020	0.125900
Ga61	Ga6	0.186560	0.186560	0.000000
P71	P7	0.089130	0.178330	0.318500
P81	P8	0.336690	0.168290	0.100800
H91	H9	0.344000	0.160000	0.257000
P91	P9	0.582410	0.417430	0.331800
O271	O27	0.111100	0.223800	0.494000
H101	H10	0.915600	0.753200	0.478700
H111	H11	0.162600	0.235300	0.571500
O281	O28	0.043500	0.088500	0.348000
O291	O29	0.167600	0.203200	0.228700
O301	O30	0.036300	0.203300	0.227900
O311	O31	0.581200	0.291800	0.939200
O321	O32	0.295700	0.213700	0.048100
O331	O33	0.295400	0.081300	0.053600
O341	O34	0.539900	0.459700	0.395800
O351	O35	0.525400	0.346900	0.228000
O361	O36	0.613300	0.389000	0.473700
O371	O37	0.652600	0.473800	0.228500
O381	O38	0.423600	0.211700	0.040500
O391	O39	0.073800	0.147100	0.947600
H121	H12	0.045800	0.095800	0.938000
Ga71	Ga7	0.263020	0.736870	0.874100
Ga81	Ga8	0.186560	0.000000	0.000000
P101	P10	0.178330	0.089200	0.681500
P111	P11	0.168290	0.831600	0.899200
H131	H13	0.160000	0.816000	0.743000
P121	P12	0.417430	0.835020	0.668200
O401	O40	0.223800	0.112700	0.506000
H141	H14	0.753200	0.837600	0.521300
H151	H15	0.235300	0.072700	0.428500
O411	O41	0.088500	0.045000	0.652000
O421	O42	0.203200	0.035600	0.771300
O431	O43	0.203300	0.167000	0.772100
O441	O44	0.291800	0.710600	0.060800
O451	O45	0.213700	0.918000	0.951900
O461	O46	0.081300	0.785900	0.946400
O471	O47	0.459700	0.919800	0.604200
O481	O48	0.346900	0.821500	0.772000
O491	O49	0.389000	0.775700	0.526300
O501	O50	0.473800	0.821200	0.771500
O511	O51	0.211700	0.788100	0.959500
O521	O52	0.147100	0.073300	0.052400
H161	H16	0.095800	0.050000	0.062000
Ga91	Ga9	0.263130	0.526150	0.874100
Ga101	Ga10	0.000000	0.186560	0.000000
P131	P13	0.910800	0.089130	0.681500
P141	P14	0.168400	0.336690	0.899200
H171	H17	0.184000	0.344000	0.743000
P151	P15	0.164980	0.582410	0.668200
O531	O53	0.887300	0.111100	0.506000
H181	H18	0.162400	0.915600	0.521300
H191	H19	0.927300	0.162600	0.428500
O541	O54	0.955000	0.043500	0.652000
O551	O55	0.964400	0.167600	0.771300
O561	O56	0.833000	0.036300	0.772100
O571	O57	0.289400	0.581200	0.060800
O581	O58	0.082000	0.295700	0.951900
O591	O59	0.214100	0.295400	0.946400
O601	O60	0.080200	0.539900	0.604200
O611	O61	0.178500	0.525400	0.772000
O621	O62	0.224300	0.613300	0.526300
O631	O63	0.178800	0.652600	0.771500
O641	O64	0.211900	0.423600	0.959500
O651	O65	0.926700	0.073800	0.052400
H201	H20	0.950000	0.045800	0.062000
Ga111	Ga11	0.473850	0.736980	0.874100
Ga121	Ga12	0.813440	0.813440	0.000000
P161	P16	0.910870	0.821670	0.681500
P171	P17	0.663310	0.831710	0.899200
H211	H21	0.656000	0.840000	0.743000
P181	P18	0.417590	0.582570	0.668200
O661	O66	0.888900	0.776200	0.506000
H221	H22	0.084400	0.246800	0.521300
H231	H23	0.837400	0.764700	0.428500
O671	O67	0.956500	0.911500	0.652000
O681	O68	0.832400	0.796800	0.771300
O691	O69	0.963700	0.796700	0.772100
O701	O70	0.418800	0.708200	0.060800
O711	O71	0.704300	0.786300	0.951900
O721	O72	0.704600	0.918700	0.946400
O731	O73	0.460100	0.540300	0.604200
O741	O74	0.474600	0.653100	0.772000
O751	O75	0.386700	0.611000	0.526300
O761	O76	0.347400	0.526200	0.771500
O771	O77	0.576400	0.788300	0.959500
O781	O78	0.926200	0.852900	0.052400
H241	H24	0.954200	0.904200	0.062000
Ga131	Ga13	0.666670	0.333330	0.483780
P191	P19	0.666670	0.333330	0.882800
O791	O79	0.666670	0.333330	0.228700
O801	O80	0.666670	0.333330	0.704300
Ga141	Ga14	0.333330	0.666670	0.516220
P201	P20	0.333330	0.666670	0.117200
O811	O81	0.333330	0.666670	0.771300
O821	O82	0.333330	0.666670	0.295700
Ga151	Ga15	0.000000	0.000000	0.500000
