data_MUZGAQ_freeONLY_PM
_symmetry_space_group_name_H-M	'P1'
_cell_length_a	21.107000
_cell_length_b	21.185000
_cell_length_c	36.323000
_cell_angle_alpha	89.001000
_cell_angle_beta	82.486000
_cell_angle_gamma	68.359000
_symmetry_Int_Tables_number 1

loop_
_symmetry_equiv_pos_as_xyz
'x,y,z'

loop_
_atom_site_label
_atom_site_type_symbol
_atom_site_fract_x
_atom_site_fract_y
_atom_site_fract_z
Dy11	Dy1	0.677710	0.314900	0.099880
Dy21	Dy2	0.528620	0.563180	0.722850
Dy31	Dy3	0.522550	0.860100	0.792840
Dy41	Dy4	0.677510	0.255340	0.378920
Dy51	Dy5	0.860360	0.207750	0.144640
Dy61	Dy6	0.458770	0.761960	0.862570
Dy71	Dy7	0.355900	0.950030	0.851660
Dy81	Dy8	0.215590	0.064600	0.794000
Dy91	Dy9	0.728070	0.404480	0.321090
Dy101	Dy10	0.887850	0.989210	0.268050
Dy111	Dy11	0.077110	0.851750	0.764560
Dy121	Dy12	0.546000	0.405050	0.776050
Dy131	Dy13	0.994930	0.746750	0.819870
Dy141	Dy14	0.454000	0.594950	0.223950
Dy151	Dy15	0.322490	0.744660	0.621080
Dy161	Dy16	0.644100	0.049970	0.148340
Dy171	Dy17	0.500100	0.690380	0.644250
Dy181	Dy18	0.274590	0.039400	0.691370
Dy191	Dy19	0.477450	0.139900	0.207160
Dy201	Dy20	0.109940	0.187190	0.729460
Dy211	Dy21	0.394840	0.876820	0.630780
Dy221	Dy22	0.820190	0.334640	0.222510
Dy231	Dy23	0.139640	0.792250	0.855360
Dy241	Dy24	0.005070	0.253250	0.180130
Dy251	Dy25	0.322290	0.685100	0.900120
Dy261	Dy26	0.890060	0.812810	0.270540
Dy271	Dy27	0.468660	0.964290	0.698410
Dy281	Dy28	0.833370	0.029550	0.119890
Dy291	Dy29	0.618300	0.693910	0.716090
Dy301	Dy30	0.271930	0.595520	0.678910
Dy311	Dy31	0.471380	0.436820	0.277150
Dy321	Dy32	0.541230	0.238040	0.137430
Dy331	Dy33	0.524040	0.417880	0.173280
Dy341	Dy34	0.511250	0.895480	0.900060
Dy351	Dy35	0.725410	0.960600	0.308630
Dy361	Dy36	0.922890	0.148250	0.235440
Dy371	Dy37	0.784410	0.935400	0.206000
Dy381	Dy38	0.166630	0.970450	0.880110
Dy391	Dy39	0.368840	0.535910	0.766030
Dy401	Dy40	0.475960	0.582120	0.826720
Dy411	Dy41	0.112150	0.010790	0.731950
Dy421	Dy42	0.873530	0.126550	0.340870
Dy431	Dy43	0.488750	0.104520	0.099940
Dy441	Dy44	0.605160	0.123180	0.369220
Dy451	Dy45	0.631160	0.464090	0.233970
Dy461	Dy46	0.381700	0.306090	0.283910
Dy471	Dy47	0.179810	0.665360	0.777490
Dy481	Dy48	0.530000	0.241060	0.451420
Dy491	Dy49	0.499900	0.309620	0.355750
Dy501	Dy50	0.126470	0.873450	0.659130
Dy511	Dy51	0.470000	0.758940	0.548580
Dy521	Dy52	0.531340	0.035710	0.301590
Zn11	Zn1	0.892340	0.284340	0.572330
Zn21	Zn2	0.107660	0.715660	0.427670
Zn31	Zn3	0.000000	0.500000	0.000000
H11	H1	0.236500	0.242900	0.352700
H21	H2	0.559300	0.053000	0.820800
H31	H3	0.965800	0.300500	0.069100
H41	H4	0.291300	0.345000	0.463100
H51	H5	0.125400	0.921500	0.009000
H61	H6	0.416600	0.107000	0.504900
H71	H7	0.034200	0.699500	0.930900
H81	H8	0.530800	0.209000	0.607300
H91	H9	0.865800	0.483800	0.349000
H101	H10	0.871500	0.161700	0.593500
H111	H11	0.726000	0.606300	0.570200
H121	H12	0.600600	0.645600	0.966300
H131	H13	0.263500	0.710700	0.516400
H141	H14	0.911200	0.148800	0.806100
H151	H15	0.567300	0.877200	0.137400
H161	H16	0.960000	0.670300	0.684500
H171	H17	0.823900	0.776300	0.853500
H181	H18	0.289100	0.374600	0.735100
H191	H19	0.578700	0.847900	0.250900
H201	H20	0.564900	0.462000	0.454800
H211	H21	0.694600	0.949400	0.965600
H221	H22	0.372400	0.371000	0.076100
H231	H23	0.653400	0.780400	0.010500
H241	H24	0.977600	0.426000	0.867000
H251	H25	0.530300	0.766700	0.243400
H261	H26	0.229100	0.154800	0.053700
H271	H27	0.852700	0.770700	0.110000
H281	H28	0.291300	0.315700	0.423800
H291	H29	0.752700	0.712900	0.265000
H301	H30	0.796200	0.859200	0.414500
H311	H31	0.767300	0.893300	0.060200
H321	H32	0.033200	0.838000	0.073300
H331	H33	0.378700	0.831900	0.273900
H341	H34	0.707800	0.661000	0.161400
H351	H35	0.321700	0.184800	0.613300
H361	H36	0.082500	0.478400	0.904500
H371	H37	0.501900	0.016000	0.584300
H381	H38	0.418900	0.372400	0.658900
H391	H39	0.088800	0.851200	0.193900
H401	H40	0.976600	0.807600	0.070200
H411	H41	0.739900	0.473000	0.769400
H421	H42	0.754000	0.286400	0.546800
H431	H43	0.357300	0.588200	0.477800
H441	H44	0.642700	0.411800	0.522200
H451	H45	0.272300	0.165700	0.360700
H461	H46	0.821400	0.692700	0.738000
H471	H47	0.176100	0.223700	0.146500
H481	H48	0.770900	0.845200	0.946300
H491	H49	0.023300	0.959500	0.047800
H501	H50	0.972100	0.653800	0.180000
H511	H51	0.196200	0.953400	0.090400
H521	H52	0.506900	0.851300	0.342400
H531	H53	0.196400	0.581600	0.398000
H541	H54	0.312000	0.440100	0.879700
H551	H55	0.937000	0.548200	0.362800
H561	H56	0.247300	0.287100	0.735000
H571	H57	0.742600	0.605800	0.378700
H581	H58	0.469700	0.233300	0.756600
H591	H59	0.586500	0.148500	0.832000
H601	H60	0.710900	0.625400	0.264900
H611	H61	0.029400	0.208000	0.596700
H621	H62	0.202700	0.130200	0.227700
H631	H63	0.548100	0.777600	0.122800
H641	H64	0.970600	0.792000	0.403300
H651	H65	0.134200	0.516200	0.651000
H661	H66	0.797900	0.429300	0.031900
H671	H67	0.175500	0.207800	0.973300
H681	H68	0.440700	0.947000	0.179200
H691	H69	0.246200	0.220000	0.393500
H701	H70	0.246000	0.713600	0.453200
H711	H71	0.033300	0.146600	0.042500
H721	H72	0.882800	0.258100	0.722900
H731	H73	0.446800	0.681500	0.414800
H741	H74	0.261200	0.509900	0.579000
H751	H75	0.731500	0.470400	0.656500
H761	H76	0.234000	0.703700	0.268700
H771	H77	0.399400	0.354400	0.033700
H781	H78	0.474600	0.435100	0.513700
H791	H79	0.583400	0.893000	0.495100
H801	H80	0.098500	0.398100	0.325800
H811	H81	0.186900	0.013400	0.490500
H821	H82	0.225200	0.887200	0.289700
H831	H83	0.451900	0.222400	0.877200
H841	H84	0.977000	0.632800	0.959300
H851	H85	0.151600	0.474400	0.740500
H861	H86	0.869800	0.808500	0.457500
H871	H87	0.204500	0.787600	0.179500
H881	H88	0.955200	0.207200	0.505000
H891	H89	0.549300	0.089400	0.556300
H901	H90	0.734300	0.609500	0.069000
H911	H91	0.688200	0.593900	0.451500
H921	H92	0.057100	0.537200	0.221400
H931	H93	0.708700	0.655000	0.536900
H941	H94	0.023400	0.192400	0.929800
H951	H95	0.848400	0.525600	0.259500
H961	H96	0.421300	0.152100	0.749100
H971	H97	0.557000	0.525900	0.041300
H981	H98	0.803600	0.418400	0.602000
H991	H99	0.068200	0.595300	0.317100
H1001	H100	0.581100	0.627600	0.341100
H1011	H101	0.907000	0.920400	0.691000
H1021	H102	0.069800	0.832500	0.554400
H1031	H103	0.599400	0.075800	0.712000
H1041	H104	0.203800	0.140800	0.585500
H1051	H105	0.081500	0.110000	0.625200
H1061	H106	0.257400	0.394200	0.621300
H1071	H107	0.635200	0.968100	0.473500
H1081	H108	0.450700	0.910600	0.443700
H1091	H109	0.443000	0.474100	0.958700
H1101	H110	0.027900	0.346200	0.820000
H1111	H111	0.250900	0.947500	0.173600
H1121	H112	0.435100	0.538000	0.545200
H1131	H113	0.733300	0.753400	0.182400
H1141	H114	0.066100	0.950500	0.391000
H1151	H115	0.650600	0.639800	0.336200
H1161	H116	0.859500	0.985200	0.804800
H1171	H117	0.274000	0.393700	0.429800
H1181	H118	0.117200	0.741900	0.277100
H1191	H119	0.859400	0.489300	0.004000
H1201	H120	0.140600	0.510700	0.996000
H1211	H121	0.126100	0.380500	0.728400
H1221	H122	0.513900	0.453800	0.933300
H1231	H123	0.377000	0.381500	0.625300
H1241	H124	0.364100	0.241700	0.565600
H1251	H125	0.738800	0.490100	0.421000
H1261	H126	0.525400	0.564900	0.486300
H1271	H127	0.961500	0.559100	0.793200
H1281	H128	0.486100	0.546200	0.066700
H1291	H129	0.933900	0.049500	0.609000
H1301	H130	0.023000	0.367200	0.040700
H1311	H131	0.873900	0.619500	0.271600
H1321	H132	0.251200	0.958600	0.542000
H1331	H133	0.736500	0.289300	0.483600
H1341	H134	0.493100	0.148700	0.657600
H1351	H135	0.753800	0.780000	0.606500
H1361	H136	0.795500	0.212400	0.820500
H1371	H137	0.286900	0.419000	0.178500
H1381	H138	0.364800	0.031900	0.526500
H1391	H139	0.150200	0.334900	0.555200
H1401	H140	0.311800	0.406100	0.548500
H1411	H141	0.763500	0.757100	0.647300
H1421	H142	0.873700	0.943600	0.883800
H1431	H143	0.268500	0.529600	0.343500
H1441	H144	0.708700	0.684300	0.576200
H1451	H145	0.171500	0.635600	0.232400
H1461	H146	0.305400	0.050600	0.034400
H1471	H147	0.586600	0.888500	0.042600
H1481	H148	0.130200	0.191500	0.542500
H1491	H149	0.413500	0.851500	0.168000
H1501	H150	0.202100	0.570700	0.968100
H1511	H151	0.265700	0.390500	0.931000
H1521	H152	0.010500	0.799800	0.106800
H1531	H153	0.063000	0.451800	0.637200
H1541	H154	0.387400	0.501600	0.435900
H1551	H155	0.482700	0.524100	0.955000
H1561	H156	0.400600	0.924200	0.288000
H1571	H157	0.102000	0.927200	0.302200
H1581	H158	0.774800	0.112800	0.710300
H1591	H159	0.349400	0.360200	0.663800
H1601	H160	0.803800	0.046600	0.909600
H1611	H161	0.128500	0.838300	0.406500
H1621	H162	0.147300	0.229300	0.890000
H1631	H163	0.192100	0.032000	0.335300
H1641	H164	0.290300	0.438700	0.136700
H1651	H165	0.022400	0.574000	0.133000
H1661	H166	0.807900	0.968000	0.664700
H1671	H167	0.874600	0.078500	0.991000
H1681	H168	0.749100	0.052500	0.826400
H1691	H169	0.345900	0.325400	0.053600
H1701	H170	0.126300	0.056400	0.116200
H1711	H171	0.917500	0.521600	0.095500
H1721	H172	0.966800	0.162000	0.926700
H1731	H173	0.635900	0.758300	0.434400
H1741	H174	0.623000	0.618500	0.374700
H1751	H175	0.942900	0.462800	0.778600
H1761	H176	0.931800	0.404700	0.682900
H1771	H177	0.654100	0.674600	0.946400
H1781	H178	0.780000	0.251300	0.617500
H1791	H179	0.883100	0.726200	0.395900
H1801	H180	0.116900	0.273800	0.604100
H1811	H181	0.093000	0.079600	0.309000
H1821	H182	0.621300	0.168100	0.726100
H1831	H183	0.678300	0.815200	0.386700
H1841	H184	0.156600	0.490800	0.323500
H1851	H185	0.685900	0.303400	0.665600
H1861	H186	0.553200	0.318500	0.585200
H1871	H187	0.498100	0.984000	0.415700
H1881	H188	0.989500	0.200200	0.893200
H1891	H189	0.280800	0.201500	0.165700
H1901	H190	0.797300	0.869800	0.772300
H1911	H191	0.517300	0.475900	0.045000
H1921	H192	0.220000	0.748700	0.382500
H1931	H193	0.469200	0.791000	0.392700
H1941	H194	0.432700	0.122800	0.862600
H1951	H195	0.266700	0.246600	0.817600
H1961	H196	0.849800	0.665100	0.444800
H1971	H197	0.292200	0.339000	0.838600
H1981	H198	0.766000	0.296300	0.731300
H1991	H199	0.688000	0.559900	0.120300
H2001	H200	0.976700	0.040500	0.952200
H2011	H201	0.702400	0.635500	0.852700
H2021	H202	0.178600	0.307300	0.262000
H2031	H203	0.612600	0.498400	0.564100
H2041	H204	0.297700	0.080200	0.254900
H2051	H205	0.920800	0.679000	0.760700
H2061	H206	0.079200	0.321000	0.239300
H2071	H207	0.719200	0.798500	0.834300
H2081	H208	0.824500	0.792200	0.026700
H2091	H209	0.828500	0.364400	0.767600
H2101	H210	0.930200	0.167500	0.445600
H2111	H211	0.096400	0.312600	0.933600
H2121	H212	0.813100	0.986600	0.509500
H2131	H213	0.314100	0.696600	0.334400
H2141	H214	0.121300	0.531800	0.855500
H2151	H215	0.709700	0.561300	0.863300
H2161	H216	0.713100	0.581000	0.821500
H2171	H217	0.123500	0.104200	0.997200
H2181	H218	0.479200	0.600800	0.368700
H2191	H219	0.903600	0.687400	0.066400
H2201	H220	0.898000	0.072800	0.697800
H2211	H221	0.966700	0.853400	0.957500
H2221	H222	0.727700	0.834300	0.639300
H2231	H223	0.520800	0.399200	0.631300
H2241	H224	0.232700	0.106700	0.939800
H2251	H225	0.702300	0.919800	0.745100
H2261	H226	0.627600	0.629000	0.923900
H2271	H227	0.876500	0.895800	0.002800
H2281	H228	0.918500	0.890000	0.374800
H2291	H229	0.346600	0.219600	0.989500
H2301	H230	0.038500	0.440900	0.206800
H2311	H231	0.782300	0.662000	0.331000
H2321	H232	0.901500	0.601900	0.674200
H2331	H233	0.297600	0.364500	0.147300
H2341	H234	0.040000	0.329700	0.315500
H2351	H235	0.413400	0.111500	0.957400
H2361	H236	0.843400	0.509200	0.676500
H2371	H237	0.140500	0.014800	0.195200
H2381	H238	0.217700	0.338000	0.669000
H2391	H239	0.260100	0.527000	0.230600
H2401	H240	0.748800	0.041400	0.458000
H2411	H241	0.878700	0.468200	0.144500
H2421	H242	0.044800	0.792800	0.495000
C11	C1	0.190300	0.807200	0.574600
C21	C2	0.625600	0.025800	0.236800
C31	C3	0.685500	0.398500	0.410000
C41	C4	0.676800	0.705100	0.159300
C51	C5	0.563600	0.991400	0.757900
C61	C6	0.823200	0.760400	0.829900
C71	C7	0.809100	0.165300	0.818700
C81	C8	0.176800	0.239600	0.170100
C91	C9	0.166000	0.297600	0.640300
C101	C10	0.606700	0.978700	0.496100
C111	C11	0.575100	0.753800	0.248800
C121	C12	0.623900	0.932600	0.873900
C131	C13	0.108200	0.473600	0.748500
C141	C14	0.136100	0.111800	0.265100
C151	C15	0.863900	0.888200	0.734900
C161	C16	0.896200	0.924500	0.990800
C171	C17	0.692100	0.596900	0.846400
C181	C18	0.735000	0.551000	0.115700
C191	C19	0.954300	0.081800	0.607700
C201	C20	0.929600	0.410900	0.225000
C211	C21	0.976200	0.380100	0.039400
C221	C22	0.791400	0.250400	0.726100
C231	C23	0.870700	0.530100	0.100200
C241	C24	0.944200	0.400600	0.328500
C251	C25	0.366300	0.029600	0.923900
C261	C26	0.198500	0.113700	0.567100
C271	C27	0.726500	0.569900	0.720400
C281	C28	0.265000	0.449000	0.884300
C291	C29	0.055900	0.529000	0.767700
C301	C30	0.896000	0.032300	0.985100
C311	C31	0.393300	0.021300	0.503900
C321	C32	0.616900	0.684100	0.252300
C331	C33	0.741800	0.872200	0.049900
C341	C34	0.974300	0.012600	0.790300
C351	C35	0.573600	0.075000	0.800900
C361	C36	0.913400	0.464700	0.343200
C371	C37	0.809100	0.960100	0.490400
C381	C38	0.663300	0.542500	0.337400
C391	C39	0.317300	0.330300	0.739300
C401	C40	0.769200	0.956200	0.431100
C411	C41	0.086600	0.535300	0.656800
C421	C42	0.461500	0.479500	0.369100
C431	C43	0.576100	0.931900	0.509100
C441	C44	0.899800	0.058700	0.804400
C451	C45	0.404700	0.158800	0.639600
C461	C46	0.527900	0.509200	0.057900
C471	C47	0.190900	0.834700	0.181300
C481	C48	0.383400	0.590400	0.455500
C491	C49	0.384900	0.337000	0.056500
C501	C50	0.554800	0.727900	0.933500
C511	C51	0.984300	0.625200	0.676800
C521	C52	0.778900	0.261900	0.490300
C531	C53	0.917300	0.149600	0.597000
C541	C54	0.903000	0.161100	0.713600
C551	C55	0.866000	0.918100	0.702700
C561	C56	0.211500	0.728600	0.473400
C571	C57	0.441300	0.536400	0.397400
C581	C58	0.390600	0.855800	0.254200
C591	C59	0.848500	0.031300	0.809400
C601	C60	0.223300	0.189300	0.969800
C611	C61	0.266300	0.211100	0.367900
C621	C62	0.057900	0.661200	0.943500
C631	C63	0.776200	0.885100	0.938400
C641	C64	0.694800	0.760800	0.170600
C651	C65	0.675700	0.805100	0.020700
C661	C66	0.744200	0.918400	0.732700
C671	C67	0.663400	0.565500	0.452600
C681	C68	0.558600	0.048100	0.544100
C691	C69	0.003700	0.476400	0.220600
C701	C70	0.788500	0.271400	0.526600
C711	C71	0.832500	0.888300	0.913400
C721	C72	0.784100	0.392900	0.617400
C731	C73	0.827000	0.213900	0.460300
C741	C74	0.416100	0.226900	0.863700
C751	C75	0.335600	0.218700	0.363200
C761	C76	0.015900	0.058800	0.050800
C771	C77	0.770600	0.994400	0.458200
C781	C78	0.942100	0.338800	0.056500
C791	C79	0.835100	0.665500	0.421700
C801	C80	0.273500	0.430100	0.279600
C811	C81	0.152100	0.502700	0.870000
C821	C82	0.118000	0.219600	0.819200
C831	C83	0.588300	0.631800	0.247300
C841	C84	0.892200	0.418700	0.700100
C851	C85	0.928500	0.858000	0.752300
C861	C86	0.127400	0.643600	0.945900
C871	C87	0.583900	0.773100	0.136300
C881	C88	0.756200	0.099500	0.330200
C891	C89	0.609400	0.144200	0.745800
C901	C90	0.768500	0.296400	0.624800
C911	C91	0.374400	0.974200	0.763200
C921	C92	0.198500	0.110400	0.250500
C931	C93	0.465800	0.166500	0.639000
C941	C94	0.314500	0.601500	0.590000
C951	C95	0.879400	0.702800	0.775400
C961	C96	0.794200	0.664100	0.354600
C971	C97	0.701700	0.390300	0.666700
C981	C98	0.385800	0.116800	0.668600
C991	C99	0.329800	0.096600	0.945000
C1001	C100	0.202400	0.857800	0.286800
C1011	C101	0.221300	0.490700	0.862900
C1021	C102	0.388900	0.630200	0.687000
C1031	C103	0.431000	0.449700	0.527400
C1041	C104	0.205800	0.992200	0.084800
C1051	C105	0.651400	0.826600	0.162900
C1061	C106	0.534200	0.833500	0.361000
C1071	C107	0.082700	0.850400	0.403000
C1081	C108	0.841300	0.854100	0.460300
C1091	C109	0.635200	0.812500	0.387000
C1101	C110	0.162400	0.054100	0.097900
C1111	C111	0.944100	0.471000	0.232300
C1121	C112	0.872300	0.117100	0.706500
C1131	C113	0.732500	0.946900	0.948700
C1141	C114	0.194500	0.054100	0.313100
C1151	C115	0.498300	0.901000	0.555900
C1161	C116	0.614200	0.883200	0.331400
C1171	C117	0.287300	0.673100	0.345100
C1181	C118	0.901600	0.358600	0.316100
C1191	C119	0.376700	0.337800	0.427200
C1201	C120	0.612100	0.617800	0.848900
C1211	C121	0.424900	0.246200	0.751200
C1221	C122	0.797600	0.142200	0.713200
C1231	C123	0.070400	0.589100	0.775000
C1241	C124	0.190900	0.039900	0.509600
C1251	C125	0.482100	0.300900	0.220500
C1261	C126	0.910300	0.726300	0.149300
C1271	C127	0.411200	0.866200	0.192300
C1281	C128	0.119200	0.547900	0.982000
C1291	C129	0.373600	0.387000	0.651700
C1301	C130	0.323200	0.294900	0.840700
C1311	C131	0.050700	0.417500	0.329400
C1321	C132	0.218900	0.926800	0.178800
C1331	C133	0.092100	0.417000	0.741900
C1341	C134	0.298300	0.609700	0.333300
C1351	C135	0.240400	0.226200	0.180900
C1361	C136	0.104000	0.967700	0.014900
C1371	C137	0.805500	0.945900	0.686900
C1381	C138	0.758900	0.748500	0.784400
C1391	C139	0.834000	0.702400	0.359700
C1401	C140	0.464200	0.055100	0.457500
C1411	C141	0.712700	0.326900	0.654900
C1421	C142	0.144900	0.297700	0.607800
C1431	C143	0.305500	0.496100	0.566300
C1441	C144	0.777900	0.460800	0.751100
C1451	C145	0.282000	0.830700	0.873100
C1461	C146	0.426400	0.925000	0.199100
C1471	C147	0.837600	0.945900	0.902100
C1481	C148	0.801500	0.889600	0.749500
C1491	C149	0.046200	0.914300	0.920900
C1501	C150	0.307900	0.403100	0.153600
C1511	C151	0.151500	0.968700	0.190600
C1521	C152	0.569000	0.550300	0.472600
C1531	C153	0.208600	0.749600	0.273900
C1541	C154	0.120600	0.297200	0.224600
C1551	C155	0.004900	0.170900	0.913400
C1561	C156	0.544300	0.405100	0.608800
C1571	C157	0.120700	0.872400	0.190800
C1581	C158	0.794200	0.007800	0.915200
C1591	C159	0.014000	0.535400	0.228900
C1601	C160	0.888600	0.731800	0.115400
C1611	C161	0.850700	0.066800	0.192700
C1621	C162	0.407400	0.512500	0.546000
C1631	C163	0.229400	0.005600	0.541800
C1641	C164	0.626400	0.613000	0.348300
C1651	C165	0.829700	0.319200	0.073000
C1661	C166	0.596700	0.088200	0.736700
C1671	C167	0.763600	0.582000	0.084800
C1681	C168	0.718000	0.169300	0.126900
C1691	C169	0.395100	0.197600	0.746300
C1701	C170	0.759600	0.773800	0.819100
C1711	C171	0.423900	0.068100	0.490900
C1721	C172	0.150000	0.256900	0.671500
C1731	C173	0.682700	0.669700	0.260700
C1741	C174	0.041100	0.116900	0.615200
C1751	C175	0.016300	0.066000	0.615300
C1761	C176	0.301500	0.349100	0.436900
C1771	C177	0.579700	0.050300	0.764900
C1781	C178	0.100200	0.941300	0.195600
C1791	C179	0.501700	0.099000	0.444100
C1801	C180	0.007500	0.177100	0.600700
C1811	C181	0.592600	0.487500	0.454000
C1821	C182	0.348600	0.173400	0.837100
C1831	C183	0.104500	0.806400	0.536200
C1841	C184	0.946500	0.001500	0.368700
C1851	C185	0.949300	0.582500	0.670600
C1861	C186	0.850000	0.743100	0.328500
C1871	C187	0.958900	0.883100	0.384800
C1881	C188	0.216000	0.496600	0.275700
C1891	C189	0.127700	0.882900	0.293500
C1901	C190	0.501600	0.819100	0.699400
C1911	C191	0.221100	0.738100	0.509700
C1921	C192	0.138200	0.773300	0.278900
C1931	C193	0.089700	0.273700	0.850700
C1941	C194	0.670200	0.903400	0.055000
C1951	C195	0.159700	0.517800	0.303400
C1961	C196	0.694500	0.503900	0.433700
C1971	C197	0.988000	0.614600	0.128200
C1981	C198	0.778700	0.509300	0.137100
C1991	C199	0.511300	0.796200	0.391800
C2001	C200	0.995100	0.829100	0.086600
C2011	C201	0.784000	0.503400	0.724300
C2021	C202	0.986000	0.464600	0.771100
C2031	C203	0.134000	0.081900	0.297300
C2041	C204	0.062100	0.102000	0.897400
C2051	C205	0.441400	0.951900	0.455900
C2061	C206	0.734000	0.984300	0.398600
C2071	C207	0.803000	0.254300	0.303400
C2081	C208	0.776700	0.810700	0.030200
C2091	C209	0.055800	0.599400	0.671500
C2101	C210	0.996300	0.523600	0.779400
C2111	C211	0.538500	0.520500	0.630900
C2121	C212	0.907900	0.583000	0.258100
C2131	C213	0.376100	0.067400	0.126100
C2141	C214	0.266000	0.015700	0.601400
C2151	C215	0.498400	0.180900	0.300600
C2161	C216	0.959200	0.663000	0.156400
C2171	C217	0.297400	0.657400	0.827200
C2181	C218	0.223800	0.114900	0.061600
C2191	C219	0.655700	0.464300	0.434700
C2201	C220	0.983700	0.934000	0.384700
C2211	C221	0.040800	0.337000	0.843600
C2221	C222	0.472100	0.490800	0.942100
C2231	C223	0.108300	0.184200	0.100100
C2241	C224	0.781100	0.073200	0.821200
C2251	C225	0.012000	0.385400	0.871800
C2261	C226	0.598000	0.462400	0.569600
C2271	C227	0.347900	0.577400	0.299600
C2281	C228	0.895500	0.193600	0.463800
C2291	C229	0.840300	0.482200	0.696600
C2301	C230	0.527700	0.004700	0.560900
C2311	C231	0.149300	0.933200	0.807300
C2321	C232	0.706500	0.723500	0.262900
C2331	C233	0.365600	0.129400	0.959600
C2341	C234	0.090200	0.782000	0.499100
C2351	C235	0.809700	0.192800	0.425400
C2361	C236	0.215900	0.607100	0.382600
C2371	C237	0.411700	0.368200	0.752700
C2381	C238	0.244700	0.527600	0.831000
C2391	C239	0.158700	0.145900	0.539700
C2401	C240	0.847900	0.497300	0.130000
C2411	C241	0.383100	0.315900	0.747700
C2421	C242	0.387900	0.382200	0.151100
C2431	C243	0.937900	0.898000	0.102600
C2441	C244	0.434600	0.523700	0.908800
C2451	C245	0.992500	0.822900	0.399300
C2461	C246	0.071500	0.142000	0.247700
C2471	C247	0.623300	0.662200	0.572800
C2481	C248	0.565400	0.476300	0.091200
C2491	C249	0.178900	0.289300	0.238800
C2501	C250	0.801500	0.886300	0.432900
C2511	C251	0.103800	0.075500	0.009200
C2521	C252	0.262600	0.573200	0.351300
C2531	C253	0.755300	0.472400	0.169000
C2541	C254	0.880800	0.452100	0.018000
C2551	C255	0.167500	0.111700	0.086600
C2561	C256	0.019600	0.865300	0.288400
C2571	C257	0.267500	0.053100	0.051300
C2581	C258	0.258200	0.127800	0.950100
C2591	C259	0.958500	0.506100	0.350400
C2601	C260	0.909800	0.218000	0.500900
C2611	C261	0.205800	0.335900	0.645400
C2621	C262	0.652100	0.422600	0.700400
C2631	C263	0.953800	0.085700	0.079100
C2641	C264	0.855100	0.702300	0.392200
C2651	C265	0.255800	0.081600	0.267300
C2661	C266	0.107800	0.581300	0.299900
C2671	C267	0.170300	0.680800	0.927000
C2681	C268	0.872600	0.356400	0.054100
C2691	C269	0.053500	0.998500	0.631300
C2701	C270	0.455700	0.594900	0.391200
C2711	C271	0.045700	0.918200	0.392300
C2721	C272	0.049200	0.101000	0.035000
C2731	C273	0.771300	0.628800	0.382500
C2741	C274	0.336600	0.434500	0.547400
C2751	C275	0.434400	0.644100	0.419300
C2761	C276	0.445200	0.272100	0.066500
C2771	C277	0.698500	0.650900	0.563100
C2781	C278	0.023800	0.619900	0.960600
C2791	C279	0.615100	0.663000	0.943500
C2801	C280	0.950800	0.899000	0.965000
C2811	C281	0.129300	0.469900	0.899800
C2821	C282	0.980400	0.134700	0.711600
C2831	C283	0.098400	0.641400	0.683900
C2841	C284	0.535800	0.944900	0.542500
C2851	C285	0.236400	0.418000	0.915200
C2861	C286	0.634400	0.870600	0.040400
C2871	C287	0.604900	0.802400	0.253700
C2881	C288	0.891700	0.815800	0.899900
C2891	C289	0.404400	0.165300	0.855600
C2901	C290	0.595300	0.841200	0.360400
C2911	C291	0.882000	0.780400	0.180800
C2921	C292	0.611100	0.369800	0.313000
C2931	C293	0.081100	0.318700	0.910400
C2941	C294	0.733700	0.788900	0.632100
C2951	C295	0.241100	0.251500	0.215600
C2961	C296	0.044500	0.989400	0.039200
C2971	C297	0.436400	0.008600	0.242100
C2981	C298	0.164900	0.334500	0.578300
C2991	C299	0.821100	0.710700	0.761200
C3001	C300	0.633700	0.970400	0.076100
C3011	C301	0.664400	0.781300	0.636800
C3021	C302	0.197000	0.745700	0.696600
C3031	C303	0.918900	0.681300	0.089600
C3041	C304	0.015700	0.374800	0.323200
C3051	C305	0.609100	0.777400	0.415800
C3061	C306	0.588800	0.133800	0.807700
C3071	C307	0.891800	0.526400	0.251500
C3081	C308	0.403300	0.911800	0.263300
C3091	C309	0.293500	0.276500	0.737100
C3101	C310	0.844400	0.414700	0.034300
C3111	C311	0.488700	0.203800	0.608200
C3121	C312	0.879300	0.127600	0.809200
C3131	C313	0.228700	0.371200	0.617500
C3141	C314	0.173000	0.786100	0.539700
C3151	C315	0.402000	0.537600	0.430400
C3161	C316	0.097000	0.838900	0.286400
C3171	C317	0.155600	0.585300	0.965700
C3181	C318	0.565600	0.355900	0.580700
C3191	C319	0.230800	0.043800	0.568900
C3201	C320	0.025700	0.987400	0.209700
C3211	C321	0.420300	0.949700	0.235100
C3221	C322	0.222100	0.539200	0.248900
C3231	C323	0.390900	0.222600	0.584200
C3241	C324	0.558700	0.463600	0.602600
C3251	C325	0.243800	0.900500	0.669800
C3261	C326	0.307400	0.237800	0.230300
C3271	C327	0.336700	0.457500	0.662600
C3281	C328	0.231500	0.703600	0.375200
C3291	C329	0.331000	0.114200	0.828100
C3301	C330	0.472300	0.995300	0.439100
C3311	C331	0.517900	0.699100	0.779500
C3321	C332	0.669000	0.885800	0.171900
C3331	C333	0.955500	0.010600	0.960800
C3341	C334	0.984100	0.941200	0.949200
C3351	C335	0.692600	0.762200	0.769700
C3361	C336	0.167300	0.604200	0.249900
C3371	C337	0.344300	0.535700	0.565300
C3381	C338	0.041500	0.493900	0.649600
C3391	C339	0.111400	0.268200	0.884600
C3401	C340	0.616600	0.409600	0.544500
C3411	C341	0.595600	0.834700	0.144400
C3421	C342	0.364800	0.187500	0.613000
C3431	C343	0.324300	0.194900	0.979300
C3441	C344	0.305200	0.239200	0.829400
C3451	C345	0.832700	0.395800	0.750100
C3461	C346	0.861800	0.226700	0.721100
C3471	C347	0.702600	0.342600	0.172800
C3481	C348	0.737400	0.426800	0.648700
N11	N1	0.666900	0.787300	0.262100
N21	N2	0.141900	0.745400	0.472500
N31	N3	0.944900	0.194000	0.592100
N41	N4	0.241300	0.861300	0.174400
N51	N5	0.333100	0.212700	0.737900
N61	N6	0.946000	0.435300	0.022000
N71	N7	0.054000	0.564700	0.978000
N81	N8	0.600200	0.356000	0.549700
N91	N9	0.970000	0.622400	0.095100
N101	N10	0.030000	0.377600	0.904900
N111	N11	0.239200	0.791400	0.276400
N121	N12	0.830400	0.572200	0.078400
N131	N13	0.257100	0.219100	0.982600
N141	N14	0.882900	0.727500	0.810200
N151	N15	0.793400	0.630100	0.415600
N161	N16	0.034000	0.410800	0.753000
N171	N17	0.601800	0.588300	0.472300
N181	N18	0.450100	0.229000	0.582900
N191	N19	0.021900	0.485800	0.340500
N201	N20	0.055100	0.806000	0.407900
N211	N21	0.742900	0.780900	0.017400
N221	N22	0.198400	0.669700	0.391500
N231	N23	0.598400	0.035700	0.513200
N241	N24	0.117100	0.272500	0.189800
N251	N25	0.837700	0.890900	0.491500
N261	N26	0.978100	0.514200	0.659500
N271	N27	0.263800	0.989000	0.063100
N281	N28	0.393400	0.832100	0.220800
N291	N29	0.736200	0.011000	0.936900
N301	N30	0.966000	0.589200	0.247000
N311	N31	0.868700	0.992700	0.999800
N321	N32	0.858100	0.254600	0.527500
N331	N33	0.114000	0.621000	0.273100
N341	N34	0.618400	0.713600	0.146300
N351	N35	0.169600	0.427800	0.921600
N361	N36	0.401600	0.964300	0.486800
N371	N37	0.381600	0.286400	0.853700
N381	N38	0.398200	0.411700	0.527700
N391	N39	0.549900	0.771000	0.417100
N401	N40	0.745200	0.944000	0.700100
N411	N41	0.760800	0.208600	0.723600
N421	N42	0.801600	0.330300	0.608500
N431	N43	0.606600	0.167900	0.779200
N441	N44	0.758700	0.138700	0.825600
N451	N45	0.162300	0.109100	0.508500
N461	N46	0.886000	0.379000	0.726900
N471	N47	0.254800	0.056000	0.299900
N481	N48	0.399800	0.644000	0.450300
N491	N49	0.206600	0.369900	0.584400
N501	N50	0.131300	0.007300	0.000200
O11	O1	0.480800	0.479900	0.733730
O21	O2	0.566900	0.396600	0.229560
O31	O3	0.090800	0.413400	0.985400
O41	O4	0.624700	0.313000	0.048000
O51	O5	0.707100	0.077300	0.326800
O61	O6	0.623600	0.424600	0.080600
O71	O7	0.946000	0.135800	0.098500
O81	O8	0.585900	0.130400	0.106680
O91	O9	0.478700	0.694700	0.807900
O101	O10	0.187800	0.924700	0.691500
O111	O11	0.441800	0.487400	0.220220
O121	O12	0.457200	0.921200	0.586100
O131	O13	0.018100	0.137400	0.264600
O141	O14	0.370000	0.126900	0.121800
O151	O15	0.307100	0.269100	0.258500
O161	O16	0.039800	0.832700	0.826010
O171	O17	0.355800	0.629200	0.840800
O181	O18	0.553300	0.938300	0.648100
O191	O19	0.173200	0.775600	0.791560
O201	O20	0.292900	0.922700	0.673200
O211	O21	0.563600	0.950200	0.783900
O221	O22	0.116100	0.219800	0.664400
O231	O23	0.274400	0.396500	0.308000
O241	O24	0.546400	0.743600	0.776670
O251	O25	0.135300	0.902000	0.836300
O261	O26	0.021000	0.293500	0.735900
O271	O27	0.692900	0.730900	0.741500
O281	O28	0.438500	0.663200	0.879130
O291	O29	0.729200	0.392700	0.383800
O301	O30	0.112100	0.234700	0.785700
O311	O31	0.320900	0.408700	0.252400
O321	O32	0.639800	0.809400	0.786700
O331	O33	0.282200	0.890700	0.863850
O341	O34	0.017000	0.324400	0.130200
O351	O35	0.927900	0.257900	0.234400
O361	O36	0.531800	0.506400	0.665300
O371	O37	0.936700	0.935900	0.131600
O381	O38	0.979000	0.706500	0.264100
O391	O39	0.138800	0.921000	0.774970
O401	O40	0.542900	0.134700	0.317100
O411	O41	0.056400	0.702900	0.695900
O421	O42	0.474400	0.276700	0.512400
O431	O43	0.891500	0.899300	0.229550
O441	O44	0.276300	0.479500	0.670900
O451	O45	0.549200	0.986300	0.727300
O461	O46	0.139600	0.842800	0.598300
O471	O47	0.483500	0.741400	0.925600
O481	O48	0.434400	0.020100	0.116800
O491	O49	0.419600	0.320100	0.448500
O501	O50	0.738600	0.433300	0.258570
O511	O51	0.689700	0.042300	0.402900
O521	O52	0.198800	0.579200	0.820800
O531	O53	0.645700	0.389300	0.812000
O541	O54	0.252100	0.051600	0.630300
O551	O55	0.087800	0.946100	0.919000
O561	O56	0.379700	0.711600	0.233100
O571	O57	0.103500	0.233800	0.081300
O581	O58	0.466100	0.161800	0.278200
O591	O59	0.356400	0.000300	0.732100
O601	O60	0.775600	0.003800	0.257750
O611	O61	0.634700	0.940800	0.159400
O621	O62	0.488600	0.153700	0.462000
O631	O63	0.528800	0.061100	0.156000
O641	O64	0.752100	0.142700	0.354190
O651	O65	0.565600	0.979900	0.883200
O661	O66	0.960200	0.167300	0.173990
O671	O67	0.224400	0.996200	0.742250
O681	O68	0.414100	0.869600	0.893320
O691	O69	0.643600	0.999700	0.267900
O701	O70	0.416800	0.378600	0.318580
O711	O71	0.108500	0.100700	0.770450
O721	O72	0.389000	0.979600	0.656190
O731	O73	0.115700	0.984400	0.635400
O741	O74	0.833900	0.739500	0.298600
O751	O75	0.783400	0.043400	0.064100
O761	O76	0.441900	0.642300	0.691210
O771	O77	0.364200	0.597600	0.711100
O781	O78	0.634400	0.181600	0.414700
O791	O79	0.429600	0.004400	0.922500
O801	O80	0.511400	0.846300	0.538000
O811	O81	0.433100	0.603400	0.770440
O821	O82	0.662200	0.219400	0.128000
O831	O83	0.775300	0.177500	0.117000
O841	O84	0.521300	0.305300	0.192100
O851	O85	0.676000	0.948300	0.857500
O861	O86	0.446700	0.061700	0.351900
O871	O87	0.552600	0.513000	0.190900
O881	O88	0.392900	0.182500	0.381300
O891	O89	0.747900	0.948400	0.369700
O901	O90	0.580400	0.679900	0.551500
O911	O91	0.310300	0.957700	0.597100
O921	O92	0.261400	0.566700	0.741430
O931	O93	0.354300	0.610700	0.188000
O941	O94	0.635800	0.402400	0.288900
O951	O95	0.392300	0.342500	0.391900
O961	O96	0.943600	0.297100	0.304100
O971	O97	0.370700	0.429800	0.750000
O981	O98	0.449300	0.889300	0.965900
O991	O99	0.912200	0.053900	0.081000
O1001	O100	0.861200	0.079000	0.225030
O1011	O101	0.373400	0.494500	0.661100
O1021	O102	0.630000	0.873100	0.878200
O1031	O103	0.526200	0.577900	0.619900
O1041	O104	0.145300	0.160100	0.831100
O1051	O105	0.673400	0.993700	0.090200
O1061	O106	0.473500	0.352000	0.759800
O1071	O107	0.848000	0.195500	0.289500
O1081	O108	0.670800	0.023600	0.209460
O1091	O109	0.270800	0.607300	0.616200
O1101	O110	0.714700	0.875700	0.191900
O1111	O111	0.812200	0.075300	0.308500
O1121	O112	0.519200	0.520100	0.266270
O1131	O113	0.854700	0.839900	0.168900
O1141	O114	0.516500	0.258600	0.074400
O1151	O115	0.640300	0.483600	0.707100
O1161	O116	0.225600	0.125600	0.738640
O1171	O117	0.420800	0.846300	0.818120
O1181	O118	0.054700	0.811000	0.658000
O1191	O119	0.072100	0.742100	0.765600
O1201	O120	0.306200	0.506500	0.819300
O1211	O121	0.558200	0.512600	0.779780
O1221	O122	0.247900	0.857300	0.645810
O1231	O123	0.741200	0.225700	0.053900
O1241	O124	0.024100	0.956700	0.639700
O1251	O125	0.924300	0.818300	0.869000
O1261	O126	0.324000	0.051700	0.142500
O1271	O127	0.981900	0.862600	0.735400
O1281	O128	0.936100	0.066300	0.284630
O1291	O129	0.987200	0.955700	0.221800
O1301	O130	0.505600	0.215100	0.391940
O1311	O131	0.483900	0.244100	0.307340
O1321	O132	0.624800	0.387600	0.721100
O1331	O133	0.453600	0.256400	0.223330
O1341	O134	0.570400	0.995600	0.077500
O1351	O135	0.524800	0.348000	0.830900
O1361	O136	0.574800	0.677800	0.859300
O1371	O137	0.909200	0.586600	0.014600
O1381	O138	0.655400	0.739500	0.665300
O1391	O139	0.063900	0.933700	0.715370
O1401	O140	0.644700	0.349000	0.340690
O1411	O141	0.433800	0.078400	0.685400
O1421	O142	0.761400	0.971600	0.144560
O1431	O143	0.436400	0.049800	0.216100
O1441	O144	0.326600	0.006300	0.909800
O1451	O145	0.473800	0.422100	0.380100
O1461	O146	0.325600	0.119700	0.673400
O1471	O147	0.579200	0.153700	0.181880
O1481	O148	0.620300	0.288400	0.766900
O1491	O149	0.988000	0.950800	0.790900
O1501	O150	0.473100	0.521100	0.880000
O1511	O151	0.285300	0.124300	0.808100
O1521	O152	0.993900	0.823000	0.279500
O1531	O153	0.839800	0.387000	0.324300
O1541	O154	0.845200	0.918200	0.306310
O1551	O155	0.607700	0.657500	0.608100
O1561	O156	0.112600	0.080600	0.914000
O1571	O157	0.604600	0.160200	0.491200
O1581	O158	0.516100	0.755900	0.692660
O1591	O159	0.801200	0.420800	0.179200
O1601	O160	0.778700	0.258500	0.337000
O1611	O161	0.566200	0.921600	0.314600
O1621	O162	0.526500	0.648000	0.240200
O1631	O163	0.012000	0.049200	0.209100
O1641	O164	0.415000	0.425300	0.158600
O1651	O165	0.725600	0.603500	0.692000
O1661	O166	0.154800	0.081800	0.693690
O1671	O167	0.468200	0.493600	0.334700
O1681	O168	0.644200	0.370800	0.159200
O1691	O169	0.457100	0.865300	0.682900
O1701	O170	0.224700	0.822500	0.883000
O1711	O171	0.450800	0.013700	0.272700
O1721	O172	0.175000	0.978400	0.814800
O1731	O173	0.774400	0.874400	0.261360
O1741	O174	0.475200	0.652000	0.169100
O1751	O175	0.139000	0.730100	0.909600
O1761	O176	0.387800	0.775300	0.658120
O1771	O177	0.458600	0.187400	0.149210
O1781	O178	0.395400	0.839800	0.508800
O1791	O179	0.012800	0.044300	0.778200
O1801	O180	0.541400	0.812600	0.850790
O1811	O181	0.125400	0.594000	0.759100
O1821	O182	0.365600	0.818400	0.585300
O1831	O183	0.006100	0.177000	0.720500
O1841	O184	0.751000	0.299200	0.149900
O1851	O185	0.861000	0.269900	0.090400
O1861	O186	0.413300	0.691800	0.522100
O1871	O187	0.024900	0.636400	0.795400
O1881	O188	0.230500	0.661100	0.929400
O1891	O189	0.444700	0.081400	0.045100
O1901	O190	0.344600	0.260500	0.334700
O1911	O191	0.440500	0.690300	0.594930
O1921	O192	0.583200	0.621400	0.681420
O1931	O193	0.166100	0.260500	0.701400
O1941	O194	0.337800	0.780600	0.872000
O1951	O195	0.693800	0.493500	0.180700
O1961	O196	0.937500	0.349500	0.564300
O1971	O197	0.221300	0.741500	0.663000
O1981	O198	0.985400	0.927500	0.296800
O1991	O199	0.561500	0.336800	0.120870
O2001	O200	0.063300	0.064100	0.868400
O2011	O201	0.607100	0.817500	0.618700
O2021	O202	0.152000	0.804500	0.710500
O2031	O203	0.238600	0.028400	0.855440
O2041	O204	0.709100	0.354600	0.204570
O2051	O205	0.896500	0.766200	0.918700
O2061	O206	0.376400	0.575400	0.919400
O2071	O207	0.425200	0.322200	0.140700
O2081	O208	0.967400	0.491800	0.946800
O2091	O209	0.339600	0.646800	0.580600
O2101	O210	0.883900	0.780200	0.335600
O2111	O211	0.887900	0.765300	0.214300
O2121	O212	0.550700	0.110700	0.034100
O2131	O213	0.723700	0.520500	0.329100
O2141	O214	0.555300	0.918600	0.954900
O2151	O215	0.258800	0.774300	0.946100
O2161	O216	0.526900	0.478900	0.120000
O2171	O217	0.160200	0.613000	0.675700
O2181	O218	0.558100	0.357700	0.308790
O2191	O219	0.359700	0.516400	0.292900
O2201	O220	0.769500	0.338900	0.070600
O2211	O221	0.674400	0.880300	0.326600
O2221	O222	0.945300	0.189000	0.342000
O2231	O223	0.032600	0.508200	0.053200
O2241	O224	0.290900	0.645400	0.795430
O2251	O225	0.679100	0.591300	0.747600
O2261	O226	0.585000	0.574700	0.841400
O2271	O227	0.462900	0.343600	0.247800
O2281	O228	0.014600	0.072500	0.703200
O2291	O229	0.054000	0.864200	0.901500
O2301	O230	0.075700	0.181700	0.131000
O2311	O231	0.884300	0.015600	0.364600
O2321	O232	0.360200	0.190600	0.213300
O2331	O233	0.375300	0.687000	0.952000
O2341	O234	0.612200	0.224700	0.341880
O2351	O235	0.559500	0.309700	0.405070
O2361	O236	0.586700	0.308200	0.477900
O2371	O237	0.785000	0.305400	0.283610
O2381	O238	0.537100	0.656400	0.752200
O2391	O239	0.864700	0.098000	0.163700
O2401	O240	0.355300	0.651000	0.659310
O2411	O241	0.249200	0.779200	0.578500
O2421	O242	0.975100	0.363600	0.204600
O2431	O243	0.975900	0.043300	0.360300
O2441	O244	0.750800	0.220800	0.421500
O2451	O245	0.561500	0.054600	0.236060
O2461	O246	0.892600	0.296100	0.163800
O2471	O247	0.375200	0.612400	0.278900
O2481	O248	0.874600	0.406000	0.240900
O2491	O249	0.062500	0.650500	0.435700
O2501	O250	0.660400	0.353200	0.419400
O2511	O251	0.717800	0.109300	0.136150
O2521	O252	0.249000	0.700800	0.850100
O2531	O253	0.075600	0.169800	0.217000
O2541	O254	0.444600	0.205000	0.071900
O2551	O255	0.533900	0.838200	0.721800
O2561	O256	0.365300	0.059200	0.840600
O2571	O257	0.825000	0.021600	0.185200
O2581	O258	0.860400	0.157200	0.401700
O2591	O259	0.626600	0.505500	0.338900
O2601	O260	0.216600	0.956600	0.935900
O2611	O261	0.447400	0.487000	0.809100
O2621	O262	0.471200	0.938900	0.844000
O2631	O263	0.107400	0.703900	0.836200
O2641	O264	0.329200	0.976400	0.790540
O2651	O265	0.525600	0.723300	0.487600
O2661	O266	0.629300	0.570200	0.250000
O2671	O267	0.924400	0.830200	0.783000
O2681	O268	0.555400	0.795000	0.928100
O2691	O269	0.887400	0.919400	0.086000
O2701	O270	0.826800	0.224400	0.208440
O2711	O271	0.983000	0.675600	0.869800
O2721	O272	0.438500	0.945400	0.763940
O2731	O273	0.494400	0.784900	0.608060
O2741	O274	0.542800	0.078800	0.413900
O2751	O275	0.215000	0.694600	0.716390
O2761	O276	0.611000	0.020400	0.343810
