data_NABCIE_freeONLY_PM
_symmetry_space_group_name_H-M	'P1'
_cell_length_a	8.383700
_cell_length_b	8.383700
_cell_length_c	16.847300
_cell_angle_alpha	90.000000
_cell_angle_beta	90.000000
_cell_angle_gamma	90.000000
_symmetry_Int_Tables_number 1

loop_
_symmetry_equiv_pos_as_xyz
'x,y,z'

loop_
_atom_site_label
_atom_site_type_symbol
_atom_site_fract_x
_atom_site_fract_y
_atom_site_fract_z
Co11	Co1	0.500000	0.500000	0.750000
Co21	Co2	0.500000	0.500000	0.250000
H11	H1	0.538500	0.311400	0.911000
H21	H2	0.391200	0.172200	0.002800
H31	H3	0.995900	0.287200	0.879400
H41	H4	0.154800	0.426300	0.792200
H51	H5	0.103500	0.132100	0.061700
H61	H6	0.461500	0.688600	0.911000
H71	H7	0.608800	0.827800	0.002800
H81	H8	0.004100	0.712800	0.879400
H91	H9	0.845200	0.573700	0.792200
H101	H10	0.896500	0.867900	0.061700
H111	H11	0.311400	0.461500	0.089000
H121	H12	0.172200	0.608800	0.997200
H131	H13	0.287200	0.004100	0.120600
H141	H14	0.426300	0.845200	0.207800
H151	H15	0.132100	0.896500	0.938300
H161	H16	0.688600	0.538500	0.089000
H171	H17	0.827800	0.391200	0.997200
H181	H18	0.712800	0.995900	0.120600
H191	H19	0.573700	0.154800	0.207800
H201	H20	0.867900	0.103500	0.938300
H211	H21	0.538500	0.688600	0.411000
H221	H22	0.391200	0.827800	0.502800
H231	H23	0.995900	0.712800	0.379400
H241	H24	0.154800	0.573700	0.292200
H251	H25	0.103500	0.867900	0.561700
H261	H26	0.461500	0.311400	0.411000
H271	H27	0.608800	0.172200	0.502800
H281	H28	0.004100	0.287200	0.379400
H291	H29	0.845200	0.426300	0.292200
H301	H30	0.896500	0.132100	0.561700
H311	H31	0.311400	0.538500	0.589000
H321	H32	0.172200	0.391200	0.497200
H331	H33	0.287200	0.995900	0.620600
H341	H34	0.426300	0.154800	0.707800
H351	H35	0.132100	0.103500	0.438300
H361	H36	0.688600	0.461500	0.589000
H371	H37	0.827800	0.608800	0.497200
H381	H38	0.712800	0.004100	0.620600
H391	H39	0.573700	0.845200	0.707800
H401	H40	0.867900	0.896500	0.438300
C11	C1	0.427300	0.305500	0.904300
C21	C2	0.339810	0.221000	0.959590
C31	C3	0.174000	0.208230	0.950960
C41	C4	0.106980	0.289000	0.887060
C51	C5	0.203300	0.372200	0.834730
C61	C6	0.080710	0.102960	0.005900
C71	C7	0.572700	0.694500	0.904300
C81	C8	0.660190	0.779000	0.959590
C91	C9	0.826000	0.791770	0.950960
C101	C10	0.893020	0.711000	0.887060
C111	C11	0.796700	0.627800	0.834730
C121	C12	0.919290	0.897040	0.005900
C131	C13	0.305500	0.572700	0.095700
C141	C14	0.221000	0.660190	0.040410
C151	C15	0.208230	0.826000	0.049040
C161	C16	0.289000	0.893020	0.112940
C171	C17	0.372200	0.796700	0.165270
C181	C18	0.102960	0.919290	0.994100
C191	C19	0.694500	0.427300	0.095700
C201	C20	0.779000	0.339810	0.040410
C211	C21	0.791770	0.174000	0.049040
C221	C22	0.711000	0.106980	0.112940
C231	C23	0.627800	0.203300	0.165270
C241	C24	0.897040	0.080710	0.994100
C251	C25	0.427300	0.694500	0.404300
C261	C26	0.339810	0.779000	0.459590
C271	C27	0.174000	0.791770	0.450960
C281	C28	0.106980	0.711000	0.387060
C291	C29	0.203300	0.627800	0.334730
C301	C30	0.080710	0.897040	0.505900
C311	C31	0.572700	0.305500	0.404300
C321	C32	0.660190	0.221000	0.459590
C331	C33	0.826000	0.208230	0.450960
C341	C34	0.893020	0.289000	0.387060
C351	C35	0.796700	0.372200	0.334730
C361	C36	0.919290	0.102960	0.505900
C371	C37	0.305500	0.427300	0.595700
C381	C38	0.221000	0.339810	0.540410
C391	C39	0.208230	0.174000	0.549040
C401	C40	0.289000	0.106980	0.612940
C411	C41	0.372200	0.203300	0.665270
C421	C42	0.102960	0.080710	0.494100
C431	C43	0.694500	0.572700	0.595700
C441	C44	0.779000	0.660190	0.540410
C451	C45	0.791770	0.826000	0.549040
C461	C46	0.711000	0.893020	0.612940
C471	C47	0.627800	0.796700	0.665270
C481	C48	0.897040	0.919290	0.494100
N11	N1	0.362410	0.379520	0.841770
N21	N2	0.637590	0.620480	0.841770
N31	N3	0.379520	0.637590	0.158230
N41	N4	0.620480	0.362410	0.158230
N51	N5	0.362410	0.620480	0.341770
N61	N6	0.637590	0.379520	0.341770
N71	N7	0.379520	0.362410	0.658230
N81	N8	0.620480	0.637590	0.658230
F11	F1	0.332540	0.667460	0.750000
F21	F2	0.667460	0.332540	0.750000
F31	F3	0.667460	0.667460	0.250000
F41	F4	0.332540	0.332540	0.250000
