data_NABNOU_freeONLY_PM
_symmetry_space_group_name_H-M	'P1'
_cell_length_a	13.997000
_cell_length_b	20.103000
_cell_length_c	17.460000
_cell_angle_alpha	90.000000
_cell_angle_beta	100.201000
_cell_angle_gamma	90.000000
_symmetry_Int_Tables_number 1

loop_
_symmetry_equiv_pos_as_xyz
'x,y,z'

loop_
_atom_site_label
_atom_site_type_symbol
_atom_site_fract_x
_atom_site_fract_y
_atom_site_fract_z
Cd11	Cd1	0.137090	0.420650	0.927450
O11	O1	0.971000	0.443200	0.892500
H11	H1	0.956000	0.480000	0.915000
H21	H2	0.959000	0.448000	0.841700
N11	N1	0.133400	0.329800	0.844100
N21	N2	0.802800	0.081000	0.479200
C11	C1	0.117300	0.338600	0.767000
H31	H3	0.109300	0.382800	0.747500
C21	C2	0.111700	0.287200	0.714700
H41	H4	0.100500	0.296100	0.660400
C31	C3	0.122400	0.223400	0.740700
C41	C4	0.139000	0.212900	0.820800
H51	H5	0.146700	0.169100	0.841300
C51	C5	0.144200	0.266600	0.870000
H61	H6	0.156000	0.258900	0.924500
C61	C6	0.110500	0.150300	0.692200
H71	H7	0.161100	0.118000	0.715000
H81	H8	0.045600	0.130500	0.691100
C71	C7	0.122800	0.170300	0.620200
H91	H9	0.188700	0.188100	0.619600
H101	H10	0.073100	0.202900	0.596500
C81	C8	0.104900	0.090900	0.578000
H111	H11	0.143000	0.086400	0.535200
H121	H12	0.126600	0.056200	0.617000
C91	C9	0.837300	0.048400	0.542800
H131	H13	0.792800	0.022900	0.565800
C101	C10	0.929800	0.048000	0.578000
H141	H14	0.948900	0.024000	0.625000
C111	C11	0.997600	0.082800	0.545500
C121	C12	0.965100	0.116800	0.479000
H151	H15	0.010000	0.141400	0.455600
C131	C13	0.863800	0.116800	0.443700
H161	H16	0.841200	0.140900	0.397300
O21	O2	0.112500	0.335400	0.025200
O31	O3	0.113200	0.441600	0.053500
O41	O4	0.126400	0.170900	0.235400
H171	H17	0.151300	0.135500	0.255300
O51	O5	0.139400	0.204000	0.358200
O61	O6	0.165700	0.514800	0.322700
O71	O7	0.129300	0.451900	0.414300
C141	C14	0.116800	0.365100	0.158000
C151	C15	0.124300	0.416400	0.211500
H181	H18	0.124400	0.461200	0.194200
C161	C16	0.131700	0.403000	0.289600
C171	C17	0.129200	0.337900	0.313900
H191	H19	0.131600	0.328800	0.367600
C181	C18	0.123200	0.285100	0.261600
C191	C19	0.117000	0.301400	0.181100
H201	H20	0.112900	0.266700	0.143600
C201	C20	0.112300	0.381100	0.072400
C211	C21	0.128000	0.215900	0.289700
C221	C22	0.142700	0.459200	0.345800
Cd21	Cd2	0.637090	0.920650	0.927450
O81	O8	0.471000	0.943200	0.892500
H211	H21	0.456000	0.980000	0.915000
H221	H22	0.459000	0.948000	0.841700
N31	N3	0.633400	0.829800	0.844100
N41	N4	0.302800	0.581000	0.479200
C231	C23	0.617300	0.838600	0.767000
H231	H23	0.609300	0.882800	0.747500
C241	C24	0.611700	0.787200	0.714700
H241	H24	0.600500	0.796100	0.660400
C251	C25	0.622400	0.723400	0.740700
C261	C26	0.639000	0.712900	0.820800
H251	H25	0.646700	0.669100	0.841300
C271	C27	0.644200	0.766600	0.870000
H261	H26	0.656000	0.758900	0.924500
C281	C28	0.610500	0.650300	0.692200
H271	H27	0.661100	0.618000	0.715000
H281	H28	0.545600	0.630500	0.691100
C291	C29	0.622800	0.670300	0.620200
H291	H29	0.688700	0.688100	0.619600
H301	H30	0.573100	0.702900	0.596500
C301	C30	0.604900	0.590900	0.578000
H311	H31	0.643000	0.586400	0.535200
H321	H32	0.626600	0.556200	0.617000
C311	C31	0.337300	0.548400	0.542800
H331	H33	0.292800	0.522900	0.565800
C321	C32	0.429800	0.548000	0.578000
H341	H34	0.448900	0.524000	0.625000
C331	C33	0.497600	0.582800	0.545500
C341	C34	0.465100	0.616800	0.479000
H351	H35	0.510000	0.641400	0.455600
C351	C35	0.363800	0.616800	0.443700
H361	H36	0.341200	0.640900	0.397300
O91	O9	0.612500	0.835400	0.025200
O101	O10	0.613200	0.941600	0.053500
O111	O11	0.626400	0.670900	0.235400
H371	H37	0.651300	0.635500	0.255300
O121	O12	0.639400	0.704000	0.358200
O131	O13	0.665700	0.014800	0.322700
O141	O14	0.629300	0.951900	0.414300
C361	C36	0.616800	0.865100	0.158000
C371	C37	0.624300	0.916400	0.211500
H381	H38	0.624400	0.961200	0.194200
C381	C38	0.631700	0.903000	0.289600
C391	C39	0.629200	0.837900	0.313900
H391	H39	0.631600	0.828800	0.367600
C401	C40	0.623200	0.785100	0.261600
C411	C41	0.617000	0.801400	0.181100
H401	H40	0.612900	0.766700	0.143600
C421	C42	0.612300	0.881100	0.072400
C431	C43	0.628000	0.715900	0.289700
C441	C44	0.642700	0.959200	0.345800
Cd31	Cd3	0.137090	0.579350	0.427450
O151	O15	0.971000	0.556800	0.392500
H411	H41	0.956000	0.520000	0.415000
H421	H42	0.959000	0.552000	0.341700
N51	N5	0.133400	0.670200	0.344100
N61	N6	0.802800	0.919000	0.979200
C451	C45	0.117300	0.661400	0.267000
H431	H43	0.109300	0.617200	0.247500
C461	C46	0.111700	0.712800	0.214700
H441	H44	0.100500	0.703900	0.160400
C471	C47	0.122400	0.776600	0.240700
C481	C48	0.139000	0.787100	0.320800
H451	H45	0.146700	0.830900	0.341300
C491	C49	0.144200	0.733400	0.370000
H461	H46	0.156000	0.741100	0.424500
C501	C50	0.110500	0.849700	0.192200
H471	H47	0.161100	0.882000	0.215000
H481	H48	0.045600	0.869500	0.191100
C511	C51	0.122800	0.829700	0.120200
H491	H49	0.188700	0.811900	0.119600
H501	H50	0.073100	0.797100	0.096500
C521	C52	0.104900	0.909100	0.078000
H511	H51	0.143000	0.913600	0.035200
H521	H52	0.126600	0.943800	0.117000
C531	C53	0.837300	0.951600	0.042800
H531	H53	0.792800	0.977100	0.065800
C541	C54	0.929800	0.952000	0.078000
H541	H54	0.948900	0.976000	0.125000
C551	C55	0.997600	0.917200	0.045500
C561	C56	0.965100	0.883200	0.979000
H551	H55	0.010000	0.858600	0.955600
C571	C57	0.863800	0.883200	0.943700
H561	H56	0.841200	0.859100	0.897300
O161	O16	0.112500	0.664600	0.525200
O171	O17	0.113200	0.558400	0.553500
O181	O18	0.126400	0.829100	0.735400
H571	H57	0.151300	0.864500	0.755300
O191	O19	0.139400	0.796000	0.858200
O201	O20	0.165700	0.485200	0.822700
O211	O21	0.129300	0.548100	0.914300
C581	C58	0.116800	0.634900	0.658000
C591	C59	0.124300	0.583600	0.711500
H581	H58	0.124400	0.538800	0.694200
C601	C60	0.131700	0.597000	0.789600
C611	C61	0.129200	0.662100	0.813900
H591	H59	0.131600	0.671200	0.867600
C621	C62	0.123200	0.714900	0.761600
C631	C63	0.117000	0.698600	0.681100
H601	H60	0.112900	0.733300	0.643600
C641	C64	0.112300	0.618900	0.572400
C651	C65	0.128000	0.784100	0.789700
C661	C66	0.142700	0.540800	0.845800
Cd41	Cd4	0.637090	0.079350	0.427450
O221	O22	0.471000	0.056800	0.392500
H611	H61	0.456000	0.020000	0.415000
H621	H62	0.459000	0.052000	0.341700
N71	N7	0.633400	0.170200	0.344100
N81	N8	0.302800	0.419000	0.979200
C671	C67	0.617300	0.161400	0.267000
H631	H63	0.609300	0.117200	0.247500
C681	C68	0.611700	0.212800	0.214700
H641	H64	0.600500	0.203900	0.160400
C691	C69	0.622400	0.276600	0.240700
C701	C70	0.639000	0.287100	0.320800
H651	H65	0.646700	0.330900	0.341300
C711	C71	0.644200	0.233400	0.370000
H661	H66	0.656000	0.241100	0.424500
C721	C72	0.610500	0.349700	0.192200
H671	H67	0.661100	0.382000	0.215000
H681	H68	0.545600	0.369500	0.191100
C731	C73	0.622800	0.329700	0.120200
H691	H69	0.688700	0.311900	0.119600
H701	H70	0.573100	0.297100	0.096500
C741	C74	0.604900	0.409100	0.078000
H711	H71	0.643000	0.413600	0.035200
H721	H72	0.626600	0.443800	0.117000
C751	C75	0.337300	0.451600	0.042800
H731	H73	0.292800	0.477100	0.065800
C761	C76	0.429800	0.452000	0.078000
H741	H74	0.448900	0.476000	0.125000
C771	C77	0.497600	0.417200	0.045500
C781	C78	0.465100	0.383200	0.979000
H751	H75	0.510000	0.358600	0.955600
C791	C79	0.363800	0.383200	0.943700
H761	H76	0.341200	0.359100	0.897300
O231	O23	0.612500	0.164600	0.525200
O241	O24	0.613200	0.058400	0.553500
O251	O25	0.626400	0.329100	0.735400
H771	H77	0.651300	0.364500	0.755300
O261	O26	0.639400	0.296000	0.858200
O271	O27	0.665700	0.985200	0.822700
O281	O28	0.629300	0.048100	0.914300
C801	C80	0.616800	0.134900	0.658000
C811	C81	0.624300	0.083600	0.711500
H781	H78	0.624400	0.038800	0.694200
C821	C82	0.631700	0.097000	0.789600
C831	C83	0.629200	0.162100	0.813900
H791	H79	0.631600	0.171200	0.867600
C841	C84	0.623200	0.214900	0.761600
C851	C85	0.617000	0.198600	0.681100
H801	H80	0.612900	0.233300	0.643600
C861	C86	0.612300	0.118900	0.572400
C871	C87	0.628000	0.284100	0.789700
C881	C88	0.642700	0.040800	0.845800
Cd51	Cd5	0.862910	0.420650	0.572550
O291	O29	0.029000	0.443200	0.607500
H811	H81	0.044000	0.480000	0.585000
H821	H82	0.041000	0.448000	0.658300
N91	N9	0.866600	0.329800	0.655900
N101	N10	0.197200	0.081000	0.020800
C891	C89	0.882700	0.338600	0.733000
H831	H83	0.890700	0.382800	0.752500
C901	C90	0.888300	0.287200	0.785300
H841	H84	0.899500	0.296100	0.839600
C911	C91	0.877600	0.223400	0.759300
C921	C92	0.861000	0.212900	0.679200
H851	H85	0.853300	0.169100	0.658700
C931	C93	0.855800	0.266600	0.630000
H861	H86	0.844000	0.258900	0.575500
C941	C94	0.889500	0.150300	0.807800
H871	H87	0.838900	0.118000	0.785000
H881	H88	0.954400	0.130500	0.808900
C951	C95	0.877200	0.170300	0.879800
H891	H89	0.811300	0.188100	0.880400
H901	H90	0.926900	0.202900	0.903500
C961	C96	0.895100	0.090900	0.922000
H911	H91	0.857000	0.086400	0.964800
H921	H92	0.873400	0.056200	0.883000
C971	C97	0.162700	0.048400	0.957200
H931	H93	0.207200	0.022900	0.934200
C981	C98	0.070200	0.048000	0.922000
H941	H94	0.051100	0.024000	0.875000
C991	C99	0.002400	0.082800	0.954500
C1001	C100	0.034900	0.116800	0.021000
H951	H95	0.990000	0.141400	0.044400
C1011	C101	0.136200	0.116800	0.056300
H961	H96	0.158800	0.140900	0.102700
O301	O30	0.887500	0.335400	0.474800
O311	O31	0.886800	0.441600	0.446500
O321	O32	0.873600	0.170900	0.264600
H971	H97	0.848700	0.135500	0.244700
O331	O33	0.860600	0.204000	0.141800
O341	O34	0.834300	0.514800	0.177300
O351	O35	0.870700	0.451900	0.085700
C1021	C102	0.883200	0.365100	0.342000
C1031	C103	0.875700	0.416400	0.288500
H981	H98	0.875600	0.461200	0.305800
C1041	C104	0.868300	0.403000	0.210400
C1051	C105	0.870800	0.337900	0.186100
H991	H99	0.868400	0.328800	0.132400
C1061	C106	0.876800	0.285100	0.238400
C1071	C107	0.883000	0.301400	0.318900
H1001	H100	0.887100	0.266700	0.356400
C1081	C108	0.887700	0.381100	0.427600
C1091	C109	0.872000	0.215900	0.210300
C1101	C110	0.857300	0.459200	0.154200
Cd61	Cd6	0.362910	0.920650	0.572550
O361	O36	0.529000	0.943200	0.607500
H1011	H101	0.544000	0.980000	0.585000
H1021	H102	0.541000	0.948000	0.658300
N111	N11	0.366600	0.829800	0.655900
N121	N12	0.697200	0.581000	0.020800
C1111	C111	0.382700	0.838600	0.733000
H1031	H103	0.390700	0.882800	0.752500
C1121	C112	0.388300	0.787200	0.785300
H1041	H104	0.399500	0.796100	0.839600
C1131	C113	0.377600	0.723400	0.759300
C1141	C114	0.361000	0.712900	0.679200
H1051	H105	0.353300	0.669100	0.658700
C1151	C115	0.355800	0.766600	0.630000
H1061	H106	0.344000	0.758900	0.575500
C1161	C116	0.389500	0.650300	0.807800
H1071	H107	0.338900	0.618000	0.785000
H1081	H108	0.454400	0.630500	0.808900
C1171	C117	0.377200	0.670300	0.879800
H1091	H109	0.311300	0.688100	0.880400
H1101	H110	0.426900	0.702900	0.903500
C1181	C118	0.395100	0.590900	0.922000
H1111	H111	0.357000	0.586400	0.964800
H1121	H112	0.373400	0.556200	0.883000
C1191	C119	0.662700	0.548400	0.957200
H1131	H113	0.707200	0.522900	0.934200
C1201	C120	0.570200	0.548000	0.922000
H1141	H114	0.551100	0.524000	0.875000
C1211	C121	0.502400	0.582800	0.954500
C1221	C122	0.534900	0.616800	0.021000
H1151	H115	0.490000	0.641400	0.044400
C1231	C123	0.636200	0.616800	0.056300
H1161	H116	0.658800	0.640900	0.102700
O371	O37	0.387500	0.835400	0.474800
O381	O38	0.386800	0.941600	0.446500
O391	O39	0.373600	0.670900	0.264600
H1171	H117	0.348700	0.635500	0.244700
O401	O40	0.360600	0.704000	0.141800
O411	O41	0.334300	0.014800	0.177300
O421	O42	0.370700	0.951900	0.085700
C1241	C124	0.383200	0.865100	0.342000
C1251	C125	0.375700	0.916400	0.288500
H1181	H118	0.375600	0.961200	0.305800
C1261	C126	0.368300	0.903000	0.210400
C1271	C127	0.370800	0.837900	0.186100
H1191	H119	0.368400	0.828800	0.132400
C1281	C128	0.376800	0.785100	0.238400
C1291	C129	0.383000	0.801400	0.318900
H1201	H120	0.387100	0.766700	0.356400
C1301	C130	0.387700	0.881100	0.427600
C1311	C131	0.372000	0.715900	0.210300
C1321	C132	0.357300	0.959200	0.154200
Cd71	Cd7	0.862910	0.579350	0.072550
O431	O43	0.029000	0.556800	0.107500
H1211	H121	0.044000	0.520000	0.085000
H1221	H122	0.041000	0.552000	0.158300
N131	N13	0.866600	0.670200	0.155900
N141	N14	0.197200	0.919000	0.520800
C1331	C133	0.882700	0.661400	0.233000
H1231	H123	0.890700	0.617200	0.252500
C1341	C134	0.888300	0.712800	0.285300
H1241	H124	0.899500	0.703900	0.339600
C1351	C135	0.877600	0.776600	0.259300
C1361	C136	0.861000	0.787100	0.179200
H1251	H125	0.853300	0.830900	0.158700
C1371	C137	0.855800	0.733400	0.130000
H1261	H126	0.844000	0.741100	0.075500
C1381	C138	0.889500	0.849700	0.307800
H1271	H127	0.838900	0.882000	0.285000
H1281	H128	0.954400	0.869500	0.308900
C1391	C139	0.877200	0.829700	0.379800
H1291	H129	0.811300	0.811900	0.380400
H1301	H130	0.926900	0.797100	0.403500
C1401	C140	0.895100	0.909100	0.422000
H1311	H131	0.857000	0.913600	0.464800
H1321	H132	0.873400	0.943800	0.383000
C1411	C141	0.162700	0.951600	0.457200
H1331	H133	0.207200	0.977100	0.434200
C1421	C142	0.070200	0.952000	0.422000
H1341	H134	0.051100	0.976000	0.375000
C1431	C143	0.002400	0.917200	0.454500
C1441	C144	0.034900	0.883200	0.521000
H1351	H135	0.990000	0.858600	0.544400
C1451	C145	0.136200	0.883200	0.556300
H1361	H136	0.158800	0.859100	0.602700
O441	O44	0.887500	0.664600	0.974800
O451	O45	0.886800	0.558400	0.946500
O461	O46	0.873600	0.829100	0.764600
H1371	H137	0.848700	0.864500	0.744700
O471	O47	0.860600	0.796000	0.641800
O481	O48	0.834300	0.485200	0.677300
O491	O49	0.870700	0.548100	0.585700
C1461	C146	0.883200	0.634900	0.842000
C1471	C147	0.875700	0.583600	0.788500
H1381	H138	0.875600	0.538800	0.805800
C1481	C148	0.868300	0.597000	0.710400
C1491	C149	0.870800	0.662100	0.686100
H1391	H139	0.868400	0.671200	0.632400
C1501	C150	0.876800	0.714900	0.738400
C1511	C151	0.883000	0.698600	0.818900
H1401	H140	0.887100	0.733300	0.856400
C1521	C152	0.887700	0.618900	0.927600
C1531	C153	0.872000	0.784100	0.710300
C1541	C154	0.857300	0.540800	0.654200
Cd81	Cd8	0.362910	0.079350	0.072550
O501	O50	0.529000	0.056800	0.107500
H1411	H141	0.544000	0.020000	0.085000
H1421	H142	0.541000	0.052000	0.158300
N151	N15	0.366600	0.170200	0.155900
N161	N16	0.697200	0.419000	0.520800
C1551	C155	0.382700	0.161400	0.233000
H1431	H143	0.390700	0.117200	0.252500
C1561	C156	0.388300	0.212800	0.285300
H1441	H144	0.399500	0.203900	0.339600
C1571	C157	0.377600	0.276600	0.259300
C1581	C158	0.361000	0.287100	0.179200
H1451	H145	0.353300	0.330900	0.158700
C1591	C159	0.355800	0.233400	0.130000
H1461	H146	0.344000	0.241100	0.075500
C1601	C160	0.389500	0.349700	0.307800
H1471	H147	0.338900	0.382000	0.285000
H1481	H148	0.454400	0.369500	0.308900
C1611	C161	0.377200	0.329700	0.379800
H1491	H149	0.311300	0.311900	0.380400
H1501	H150	0.426900	0.297100	0.403500
C1621	C162	0.395100	0.409100	0.422000
H1511	H151	0.357000	0.413600	0.464800
H1521	H152	0.373400	0.443800	0.383000
C1631	C163	0.662700	0.451600	0.457200
H1531	H153	0.707200	0.477100	0.434200
C1641	C164	0.570200	0.452000	0.422000
H1541	H154	0.551100	0.476000	0.375000
C1651	C165	0.502400	0.417200	0.454500
C1661	C166	0.534900	0.383200	0.521000
H1551	H155	0.490000	0.358600	0.544400
C1671	C167	0.636200	0.383200	0.556300
H1561	H156	0.658800	0.359100	0.602700
O511	O51	0.387500	0.164600	0.974800
O521	O52	0.386800	0.058400	0.946500
O531	O53	0.373600	0.329100	0.764600
H1571	H157	0.348700	0.364500	0.744700
O541	O54	0.360600	0.296000	0.641800
O551	O55	0.334300	0.985200	0.677300
O561	O56	0.370700	0.048100	0.585700
C1681	C168	0.383200	0.134900	0.842000
C1691	C169	0.375700	0.083600	0.788500
H1581	H158	0.375600	0.038800	0.805800
C1701	C170	0.368300	0.097000	0.710400
C1711	C171	0.370800	0.162100	0.686100
H1591	H159	0.368400	0.171200	0.632400
C1721	C172	0.376800	0.214900	0.738400
C1731	C173	0.383000	0.198600	0.818900
H1601	H160	0.387100	0.233300	0.856400
C1741	C174	0.387700	0.118900	0.927600
C1751	C175	0.372000	0.284100	0.710300
C1761	C176	0.357300	0.040800	0.654200
