data_NADNEM_freeONLY_PM
_symmetry_space_group_name_H-M	'P1'
_cell_length_a	15.659700
_cell_length_b	15.659700
_cell_length_c	15.659700
_cell_angle_alpha	90.000000
_cell_angle_beta	90.000000
_cell_angle_gamma	90.000000
_symmetry_Int_Tables_number 1

loop_
_symmetry_equiv_pos_as_xyz
'x,y,z'

loop_
_atom_site_label
_atom_site_type_symbol
_atom_site_fract_x
_atom_site_fract_y
_atom_site_fract_z
N11	N1	0.585260	0.194510	0.557290
C11	C1	0.582700	0.136640	0.487150
C21	C2	0.517600	0.142700	0.428200
H11	H1	0.477600	0.186400	0.431800
C31	C3	0.671500	0.463000	0.954000
C41	C4	0.654300	0.548300	0.960600
H21	H2	0.608500	0.571200	0.930500
C51	C5	0.739700	0.430800	0.999600
H31	H3	0.753600	0.373200	0.996000
C61	C6	0.703400	0.600700	0.010800
H41	H4	0.691000	0.658700	0.013900
C71	C7	0.769900	0.568300	0.055700
H51	H5	0.803200	0.603900	0.089700
C81	C8	0.787300	0.485200	0.051000
H61	H6	0.832300	0.463100	0.082800
C91	C9	0.650640	0.208000	0.612070
H71	H7	0.704200	0.183000	0.606400
N21	N2	0.630110	0.260150	0.673780
C101	C10	0.546500	0.281800	0.657600
H81	H8	0.514000	0.318600	0.691100
C111	C11	0.518500	0.242700	0.587400
H91	H9	0.464400	0.247200	0.563400
N31	N3	0.914740	0.805490	0.057290
C121	C12	0.917300	0.863360	0.987150
C131	C13	0.982400	0.857300	0.928200
H101	H10	0.022400	0.813600	0.931800
C141	C14	0.828500	0.537000	0.454000
C151	C15	0.845700	0.451700	0.460600
H111	H11	0.891500	0.428800	0.430500
C161	C16	0.760300	0.569200	0.499600
H121	H12	0.746400	0.626800	0.496000
C171	C17	0.796600	0.399300	0.510800
H131	H13	0.809000	0.341300	0.513900
C181	C18	0.730100	0.431700	0.555700
H141	H14	0.696800	0.396100	0.589700
C191	C19	0.712700	0.514800	0.551000
H151	H15	0.667700	0.536900	0.582800
C201	C20	0.849360	0.792000	0.112070
H161	H16	0.795800	0.817000	0.106400
N41	N4	0.869890	0.739850	0.173780
C211	C21	0.953500	0.718200	0.157600
H171	H17	0.986000	0.681400	0.191100
C221	C22	0.981500	0.757300	0.087400
H181	H18	0.035600	0.752800	0.063400
N51	N5	0.414740	0.694510	0.942710
C231	C23	0.417300	0.636640	0.012850
C241	C24	0.482400	0.642700	0.071800
H191	H19	0.522400	0.686400	0.068200
C251	C25	0.328500	0.963000	0.546000
C261	C26	0.345700	0.048300	0.539400
H201	H20	0.391500	0.071200	0.569500
C271	C27	0.260300	0.930800	0.500400
H211	H21	0.246400	0.873200	0.504000
C281	C28	0.296600	0.100700	0.489200
H221	H22	0.309000	0.158700	0.486100
C291	C29	0.230100	0.068300	0.444300
H231	H23	0.196800	0.103900	0.410300
C301	C30	0.212700	0.985200	0.449000
H241	H24	0.167700	0.963100	0.417200
C311	C31	0.349360	0.708000	0.887930
H251	H25	0.295800	0.683000	0.893600
N61	N6	0.369890	0.760150	0.826220
C321	C32	0.453500	0.781800	0.842400
H261	H26	0.486000	0.818600	0.808900
C331	C33	0.481500	0.742700	0.912600
H271	H27	0.535600	0.747200	0.936600
N71	N7	0.085260	0.305490	0.442710
C341	C34	0.082700	0.363360	0.512850
C351	C35	0.017600	0.357300	0.571800
H281	H28	0.977600	0.313600	0.568200
C361	C36	0.171500	0.037000	0.046000
C371	C37	0.154300	0.951700	0.039400
H291	H29	0.108500	0.928800	0.069500
C381	C38	0.239700	0.069200	0.000400
H301	H30	0.253600	0.126800	0.004000
C391	C39	0.203400	0.899300	0.989200
H311	H31	0.191000	0.841300	0.986100
C401	C40	0.269900	0.931700	0.944300
H321	H32	0.303200	0.896100	0.910300
C411	C41	0.287300	0.014800	0.949000
H331	H33	0.332300	0.036900	0.917200
C421	C42	0.150640	0.292000	0.387930
H341	H34	0.204200	0.317000	0.393600
N81	N8	0.130110	0.239850	0.326220
C431	C43	0.046500	0.218200	0.342400
H351	H35	0.014000	0.181400	0.308900
C441	C44	0.018500	0.257300	0.412600
H361	H36	0.964400	0.252800	0.436600
N91	N9	0.557290	0.585260	0.194510
C451	C45	0.487150	0.582700	0.136640
C461	C46	0.428200	0.517600	0.142700
H371	H37	0.431800	0.477600	0.186400
C471	C47	0.954000	0.671500	0.463000
C481	C48	0.960600	0.654300	0.548300
H381	H38	0.930500	0.608500	0.571200
C491	C49	0.999600	0.739700	0.430800
H391	H39	0.996000	0.753600	0.373200
C501	C50	0.010800	0.703400	0.600700
H401	H40	0.013900	0.691000	0.658700
C511	C51	0.055700	0.769900	0.568300
H411	H41	0.089700	0.803200	0.603900
C521	C52	0.051000	0.787300	0.485200
H421	H42	0.082800	0.832300	0.463100
C531	C53	0.612070	0.650640	0.208000
H431	H43	0.606400	0.704200	0.183000
N101	N10	0.673780	0.630110	0.260150
C541	C54	0.657600	0.546500	0.281800
H441	H44	0.691100	0.514000	0.318600
C551	C55	0.587400	0.518500	0.242700
H451	H45	0.563400	0.464400	0.247200
N111	N11	0.057290	0.914740	0.805490
C561	C56	0.987150	0.917300	0.863360
C571	C57	0.928200	0.982400	0.857300
H461	H46	0.931800	0.022400	0.813600
C581	C58	0.454000	0.828500	0.537000
C591	C59	0.460600	0.845700	0.451700
H471	H47	0.430500	0.891500	0.428800
C601	C60	0.499600	0.760300	0.569200
H481	H48	0.496000	0.746400	0.626800
C611	C61	0.510800	0.796600	0.399300
H491	H49	0.513900	0.809000	0.341300
C621	C62	0.555700	0.730100	0.431700
H501	H50	0.589700	0.696800	0.396100
C631	C63	0.551000	0.712700	0.514800
H511	H51	0.582800	0.667700	0.536900
C641	C64	0.112070	0.849360	0.792000
H521	H52	0.106400	0.795800	0.817000
N121	N12	0.173780	0.869890	0.739850
C651	C65	0.157600	0.953500	0.718200
H531	H53	0.191100	0.986000	0.681400
C661	C66	0.087400	0.981500	0.757300
H541	H54	0.063400	0.035600	0.752800
N131	N13	0.942710	0.414740	0.694510
C671	C67	0.012850	0.417300	0.636640
C681	C68	0.071800	0.482400	0.642700
H551	H55	0.068200	0.522400	0.686400
C691	C69	0.546000	0.328500	0.963000
C701	C70	0.539400	0.345700	0.048300
H561	H56	0.569500	0.391500	0.071200
C711	C71	0.500400	0.260300	0.930800
H571	H57	0.504000	0.246400	0.873200
C721	C72	0.489200	0.296600	0.100700
H581	H58	0.486100	0.309000	0.158700
C731	C73	0.444300	0.230100	0.068300
H591	H59	0.410300	0.196800	0.103900
C741	C74	0.449000	0.212700	0.985200
H601	H60	0.417200	0.167700	0.963100
C751	C75	0.887930	0.349360	0.708000
H611	H61	0.893600	0.295800	0.683000
N141	N14	0.826220	0.369890	0.760150
C761	C76	0.842400	0.453500	0.781800
H621	H62	0.808900	0.486000	0.818600
C771	C77	0.912600	0.481500	0.742700
H631	H63	0.936600	0.535600	0.747200
N151	N15	0.442710	0.085260	0.305490
C781	C78	0.512850	0.082700	0.363360
C791	C79	0.571800	0.017600	0.357300
H641	H64	0.568200	0.977600	0.313600
C801	C80	0.046000	0.171500	0.037000
C811	C81	0.039400	0.154300	0.951700
H651	H65	0.069500	0.108500	0.928800
C821	C82	0.000400	0.239700	0.069200
H661	H66	0.004000	0.253600	0.126800
C831	C83	0.989200	0.203400	0.899300
H671	H67	0.986100	0.191000	0.841300
C841	C84	0.944300	0.269900	0.931700
H681	H68	0.910300	0.303200	0.896100
C851	C85	0.949000	0.287300	0.014800
H691	H69	0.917200	0.332300	0.036900
C861	C86	0.387930	0.150640	0.292000
H701	H70	0.393600	0.204200	0.317000
N161	N16	0.326220	0.130110	0.239850
C871	C87	0.342400	0.046500	0.218200
H711	H71	0.308900	0.014000	0.181400
C881	C88	0.412600	0.018500	0.257300
H721	H72	0.436600	0.964400	0.252800
N171	N17	0.194510	0.557290	0.585260
C891	C89	0.136640	0.487150	0.582700
C901	C90	0.142700	0.428200	0.517600
H731	H73	0.186400	0.431800	0.477600
C911	C91	0.463000	0.954000	0.671500
C921	C92	0.548300	0.960600	0.654300
H741	H74	0.571200	0.930500	0.608500
C931	C93	0.430800	0.999600	0.739700
H751	H75	0.373200	0.996000	0.753600
C941	C94	0.600700	0.010800	0.703400
H761	H76	0.658700	0.013900	0.691000
C951	C95	0.568300	0.055700	0.769900
H771	H77	0.603900	0.089700	0.803200
C961	C96	0.485200	0.051000	0.787300
H781	H78	0.463100	0.082800	0.832300
C971	C97	0.208000	0.612070	0.650640
H791	H79	0.183000	0.606400	0.704200
N181	N18	0.260150	0.673780	0.630110
C981	C98	0.281800	0.657600	0.546500
H801	H80	0.318600	0.691100	0.514000
C991	C99	0.242700	0.587400	0.518500
H811	H81	0.247200	0.563400	0.464400
N191	N19	0.805490	0.057290	0.914740
C1001	C100	0.863360	0.987150	0.917300
C1011	C101	0.857300	0.928200	0.982400
H821	H82	0.813600	0.931800	0.022400
C1021	C102	0.537000	0.454000	0.828500
C1031	C103	0.451700	0.460600	0.845700
H831	H83	0.428800	0.430500	0.891500
C1041	C104	0.569200	0.499600	0.760300
H841	H84	0.626800	0.496000	0.746400
C1051	C105	0.399300	0.510800	0.796600
H851	H85	0.341300	0.513900	0.809000
C1061	C106	0.431700	0.555700	0.730100
H861	H86	0.396100	0.589700	0.696800
C1071	C107	0.514800	0.551000	0.712700
H871	H87	0.536900	0.582800	0.667700
C1081	C108	0.792000	0.112070	0.849360
H881	H88	0.817000	0.106400	0.795800
N201	N20	0.739850	0.173780	0.869890
C1091	C109	0.718200	0.157600	0.953500
H891	H89	0.681400	0.191100	0.986000
C1101	C110	0.757300	0.087400	0.981500
H901	H90	0.752800	0.063400	0.035600
N211	N21	0.694510	0.942710	0.414740
C1111	C111	0.636640	0.012850	0.417300
C1121	C112	0.642700	0.071800	0.482400
H911	H91	0.686400	0.068200	0.522400
C1131	C113	0.963000	0.546000	0.328500
C1141	C114	0.048300	0.539400	0.345700
H921	H92	0.071200	0.569500	0.391500
C1151	C115	0.930800	0.500400	0.260300
H931	H93	0.873200	0.504000	0.246400
C1161	C116	0.100700	0.489200	0.296600
H941	H94	0.158700	0.486100	0.309000
C1171	C117	0.068300	0.444300	0.230100
H951	H95	0.103900	0.410300	0.196800
C1181	C118	0.985200	0.449000	0.212700
H961	H96	0.963100	0.417200	0.167700
C1191	C119	0.708000	0.887930	0.349360
H971	H97	0.683000	0.893600	0.295800
N221	N22	0.760150	0.826220	0.369890
C1201	C120	0.781800	0.842400	0.453500
H981	H98	0.818600	0.808900	0.486000
C1211	C121	0.742700	0.912600	0.481500
H991	H99	0.747200	0.936600	0.535600
N231	N23	0.305490	0.442710	0.085260
C1221	C122	0.363360	0.512850	0.082700
C1231	C123	0.357300	0.571800	0.017600
H1001	H100	0.313600	0.568200	0.977600
C1241	C124	0.037000	0.046000	0.171500
C1251	C125	0.951700	0.039400	0.154300
H1011	H101	0.928800	0.069500	0.108500
C1261	C126	0.069200	0.000400	0.239700
H1021	H102	0.126800	0.004000	0.253600
C1271	C127	0.899300	0.989200	0.203400
H1031	H103	0.841300	0.986100	0.191000
C1281	C128	0.931700	0.944300	0.269900
H1041	H104	0.896100	0.910300	0.303200
C1291	C129	0.014800	0.949000	0.287300
H1051	H105	0.036900	0.917200	0.332300
C1301	C130	0.292000	0.387930	0.150640
H1061	H106	0.317000	0.393600	0.204200
N241	N24	0.239850	0.326220	0.130110
C1311	C131	0.218200	0.342400	0.046500
H1071	H107	0.181400	0.308900	0.014000
C1321	C132	0.257300	0.412600	0.018500
H1081	H108	0.252800	0.436600	0.964400
Ag11	Ag1	0.702140	0.297860	0.797860
P11	P1	0.612280	0.387720	0.887720
Ag21	Ag2	0.797860	0.702140	0.297860
P21	P2	0.887720	0.612280	0.387720
Ag31	Ag3	0.297860	0.797860	0.702140
P31	P3	0.387720	0.887720	0.612280
Ag41	Ag4	0.202140	0.202140	0.202140
P41	P4	0.112280	0.112280	0.112280
