data_NAFRUI_freeONLY_PM
_symmetry_space_group_name_H-M	'P1'
_cell_length_a	16.855200
_cell_length_b	16.855200
_cell_length_c	16.855200
_cell_angle_alpha	90.000000
_cell_angle_beta	90.000000
_cell_angle_gamma	90.000000
_symmetry_Int_Tables_number 1

loop_
_symmetry_equiv_pos_as_xyz
'x,y,z'

loop_
_atom_site_label
_atom_site_type_symbol
_atom_site_fract_x
_atom_site_fract_y
_atom_site_fract_z
O11	O1	0.194400	0.517300	0.094600
O21	O2	0.694400	0.017300	0.594600
O31	O3	0.805600	0.482700	0.094600
O41	O4	0.305600	0.982700	0.594600
O51	O5	0.805600	0.517300	0.905400
O61	O6	0.305600	0.017300	0.405400
O71	O7	0.194400	0.482700	0.905400
O81	O8	0.694400	0.982700	0.405400
O91	O9	0.094600	0.194400	0.517300
O101	O10	0.594600	0.694400	0.017300
O111	O11	0.094600	0.805600	0.482700
O121	O12	0.594600	0.305600	0.982700
O131	O13	0.905400	0.805600	0.517300
O141	O14	0.405400	0.305600	0.017300
O151	O15	0.905400	0.194400	0.482700
O161	O16	0.405400	0.694400	0.982700
O171	O17	0.517300	0.094600	0.194400
O181	O18	0.017300	0.594600	0.694400
O191	O19	0.482700	0.094600	0.805600
O201	O20	0.982700	0.594600	0.305600
O211	O21	0.517300	0.905400	0.805600
O221	O22	0.017300	0.405400	0.305600
O231	O23	0.482700	0.905400	0.194400
O241	O24	0.982700	0.405400	0.694400
O251	O25	0.517300	0.194400	0.094600
O261	O26	0.017300	0.694400	0.594600
O271	O27	0.482700	0.805600	0.094600
O281	O28	0.982700	0.305600	0.594600
O291	O29	0.517300	0.805600	0.905400
O301	O30	0.017300	0.305600	0.405400
O311	O31	0.482700	0.194400	0.905400
O321	O32	0.982700	0.694400	0.405400
O331	O33	0.194400	0.094600	0.517300
O341	O34	0.694400	0.594600	0.017300
O351	O35	0.805600	0.094600	0.482700
O361	O36	0.305600	0.594600	0.982700
O371	O37	0.805600	0.905400	0.517300
O381	O38	0.305600	0.405400	0.017300
O391	O39	0.194400	0.905400	0.482700
O401	O40	0.694400	0.405400	0.982700
O411	O41	0.094600	0.517300	0.194400
O421	O42	0.594600	0.017300	0.694400
O431	O43	0.094600	0.482700	0.805600
O441	O44	0.594600	0.982700	0.305600
O451	O45	0.905400	0.517300	0.805600
O461	O46	0.405400	0.017300	0.305600
O471	O47	0.905400	0.482700	0.194400
O481	O48	0.405400	0.982700	0.694400
Ga11	Ga1	0.000000	0.500000	0.000000
Ga21	Ga2	0.500000	0.000000	0.500000
Ga31	Ga3	0.000000	0.000000	0.500000
Ga41	Ga4	0.500000	0.500000	0.000000
Ga51	Ga5	0.500000	0.000000	0.000000
Ga61	Ga6	0.000000	0.500000	0.500000
Ga71	Ga7	0.250000	0.500000	0.000000
Ga81	Ga8	0.750000	0.500000	0.000000
Ga91	Ga9	0.250000	0.000000	0.500000
Ga101	Ga10	0.000000	0.250000	0.500000
Ga111	Ga11	0.000000	0.750000	0.500000
Ga121	Ga12	0.500000	0.250000	0.000000
Ga131	Ga13	0.500000	0.000000	0.250000
Ga141	Ga14	0.500000	0.000000	0.750000
Ga151	Ga15	0.000000	0.500000	0.250000
Ga161	Ga16	0.500000	0.750000	0.000000
Ga171	Ga17	0.750000	0.000000	0.500000
Ga181	Ga18	0.000000	0.500000	0.750000
P11	P1	0.123610	0.566400	0.123610
O491	O49	0.058900	0.571600	0.058900
O501	O50	0.145800	0.648600	0.145800
P21	P2	0.623610	0.066400	0.623610
O511	O51	0.558900	0.071600	0.558900
O521	O52	0.645800	0.148600	0.645800
P31	P3	0.876390	0.433600	0.123610
O531	O53	0.941100	0.428400	0.058900
O541	O54	0.854200	0.351400	0.145800
P41	P4	0.376390	0.933600	0.623610
O551	O55	0.441100	0.928400	0.558900
O561	O56	0.354200	0.851400	0.645800
P51	P5	0.876390	0.566400	0.876390
O571	O57	0.941100	0.571600	0.941100
O581	O58	0.854200	0.648600	0.854200
P61	P6	0.376390	0.066400	0.376390
O591	O59	0.441100	0.071600	0.441100
O601	O60	0.354200	0.148600	0.354200
P71	P7	0.123610	0.433600	0.876390
O611	O61	0.058900	0.428400	0.941100
O621	O62	0.145800	0.351400	0.854200
P81	P8	0.623610	0.933600	0.376390
O631	O63	0.558900	0.928400	0.441100
O641	O64	0.645800	0.851400	0.354200
P91	P9	0.123610	0.123610	0.566400
O651	O65	0.058900	0.058900	0.571600
O661	O66	0.145800	0.145800	0.648600
P101	P10	0.623610	0.623610	0.066400
O671	O67	0.558900	0.558900	0.071600
O681	O68	0.645800	0.645800	0.148600
P111	P11	0.123610	0.876390	0.433600
O691	O69	0.058900	0.941100	0.428400
O701	O70	0.145800	0.854200	0.351400
P121	P12	0.623610	0.376390	0.933600
O711	O71	0.558900	0.441100	0.928400
O721	O72	0.645800	0.354200	0.851400
P131	P13	0.876390	0.876390	0.566400
O731	O73	0.941100	0.941100	0.571600
O741	O74	0.854200	0.854200	0.648600
P141	P14	0.376390	0.376390	0.066400
O751	O75	0.441100	0.441100	0.071600
O761	O76	0.354200	0.354200	0.148600
P151	P15	0.876390	0.123610	0.433600
O771	O77	0.941100	0.058900	0.428400
O781	O78	0.854200	0.145800	0.351400
P161	P16	0.376390	0.623610	0.933600
O791	O79	0.441100	0.558900	0.928400
O801	O80	0.354200	0.645800	0.851400
P171	P17	0.566400	0.123610	0.123610
O811	O81	0.571600	0.058900	0.058900
O821	O82	0.648600	0.145800	0.145800
P181	P18	0.066400	0.623610	0.623610
O831	O83	0.071600	0.558900	0.558900
O841	O84	0.148600	0.645800	0.645800
P191	P19	0.433600	0.123610	0.876390
O851	O85	0.428400	0.058900	0.941100
O861	O86	0.351400	0.145800	0.854200
P201	P20	0.933600	0.623610	0.376390
O871	O87	0.928400	0.558900	0.441100
O881	O88	0.851400	0.645800	0.354200
P211	P21	0.566400	0.876390	0.876390
O891	O89	0.571600	0.941100	0.941100
O901	O90	0.648600	0.854200	0.854200
P221	P22	0.066400	0.376390	0.376390
O911	O91	0.071600	0.441100	0.441100
O921	O92	0.148600	0.354200	0.354200
P231	P23	0.433600	0.876390	0.123610
O931	O93	0.428400	0.941100	0.058900
O941	O94	0.351400	0.854200	0.145800
P241	P24	0.933600	0.376390	0.623610
O951	O95	0.928400	0.441100	0.558900
O961	O96	0.851400	0.354200	0.645800
