data_NAGBUU_freeONLY_PM
_symmetry_space_group_name_H-M	'P1'
_cell_length_a	6.924700
_cell_length_b	20.627100
_cell_length_c	26.097400
_cell_angle_alpha	90.000000
_cell_angle_beta	90.000000
_cell_angle_gamma	90.000000
_symmetry_Int_Tables_number 1

loop_
_symmetry_equiv_pos_as_xyz
'x,y,z'

loop_
_atom_site_label
_atom_site_type_symbol
_atom_site_fract_x
_atom_site_fract_y
_atom_site_fract_z
Co11	Co1	0.762860	0.978110	0.635010
Co21	Co2	0.997050	0.492630	0.750200
Co31	Co3	0.237140	0.521890	0.135010
Co41	Co4	0.002950	0.007370	0.250200
Co51	Co5	0.262860	0.021890	0.864990
Co61	Co6	0.497050	0.507370	0.749800
Co71	Co7	0.737140	0.478110	0.364990
Co81	Co8	0.502950	0.992630	0.249800
Co91	Co9	0.237140	0.021890	0.364990
Co101	Co10	0.002950	0.507370	0.249800
Co111	Co11	0.762860	0.478110	0.864990
Co121	Co12	0.997050	0.992630	0.749800
Co131	Co13	0.737140	0.978110	0.135010
Co141	Co14	0.502950	0.492630	0.250200
Co151	Co15	0.262860	0.521890	0.635010
Co161	Co16	0.497050	0.007370	0.750200
H11	H1	0.730800	0.928700	0.714200
H21	H2	0.797000	0.860900	0.654600
H31	H3	0.666000	0.860200	0.618300
H41	H4	0.364300	0.901500	0.528400
H51	H5	0.355200	0.923000	0.442200
H61	H6	0.137700	0.094600	0.465700
H71	H7	0.136300	0.077600	0.552900
H81	H8	0.934400	0.213300	0.737900
H91	H9	0.898700	0.165700	0.588900
H101	H10	0.941000	0.353200	0.630600
H111	H11	0.269200	0.571300	0.214200
H121	H12	0.203000	0.639100	0.154600
H131	H13	0.334000	0.639800	0.118300
H141	H14	0.635700	0.598500	0.028400
H151	H15	0.644800	0.577000	0.942200
H161	H16	0.862300	0.405400	0.965700
H171	H17	0.863700	0.422400	0.052900
H181	H18	0.065600	0.286700	0.237900
H191	H19	0.101300	0.334300	0.088900
H201	H20	0.059000	0.146800	0.130600
H211	H21	0.230800	0.071300	0.785800
H221	H22	0.297000	0.139100	0.845400
H231	H23	0.166000	0.139800	0.881700
H241	H24	0.864300	0.098500	0.971600
H251	H25	0.855200	0.077000	0.057800
H261	H26	0.637700	0.905400	0.034300
H271	H27	0.636300	0.922400	0.947100
H281	H28	0.434400	0.786700	0.762100
H291	H29	0.398700	0.834300	0.911100
H301	H30	0.441000	0.646800	0.869400
H311	H31	0.769200	0.428700	0.285800
H321	H32	0.703000	0.360900	0.345400
H331	H33	0.834000	0.360200	0.381700
H341	H34	0.135700	0.401500	0.471600
H351	H35	0.144800	0.423000	0.557800
H361	H36	0.362300	0.594600	0.534300
H371	H37	0.363700	0.577600	0.447100
H381	H38	0.565600	0.713300	0.262100
H391	H39	0.601300	0.665700	0.411100
H401	H40	0.559000	0.853200	0.369400
H411	H41	0.269200	0.071300	0.285800
H421	H42	0.203000	0.139100	0.345400
H431	H43	0.334000	0.139800	0.381700
H441	H44	0.635700	0.098500	0.471600
H451	H45	0.644800	0.077000	0.557800
H461	H46	0.862300	0.905400	0.534300
H471	H47	0.863700	0.922400	0.447100
H481	H48	0.065600	0.786700	0.262100
H491	H49	0.101300	0.834300	0.411100
H501	H50	0.059000	0.646800	0.369400
H511	H51	0.730800	0.428700	0.785800
H521	H52	0.797000	0.360900	0.845400
H531	H53	0.666000	0.360200	0.881700
H541	H54	0.364300	0.401500	0.971600
H551	H55	0.355200	0.423000	0.057800
H561	H56	0.137700	0.594600	0.034300
H571	H57	0.136300	0.577600	0.947100
H581	H58	0.934400	0.713300	0.762100
H591	H59	0.898700	0.665700	0.911100
H601	H60	0.941000	0.853200	0.869400
H611	H61	0.769200	0.928700	0.214200
H621	H62	0.703000	0.860900	0.154600
H631	H63	0.834000	0.860200	0.118300
H641	H64	0.135700	0.901500	0.028400
H651	H65	0.144800	0.923000	0.942200
H661	H66	0.362300	0.094600	0.965700
H671	H67	0.363700	0.077600	0.052900
H681	H68	0.565600	0.213300	0.237900
H691	H69	0.601300	0.165700	0.088900
H701	H70	0.559000	0.353200	0.130600
H711	H71	0.230800	0.571300	0.714200
H721	H72	0.297000	0.639100	0.654600
H731	H73	0.166000	0.639800	0.618300
H741	H74	0.864300	0.598500	0.528400
H751	H75	0.855200	0.577000	0.442200
H761	H76	0.637700	0.405400	0.465700
H771	H77	0.636300	0.422400	0.552900
H781	H78	0.434400	0.286700	0.737900
H791	H79	0.398700	0.334300	0.588900
H801	H80	0.441000	0.146800	0.630600
C11	C1	0.254400	0.978130	0.606980
C21	C2	0.250900	0.987590	0.550710
C31	C3	0.317000	0.940970	0.516630
C41	C4	0.311200	0.954440	0.464860
C51	C5	0.182800	0.055320	0.478540
C61	C6	0.182300	0.045560	0.531040
C71	C7	0.934000	0.291130	0.691000
C81	C8	0.927900	0.225670	0.703650
C91	C9	0.912200	0.178210	0.665700
C101	C10	0.909300	0.196590	0.614680
C111	C11	0.922500	0.261760	0.602830
C121	C12	0.933800	0.309720	0.639760
C131	C13	0.942500	0.343690	0.732300
C141	C14	0.896000	0.106970	0.677560
C151	C15	0.745600	0.521870	0.106980
C161	C16	0.749100	0.512410	0.050710
C171	C17	0.683000	0.559030	0.016630
C181	C18	0.688800	0.545560	0.964860
C191	C19	0.817200	0.444680	0.978540
C201	C20	0.817700	0.454440	0.031040
C211	C21	0.066000	0.208870	0.191000
C221	C22	0.072100	0.274330	0.203650
C231	C23	0.087800	0.321790	0.165700
C241	C24	0.090700	0.303410	0.114680
C251	C25	0.077500	0.238240	0.102830
C261	C26	0.066200	0.190280	0.139760
C271	C27	0.057500	0.156310	0.232300
C281	C28	0.104000	0.393030	0.177560
C291	C29	0.754400	0.021870	0.893020
C301	C30	0.750900	0.012410	0.949290
C311	C31	0.817000	0.059030	0.983370
C321	C32	0.811200	0.045560	0.035140
C331	C33	0.682800	0.944680	0.021460
C341	C34	0.682300	0.954440	0.968960
C351	C35	0.434000	0.708870	0.809000
C361	C36	0.427900	0.774330	0.796350
C371	C37	0.412200	0.821790	0.834300
C381	C38	0.409300	0.803410	0.885320
C391	C39	0.422500	0.738240	0.897170
C401	C40	0.433800	0.690280	0.860240
C411	C41	0.442500	0.656310	0.767700
C421	C42	0.396000	0.893030	0.822440
C431	C43	0.245600	0.478130	0.393020
C441	C44	0.249100	0.487590	0.449290
C451	C45	0.183000	0.440970	0.483370
C461	C46	0.188800	0.454440	0.535140
C471	C47	0.317200	0.555320	0.521460
C481	C48	0.317700	0.545560	0.468960
C491	C49	0.566000	0.791130	0.309000
C501	C50	0.572100	0.725670	0.296350
C511	C51	0.587800	0.678210	0.334300
C521	C52	0.590700	0.696590	0.385320
C531	C53	0.577500	0.761760	0.397170
C541	C54	0.566200	0.809720	0.360240
C551	C55	0.557500	0.843690	0.267700
C561	C56	0.604000	0.606970	0.322440
C571	C57	0.745600	0.021870	0.393020
C581	C58	0.749100	0.012410	0.449290
C591	C59	0.683000	0.059030	0.483370
C601	C60	0.688800	0.045560	0.535140
C611	C61	0.817200	0.944680	0.521460
C621	C62	0.817700	0.954440	0.468960
C631	C63	0.066000	0.708870	0.309000
C641	C64	0.072100	0.774330	0.296350
C651	C65	0.087800	0.821790	0.334300
C661	C66	0.090700	0.803410	0.385320
C671	C67	0.077500	0.738240	0.397170
C681	C68	0.066200	0.690280	0.360240
C691	C69	0.057500	0.656310	0.267700
C701	C70	0.104000	0.893030	0.322440
C711	C71	0.254400	0.478130	0.893020
C721	C72	0.250900	0.487590	0.949290
C731	C73	0.317000	0.440970	0.983370
C741	C74	0.311200	0.454440	0.035140
C751	C75	0.182800	0.555320	0.021460
C761	C76	0.182300	0.545560	0.968960
C771	C77	0.934000	0.791130	0.809000
C781	C78	0.927900	0.725670	0.796350
C791	C79	0.912200	0.678210	0.834300
C801	C80	0.909300	0.696590	0.885320
C811	C81	0.922500	0.761760	0.897170
C821	C82	0.933800	0.809720	0.860240
C831	C83	0.942500	0.843690	0.767700
C841	C84	0.896000	0.606970	0.822440
C851	C85	0.245600	0.978130	0.106980
C861	C86	0.249100	0.987590	0.050710
C871	C87	0.183000	0.940970	0.016630
C881	C88	0.188800	0.954440	0.964860
C891	C89	0.317200	0.055320	0.978540
C901	C90	0.317700	0.045560	0.031040
C911	C91	0.566000	0.291130	0.191000
C921	C92	0.572100	0.225670	0.203650
C931	C93	0.587800	0.178210	0.165700
C941	C94	0.590700	0.196590	0.114680
C951	C95	0.577500	0.261760	0.102830
C961	C96	0.566200	0.309720	0.139760
C971	C97	0.557500	0.343690	0.232300
C981	C98	0.604000	0.106970	0.177560
C991	C99	0.754400	0.521870	0.606980
C1001	C100	0.750900	0.512410	0.550710
C1011	C101	0.817000	0.559030	0.516630
C1021	C102	0.811200	0.545560	0.464860
C1031	C103	0.682800	0.444680	0.478540
C1041	C104	0.682300	0.454440	0.531040
C1051	C105	0.434000	0.208870	0.691000
C1061	C106	0.427900	0.274330	0.703650
C1071	C107	0.412200	0.321790	0.665700
C1081	C108	0.409300	0.303410	0.614680
C1091	C109	0.422500	0.238240	0.602830
C1101	C110	0.433800	0.190280	0.639760
C1111	C111	0.442500	0.156310	0.732300
C1121	C112	0.396000	0.393030	0.677560
N11	N1	0.095800	0.971450	0.635640
N21	N2	0.162200	0.970690	0.683850
N31	N3	0.350300	0.976630	0.683860
N41	N4	0.414500	0.980870	0.635540
N51	N5	0.245700	0.010380	0.445520
N61	N6	0.924200	0.279140	0.548190
N71	N7	0.904200	0.528550	0.135640
N81	N8	0.837800	0.529310	0.183850
N91	N9	0.649700	0.523370	0.183860
N101	N10	0.585500	0.519130	0.135540
N111	N11	0.754300	0.489620	0.945520
N121	N12	0.075800	0.220860	0.048190
N131	N13	0.595800	0.028550	0.864360
N141	N14	0.662200	0.029310	0.816150
N151	N15	0.850300	0.023370	0.816140
N161	N16	0.914500	0.019130	0.864460
N171	N17	0.745700	0.989620	0.054480
N181	N18	0.424200	0.720860	0.951810
N191	N19	0.404200	0.471450	0.364360
N201	N20	0.337800	0.470690	0.316150
N211	N21	0.149700	0.476630	0.316140
N221	N22	0.085500	0.480870	0.364460
N231	N23	0.254300	0.510380	0.554480
N241	N24	0.575800	0.779140	0.451810
N251	N25	0.904200	0.028550	0.364360
N261	N26	0.837800	0.029310	0.316150
N271	N27	0.649700	0.023370	0.316140
N281	N28	0.585500	0.019130	0.364460
N291	N29	0.754300	0.989620	0.554480
N301	N30	0.075800	0.720860	0.451810
N311	N31	0.095800	0.471450	0.864360
N321	N32	0.162200	0.470690	0.816150
N331	N33	0.350300	0.476630	0.816140
N341	N34	0.414500	0.480870	0.864460
N351	N35	0.245700	0.510380	0.054480
N361	N36	0.924200	0.779140	0.951810
N371	N37	0.404200	0.971450	0.135640
N381	N38	0.337800	0.970690	0.183850
N391	N39	0.149700	0.976630	0.183860
N401	N40	0.085500	0.980870	0.135540
N411	N41	0.254300	0.010380	0.945520
N421	N42	0.575800	0.279140	0.048190
N431	N43	0.595800	0.528550	0.635640
N441	N44	0.662200	0.529310	0.683850
N451	N45	0.850300	0.523370	0.683860
N461	N46	0.914500	0.519130	0.635540
N471	N47	0.745700	0.489620	0.445520
N481	N48	0.424200	0.220860	0.548190
O11	O1	0.898200	0.327700	0.776820
O21	O2	0.989100	0.398880	0.717180
O31	O3	0.962600	0.087450	0.719150
O41	O4	0.815300	0.074030	0.642770
O51	O5	0.934600	0.236310	0.516820
O61	O6	0.923000	0.335380	0.536390
O71	O7	0.741000	0.969710	0.713200
O81	O8	0.759400	0.877570	0.628460
O91	O9	0.101800	0.172300	0.276820
O101	O10	0.010900	0.101120	0.217180
O111	O11	0.037400	0.412550	0.219150
O121	O12	0.184700	0.425970	0.142770
O131	O13	0.065400	0.263690	0.016820
O141	O14	0.077000	0.164620	0.036390
O151	O15	0.259000	0.530290	0.213200
O161	O16	0.240600	0.622430	0.128460
O171	O17	0.398200	0.672300	0.723180
O181	O18	0.489100	0.601120	0.782820
O191	O19	0.462600	0.912550	0.780850
O201	O20	0.315300	0.925970	0.857230
O211	O21	0.434600	0.763690	0.983180
O221	O22	0.423000	0.664620	0.963610
O231	O23	0.241000	0.030290	0.786800
O241	O24	0.259400	0.122430	0.871540
O251	O25	0.601800	0.827700	0.223180
O261	O26	0.510900	0.898880	0.282820
O271	O27	0.537400	0.587450	0.280850
O281	O28	0.684700	0.574030	0.357230
O291	O29	0.565400	0.736310	0.483180
O301	O30	0.577000	0.835380	0.463610
O311	O31	0.759000	0.469710	0.286800
O321	O32	0.740600	0.377570	0.371540
O331	O33	0.101800	0.672300	0.223180
O341	O34	0.010900	0.601120	0.282820
O351	O35	0.037400	0.912550	0.280850
O361	O36	0.184700	0.925970	0.357230
O371	O37	0.065400	0.763690	0.483180
O381	O38	0.077000	0.664620	0.463610
O391	O39	0.259000	0.030290	0.286800
O401	O40	0.240600	0.122430	0.371540
O411	O41	0.898200	0.827700	0.723180
O421	O42	0.989100	0.898880	0.782820
O431	O43	0.962600	0.587450	0.780850
O441	O44	0.815300	0.574030	0.857230
O451	O45	0.934600	0.736310	0.983180
O461	O46	0.923000	0.835380	0.963610
O471	O47	0.741000	0.469710	0.786800
O481	O48	0.759400	0.377570	0.871540
O491	O49	0.601800	0.327700	0.276820
O501	O50	0.510900	0.398880	0.217180
O511	O51	0.537400	0.087450	0.219150
O521	O52	0.684700	0.074030	0.142770
O531	O53	0.565400	0.236310	0.016820
O541	O54	0.577000	0.335380	0.036390
O551	O55	0.759000	0.969710	0.213200
O561	O56	0.740600	0.877570	0.128460
O571	O57	0.398200	0.172300	0.776820
O581	O58	0.489100	0.101120	0.717180
O591	O59	0.462600	0.412550	0.719150
O601	O60	0.315300	0.425970	0.642770
O611	O61	0.434600	0.263690	0.516820
O621	O62	0.423000	0.164620	0.536390
O631	O63	0.241000	0.530290	0.713200
O641	O64	0.259400	0.622430	0.628460
