data_NAGQET_freeONLY_PM
_symmetry_space_group_name_H-M	'P1'
_cell_length_a	9.198500
_cell_length_b	15.957600
_cell_length_c	16.096600
_cell_angle_alpha	73.171000
_cell_angle_beta	74.440000
_cell_angle_gamma	76.392000
_symmetry_Int_Tables_number 1

loop_
_symmetry_equiv_pos_as_xyz
'x,y,z'

loop_
_atom_site_label
_atom_site_type_symbol
_atom_site_fract_x
_atom_site_fract_y
_atom_site_fract_z
Co11	Co1	0.500000	0.500000	0.000000
Co21	Co2	0.000000	0.000000	0.500000
Co31	Co3	0.000000	0.500000	0.500000
H11	H1	0.973900	0.675900	0.029800
H21	H2	0.962800	0.731100	0.151300
H31	H3	0.172400	0.691500	0.215600
H41	H4	0.386500	0.601800	0.160300
H51	H5	0.182700	0.388800	0.642200
H61	H6	0.259600	0.397800	0.762300
H71	H7	0.982500	0.631200	0.755900
H81	H8	0.915800	0.617700	0.633900
H91	H9	0.951400	0.010800	0.812200
H101	H10	0.101500	0.117100	0.789100
H111	H11	0.214300	0.183700	0.643500
H121	H12	0.175000	0.141600	0.529000
H131	H13	0.632900	0.657700	0.994000
H141	H14	0.732100	0.777700	0.904200
H151	H15	0.652000	0.720300	0.698600
H161	H16	0.552700	0.600300	0.793800
H171	H17	0.491300	0.415900	0.648600
H181	H18	0.560700	0.262400	0.682100
H191	H19	0.817400	0.200800	0.642200
H201	H20	0.992000	0.292300	0.570100
H211	H21	0.362000	0.958500	0.458800
H221	H22	0.562600	0.845800	0.473700
H231	H23	0.268700	0.679500	0.597900
H241	H24	0.075100	0.797100	0.580400
H251	H25	0.026100	0.324100	0.970200
H261	H26	0.037200	0.268900	0.848700
H271	H27	0.827600	0.308500	0.784400
H281	H28	0.613500	0.398200	0.839700
H291	H29	0.817300	0.611200	0.357800
H301	H30	0.740400	0.602200	0.237700
H311	H31	0.017500	0.368800	0.244100
H321	H32	0.084200	0.382300	0.366100
H331	H33	0.048600	0.989200	0.187800
H341	H34	0.898500	0.882900	0.210900
H351	H35	0.785700	0.816300	0.356500
H361	H36	0.825000	0.858400	0.471000
H371	H37	0.367100	0.342300	0.006000
H381	H38	0.267900	0.222300	0.095800
H391	H39	0.348000	0.279700	0.301400
H401	H40	0.447300	0.399700	0.206200
H411	H41	0.508700	0.584100	0.351400
H421	H42	0.439300	0.737600	0.317900
H431	H43	0.182600	0.799200	0.357800
H441	H44	0.008000	0.707700	0.429900
H451	H45	0.638000	0.041500	0.541200
H461	H46	0.437400	0.154200	0.526300
H471	H47	0.731300	0.320500	0.402100
H481	H48	0.924900	0.202900	0.419600
C11	C1	0.187800	0.526000	0.845900
C21	C2	0.207700	0.567500	0.952300
C31	C3	0.188700	0.607000	0.026100
C41	C4	0.056900	0.661400	0.057000
C51	C5	0.050100	0.694100	0.129200
C61	C6	0.174700	0.670700	0.166900
C71	C7	0.303000	0.616800	0.133500
C81	C8	0.143200	0.439100	0.664600
C91	C9	0.189800	0.443900	0.736900
C101	C10	0.133000	0.516900	0.771700
C111	C11	0.026900	0.581700	0.732900
C121	C12	0.986600	0.572800	0.659800
C131	C13	0.776100	0.839200	0.731700
C141	C14	0.893200	0.946500	0.690100
C151	C15	0.980200	0.013700	0.683100
C161	C16	0.998500	0.037400	0.754900
C171	C17	0.087000	0.100900	0.741200
C181	C18	0.154400	0.140500	0.654700
C191	C19	0.130600	0.114500	0.586800
C201	C20	0.636500	0.670200	0.933400
C211	C21	0.696500	0.742400	0.879800
C221	C22	0.705100	0.763700	0.790100
C231	C23	0.649400	0.708700	0.759000
C241	C24	0.589600	0.636500	0.816500
C251	C25	0.564800	0.670500	0.542900
C261	C26	0.671400	0.538200	0.567900
C271	C27	0.704300	0.441300	0.591800
C281	C28	0.593200	0.389600	0.633600
C291	C29	0.634100	0.298600	0.653300
C301	C30	0.786200	0.262100	0.629400
C311	C31	0.889800	0.317300	0.586700
C321	C32	0.342200	0.901400	0.486900
C331	C33	0.463500	0.833600	0.495500
C341	C34	0.441900	0.748300	0.535600
C351	C35	0.291200	0.735900	0.568600
C361	C36	0.175200	0.807400	0.557600
C371	C37	0.812200	0.474000	0.154100
C381	C38	0.792300	0.432500	0.047700
C391	C39	0.811300	0.393000	0.973900
C401	C40	0.943100	0.338600	0.943000
C411	C41	0.949900	0.305900	0.870800
C421	C42	0.825300	0.329300	0.833100
C431	C43	0.697000	0.383200	0.866500
C441	C44	0.856800	0.560900	0.335400
C451	C45	0.810200	0.556100	0.263100
C461	C46	0.867000	0.483100	0.228300
C471	C47	0.973100	0.418300	0.267100
C481	C48	0.013400	0.427200	0.340200
C491	C49	0.223900	0.160800	0.268300
C501	C50	0.106800	0.053500	0.309900
C511	C51	0.019800	0.986300	0.316900
C521	C52	0.001500	0.962600	0.245100
C531	C53	0.913000	0.899100	0.258800
C541	C54	0.845600	0.859500	0.345300
C551	C55	0.869400	0.885500	0.413200
C561	C56	0.363500	0.329800	0.066600
C571	C57	0.303500	0.257600	0.120200
C581	C58	0.294900	0.236300	0.209900
C591	C59	0.350600	0.291300	0.241000
C601	C60	0.410400	0.363500	0.183500
C611	C61	0.435200	0.329500	0.457100
C621	C62	0.328600	0.461800	0.432100
C631	C63	0.295700	0.558700	0.408200
C641	C64	0.406800	0.610400	0.366400
C651	C65	0.365900	0.701400	0.346700
C661	C66	0.213800	0.737900	0.370600
C671	C67	0.110200	0.682700	0.413300
C681	C68	0.657800	0.098600	0.513100
C691	C69	0.536500	0.166400	0.504500
C701	C70	0.558100	0.251700	0.464400
C711	C71	0.708800	0.264100	0.431400
C721	C72	0.824800	0.192600	0.442400
N11	N1	0.335800	0.511600	0.931500
N21	N2	0.325000	0.483200	0.862200
N31	N3	0.110700	0.580500	0.899100
N41	N4	0.312500	0.584900	0.063400
N51	N5	0.044100	0.503000	0.624600
N61	N6	0.873000	0.931800	0.616400
N71	N7	0.795900	0.861300	0.643200
N81	N8	0.834300	0.890500	0.764600
N91	N9	0.046700	0.051800	0.598200
N101	N10	0.582700	0.616400	0.904000
N111	N11	0.783100	0.585400	0.525700
N121	N12	0.714500	0.672400	0.509200
N131	N13	0.531700	0.587400	0.580000
N141	N14	0.852000	0.405700	0.567600
N151	N15	0.195900	0.889700	0.517000
N161	N16	0.664200	0.488400	0.068500
N171	N17	0.675000	0.516800	0.137800
N181	N18	0.889300	0.419500	0.100900
N191	N19	0.687500	0.415100	0.936600
N201	N20	0.955900	0.497000	0.375400
N211	N21	0.127000	0.068200	0.383600
N221	N22	0.204100	0.138700	0.356800
N231	N23	0.165700	0.109500	0.235400
N241	N24	0.953300	0.948200	0.401800
N251	N25	0.417300	0.383600	0.096000
N261	N26	0.216900	0.414600	0.474300
N271	N27	0.285500	0.327600	0.490800
N281	N28	0.468300	0.412600	0.420000
N291	N29	0.148000	0.594300	0.432400
N301	N30	0.804100	0.110300	0.483000
