data_NAHDIM_freeONLY_PM
_symmetry_space_group_name_H-M	'P1'
_cell_length_a	18.967700
_cell_length_b	19.918600
_cell_length_c	31.739000
_cell_angle_alpha	90.000000
_cell_angle_beta	95.287000
_cell_angle_gamma	90.000000
_symmetry_Int_Tables_number 1

loop_
_symmetry_equiv_pos_as_xyz
'x,y,z'

loop_
_atom_site_label
_atom_site_type_symbol
_atom_site_fract_x
_atom_site_fract_y
_atom_site_fract_z
Zn11	Zn1	0.358190	0.858970	0.408500
Zn21	Zn2	0.143900	0.088900	0.174780
O11	O1	0.425800	0.822400	0.332300
O21	O2	0.462500	0.841300	0.395700
O31	O3	0.560700	0.814800	0.313700
O41	O4	0.238400	0.271300	0.037200
O51	O5	0.167200	0.260000	0.089600
O61	O6	0.292200	0.149100	0.050810
O71	O7	0.882800	0.399200	0.964900
O81	O8	0.778000	0.445200	0.968500
O91	O9	0.819200	0.478400	0.054400
O101	O10	0.148400	0.094400	0.235400
O111	O11	0.113000	0.199600	0.242600
O121	O12	0.076000	0.183000	0.324200
O131	O13	0.309800	0.918800	0.369200
O141	O14	0.208700	0.863200	0.378800
O151	O15	0.125200	0.957800	0.333000
O161	O16	0.228000	0.473900	0.313800
O171	O17	0.284500	0.554000	0.346100
O181	O18	0.095200	0.525400	0.318600
O191	O19	0.141900	0.182400	0.162900
O201	O20	0.071900	0.079800	0.163200
C11	C1	0.469600	0.826300	0.360200
C21	C2	0.544000	0.798700	0.355400
H11	H1	0.578600	0.819200	0.376400
C31	C3	0.548400	0.720600	0.358400
H21	H2	0.596100	0.706400	0.355700
H31	H3	0.517300	0.701000	0.336200
H41	H4	0.534400	0.706300	0.385300
C41	C4	0.590400	0.874000	0.306700
C51	C5	0.582300	0.932100	0.331000
H51	H5	0.556800	0.930600	0.354600
C61	C6	0.612300	0.990500	0.319500
C71	C7	0.648500	0.993000	0.283000
C81	C8	0.655100	0.936300	0.257300
C91	C9	0.623100	0.880400	0.268500
H61	H6	0.622200	0.843700	0.250400
C101	C10	0.611600	0.053700	0.346700
H71	H7	0.658800	0.063400	0.358600
H81	H8	0.581600	0.046600	0.369100
H91	H9	0.593900	0.090800	0.329500
C111	C11	0.693500	0.936400	0.218200
H101	H10	0.690100	0.892700	0.205400
H111	H11	0.742400	0.947300	0.225500
H121	H12	0.672600	0.969100	0.198600
C121	C12	0.131000	0.149300	0.259900
C131	C13	0.127800	0.140400	0.305300
H131	H13	0.119000	0.093100	0.311500
C141	C14	0.200100	0.161000	0.325600
H141	H14	0.233500	0.125600	0.322200
H151	H15	0.197300	0.169300	0.355200
H161	H16	0.215200	0.201100	0.312300
C151	C15	0.006400	0.162600	0.310900
C161	C16	0.990000	0.110300	0.284800
H171	H17	0.026500	0.085000	0.275200
C171	C17	0.919500	0.092600	0.271800
C181	C18	0.867800	0.137600	0.287400
C191	C19	0.884400	0.192100	0.313500
C201	C20	0.954700	0.202500	0.324800
H181	H18	0.968000	0.238100	0.342800
C211	C21	0.901200	0.035600	0.240100
H191	H19	0.850900	0.029000	0.236900
H201	H20	0.924100	0.995000	0.250400
H211	H21	0.917400	0.047200	0.213300
C221	C22	0.828000	0.233500	0.327300
H221	H22	0.845900	0.260000	0.351200
H231	H23	0.790300	0.205300	0.335100
H241	H24	0.810400	0.262600	0.304600
C231	C23	0.837700	0.433400	0.982700
C241	C24	0.871000	0.465300	0.024200
H251	H25	0.909800	0.437500	0.037100
C251	C25	0.783500	0.424000	0.073100
C261	C26	0.792300	0.363000	0.059200
H261	H26	0.822300	0.354200	0.038300
C271	C27	0.752400	0.308800	0.078000
C281	C28	0.709000	0.325000	0.109900
C291	C29	0.703900	0.390900	0.121900
C301	C30	0.743100	0.436100	0.103300
H271	H27	0.741300	0.480200	0.112800
C311	C31	0.758900	0.233900	0.063800
H281	H28	0.751300	0.204800	0.087100
H291	H29	0.805400	0.226300	0.055100
H301	H30	0.724100	0.224800	0.040700
C321	C32	0.662100	0.410500	0.159000
H311	H31	0.668800	0.457500	0.165000
H321	H32	0.678600	0.384700	0.183500
H331	H33	0.612700	0.401800	0.151800
C331	C33	0.209600	0.239600	0.063300
C341	C34	0.229900	0.167700	0.069000
H341	H34	0.234500	0.156500	0.099200
C351	C35	0.175000	0.121700	0.045400
H351	H35	0.128800	0.132100	0.053700
H361	H36	0.186300	0.075700	0.052200
H371	H37	0.175500	0.128300	0.015500
C361	C36	0.358300	0.164300	0.071400
C371	C37	0.413500	0.138300	0.057100
H381	H38	0.408400	0.111400	0.033000
C381	C38	0.479700	0.149700	0.076800
C391	C39	0.486300	0.194600	0.110800
C401	C40	0.426700	0.221900	0.125900
C411	C41	0.360800	0.205600	0.106300
H391	H39	0.319600	0.222100	0.116200
C421	C42	0.543900	0.117500	0.059200
H401	H40	0.576000	0.101500	0.082200
H411	H41	0.567400	0.150200	0.043300
H421	H42	0.528700	0.080600	0.041200
C431	C43	0.434300	0.271400	0.165900
H431	H43	0.401300	0.307800	0.161300
H441	H44	0.481700	0.289000	0.169500
H451	H45	0.424600	0.247200	0.190900
C441	C44	0.686200	0.059600	0.269300
C451	C45	0.753600	0.073100	0.285500
H461	H46	0.774400	0.047800	0.307900
C461	C46	0.790500	0.123900	0.268800
C471	C47	0.762700	0.165100	0.235400
C481	C48	0.800900	0.213400	0.215200
H471	H47	0.848100	0.220500	0.224900
C491	C49	0.772700	0.249500	0.183000
H481	H48	0.799400	0.282900	0.171600
C501	C50	0.700100	0.237400	0.165300
C511	C51	0.669300	0.273700	0.128700
C521	C52	0.600700	0.258700	0.114500
H491	H49	0.579600	0.283500	0.091900
C531	C53	0.558900	0.207300	0.132000
C541	C54	0.588000	0.173700	0.166600
C551	C55	0.551800	0.122200	0.185600
H501	H50	0.505500	0.112800	0.175100
C561	C56	0.580900	0.085600	0.218400
H511	H51	0.554400	0.052400	0.230200
C571	C57	0.653600	0.097900	0.235500
C581	C58	0.691100	0.146700	0.219600
C591	C59	0.659600	0.188800	0.183600
C601	C60	0.243600	0.906900	0.360100
C611	C61	0.204400	0.960100	0.329500
H521	H52	0.223500	0.005300	0.334500
C621	C62	0.214800	0.935000	0.283900
H531	H53	0.263300	0.941000	0.278500
H541	H54	0.184700	0.960300	0.263700
H551	H55	0.202600	0.888300	0.281500
C631	C63	0.107500	0.994300	0.367600
C641	C64	0.155100	0.017600	0.399300
H561	H56	0.203400	0.009500	0.399100
C651	C65	0.127500	0.054900	0.432800
C661	C66	0.055300	0.067300	0.431900
C671	C67	0.008200	0.040900	0.398100
C681	C68	0.034600	0.003200	0.368400
H571	H57	0.003800	0.982400	0.348000
C691	C69	0.026100	0.106800	0.466700
C701	C70	0.930700	0.056100	0.397300
H581	H58	0.908200	0.048000	0.369400
H591	H59	0.924400	0.102300	0.404700
H601	H60	0.909800	0.027700	0.417200
C711	C71	0.182300	0.084600	0.468200
H611	H61	0.157300	0.107500	0.488900
H621	H62	0.213100	0.115600	0.455700
H631	H63	0.209900	0.048800	0.481600
C721	C72	0.027000	0.180000	0.466300
C731	C73	0.024000	0.321400	0.465000
C741	C74	0.047900	0.280000	0.431800
H641	H64	0.063700	0.302100	0.408700
C751	C75	0.049400	0.214700	0.431200
H651	H65	0.064900	0.191700	0.408300
C761	C76	0.022900	0.391400	0.465700
C771	C77	0.043200	0.426200	0.428200
C781	C78	0.996900	0.434900	0.392300
C791	C79	0.014900	0.463700	0.354600
H661	H66	0.984800	0.460300	0.329900
C801	C80	0.075700	0.495700	0.355200
C811	C81	0.124100	0.494000	0.391400
H671	H67	0.167700	0.515000	0.390600
C821	C82	0.109300	0.462600	0.427800
C831	C83	0.161400	0.456500	0.469600
H681	H68	0.204500	0.480100	0.465900
H691	H69	0.171700	0.410000	0.475300
H701	H70	0.139400	0.475600	0.492900
C841	C84	0.924100	0.402200	0.393300
H711	H71	0.889500	0.428200	0.376400
H721	H72	0.911700	0.400600	0.421900
H731	H73	0.925400	0.357500	0.382100
C851	C85	0.897700	0.538900	0.015800
H741	H74	0.902500	0.544400	0.986100
H751	H75	0.942700	0.546100	0.031500
H761	H76	0.864100	0.570800	0.024500
C861	C86	0.150800	0.605200	0.277400
H771	H77	0.133800	0.575600	0.254900
H781	H78	0.197900	0.619700	0.273200
H791	H79	0.120200	0.643600	0.277700
C871	C87	0.217000	0.540000	0.321500
C881	C88	0.151700	0.569300	0.318600
H801	H80	0.149400	0.602000	0.341500
Zn31	Zn3	0.858190	0.358970	0.908500
Zn41	Zn4	0.643900	0.588900	0.674780
O211	O21	0.925800	0.322400	0.832300
O221	O22	0.962500	0.341300	0.895700
O231	O23	0.060700	0.314800	0.813700
O241	O24	0.738400	0.771300	0.537200
O251	O25	0.667200	0.760000	0.589600
O261	O26	0.792200	0.649100	0.550810
O271	O27	0.382800	0.899200	0.464900
O281	O28	0.278000	0.945200	0.468500
O291	O29	0.319200	0.978400	0.554400
O301	O30	0.648400	0.594400	0.735400
O311	O31	0.613000	0.699600	0.742600
O321	O32	0.576000	0.683000	0.824200
O331	O33	0.809800	0.418800	0.869200
O341	O34	0.708700	0.363200	0.878800
O351	O35	0.625200	0.457800	0.833000
O361	O36	0.728000	0.973900	0.813800
O371	O37	0.784500	0.054000	0.846100
O381	O38	0.595200	0.025400	0.818600
O391	O39	0.641900	0.682400	0.662900
O401	O40	0.571900	0.579800	0.663200
C891	C89	0.969600	0.326300	0.860200
C901	C90	0.044000	0.298700	0.855400
H811	H81	0.078600	0.319200	0.876400
C911	C91	0.048400	0.220600	0.858400
H821	H82	0.096100	0.206400	0.855700
H831	H83	0.017300	0.201000	0.836200
H841	H84	0.034400	0.206300	0.885300
C921	C92	0.090400	0.374000	0.806700
C931	C93	0.082300	0.432100	0.831000
H851	H85	0.056800	0.430600	0.854600
C941	C94	0.112300	0.490500	0.819500
C951	C95	0.148500	0.493000	0.783000
C961	C96	0.155100	0.436300	0.757300
C971	C97	0.123100	0.380400	0.768500
H861	H86	0.122200	0.343700	0.750400
C981	C98	0.111600	0.553700	0.846700
H871	H87	0.158800	0.563400	0.858600
H881	H88	0.081600	0.546600	0.869100
H891	H89	0.093900	0.590800	0.829500
C991	C99	0.193500	0.436400	0.718200
H901	H90	0.190100	0.392700	0.705400
H911	H91	0.242400	0.447300	0.725500
H921	H92	0.172600	0.469100	0.698600
C1001	C100	0.631000	0.649300	0.759900
C1011	C101	0.627800	0.640400	0.805300
H931	H93	0.619000	0.593100	0.811500
C1021	C102	0.700100	0.661000	0.825600
H941	H94	0.733500	0.625600	0.822200
H951	H95	0.697300	0.669300	0.855200
H961	H96	0.715200	0.701100	0.812300
C1031	C103	0.506400	0.662600	0.810900
C1041	C104	0.490000	0.610300	0.784800
H971	H97	0.526500	0.585000	0.775200
C1051	C105	0.419500	0.592600	0.771800
C1061	C106	0.367800	0.637600	0.787400
C1071	C107	0.384400	0.692100	0.813500
C1081	C108	0.454700	0.702500	0.824800
H981	H98	0.468000	0.738100	0.842800
C1091	C109	0.401200	0.535600	0.740100
H991	H99	0.350900	0.529000	0.736900
H1001	H100	0.424100	0.495000	0.750400
H1011	H101	0.417400	0.547200	0.713300
C1101	C110	0.328000	0.733500	0.827300
H1021	H102	0.345900	0.760000	0.851200
H1031	H103	0.290300	0.705300	0.835100
H1041	H104	0.310400	0.762600	0.804600
C1111	C111	0.337700	0.933400	0.482700
C1121	C112	0.371000	0.965300	0.524200
H1051	H105	0.409800	0.937500	0.537100
C1131	C113	0.283500	0.924000	0.573100
C1141	C114	0.292300	0.863000	0.559200
H1061	H106	0.322300	0.854200	0.538300
C1151	C115	0.252400	0.808800	0.578000
C1161	C116	0.209000	0.825000	0.609900
C1171	C117	0.203900	0.890900	0.621900
C1181	C118	0.243100	0.936100	0.603300
H1071	H107	0.241300	0.980200	0.612800
C1191	C119	0.258900	0.733900	0.563800
H1081	H108	0.251300	0.704800	0.587100
H1091	H109	0.305400	0.726300	0.555100
H1101	H110	0.224100	0.724800	0.540700
C1201	C120	0.162100	0.910500	0.659000
H1111	H111	0.168800	0.957500	0.665000
H1121	H112	0.178600	0.884700	0.683500
H1131	H113	0.112700	0.901800	0.651800
C1211	C121	0.709600	0.739600	0.563300
C1221	C122	0.729900	0.667700	0.569000
H1141	H114	0.734500	0.656500	0.599200
C1231	C123	0.675000	0.621700	0.545400
H1151	H115	0.628800	0.632100	0.553700
H1161	H116	0.686300	0.575700	0.552200
H1171	H117	0.675500	0.628300	0.515500
C1241	C124	0.858300	0.664300	0.571400
C1251	C125	0.913500	0.638300	0.557100
H1181	H118	0.908400	0.611400	0.533000
C1261	C126	0.979700	0.649700	0.576800
C1271	C127	0.986300	0.694600	0.610800
C1281	C128	0.926700	0.721900	0.625900
C1291	C129	0.860800	0.705600	0.606300
H1191	H119	0.819600	0.722100	0.616200
C1301	C130	0.043900	0.617500	0.559200
H1201	H120	0.076000	0.601500	0.582200
H1211	H121	0.067400	0.650200	0.543300
H1221	H122	0.028700	0.580600	0.541200
C1311	C131	0.934300	0.771400	0.665900
H1231	H123	0.901300	0.807800	0.661300
H1241	H124	0.981700	0.789000	0.669500
H1251	H125	0.924600	0.747200	0.690900
C1321	C132	0.186200	0.559600	0.769300
C1331	C133	0.253600	0.573100	0.785500
H1261	H126	0.274400	0.547800	0.807900
C1341	C134	0.290500	0.623900	0.768800
C1351	C135	0.262700	0.665100	0.735400
C1361	C136	0.300900	0.713400	0.715200
H1271	H127	0.348100	0.720500	0.724900
C1371	C137	0.272700	0.749500	0.683000
H1281	H128	0.299400	0.782900	0.671600
C1381	C138	0.200100	0.737400	0.665300
C1391	C139	0.169300	0.773700	0.628700
C1401	C140	0.100700	0.758700	0.614500
H1291	H129	0.079600	0.783500	0.591900
C1411	C141	0.058900	0.707300	0.632000
C1421	C142	0.088000	0.673700	0.666600
C1431	C143	0.051800	0.622200	0.685600
H1301	H130	0.005500	0.612800	0.675100
C1441	C144	0.080900	0.585600	0.718400
H1311	H131	0.054400	0.552400	0.730200
C1451	C145	0.153600	0.597900	0.735500
C1461	C146	0.191100	0.646700	0.719600
C1471	C147	0.159600	0.688800	0.683600
C1481	C148	0.743600	0.406900	0.860100
C1491	C149	0.704400	0.460100	0.829500
H1321	H132	0.723500	0.505300	0.834500
C1501	C150	0.714800	0.435000	0.783900
H1331	H133	0.763300	0.441000	0.778500
H1341	H134	0.684700	0.460300	0.763700
H1351	H135	0.702600	0.388300	0.781500
C1511	C151	0.607500	0.494300	0.867600
C1521	C152	0.655100	0.517600	0.899300
H1361	H136	0.703400	0.509500	0.899100
C1531	C153	0.627500	0.554900	0.932800
C1541	C154	0.555300	0.567300	0.931900
C1551	C155	0.508200	0.540900	0.898100
C1561	C156	0.534600	0.503200	0.868400
H1371	H137	0.503800	0.482400	0.848000
C1571	C157	0.526100	0.606800	0.966700
C1581	C158	0.430700	0.556100	0.897300
H1381	H138	0.408200	0.548000	0.869400
H1391	H139	0.424400	0.602300	0.904700
H1401	H140	0.409800	0.527700	0.917200
C1591	C159	0.682300	0.584600	0.968200
H1411	H141	0.657300	0.607500	0.988900
H1421	H142	0.713100	0.615600	0.955700
H1431	H143	0.709900	0.548800	0.981600
C1601	C160	0.527000	0.680000	0.966300
C1611	C161	0.524000	0.821400	0.965000
C1621	C162	0.547900	0.780000	0.931800
H1441	H144	0.563700	0.802100	0.908700
C1631	C163	0.549400	0.714700	0.931200
H1451	H145	0.564900	0.691700	0.908300
C1641	C164	0.522900	0.891400	0.965700
C1651	C165	0.543200	0.926200	0.928200
C1661	C166	0.496900	0.934900	0.892300
C1671	C167	0.514900	0.963700	0.854600
H1461	H146	0.484800	0.960300	0.829900
C1681	C168	0.575700	0.995700	0.855200
C1691	C169	0.624100	0.994000	0.891400
H1471	H147	0.667700	0.015000	0.890600
C1701	C170	0.609300	0.962600	0.927800
C1711	C171	0.661400	0.956500	0.969600
H1481	H148	0.704500	0.980100	0.965900
H1491	H149	0.671700	0.910000	0.975300
H1501	H150	0.639400	0.975600	0.992900
C1721	C172	0.424100	0.902200	0.893300
H1511	H151	0.389500	0.928200	0.876400
H1521	H152	0.411700	0.900600	0.921900
H1531	H153	0.425400	0.857500	0.882100
C1731	C173	0.397700	0.038900	0.515800
H1541	H154	0.402500	0.044400	0.486100
H1551	H155	0.442700	0.046100	0.531500
H1561	H156	0.364100	0.070800	0.524500
C1741	C174	0.650800	0.105200	0.777400
H1571	H157	0.633800	0.075600	0.754900
H1581	H158	0.697900	0.119700	0.773200
H1591	H159	0.620200	0.143600	0.777700
C1751	C175	0.717000	0.040000	0.821500
C1761	C176	0.651700	0.069300	0.818600
H1601	H160	0.649400	0.102000	0.841500
Zn51	Zn5	0.641810	0.858970	0.591500
Zn61	Zn6	0.856100	0.088900	0.825220
O411	O41	0.574200	0.822400	0.667700
O421	O42	0.537500	0.841300	0.604300
O431	O43	0.439300	0.814800	0.686300
O441	O44	0.761600	0.271300	0.962800
O451	O45	0.832800	0.260000	0.910400
O461	O46	0.707800	0.149100	0.949190
O471	O47	0.117200	0.399200	0.035100
O481	O48	0.222000	0.445200	0.031500
O491	O49	0.180800	0.478400	0.945600
O501	O50	0.851600	0.094400	0.764600
O511	O51	0.887000	0.199600	0.757400
O521	O52	0.924000	0.183000	0.675800
O531	O53	0.690200	0.918800	0.630800
O541	O54	0.791300	0.863200	0.621200
O551	O55	0.874800	0.957800	0.667000
O561	O56	0.772000	0.473900	0.686200
O571	O57	0.715500	0.554000	0.653900
O581	O58	0.904800	0.525400	0.681400
O591	O59	0.858100	0.182400	0.837100
O601	O60	0.928100	0.079800	0.836800
C1771	C177	0.530400	0.826300	0.639800
C1781	C178	0.456000	0.798700	0.644600
H1611	H161	0.421400	0.819200	0.623600
C1791	C179	0.451600	0.720600	0.641600
H1621	H162	0.403900	0.706400	0.644300
H1631	H163	0.482700	0.701000	0.663800
H1641	H164	0.465600	0.706300	0.614700
C1801	C180	0.409600	0.874000	0.693300
C1811	C181	0.417700	0.932100	0.669000
H1651	H165	0.443200	0.930600	0.645400
C1821	C182	0.387700	0.990500	0.680500
C1831	C183	0.351500	0.993000	0.717000
C1841	C184	0.344900	0.936300	0.742700
C1851	C185	0.376900	0.880400	0.731500
H1661	H166	0.377800	0.843700	0.749600
C1861	C186	0.388400	0.053700	0.653300
H1671	H167	0.341200	0.063400	0.641400
H1681	H168	0.418400	0.046600	0.630900
H1691	H169	0.406100	0.090800	0.670500
C1871	C187	0.306500	0.936400	0.781800
H1701	H170	0.309900	0.892700	0.794600
H1711	H171	0.257600	0.947300	0.774500
H1721	H172	0.327400	0.969100	0.801400
C1881	C188	0.869000	0.149300	0.740100
C1891	C189	0.872200	0.140400	0.694700
H1731	H173	0.881000	0.093100	0.688500
C1901	C190	0.799900	0.161000	0.674400
H1741	H174	0.766500	0.125600	0.677800
H1751	H175	0.802700	0.169300	0.644800
H1761	H176	0.784800	0.201100	0.687700
C1911	C191	0.993600	0.162600	0.689100
C1921	C192	0.010000	0.110300	0.715200
H1771	H177	0.973500	0.085000	0.724800
C1931	C193	0.080500	0.092600	0.728200
C1941	C194	0.132200	0.137600	0.712600
C1951	C195	0.115600	0.192100	0.686500
C1961	C196	0.045300	0.202500	0.675200
H1781	H178	0.032000	0.238100	0.657200
C1971	C197	0.098800	0.035600	0.759900
H1791	H179	0.149100	0.029000	0.763100
H1801	H180	0.075900	0.995000	0.749600
H1811	H181	0.082600	0.047200	0.786700
C1981	C198	0.172000	0.233500	0.672700
H1821	H182	0.154100	0.260000	0.648800
H1831	H183	0.209700	0.205300	0.664900
H1841	H184	0.189600	0.262600	0.695400
C1991	C199	0.162300	0.433400	0.017300
C2001	C200	0.129000	0.465300	0.975800
H1851	H185	0.090200	0.437500	0.962900
C2011	C201	0.216500	0.424000	0.926900
C2021	C202	0.207700	0.363000	0.940800
H1861	H186	0.177700	0.354200	0.961700
C2031	C203	0.247600	0.308800	0.922000
C2041	C204	0.291000	0.325000	0.890100
C2051	C205	0.296100	0.390900	0.878100
C2061	C206	0.256900	0.436100	0.896700
H1871	H187	0.258700	0.480200	0.887200
C2071	C207	0.241100	0.233900	0.936200
H1881	H188	0.248700	0.204800	0.912900
H1891	H189	0.194600	0.226300	0.944900
H1901	H190	0.275900	0.224800	0.959300
C2081	C208	0.337900	0.410500	0.841000
H1911	H191	0.331200	0.457500	0.835000
H1921	H192	0.321400	0.384700	0.816500
H1931	H193	0.387300	0.401800	0.848200
C2091	C209	0.790400	0.239600	0.936700
C2101	C210	0.770100	0.167700	0.931000
H1941	H194	0.765500	0.156500	0.900800
C2111	C211	0.825000	0.121700	0.954600
H1951	H195	0.871200	0.132100	0.946300
H1961	H196	0.813700	0.075700	0.947800
H1971	H197	0.824500	0.128300	0.984500
C2121	C212	0.641700	0.164300	0.928600
C2131	C213	0.586500	0.138300	0.942900
H1981	H198	0.591600	0.111400	0.967000
C2141	C214	0.520300	0.149700	0.923200
C2151	C215	0.513700	0.194600	0.889200
C2161	C216	0.573300	0.221900	0.874100
C2171	C217	0.639200	0.205600	0.893700
H1991	H199	0.680400	0.222100	0.883800
C2181	C218	0.456100	0.117500	0.940800
H2001	H200	0.424000	0.101500	0.917800
H2011	H201	0.432600	0.150200	0.956700
H2021	H202	0.471300	0.080600	0.958800
C2191	C219	0.565700	0.271400	0.834100
H2031	H203	0.598700	0.307800	0.838700
H2041	H204	0.518300	0.289000	0.830500
H2051	H205	0.575400	0.247200	0.809100
C2201	C220	0.313800	0.059600	0.730700
C2211	C221	0.246400	0.073100	0.714500
H2061	H206	0.225600	0.047800	0.692100
C2221	C222	0.209500	0.123900	0.731200
C2231	C223	0.237300	0.165100	0.764600
C2241	C224	0.199100	0.213400	0.784800
H2071	H207	0.151900	0.220500	0.775100
C2251	C225	0.227300	0.249500	0.817000
H2081	H208	0.200600	0.282900	0.828400
C2261	C226	0.299900	0.237400	0.834700
C2271	C227	0.330700	0.273700	0.871300
C2281	C228	0.399300	0.258700	0.885500
H2091	H209	0.420400	0.283500	0.908100
C2291	C229	0.441100	0.207300	0.868000
C2301	C230	0.412000	0.173700	0.833400
C2311	C231	0.448200	0.122200	0.814400
H2101	H210	0.494500	0.112800	0.824900
C2321	C232	0.419100	0.085600	0.781600
H2111	H211	0.445600	0.052400	0.769800
C2331	C233	0.346400	0.097900	0.764500
C2341	C234	0.308900	0.146700	0.780400
C2351	C235	0.340400	0.188800	0.816400
C2361	C236	0.756400	0.906900	0.639900
C2371	C237	0.795600	0.960100	0.670500
H2121	H212	0.776500	0.005300	0.665500
C2381	C238	0.785200	0.935000	0.716100
H2131	H213	0.736700	0.941000	0.721500
H2141	H214	0.815300	0.960300	0.736300
H2151	H215	0.797400	0.888300	0.718500
C2391	C239	0.892500	0.994300	0.632400
C2401	C240	0.844900	0.017600	0.600700
H2161	H216	0.796600	0.009500	0.600900
C2411	C241	0.872500	0.054900	0.567200
C2421	C242	0.944700	0.067300	0.568100
C2431	C243	0.991800	0.040900	0.601900
C2441	C244	0.965400	0.003200	0.631600
H2171	H217	0.996200	0.982400	0.652000
C2451	C245	0.973900	0.106800	0.533300
C2461	C246	0.069300	0.056100	0.602700
H2181	H218	0.091800	0.048000	0.630600
H2191	H219	0.075600	0.102300	0.595300
H2201	H220	0.090200	0.027700	0.582800
C2471	C247	0.817700	0.084600	0.531800
H2211	H221	0.842700	0.107500	0.511100
H2221	H222	0.786900	0.115600	0.544300
H2231	H223	0.790100	0.048800	0.518400
C2481	C248	0.973000	0.180000	0.533700
C2491	C249	0.976000	0.321400	0.535000
C2501	C250	0.952100	0.280000	0.568200
H2241	H224	0.936300	0.302100	0.591300
C2511	C251	0.950600	0.214700	0.568800
H2251	H225	0.935100	0.191700	0.591700
C2521	C252	0.977100	0.391400	0.534300
C2531	C253	0.956800	0.426200	0.571800
C2541	C254	0.003100	0.434900	0.607700
C2551	C255	0.985100	0.463700	0.645400
H2261	H226	0.015200	0.460300	0.670100
C2561	C256	0.924300	0.495700	0.644800
C2571	C257	0.875900	0.494000	0.608600
H2271	H227	0.832300	0.515000	0.609400
C2581	C258	0.890700	0.462600	0.572200
C2591	C259	0.838600	0.456500	0.530400
H2281	H228	0.795500	0.480100	0.534100
H2291	H229	0.828300	0.410000	0.524700
H2301	H230	0.860600	0.475600	0.507100
C2601	C260	0.075900	0.402200	0.606700
H2311	H231	0.110500	0.428200	0.623600
H2321	H232	0.088300	0.400600	0.578100
H2331	H233	0.074600	0.357500	0.617900
C2611	C261	0.102300	0.538900	0.984200
H2341	H234	0.097500	0.544400	0.013900
H2351	H235	0.057300	0.546100	0.968500
H2361	H236	0.135900	0.570800	0.975500
C2621	C262	0.849200	0.605200	0.722600
H2371	H237	0.866200	0.575600	0.745100
H2381	H238	0.802100	0.619700	0.726800
H2391	H239	0.879800	0.643600	0.722300
C2631	C263	0.783000	0.540000	0.678500
C2641	C264	0.848300	0.569300	0.681400
H2401	H240	0.850600	0.602000	0.658500
Zn71	Zn7	0.141810	0.358970	0.091500
Zn81	Zn8	0.356100	0.588900	0.325220
O611	O61	0.074200	0.322400	0.167700
O621	O62	0.037500	0.341300	0.104300
O631	O63	0.939300	0.314800	0.186300
O641	O64	0.261600	0.771300	0.462800
O651	O65	0.332800	0.760000	0.410400
O661	O66	0.207800	0.649100	0.449190
O671	O67	0.617200	0.899200	0.535100
O681	O68	0.722000	0.945200	0.531500
O691	O69	0.680800	0.978400	0.445600
O701	O70	0.351600	0.594400	0.264600
O711	O71	0.387000	0.699600	0.257400
O721	O72	0.424000	0.683000	0.175800
O731	O73	0.190200	0.418800	0.130800
O741	O74	0.291300	0.363200	0.121200
O751	O75	0.374800	0.457800	0.167000
O761	O76	0.272000	0.973900	0.186200
O771	O77	0.215500	0.054000	0.153900
O781	O78	0.404800	0.025400	0.181400
O791	O79	0.358100	0.682400	0.337100
O801	O80	0.428100	0.579800	0.336800
C2651	C265	0.030400	0.326300	0.139800
C2661	C266	0.956000	0.298700	0.144600
H2411	H241	0.921400	0.319200	0.123600
C2671	C267	0.951600	0.220600	0.141600
H2421	H242	0.903900	0.206400	0.144300
H2431	H243	0.982700	0.201000	0.163800
H2441	H244	0.965600	0.206300	0.114700
C2681	C268	0.909600	0.374000	0.193300
C2691	C269	0.917700	0.432100	0.169000
H2451	H245	0.943200	0.430600	0.145400
C2701	C270	0.887700	0.490500	0.180500
C2711	C271	0.851500	0.493000	0.217000
C2721	C272	0.844900	0.436300	0.242700
C2731	C273	0.876900	0.380400	0.231500
H2461	H246	0.877800	0.343700	0.249600
C2741	C274	0.888400	0.553700	0.153300
H2471	H247	0.841200	0.563400	0.141400
H2481	H248	0.918400	0.546600	0.130900
H2491	H249	0.906100	0.590800	0.170500
C2751	C275	0.806500	0.436400	0.281800
H2501	H250	0.809900	0.392700	0.294600
H2511	H251	0.757600	0.447300	0.274500
H2521	H252	0.827400	0.469100	0.301400
C2761	C276	0.369000	0.649300	0.240100
C2771	C277	0.372200	0.640400	0.194700
H2531	H253	0.381000	0.593100	0.188500
C2781	C278	0.299900	0.661000	0.174400
H2541	H254	0.266500	0.625600	0.177800
H2551	H255	0.302700	0.669300	0.144800
H2561	H256	0.284800	0.701100	0.187700
C2791	C279	0.493600	0.662600	0.189100
C2801	C280	0.510000	0.610300	0.215200
H2571	H257	0.473500	0.585000	0.224800
C2811	C281	0.580500	0.592600	0.228200
C2821	C282	0.632200	0.637600	0.212600
C2831	C283	0.615600	0.692100	0.186500
C2841	C284	0.545300	0.702500	0.175200
H2581	H258	0.532000	0.738100	0.157200
C2851	C285	0.598800	0.535600	0.259900
H2591	H259	0.649100	0.529000	0.263100
H2601	H260	0.575900	0.495000	0.249600
H2611	H261	0.582600	0.547200	0.286700
C2861	C286	0.672000	0.733500	0.172700
H2621	H262	0.654100	0.760000	0.148800
H2631	H263	0.709700	0.705300	0.164900
H2641	H264	0.689600	0.762600	0.195400
C2871	C287	0.662300	0.933400	0.517300
C2881	C288	0.629000	0.965300	0.475800
H2651	H265	0.590200	0.937500	0.462900
C2891	C289	0.716500	0.924000	0.426900
C2901	C290	0.707700	0.863000	0.440800
H2661	H266	0.677700	0.854200	0.461700
C2911	C291	0.747600	0.808800	0.422000
C2921	C292	0.791000	0.825000	0.390100
C2931	C293	0.796100	0.890900	0.378100
C2941	C294	0.756900	0.936100	0.396700
H2671	H267	0.758700	0.980200	0.387200
C2951	C295	0.741100	0.733900	0.436200
H2681	H268	0.748700	0.704800	0.412900
H2691	H269	0.694600	0.726300	0.444900
H2701	H270	0.775900	0.724800	0.459300
C2961	C296	0.837900	0.910500	0.341000
H2711	H271	0.831200	0.957500	0.335000
H2721	H272	0.821400	0.884700	0.316500
H2731	H273	0.887300	0.901800	0.348200
C2971	C297	0.290400	0.739600	0.436700
C2981	C298	0.270100	0.667700	0.431000
H2741	H274	0.265500	0.656500	0.400800
C2991	C299	0.325000	0.621700	0.454600
H2751	H275	0.371200	0.632100	0.446300
H2761	H276	0.313700	0.575700	0.447800
H2771	H277	0.324500	0.628300	0.484500
C3001	C300	0.141700	0.664300	0.428600
C3011	C301	0.086500	0.638300	0.442900
H2781	H278	0.091600	0.611400	0.467000
C3021	C302	0.020300	0.649700	0.423200
C3031	C303	0.013700	0.694600	0.389200
C3041	C304	0.073300	0.721900	0.374100
C3051	C305	0.139200	0.705600	0.393700
H2791	H279	0.180400	0.722100	0.383800
C3061	C306	0.956100	0.617500	0.440800
H2801	H280	0.924000	0.601500	0.417800
H2811	H281	0.932600	0.650200	0.456700
H2821	H282	0.971300	0.580600	0.458800
C3071	C307	0.065700	0.771400	0.334100
H2831	H283	0.098700	0.807800	0.338700
H2841	H284	0.018300	0.789000	0.330500
H2851	H285	0.075400	0.747200	0.309100
C3081	C308	0.813800	0.559600	0.230700
C3091	C309	0.746400	0.573100	0.214500
H2861	H286	0.725600	0.547800	0.192100
C3101	C310	0.709500	0.623900	0.231200
C3111	C311	0.737300	0.665100	0.264600
C3121	C312	0.699100	0.713400	0.284800
H2871	H287	0.651900	0.720500	0.275100
C3131	C313	0.727300	0.749500	0.317000
H2881	H288	0.700600	0.782900	0.328400
C3141	C314	0.799900	0.737400	0.334700
C3151	C315	0.830700	0.773700	0.371300
C3161	C316	0.899300	0.758700	0.385500
H2891	H289	0.920400	0.783500	0.408100
C3171	C317	0.941100	0.707300	0.368000
C3181	C318	0.912000	0.673700	0.333400
C3191	C319	0.948200	0.622200	0.314400
H2901	H290	0.994500	0.612800	0.324900
C3201	C320	0.919100	0.585600	0.281600
H2911	H291	0.945600	0.552400	0.269800
C3211	C321	0.846400	0.597900	0.264500
C3221	C322	0.808900	0.646700	0.280400
C3231	C323	0.840400	0.688800	0.316400
C3241	C324	0.256400	0.406900	0.139900
C3251	C325	0.295600	0.460100	0.170500
H2921	H292	0.276500	0.505300	0.165500
C3261	C326	0.285200	0.435000	0.216100
H2931	H293	0.236700	0.441000	0.221500
H2941	H294	0.315300	0.460300	0.236300
H2951	H295	0.297400	0.388300	0.218500
C3271	C327	0.392500	0.494300	0.132400
C3281	C328	0.344900	0.517600	0.100700
H2961	H296	0.296600	0.509500	0.100900
C3291	C329	0.372500	0.554900	0.067200
C3301	C330	0.444700	0.567300	0.068100
C3311	C331	0.491800	0.540900	0.101900
C3321	C332	0.465400	0.503200	0.131600
H2971	H297	0.496200	0.482400	0.152000
C3331	C333	0.473900	0.606800	0.033300
C3341	C334	0.569300	0.556100	0.102700
H2981	H298	0.591800	0.548000	0.130600
H2991	H299	0.575600	0.602300	0.095300
H3001	H300	0.590200	0.527700	0.082800
C3351	C335	0.317700	0.584600	0.031800
H3011	H301	0.342700	0.607500	0.011100
H3021	H302	0.286900	0.615600	0.044300
H3031	H303	0.290100	0.548800	0.018400
C3361	C336	0.473000	0.680000	0.033700
C3371	C337	0.476000	0.821400	0.035000
C3381	C338	0.452100	0.780000	0.068200
H3041	H304	0.436300	0.802100	0.091300
C3391	C339	0.450600	0.714700	0.068800
H3051	H305	0.435100	0.691700	0.091700
C3401	C340	0.477100	0.891400	0.034300
C3411	C341	0.456800	0.926200	0.071800
C3421	C342	0.503100	0.934900	0.107700
C3431	C343	0.485100	0.963700	0.145400
H3061	H306	0.515200	0.960300	0.170100
C3441	C344	0.424300	0.995700	0.144800
C3451	C345	0.375900	0.994000	0.108600
H3071	H307	0.332300	0.015000	0.109400
C3461	C346	0.390700	0.962600	0.072200
C3471	C347	0.338600	0.956500	0.030400
H3081	H308	0.295500	0.980100	0.034100
H3091	H309	0.328300	0.910000	0.024700
H3101	H310	0.360600	0.975600	0.007100
C3481	C348	0.575900	0.902200	0.106700
H3111	H311	0.610500	0.928200	0.123600
H3121	H312	0.588300	0.900600	0.078100
H3131	H313	0.574600	0.857500	0.117900
C3491	C349	0.602300	0.038900	0.484200
H3141	H314	0.597500	0.044400	0.513900
H3151	H315	0.557300	0.046100	0.468500
H3161	H316	0.635900	0.070800	0.475500
C3501	C350	0.349200	0.105200	0.222600
H3171	H317	0.366200	0.075600	0.245100
H3181	H318	0.302100	0.119700	0.226800
H3191	H319	0.379800	0.143600	0.222300
C3511	C351	0.283000	0.040000	0.178500
C3521	C352	0.348300	0.069300	0.181400
H3201	H320	0.350600	0.102000	0.158500
C3531	C353	0.000000	0.072100	0.500000
H3211	H321	0.000000	0.025400	0.500000
C3541	C354	0.000000	0.211600	0.500000
C3551	C355	0.000000	0.283500	0.500000
C3561	C356	0.000000	0.420800	0.500000
H3221	H322	0.000000	0.467400	0.500000
C3571	C357	0.500000	0.572100	0.000000
H3231	H323	0.500000	0.525400	0.000000
C3581	C358	0.500000	0.711600	0.000000
C3591	C359	0.500000	0.783500	0.000000
C3601	C360	0.500000	0.920800	0.000000
H3241	H324	0.500000	0.967400	0.000000
