data_NAHFIO_freeONLY_PM
_symmetry_space_group_name_H-M	'P1'
_cell_length_a	26.153500
_cell_length_b	13.616800
_cell_length_c	17.180700
_cell_angle_alpha	90.000000
_cell_angle_beta	126.056000
_cell_angle_gamma	90.000000
_symmetry_Int_Tables_number 1

loop_
_symmetry_equiv_pos_as_xyz
'x,y,z'

loop_
_atom_site_label
_atom_site_type_symbol
_atom_site_fract_x
_atom_site_fract_y
_atom_site_fract_z
Co11	Co1	0.122920	0.223350	0.188430
O11	O1	0.118900	0.353300	0.111200
O21	O2	0.097600	0.369100	0.214600
N11	N1	0.719500	0.255300	0.803500
N21	N2	0.026100	0.196400	0.075300
N31	N3	0.925100	0.154500	0.000500
N41	N4	0.850300	0.878100	0.870900
N51	N5	0.811600	0.191000	0.919900
N61	N6	0.885200	0.139300	0.216700
N71	N7	0.874900	0.105400	0.081700
N81	N8	0.846400	0.016000	0.935600
C11	C1	0.082200	0.511400	0.119400
H11	H1	0.068200	0.541600	0.156300
H21	H2	0.119900	0.547900	0.134700
C21	C2	0.030600	0.521100	0.014200
H31	H3	0.024400	0.591600	0.996500
H41	H4	0.043800	0.487700	0.977400
C31	C3	0.816300	0.292500	0.930400
H51	H5	0.852400	0.328700	0.978700
C41	C4	0.981500	0.166400	0.084900
H61	H6	0.989000	0.154800	0.145400
C51	C5	0.934300	0.182000	0.932200
H71	H7	0.903000	0.183500	0.864500
C61	C6	0.751900	0.175600	0.841000
H81	H8	0.735300	0.112200	0.815500
C71	C7	0.876500	0.964600	0.907000
H91	H9	0.912600	0.988000	0.912100
C81	C8	0.995300	0.206300	0.978500
H101	H10	0.014300	0.227400	0.948300
C91	C9	0.760500	0.329200	0.859900
H111	H11	0.750400	0.397200	0.850000
C101	C10	0.866700	0.171600	0.131800
H121	H12	0.849400	0.235100	0.108100
C111	C11	0.797400	0.956200	0.916900
H131	H13	0.767400	0.971000	0.929600
C121	C12	0.906700	0.046200	0.222400
H141	H14	0.923700	0.003200	0.275900
C131	C13	0.900200	0.024800	0.140400
H151	H15	0.911200	0.964500	0.125900
C141	C14	0.800600	0.872600	0.877200
H161	H16	0.772600	0.818400	0.856700
C151	C15	0.100700	0.404300	0.150900
B11	B1	0.864200	0.117300	0.983700
Co21	Co2	0.622920	0.723350	0.188430
O31	O3	0.618900	0.853300	0.111200
O41	O4	0.597600	0.869100	0.214600
N91	N9	0.219500	0.755300	0.803500
N101	N10	0.526100	0.696400	0.075300
N111	N11	0.425100	0.654500	0.000500
N121	N12	0.350300	0.378100	0.870900
N131	N13	0.311600	0.691000	0.919900
N141	N14	0.385200	0.639300	0.216700
N151	N15	0.374900	0.605400	0.081700
N161	N16	0.346400	0.516000	0.935600
C161	C16	0.582200	0.011400	0.119400
H171	H17	0.568200	0.041600	0.156300
H181	H18	0.619900	0.047900	0.134700
C171	C17	0.530600	0.021100	0.014200
H191	H19	0.524400	0.091600	0.996500
H201	H20	0.543800	0.987700	0.977400
C181	C18	0.316300	0.792500	0.930400
H211	H21	0.352400	0.828700	0.978700
C191	C19	0.481500	0.666400	0.084900
H221	H22	0.489000	0.654800	0.145400
C201	C20	0.434300	0.682000	0.932200
H231	H23	0.403000	0.683500	0.864500
C211	C21	0.251900	0.675600	0.841000
H241	H24	0.235300	0.612200	0.815500
C221	C22	0.376500	0.464600	0.907000
H251	H25	0.412600	0.488000	0.912100
C231	C23	0.495300	0.706300	0.978500
H261	H26	0.514300	0.727400	0.948300
C241	C24	0.260500	0.829200	0.859900
H271	H27	0.250400	0.897200	0.850000
C251	C25	0.366700	0.671600	0.131800
H281	H28	0.349400	0.735100	0.108100
C261	C26	0.297400	0.456200	0.916900
H291	H29	0.267400	0.471000	0.929600
C271	C27	0.406700	0.546200	0.222400
H301	H30	0.423700	0.503200	0.275900
C281	C28	0.400200	0.524800	0.140400
H311	H31	0.411200	0.464500	0.125900
C291	C29	0.300600	0.372600	0.877200
H321	H32	0.272600	0.318400	0.856700
C301	C30	0.600700	0.904300	0.150900
B21	B2	0.364200	0.617300	0.983700
Co31	Co3	0.877080	0.223350	0.311570
O51	O5	0.881100	0.353300	0.388800
O61	O6	0.902400	0.369100	0.285400
N171	N17	0.280500	0.255300	0.696500
N181	N18	0.973900	0.196400	0.424700
N191	N19	0.074900	0.154500	0.499500
N201	N20	0.149700	0.878100	0.629100
N211	N21	0.188400	0.191000	0.580100
N221	N22	0.114800	0.139300	0.283300
N231	N23	0.125100	0.105400	0.418300
N241	N24	0.153600	0.016000	0.564400
C311	C31	0.917800	0.511400	0.380600
H331	H33	0.931800	0.541600	0.343700
H341	H34	0.880100	0.547900	0.365300
C321	C32	0.969400	0.521100	0.485800
H351	H35	0.975600	0.591600	0.503500
H361	H36	0.956200	0.487700	0.522600
C331	C33	0.183700	0.292500	0.569600
H371	H37	0.147600	0.328700	0.521300
C341	C34	0.018500	0.166400	0.415100
H381	H38	0.011000	0.154800	0.354600
C351	C35	0.065700	0.182000	0.567800
H391	H39	0.097000	0.183500	0.635500
C361	C36	0.248100	0.175600	0.659000
H401	H40	0.264700	0.112200	0.684500
C371	C37	0.123500	0.964600	0.593000
H411	H41	0.087400	0.988000	0.587900
C381	C38	0.004700	0.206300	0.521500
H421	H42	0.985700	0.227400	0.551700
C391	C39	0.239500	0.329200	0.640100
H431	H43	0.249600	0.397200	0.650000
C401	C40	0.133300	0.171600	0.368200
H441	H44	0.150600	0.235100	0.391900
C411	C41	0.202600	0.956200	0.583100
H451	H45	0.232600	0.971000	0.570400
C421	C42	0.093300	0.046200	0.277600
H461	H46	0.076300	0.003200	0.224100
C431	C43	0.099800	0.024800	0.359600
H471	H47	0.088800	0.964500	0.374100
C441	C44	0.199400	0.872600	0.622800
H481	H48	0.227400	0.818400	0.643300
C451	C45	0.899300	0.404300	0.349100
B31	B3	0.135800	0.117300	0.516300
Co41	Co4	0.377080	0.723350	0.311570
O71	O7	0.381100	0.853300	0.388800
O81	O8	0.402400	0.869100	0.285400
N251	N25	0.780500	0.755300	0.696500
N261	N26	0.473900	0.696400	0.424700
N271	N27	0.574900	0.654500	0.499500
N281	N28	0.649700	0.378100	0.629100
N291	N29	0.688400	0.691000	0.580100
N301	N30	0.614800	0.639300	0.283300
N311	N31	0.625100	0.605400	0.418300
N321	N32	0.653600	0.516000	0.564400
C461	C46	0.417800	0.011400	0.380600
H491	H49	0.431800	0.041600	0.343700
H501	H50	0.380100	0.047900	0.365300
C471	C47	0.469400	0.021100	0.485800
H511	H51	0.475600	0.091600	0.503500
H521	H52	0.456200	0.987700	0.522600
C481	C48	0.683700	0.792500	0.569600
H531	H53	0.647600	0.828700	0.521300
C491	C49	0.518500	0.666400	0.415100
H541	H54	0.511000	0.654800	0.354600
C501	C50	0.565700	0.682000	0.567800
H551	H55	0.597000	0.683500	0.635500
C511	C51	0.748100	0.675600	0.659000
H561	H56	0.764700	0.612200	0.684500
C521	C52	0.623500	0.464600	0.593000
H571	H57	0.587400	0.488000	0.587900
C531	C53	0.504700	0.706300	0.521500
H581	H58	0.485700	0.727400	0.551700
C541	C54	0.739500	0.829200	0.640100
H591	H59	0.749600	0.897200	0.650000
C551	C55	0.633300	0.671600	0.368200
H601	H60	0.650600	0.735100	0.391900
C561	C56	0.702600	0.456200	0.583100
H611	H61	0.732600	0.471000	0.570400
C571	C57	0.593300	0.546200	0.277600
H621	H62	0.576300	0.503200	0.224100
C581	C58	0.599800	0.524800	0.359600
H631	H63	0.588800	0.464500	0.374100
C591	C59	0.699400	0.372600	0.622800
H641	H64	0.727400	0.318400	0.643300
C601	C60	0.399300	0.904300	0.349100
B41	B4	0.635800	0.617300	0.516300
Co51	Co5	0.877080	0.776650	0.811570
O91	O9	0.881100	0.646700	0.888800
O101	O10	0.902400	0.630900	0.785400
N331	N33	0.280500	0.744700	0.196500
N341	N34	0.973900	0.803600	0.924700
N351	N35	0.074900	0.845500	0.999500
N361	N36	0.149700	0.121900	0.129100
N371	N37	0.188400	0.809000	0.080100
N381	N38	0.114800	0.860700	0.783300
N391	N39	0.125100	0.894600	0.918300
N401	N40	0.153600	0.984000	0.064400
C611	C61	0.917800	0.488600	0.880600
H651	H65	0.931800	0.458400	0.843700
H661	H66	0.880100	0.452100	0.865300
C621	C62	0.969400	0.478900	0.985800
H671	H67	0.975600	0.408400	0.003500
H681	H68	0.956200	0.512300	0.022600
C631	C63	0.183700	0.707500	0.069600
H691	H69	0.147600	0.671300	0.021300
C641	C64	0.018500	0.833600	0.915100
H701	H70	0.011000	0.845200	0.854600
C651	C65	0.065700	0.818000	0.067800
H711	H71	0.097000	0.816500	0.135500
C661	C66	0.248100	0.824400	0.159000
H721	H72	0.264700	0.887800	0.184500
C671	C67	0.123500	0.035400	0.093000
H731	H73	0.087400	0.012000	0.087900
C681	C68	0.004700	0.793700	0.021500
H741	H74	0.985700	0.772600	0.051700
C691	C69	0.239500	0.670800	0.140100
H751	H75	0.249600	0.602800	0.150000
C701	C70	0.133300	0.828400	0.868200
H761	H76	0.150600	0.764900	0.891900
C711	C71	0.202600	0.043800	0.083100
H771	H77	0.232600	0.029000	0.070400
C721	C72	0.093300	0.953800	0.777600
H781	H78	0.076300	0.996800	0.724100
C731	C73	0.099800	0.975200	0.859600
H791	H79	0.088800	0.035500	0.874100
C741	C74	0.199400	0.127400	0.122800
H801	H80	0.227400	0.181600	0.143300
C751	C75	0.899300	0.595700	0.849100
B51	B5	0.135800	0.882700	0.016300
Co61	Co6	0.377080	0.276650	0.811570
O111	O11	0.381100	0.146700	0.888800
O121	O12	0.402400	0.130900	0.785400
N411	N41	0.780500	0.244700	0.196500
N421	N42	0.473900	0.303600	0.924700
N431	N43	0.574900	0.345500	0.999500
N441	N44	0.649700	0.621900	0.129100
N451	N45	0.688400	0.309000	0.080100
N461	N46	0.614800	0.360700	0.783300
N471	N47	0.625100	0.394600	0.918300
N481	N48	0.653600	0.484000	0.064400
C761	C76	0.417800	0.988600	0.880600
H811	H81	0.431800	0.958400	0.843700
H821	H82	0.380100	0.952100	0.865300
C771	C77	0.469400	0.978900	0.985800
H831	H83	0.475600	0.908400	0.003500
H841	H84	0.456200	0.012300	0.022600
C781	C78	0.683700	0.207500	0.069600
H851	H85	0.647600	0.171300	0.021300
C791	C79	0.518500	0.333600	0.915100
H861	H86	0.511000	0.345200	0.854600
C801	C80	0.565700	0.318000	0.067800
H871	H87	0.597000	0.316500	0.135500
C811	C81	0.748100	0.324400	0.159000
H881	H88	0.764700	0.387800	0.184500
C821	C82	0.623500	0.535400	0.093000
H891	H89	0.587400	0.512000	0.087900
C831	C83	0.504700	0.293700	0.021500
H901	H90	0.485700	0.272600	0.051700
C841	C84	0.739500	0.170800	0.140100
H911	H91	0.749600	0.102800	0.150000
C851	C85	0.633300	0.328400	0.868200
H921	H92	0.650600	0.264900	0.891900
C861	C86	0.702600	0.543800	0.083100
H931	H93	0.732600	0.529000	0.070400
C871	C87	0.593300	0.453800	0.777600
H941	H94	0.576300	0.496800	0.724100
C881	C88	0.599800	0.475200	0.859600
H951	H95	0.588800	0.535500	0.874100
C891	C89	0.699400	0.627400	0.122800
H961	H96	0.727400	0.681600	0.143300
C901	C90	0.399300	0.095700	0.849100
B61	B6	0.635800	0.382700	0.016300
Co71	Co7	0.122920	0.776650	0.688430
O131	O13	0.118900	0.646700	0.611200
O141	O14	0.097600	0.630900	0.714600
N491	N49	0.719500	0.744700	0.303500
N501	N50	0.026100	0.803600	0.575300
N511	N51	0.925100	0.845500	0.500500
N521	N52	0.850300	0.121900	0.370900
N531	N53	0.811600	0.809000	0.419900
N541	N54	0.885200	0.860700	0.716700
N551	N55	0.874900	0.894600	0.581700
N561	N56	0.846400	0.984000	0.435600
C911	C91	0.082200	0.488600	0.619400
H971	H97	0.068200	0.458400	0.656300
H981	H98	0.119900	0.452100	0.634700
C921	C92	0.030600	0.478900	0.514200
H991	H99	0.024400	0.408400	0.496500
H1001	H100	0.043800	0.512300	0.477400
C931	C93	0.816300	0.707500	0.430400
H1011	H101	0.852400	0.671300	0.478700
C941	C94	0.981500	0.833600	0.584900
H1021	H102	0.989000	0.845200	0.645400
C951	C95	0.934300	0.818000	0.432200
H1031	H103	0.903000	0.816500	0.364500
C961	C96	0.751900	0.824400	0.341000
H1041	H104	0.735300	0.887800	0.315500
C971	C97	0.876500	0.035400	0.407000
H1051	H105	0.912600	0.012000	0.412100
C981	C98	0.995300	0.793700	0.478500
H1061	H106	0.014300	0.772600	0.448300
C991	C99	0.760500	0.670800	0.359900
H1071	H107	0.750400	0.602800	0.350000
C1001	C100	0.866700	0.828400	0.631800
H1081	H108	0.849400	0.764900	0.608100
C1011	C101	0.797400	0.043800	0.416900
H1091	H109	0.767400	0.029000	0.429600
C1021	C102	0.906700	0.953800	0.722400
H1101	H110	0.923700	0.996800	0.775900
C1031	C103	0.900200	0.975200	0.640400
H1111	H111	0.911200	0.035500	0.625900
C1041	C104	0.800600	0.127400	0.377200
H1121	H112	0.772600	0.181600	0.356700
C1051	C105	0.100700	0.595700	0.650900
B71	B7	0.864200	0.882700	0.483700
Co81	Co8	0.622920	0.276650	0.688430
O151	O15	0.618900	0.146700	0.611200
O161	O16	0.597600	0.130900	0.714600
N571	N57	0.219500	0.244700	0.303500
N581	N58	0.526100	0.303600	0.575300
N591	N59	0.425100	0.345500	0.500500
N601	N60	0.350300	0.621900	0.370900
N611	N61	0.311600	0.309000	0.419900
N621	N62	0.385200	0.360700	0.716700
N631	N63	0.374900	0.394600	0.581700
N641	N64	0.346400	0.484000	0.435600
C1061	C106	0.582200	0.988600	0.619400
H1131	H113	0.568200	0.958400	0.656300
H1141	H114	0.619900	0.952100	0.634700
C1071	C107	0.530600	0.978900	0.514200
H1151	H115	0.524400	0.908400	0.496500
H1161	H116	0.543800	0.012300	0.477400
C1081	C108	0.316300	0.207500	0.430400
H1171	H117	0.352400	0.171300	0.478700
C1091	C109	0.481500	0.333600	0.584900
H1181	H118	0.489000	0.345200	0.645400
C1101	C110	0.434300	0.318000	0.432200
H1191	H119	0.403000	0.316500	0.364500
C1111	C111	0.251900	0.324400	0.341000
H1201	H120	0.235300	0.387800	0.315500
C1121	C112	0.376500	0.535400	0.407000
H1211	H121	0.412600	0.512000	0.412100
C1131	C113	0.495300	0.293700	0.478500
H1221	H122	0.514300	0.272600	0.448300
C1141	C114	0.260500	0.170800	0.359900
H1231	H123	0.250400	0.102800	0.350000
C1151	C115	0.366700	0.328400	0.631800
H1241	H124	0.349400	0.264900	0.608100
C1161	C116	0.297400	0.543800	0.416900
H1251	H125	0.267400	0.529000	0.429600
C1171	C117	0.406700	0.453800	0.722400
H1261	H126	0.423700	0.496800	0.775900
C1181	C118	0.400200	0.475200	0.640400
H1271	H127	0.411200	0.535500	0.625900
C1191	C119	0.300600	0.627400	0.377200
H1281	H128	0.272600	0.681600	0.356700
C1201	C120	0.600700	0.095700	0.650900
B81	B8	0.364200	0.382700	0.483700
