data_NAHFOU_freeONLY_PM
_symmetry_space_group_name_H-M	'P1'
_cell_length_a	9.003000
_cell_length_b	17.382000
_cell_length_c	17.057000
_cell_angle_alpha	90.000000
_cell_angle_beta	104.595000
_cell_angle_gamma	90.000000
_symmetry_Int_Tables_number 1

loop_
_symmetry_equiv_pos_as_xyz
'x,y,z'

loop_
_atom_site_label
_atom_site_type_symbol
_atom_site_fract_x
_atom_site_fract_y
_atom_site_fract_z
Cd11	Cd1	0.384380	0.060150	0.214750
N11	N1	0.762100	0.905000	0.179400
C11	C1	0.689200	0.955800	0.282900
H11	H1	0.682700	0.967800	0.336300
C21	C2	0.807200	0.667500	0.230200
H21	H2	0.753800	0.630200	0.253400
N21	N2	0.957700	0.661400	0.225700
N31	N3	0.002100	0.887800	0.128600
N41	N4	0.745000	0.848500	0.040800
C31	C3	0.071400	0.951400	0.168900
H31	H3	0.029400	0.981300	0.204700
C41	C4	0.642000	0.952600	0.152800
H41	H4	0.596700	0.962200	0.097100
N51	N5	0.861900	0.772300	0.169800
O11	O1	0.206400	0.087500	0.293200
C51	C5	0.747500	0.734700	0.196700
H51	H5	0.646200	0.752800	0.192300
N61	N6	0.204100	0.966100	0.152100
C61	C6	0.986800	0.725100	0.189200
H61	H6	0.082600	0.736400	0.178000
N71	N7	0.648900	0.880800	0.910800
N81	N8	0.593500	0.984500	0.212100
C71	C7	0.100300	0.862300	0.083400
H71	H7	0.084500	0.819200	0.048100
O21	O2	0.388400	0.005200	0.346600
C81	C8	0.793600	0.907900	0.263700
H81	H8	0.873500	0.881300	0.300800
C91	C9	0.754900	0.895000	0.978400
H91	H9	0.830600	0.934000	0.982800
C101	C10	0.045300	0.048300	0.411100
H101	H10	0.999300	0.084200	0.370200
C111	C11	0.965700	0.027100	0.469800
C121	C12	0.223100	0.910000	0.098800
H111	H11	0.308900	0.905500	0.076200
C131	C13	0.186700	0.018500	0.411600
B11	B1	0.844600	0.853700	0.129400
C141	C14	0.257000	0.965300	0.473700
H121	H12	0.356100	0.945300	0.475800
C151	C15	0.563900	0.821500	0.930600
H131	H13	0.477900	0.798100	0.894500
C161	C16	0.621200	0.801400	0.009400
H141	H14	0.582900	0.762100	0.037700
C171	C17	0.266700	0.038900	0.347300
C181	C18	0.180700	0.943100	0.530600
H151	H15	0.227500	0.906900	0.571000
Cd21	Cd2	0.115620	0.560150	0.285250
N91	N9	0.737900	0.405000	0.320600
C191	C19	0.810800	0.455800	0.217100
H161	H16	0.817300	0.467800	0.163700
C201	C20	0.692800	0.167500	0.269800
H171	H17	0.746200	0.130200	0.246600
N101	N10	0.542300	0.161400	0.274300
N111	N11	0.497900	0.387800	0.371400
N121	N12	0.755000	0.348500	0.459200
C211	C21	0.428600	0.451400	0.331100
H181	H18	0.470600	0.481300	0.295300
C221	C22	0.858000	0.452600	0.347200
H191	H19	0.903300	0.462200	0.402900
N131	N13	0.638100	0.272300	0.330200
O31	O3	0.293600	0.587500	0.206800
C231	C23	0.752500	0.234700	0.303300
H201	H20	0.853800	0.252800	0.307700
N141	N14	0.295900	0.466100	0.347900
C241	C24	0.513200	0.225100	0.310800
H211	H21	0.417400	0.236400	0.322000
N151	N15	0.851100	0.380800	0.589200
N161	N16	0.906500	0.484500	0.287900
C251	C25	0.399700	0.362300	0.416600
H221	H22	0.415500	0.319200	0.451900
O41	O4	0.111600	0.505200	0.153400
C261	C26	0.706400	0.407900	0.236300
H231	H23	0.626500	0.381300	0.199200
C271	C27	0.745100	0.395000	0.521600
H241	H24	0.669400	0.434000	0.517200
C281	C28	0.454700	0.548300	0.088900
H251	H25	0.500700	0.584200	0.129800
C291	C29	0.534300	0.527100	0.030200
C301	C30	0.276900	0.410000	0.401200
H261	H26	0.191100	0.405500	0.423800
C311	C31	0.313300	0.518500	0.088400
B21	B2	0.655400	0.353700	0.370600
C321	C32	0.243000	0.465300	0.026300
H271	H27	0.143900	0.445300	0.024200
C331	C33	0.936100	0.321500	0.569400
H281	H28	0.022100	0.298100	0.605500
C341	C34	0.878800	0.301400	0.490600
H291	H29	0.917100	0.262100	0.462300
C351	C35	0.233300	0.538900	0.152700
C361	C36	0.319300	0.443100	0.969400
H301	H30	0.272500	0.406900	0.929000
Cd31	Cd3	0.615620	0.939850	0.785250
N171	N17	0.237900	0.095000	0.820600
C371	C37	0.310800	0.044200	0.717100
H311	H31	0.317300	0.032200	0.663700
C381	C38	0.192800	0.332500	0.769800
H321	H32	0.246200	0.369800	0.746600
N181	N18	0.042300	0.338600	0.774300
N191	N19	0.997900	0.112200	0.871400
N201	N20	0.255000	0.151500	0.959200
C391	C39	0.928600	0.048600	0.831100
H331	H33	0.970600	0.018700	0.795300
C401	C40	0.358000	0.047400	0.847200
H341	H34	0.403300	0.037800	0.902900
N211	N21	0.138100	0.227700	0.830200
O51	O5	0.793600	0.912500	0.706800
C411	C41	0.252500	0.265300	0.803300
H351	H35	0.353800	0.247200	0.807700
N221	N22	0.795900	0.033900	0.847900
C421	C42	0.013200	0.274900	0.810800
H361	H36	0.917400	0.263600	0.822000
N231	N23	0.351100	0.119200	0.089200
N241	N24	0.406500	0.015500	0.787900
C431	C43	0.899700	0.137700	0.916600
H371	H37	0.915500	0.180800	0.951900
O61	O6	0.611600	0.994800	0.653400
C441	C44	0.206400	0.092100	0.736300
H381	H38	0.126500	0.118700	0.699200
C451	C45	0.245100	0.105000	0.021600
H391	H39	0.169400	0.066000	0.017200
C461	C46	0.954700	0.951700	0.588900
H401	H40	0.000700	0.915800	0.629800
C471	C47	0.034300	0.972900	0.530200
C481	C48	0.776900	0.090000	0.901200
H411	H41	0.691100	0.094500	0.923800
C491	C49	0.813300	0.981500	0.588400
B31	B3	0.155400	0.146300	0.870600
C501	C50	0.743000	0.034700	0.526300
H421	H42	0.643900	0.054700	0.524200
C511	C51	0.436100	0.178500	0.069400
H431	H43	0.522100	0.201900	0.105500
C521	C52	0.378800	0.198600	0.990600
H441	H44	0.417100	0.237900	0.962300
C531	C53	0.733300	0.961100	0.652700
C541	C54	0.819300	0.056900	0.469400
H451	H45	0.772500	0.093100	0.429000
Cd41	Cd4	0.884380	0.439850	0.714750
N251	N25	0.262100	0.595000	0.679400
C551	C55	0.189200	0.544200	0.782900
H461	H46	0.182700	0.532200	0.836300
C561	C56	0.307200	0.832500	0.730200
H471	H47	0.253800	0.869800	0.753400
N261	N26	0.457700	0.838600	0.725700
N271	N27	0.502100	0.612200	0.628600
N281	N28	0.245000	0.651500	0.540800
C571	C57	0.571400	0.548600	0.668900
H481	H48	0.529400	0.518700	0.704700
C581	C58	0.142000	0.547400	0.652800
H491	H49	0.096700	0.537800	0.597100
N291	N29	0.361900	0.727700	0.669800
O71	O7	0.706400	0.412500	0.793200
C591	C59	0.247500	0.765300	0.696700
H501	H50	0.146200	0.747200	0.692300
N301	N30	0.704100	0.533900	0.652100
C601	C60	0.486800	0.774900	0.689200
H511	H51	0.582600	0.763600	0.678000
N311	N31	0.148900	0.619200	0.410800
N321	N32	0.093500	0.515500	0.712100
C611	C61	0.600300	0.637700	0.583400
H521	H52	0.584500	0.680800	0.548100
O81	O8	0.888400	0.494800	0.846600
C621	C62	0.293600	0.592100	0.763700
H531	H53	0.373500	0.618700	0.800800
C631	C63	0.254900	0.605000	0.478400
H541	H54	0.330600	0.566000	0.482800
C641	C64	0.545300	0.451700	0.911100
H551	H55	0.499300	0.415800	0.870200
C651	C65	0.465700	0.472900	0.969800
C661	C66	0.723100	0.590000	0.598800
H561	H56	0.808900	0.594500	0.576200
C671	C67	0.686700	0.481500	0.911600
B41	B4	0.344600	0.646300	0.629400
C681	C68	0.757000	0.534700	0.973700
H571	H57	0.856100	0.554700	0.975800
C691	C69	0.063900	0.678500	0.430600
H581	H58	0.977900	0.701900	0.394500
C701	C70	0.121200	0.698600	0.509400
H591	H59	0.082900	0.737900	0.537700
C711	C71	0.766700	0.461100	0.847300
C721	C72	0.680700	0.556900	0.030600
H601	H60	0.727500	0.593100	0.071000
