data_NANTII_freeONLY_PM
_symmetry_space_group_name_H-M	'P1'
_cell_length_a	23.714000
_cell_length_b	23.714000
_cell_length_c	16.575000
_cell_angle_alpha	90.000000
_cell_angle_beta	90.000000
_cell_angle_gamma	90.000000
_symmetry_Int_Tables_number 1

loop_
_symmetry_equiv_pos_as_xyz
'x,y,z'

loop_
_atom_site_label
_atom_site_type_symbol
_atom_site_fract_x
_atom_site_fract_y
_atom_site_fract_z
Ce11	Ce1	0.370540	0.645580	0.089400
O11	O1	0.336900	0.557100	0.028900
O21	O2	0.317900	0.636700	0.964400
O31	O3	0.202700	0.628200	0.711300
O41	O4	0.190900	0.546900	0.649900
O51	O5	0.159900	0.403000	0.860600
O61	O6	0.352100	0.393600	0.839900
O71	O7	0.281600	0.636400	0.146300
O81	O8	0.399400	0.578500	0.181100
O91	O9	0.443500	0.620100	0.003200
O101	O10	0.368300	0.733500	0.034600
C11	C1	0.315800	0.582600	0.969700
C21	C2	0.286400	0.549700	0.904400
C31	C3	0.262900	0.577100	0.840800
H11	H1	0.264500	0.617100	0.838000
C41	C4	0.208100	0.575200	0.710300
C51	C5	0.236000	0.546100	0.778400
C61	C6	0.233700	0.489200	0.783100
H21	H2	0.214600	0.468500	0.742300
C71	C7	0.259500	0.460000	0.848400
C81	C8	0.285500	0.490200	0.909400
H31	H3	0.302300	0.471300	0.953800
C91	C9	0.202000	0.373100	0.856800
C101	C10	0.201300	0.310600	0.857000
C111	C11	0.251300	0.280100	0.856700
C121	C12	0.303700	0.307200	0.855400
C131	C13	0.308500	0.369500	0.850400
C141	C14	0.353400	0.275200	0.856300
H41	H4	0.389000	0.293700	0.855400
C151	C15	0.351000	0.214600	0.858600
H51	H5	0.384400	0.192700	0.861100
C161	C16	0.493800	0.611900	0.979900
C171	C17	0.544700	0.650100	0.004400
H61	H6	0.566800	0.631200	0.046400
H71	H7	0.530600	0.686200	0.025000
H81	H8	0.568600	0.656900	0.957100
C181	C18	0.563500	0.556900	0.905700
H91	H9	0.591600	0.579600	0.934700
H101	H10	0.564400	0.566600	0.848200
H111	H11	0.572200	0.516800	0.912400
C191	C19	0.456200	0.534200	0.904800
H121	H12	0.435400	0.517100	0.949800
H131	H13	0.470100	0.504400	0.869000
H141	H14	0.431000	0.559300	0.874600
C201	C20	0.420700	0.551900	0.236400
C211	C21	0.487100	0.573000	0.261100
H151	H15	0.485500	0.598200	0.307800
H161	H16	0.504000	0.592900	0.215300
H171	H17	0.510100	0.539900	0.274400
C221	C22	0.436800	0.480500	0.338500
H181	H18	0.463300	0.454700	0.312200
H191	H19	0.409800	0.458900	0.370700
H201	H20	0.457700	0.506300	0.373800
C231	C23	0.347100	0.492300	0.241000
H211	H21	0.316300	0.514800	0.263700
H221	H22	0.342400	0.452800	0.256900
H231	H23	0.346500	0.495300	0.182100
C241	C24	0.237300	0.611200	0.179000
C251	C25	0.219000	0.553200	0.139200
H241	H24	0.204700	0.527800	0.181100
H251	H25	0.251600	0.535900	0.112500
H261	H26	0.189200	0.560100	0.099300
C261	C26	0.166100	0.605900	0.286700
H271	H27	0.174100	0.567200	0.304400
H281	H28	0.133200	0.605700	0.250800
H291	H29	0.158100	0.629500	0.333800
C271	C27	0.225400	0.684200	0.264400
H301	H30	0.191300	0.700100	0.288800
H311	H31	0.235400	0.705900	0.216200
H321	H32	0.256400	0.685800	0.303300
C281	C28	0.358800	0.776200	0.996900
C291	C29	0.299700	0.807400	0.984400
H331	H33	0.290400	0.808200	0.926800
H341	H34	0.302200	0.846000	0.005000
H351	H35	0.270200	0.786900	0.013800
C301	C30	0.383000	0.841000	0.891400
H361	H36	0.417200	0.863800	0.885200
H371	H37	0.352300	0.864700	0.912000
H381	H38	0.372100	0.825300	0.838900
C311	C31	0.452600	0.770600	0.951300
H391	H39	0.455500	0.746200	0.998900
H401	H40	0.480500	0.800900	0.955300
H411	H41	0.459800	0.748300	0.902600
N11	N1	0.257000	0.398700	0.853500
N21	N2	0.215500	0.628700	0.243000
N31	N3	0.404900	0.514800	0.273700
N41	N4	0.506900	0.568700	0.938400
N51	N5	0.393600	0.795800	0.947100
Ce21	Ce2	0.129460	0.854420	0.089400
O111	O11	0.163100	0.942900	0.028900
O121	O12	0.182100	0.863300	0.964400
O131	O13	0.297300	0.871800	0.711300
O141	O14	0.309100	0.953100	0.649900
O151	O15	0.340100	0.097000	0.860600
O161	O16	0.147900	0.106400	0.839900
O171	O17	0.218400	0.863600	0.146300
O181	O18	0.100600	0.921500	0.181100
O191	O19	0.056500	0.879900	0.003200
O201	O20	0.131700	0.766500	0.034600
C321	C32	0.184200	0.917400	0.969700
C331	C33	0.213600	0.950300	0.904400
C341	C34	0.237100	0.922900	0.840800
H421	H42	0.235500	0.882900	0.838000
C351	C35	0.291900	0.924800	0.710300
C361	C36	0.264000	0.953900	0.778400
C371	C37	0.266300	0.010800	0.783100
H431	H43	0.285400	0.031500	0.742300
C381	C38	0.240500	0.040000	0.848400
C391	C39	0.214500	0.009800	0.909400
H441	H44	0.197700	0.028700	0.953800
C401	C40	0.298000	0.126900	0.856800
C411	C41	0.298700	0.189400	0.857000
C421	C42	0.248700	0.219900	0.856700
C431	C43	0.196300	0.192800	0.855400
C441	C44	0.191500	0.130500	0.850400
C451	C45	0.146600	0.224800	0.856300
H451	H45	0.111000	0.206300	0.855400
C461	C46	0.149000	0.285400	0.858600
H461	H46	0.115600	0.307300	0.861100
C471	C47	0.006200	0.888100	0.979900
C481	C48	0.955300	0.849900	0.004400
H471	H47	0.933200	0.868800	0.046400
H481	H48	0.969400	0.813800	0.025000
H491	H49	0.931400	0.843100	0.957100
C491	C49	0.936500	0.943100	0.905700
H501	H50	0.908400	0.920400	0.934700
H511	H51	0.935600	0.933400	0.848200
H521	H52	0.927800	0.983200	0.912400
C501	C50	0.043800	0.965800	0.904800
H531	H53	0.064600	0.982900	0.949800
H541	H54	0.029900	0.995600	0.869000
H551	H55	0.069000	0.940700	0.874600
C511	C51	0.079300	0.948100	0.236400
C521	C52	0.012900	0.927000	0.261100
H561	H56	0.014500	0.901800	0.307800
H571	H57	0.996000	0.907100	0.215300
H581	H58	0.989900	0.960100	0.274400
C531	C53	0.063200	0.019500	0.338500
H591	H59	0.036700	0.045300	0.312200
H601	H60	0.090200	0.041100	0.370700
H611	H61	0.042300	0.993700	0.373800
C541	C54	0.152900	0.007700	0.241000
H621	H62	0.183700	0.985200	0.263700
H631	H63	0.157600	0.047200	0.256900
H641	H64	0.153500	0.004700	0.182100
C551	C55	0.262700	0.888800	0.179000
C561	C56	0.281000	0.946800	0.139200
H651	H65	0.295300	0.972200	0.181100
H661	H66	0.248400	0.964100	0.112500
H671	H67	0.310800	0.939900	0.099300
C571	C57	0.333900	0.894100	0.286700
H681	H68	0.325900	0.932800	0.304400
H691	H69	0.366800	0.894300	0.250800
H701	H70	0.341900	0.870500	0.333800
C581	C58	0.274600	0.815800	0.264400
H711	H71	0.308700	0.799900	0.288800
H721	H72	0.264600	0.794100	0.216200
H731	H73	0.243600	0.814200	0.303300
C591	C59	0.141200	0.723800	0.996900
C601	C60	0.200300	0.692600	0.984400
H741	H74	0.209600	0.691800	0.926800
H751	H75	0.197800	0.654000	0.005000
H761	H76	0.229800	0.713100	0.013800
C611	C61	0.117000	0.659000	0.891400
H771	H77	0.082800	0.636200	0.885200
H781	H78	0.147700	0.635300	0.912000
H791	H79	0.127900	0.674700	0.838900
C621	C62	0.047400	0.729400	0.951300
H801	H80	0.044500	0.753800	0.998900
H811	H81	0.019500	0.699100	0.955300
H821	H82	0.040200	0.751700	0.902600
N61	N6	0.243000	0.101300	0.853500
N71	N7	0.284500	0.871300	0.243000
N81	N8	0.095100	0.985200	0.273700
N91	N9	0.993100	0.931300	0.938400
N101	N10	0.106400	0.704200	0.947100
Ce31	Ce3	0.354420	0.870540	0.589400
O211	O21	0.442900	0.836900	0.528900
O221	O22	0.363300	0.817900	0.464400
O231	O23	0.371800	0.702700	0.211300
O241	O24	0.453100	0.690900	0.149900
O251	O25	0.597000	0.659900	0.360600
O261	O26	0.606400	0.852100	0.339900
O271	O27	0.363600	0.781600	0.646300
O281	O28	0.421500	0.899400	0.681100
O291	O29	0.379900	0.943500	0.503200
O301	O30	0.266500	0.868300	0.534600
C631	C63	0.417400	0.815800	0.469700
C641	C64	0.450300	0.786400	0.404400
C651	C65	0.422900	0.762900	0.340800
H831	H83	0.382900	0.764500	0.338000
C661	C66	0.424800	0.708100	0.210300
C671	C67	0.453900	0.736000	0.278400
C681	C68	0.510800	0.733700	0.283100
H841	H84	0.531500	0.714600	0.242300
C691	C69	0.540000	0.759500	0.348400
C701	C70	0.509800	0.785500	0.409400
H851	H85	0.528700	0.802300	0.453800
C711	C71	0.626900	0.702000	0.356800
C721	C72	0.689400	0.701300	0.357000
C731	C73	0.719900	0.751300	0.356700
C741	C74	0.692800	0.803700	0.355400
C751	C75	0.630500	0.808500	0.350400
C761	C76	0.724800	0.853400	0.356300
H861	H86	0.706300	0.889000	0.355400
C771	C77	0.785400	0.851000	0.358600
H871	H87	0.807300	0.884400	0.361100
C781	C78	0.388100	0.993800	0.479900
C791	C79	0.349900	0.044700	0.504400
H881	H88	0.368800	0.066800	0.546400
H891	H89	0.313800	0.030600	0.525000
H901	H90	0.343100	0.068600	0.457100
C801	C80	0.443100	0.063500	0.405700
H911	H91	0.420400	0.091600	0.434700
H921	H92	0.433400	0.064400	0.348200
H931	H93	0.483200	0.072200	0.412400
C811	C81	0.465800	0.956200	0.404800
H941	H94	0.482900	0.935400	0.449800
H951	H95	0.495600	0.970100	0.369000
H961	H96	0.440700	0.931000	0.374600
C821	C82	0.448100	0.920700	0.736400
C831	C83	0.427000	0.987100	0.761100
H971	H97	0.401800	0.985500	0.807800
H981	H98	0.407100	0.004000	0.715300
H991	H99	0.460100	0.010100	0.774400
C841	C84	0.519500	0.936800	0.838500
H1001	H100	0.545300	0.963300	0.812200
H1011	H101	0.541100	0.909800	0.870700
H1021	H102	0.493700	0.957700	0.873800
C851	C85	0.507700	0.847100	0.741000
H1031	H103	0.485200	0.816300	0.763700
H1041	H104	0.547200	0.842400	0.756900
H1051	H105	0.504700	0.846500	0.682100
C861	C86	0.388800	0.737300	0.679000
C871	C87	0.446800	0.719000	0.639200
H1061	H106	0.472200	0.704700	0.681100
H1071	H107	0.464100	0.751600	0.612500
H1081	H108	0.439900	0.689200	0.599300
C881	C88	0.394100	0.666100	0.786700
H1091	H109	0.432800	0.674100	0.804400
H1101	H110	0.394300	0.633200	0.750800
H1111	H111	0.370500	0.658100	0.833800
C891	C89	0.315800	0.725400	0.764400
H1121	H112	0.299900	0.691300	0.788800
H1131	H113	0.294100	0.735400	0.716200
H1141	H114	0.314200	0.756400	0.803300
C901	C90	0.223800	0.858800	0.496900
C911	C91	0.192600	0.799700	0.484400
H1151	H115	0.191800	0.790400	0.426800
H1161	H116	0.154000	0.802200	0.505000
H1171	H117	0.213100	0.770200	0.513800
C921	C92	0.159000	0.883000	0.391400
H1181	H118	0.136200	0.917200	0.385200
H1191	H119	0.135300	0.852300	0.412000
H1201	H120	0.174700	0.872100	0.338900
C931	C93	0.229400	0.952600	0.451300
H1211	H121	0.253800	0.955500	0.498900
H1221	H122	0.199100	0.980500	0.455300
H1231	H123	0.251700	0.959800	0.402600
N111	N11	0.601300	0.757000	0.353500
N121	N12	0.371300	0.715500	0.743000
N131	N13	0.485200	0.904900	0.773700
N141	N14	0.431300	0.006900	0.438400
N151	N15	0.204200	0.893600	0.447100
Ce41	Ce4	0.145580	0.629460	0.589400
O311	O31	0.057100	0.663100	0.528900
O321	O32	0.136700	0.682100	0.464400
O331	O33	0.128200	0.797300	0.211300
O341	O34	0.046900	0.809100	0.149900
O351	O35	0.903000	0.840100	0.360600
O361	O36	0.893600	0.647900	0.339900
O371	O37	0.136400	0.718400	0.646300
O381	O38	0.078500	0.600600	0.681100
O391	O39	0.120100	0.556500	0.503200
O401	O40	0.233500	0.631700	0.534600
C941	C94	0.082600	0.684200	0.469700
C951	C95	0.049700	0.713600	0.404400
C961	C96	0.077100	0.737100	0.340800
H1241	H124	0.117100	0.735500	0.338000
C971	C97	0.075200	0.791900	0.210300
C981	C98	0.046100	0.764000	0.278400
C991	C99	0.989200	0.766300	0.283100
H1251	H125	0.968500	0.785400	0.242300
C1001	C100	0.960000	0.740500	0.348400
C1011	C101	0.990200	0.714500	0.409400
H1261	H126	0.971300	0.697700	0.453800
C1021	C102	0.873100	0.798000	0.356800
C1031	C103	0.810600	0.798700	0.357000
C1041	C104	0.780100	0.748700	0.356700
C1051	C105	0.807200	0.696300	0.355400
C1061	C106	0.869500	0.691500	0.350400
C1071	C107	0.775200	0.646600	0.356300
H1271	H127	0.793700	0.611000	0.355400
C1081	C108	0.714600	0.649000	0.358600
H1281	H128	0.692700	0.615600	0.361100
C1091	C109	0.111900	0.506200	0.479900
C1101	C110	0.150100	0.455300	0.504400
H1291	H129	0.131200	0.433200	0.546400
H1301	H130	0.186200	0.469400	0.525000
H1311	H131	0.156900	0.431400	0.457100
C1111	C111	0.056900	0.436500	0.405700
H1321	H132	0.079600	0.408400	0.434700
H1331	H133	0.066600	0.435600	0.348200
H1341	H134	0.016800	0.427800	0.412400
C1121	C112	0.034200	0.543800	0.404800
H1351	H135	0.017100	0.564600	0.449800
H1361	H136	0.004400	0.529900	0.369000
H1371	H137	0.059300	0.569000	0.374600
C1131	C113	0.051900	0.579300	0.736400
C1141	C114	0.073000	0.512900	0.761100
H1381	H138	0.098200	0.514500	0.807800
H1391	H139	0.092900	0.496000	0.715300
H1401	H140	0.039900	0.489900	0.774400
C1151	C115	0.980500	0.563200	0.838500
H1411	H141	0.954700	0.536700	0.812200
H1421	H142	0.958900	0.590200	0.870700
H1431	H143	0.006300	0.542300	0.873800
C1161	C116	0.992300	0.652900	0.741000
H1441	H144	0.014800	0.683700	0.763700
H1451	H145	0.952800	0.657600	0.756900
H1461	H146	0.995300	0.653500	0.682100
C1171	C117	0.111200	0.762700	0.679000
C1181	C118	0.053200	0.781000	0.639200
H1471	H147	0.027800	0.795300	0.681100
H1481	H148	0.035900	0.748400	0.612500
H1491	H149	0.060100	0.810800	0.599300
C1191	C119	0.105900	0.833900	0.786700
H1501	H150	0.067200	0.825900	0.804400
H1511	H151	0.105700	0.866800	0.750800
H1521	H152	0.129500	0.841900	0.833800
C1201	C120	0.184200	0.774600	0.764400
H1531	H153	0.200100	0.808700	0.788800
H1541	H154	0.205900	0.764600	0.716200
H1551	H155	0.185800	0.743600	0.803300
C1211	C121	0.276200	0.641200	0.496900
C1221	C122	0.307400	0.700300	0.484400
H1561	H156	0.308200	0.709600	0.426800
H1571	H157	0.346000	0.697800	0.505000
H1581	H158	0.286900	0.729800	0.513800
C1231	C123	0.341000	0.617000	0.391400
H1591	H159	0.363800	0.582800	0.385200
H1601	H160	0.364700	0.647700	0.412000
H1611	H161	0.325300	0.627900	0.338900
C1241	C124	0.270600	0.547400	0.451300
H1621	H162	0.246200	0.544500	0.498900
H1631	H163	0.300900	0.519500	0.455300
H1641	H164	0.248300	0.540200	0.402600
N161	N16	0.898700	0.743000	0.353500
N171	N17	0.128700	0.784500	0.743000
N181	N18	0.014800	0.595100	0.773700
N191	N19	0.068700	0.493100	0.438400
N201	N20	0.295800	0.606400	0.447100
Ce51	Ce5	0.629460	0.354420	0.910600
O411	O41	0.663100	0.442900	0.971100
O421	O42	0.682100	0.363300	0.035600
O431	O43	0.797300	0.371800	0.288700
O441	O44	0.809100	0.453100	0.350100
O451	O45	0.840100	0.597000	0.139400
O461	O46	0.647900	0.606400	0.160100
O471	O47	0.718400	0.363600	0.853700
O481	O48	0.600600	0.421500	0.818900
O491	O49	0.556500	0.379900	0.996800
O501	O50	0.631700	0.266500	0.965400
C1251	C125	0.684200	0.417400	0.030300
C1261	C126	0.713600	0.450300	0.095600
C1271	C127	0.737100	0.422900	0.159200
H1651	H165	0.735500	0.382900	0.162000
C1281	C128	0.791900	0.424800	0.289700
C1291	C129	0.764000	0.453900	0.221600
C1301	C130	0.766300	0.510800	0.216900
H1661	H166	0.785400	0.531500	0.257700
C1311	C131	0.740500	0.540000	0.151600
C1321	C132	0.714500	0.509800	0.090600
H1671	H167	0.697700	0.528700	0.046200
C1331	C133	0.798000	0.626900	0.143200
C1341	C134	0.798700	0.689400	0.143000
C1351	C135	0.748700	0.719900	0.143300
C1361	C136	0.696300	0.692800	0.144600
C1371	C137	0.691500	0.630500	0.149600
C1381	C138	0.646600	0.724800	0.143700
H1681	H168	0.611000	0.706300	0.144600
C1391	C139	0.649000	0.785400	0.141400
H1691	H169	0.615600	0.807300	0.138900
C1401	C140	0.506200	0.388100	0.020100
C1411	C141	0.455300	0.349900	0.995600
H1701	H170	0.433200	0.368800	0.953600
H1711	H171	0.469400	0.313800	0.975000
H1721	H172	0.431400	0.343100	0.042900
C1421	C142	0.436500	0.443100	0.094300
H1731	H173	0.408400	0.420400	0.065300
H1741	H174	0.435600	0.433400	0.151800
H1751	H175	0.427800	0.483200	0.087600
C1431	C143	0.543800	0.465800	0.095200
H1761	H176	0.564600	0.482900	0.050200
H1771	H177	0.529900	0.495600	0.131000
H1781	H178	0.569000	0.440700	0.125400
C1441	C144	0.579300	0.448100	0.763600
C1451	C145	0.512900	0.427000	0.738900
H1791	H179	0.514500	0.401800	0.692200
H1801	H180	0.496000	0.407100	0.784700
H1811	H181	0.489900	0.460100	0.725600
C1461	C146	0.563200	0.519500	0.661500
H1821	H182	0.536700	0.545300	0.687800
H1831	H183	0.590200	0.541100	0.629300
H1841	H184	0.542300	0.493700	0.626200
C1471	C147	0.652900	0.507700	0.759000
H1851	H185	0.683700	0.485200	0.736300
H1861	H186	0.657600	0.547200	0.743100
H1871	H187	0.653500	0.504700	0.817900
C1481	C148	0.762700	0.388800	0.821000
C1491	C149	0.781000	0.446800	0.860800
H1881	H188	0.795300	0.472200	0.818900
H1891	H189	0.748400	0.464100	0.887500
H1901	H190	0.810800	0.439900	0.900700
C1501	C150	0.833900	0.394100	0.713300
H1911	H191	0.825900	0.432800	0.695600
H1921	H192	0.866800	0.394300	0.749200
H1931	H193	0.841900	0.370500	0.666200
C1511	C151	0.774600	0.315800	0.735600
H1941	H194	0.808700	0.299900	0.711200
H1951	H195	0.764600	0.294100	0.783800
H1961	H196	0.743600	0.314200	0.696700
C1521	C152	0.641200	0.223800	0.003100
C1531	C153	0.700300	0.192600	0.015600
H1971	H197	0.709600	0.191800	0.073200
H1981	H198	0.697800	0.154000	0.995000
H1991	H199	0.729800	0.213100	0.986200
C1541	C154	0.617000	0.159000	0.108600
H2001	H200	0.582800	0.136200	0.114800
H2011	H201	0.647700	0.135300	0.088000
H2021	H202	0.627900	0.174700	0.161100
C1551	C155	0.547400	0.229400	0.048700
H2031	H203	0.544500	0.253800	0.001100
H2041	H204	0.519500	0.199100	0.044700
H2051	H205	0.540200	0.251700	0.097400
N211	N21	0.743000	0.601300	0.146500
N221	N22	0.784500	0.371300	0.757000
N231	N23	0.595100	0.485200	0.726300
N241	N24	0.493100	0.431300	0.061600
N251	N25	0.606400	0.204200	0.052900
Ce61	Ce6	0.870540	0.145580	0.910600
O511	O51	0.836900	0.057100	0.971100
O521	O52	0.817900	0.136700	0.035600
O531	O53	0.702700	0.128200	0.288700
O541	O54	0.690900	0.046900	0.350100
O551	O55	0.659900	0.903000	0.139400
O561	O56	0.852100	0.893600	0.160100
O571	O57	0.781600	0.136400	0.853700
O581	O58	0.899400	0.078500	0.818900
O591	O59	0.943500	0.120100	0.996800
O601	O60	0.868300	0.233500	0.965400
C1561	C156	0.815800	0.082600	0.030300
C1571	C157	0.786400	0.049700	0.095600
C1581	C158	0.762900	0.077100	0.159200
H2061	H206	0.764500	0.117100	0.162000
C1591	C159	0.708100	0.075200	0.289700
C1601	C160	0.736000	0.046100	0.221600
C1611	C161	0.733700	0.989200	0.216900
H2071	H207	0.714600	0.968500	0.257700
C1621	C162	0.759500	0.960000	0.151600
C1631	C163	0.785500	0.990200	0.090600
H2081	H208	0.802300	0.971300	0.046200
C1641	C164	0.702000	0.873100	0.143200
C1651	C165	0.701300	0.810600	0.143000
C1661	C166	0.751300	0.780100	0.143300
C1671	C167	0.803700	0.807200	0.144600
C1681	C168	0.808500	0.869500	0.149600
C1691	C169	0.853400	0.775200	0.143700
H2091	H209	0.889000	0.793700	0.144600
C1701	C170	0.851000	0.714600	0.141400
H2101	H210	0.884400	0.692700	0.138900
C1711	C171	0.993800	0.111900	0.020100
C1721	C172	0.044700	0.150100	0.995600
H2111	H211	0.066800	0.131200	0.953600
H2121	H212	0.030600	0.186200	0.975000
H2131	H213	0.068600	0.156900	0.042900
C1731	C173	0.063500	0.056900	0.094300
H2141	H214	0.091600	0.079600	0.065300
H2151	H215	0.064400	0.066600	0.151800
H2161	H216	0.072200	0.016800	0.087600
C1741	C174	0.956200	0.034200	0.095200
H2171	H217	0.935400	0.017100	0.050200
H2181	H218	0.970100	0.004400	0.131000
H2191	H219	0.931000	0.059300	0.125400
C1751	C175	0.920700	0.051900	0.763600
C1761	C176	0.987100	0.073000	0.738900
H2201	H220	0.985500	0.098200	0.692200
H2211	H221	0.004000	0.092900	0.784700
H2221	H222	0.010100	0.039900	0.725600
C1771	C177	0.936800	0.980500	0.661500
H2231	H223	0.963300	0.954700	0.687800
H2241	H224	0.909800	0.958900	0.629300
H2251	H225	0.957700	0.006300	0.626200
C1781	C178	0.847100	0.992300	0.759000
H2261	H226	0.816300	0.014800	0.736300
H2271	H227	0.842400	0.952800	0.743100
H2281	H228	0.846500	0.995300	0.817900
C1791	C179	0.737300	0.111200	0.821000
C1801	C180	0.719000	0.053200	0.860800
H2291	H229	0.704700	0.027800	0.818900
H2301	H230	0.751600	0.035900	0.887500
H2311	H231	0.689200	0.060100	0.900700
C1811	C181	0.666100	0.105900	0.713300
H2321	H232	0.674100	0.067200	0.695600
H2331	H233	0.633200	0.105700	0.749200
H2341	H234	0.658100	0.129500	0.666200
C1821	C182	0.725400	0.184200	0.735600
H2351	H235	0.691300	0.200100	0.711200
H2361	H236	0.735400	0.205900	0.783800
H2371	H237	0.756400	0.185800	0.696700
C1831	C183	0.858800	0.276200	0.003100
C1841	C184	0.799700	0.307400	0.015600
H2381	H238	0.790400	0.308200	0.073200
H2391	H239	0.802200	0.346000	0.995000
H2401	H240	0.770200	0.286900	0.986200
C1851	C185	0.883000	0.341000	0.108600
H2411	H241	0.917200	0.363800	0.114800
H2421	H242	0.852300	0.364700	0.088000
H2431	H243	0.872100	0.325300	0.161100
C1861	C186	0.952600	0.270600	0.048700
H2441	H244	0.955500	0.246200	0.001100
H2451	H245	0.980500	0.300900	0.044700
H2461	H246	0.959800	0.248300	0.097400
N261	N26	0.757000	0.898700	0.146500
N271	N27	0.715500	0.128700	0.757000
N281	N28	0.904900	0.014800	0.726300
N291	N29	0.006900	0.068700	0.061600
N301	N30	0.893600	0.295800	0.052900
Ce71	Ce7	0.645580	0.129460	0.410600
O611	O61	0.557100	0.163100	0.471100
O621	O62	0.636700	0.182100	0.535600
O631	O63	0.628200	0.297300	0.788700
O641	O64	0.546900	0.309100	0.850100
O651	O65	0.403000	0.340100	0.639400
O661	O66	0.393600	0.147900	0.660100
O671	O67	0.636400	0.218400	0.353700
O681	O68	0.578500	0.100600	0.318900
O691	O69	0.620100	0.056500	0.496800
O701	O70	0.733500	0.131700	0.465400
C1871	C187	0.582600	0.184200	0.530300
C1881	C188	0.549700	0.213600	0.595600
C1891	C189	0.577100	0.237100	0.659200
H2471	H247	0.617100	0.235500	0.662000
C1901	C190	0.575200	0.291900	0.789700
C1911	C191	0.546100	0.264000	0.721600
C1921	C192	0.489200	0.266300	0.716900
H2481	H248	0.468500	0.285400	0.757700
C1931	C193	0.460000	0.240500	0.651600
C1941	C194	0.490200	0.214500	0.590600
H2491	H249	0.471300	0.197700	0.546200
C1951	C195	0.373100	0.298000	0.643200
C1961	C196	0.310600	0.298700	0.643000
C1971	C197	0.280100	0.248700	0.643300
C1981	C198	0.307200	0.196300	0.644600
C1991	C199	0.369500	0.191500	0.649600
C2001	C200	0.275200	0.146600	0.643700
H2501	H250	0.293700	0.111000	0.644600
C2011	C201	0.214600	0.149000	0.641400
H2511	H251	0.192700	0.115600	0.638900
C2021	C202	0.611900	0.006200	0.520100
C2031	C203	0.650100	0.955300	0.495600
H2521	H252	0.631200	0.933200	0.453600
H2531	H253	0.686200	0.969400	0.475000
H2541	H254	0.656900	0.931400	0.542900
C2041	C204	0.556900	0.936500	0.594300
H2551	H255	0.579600	0.908400	0.565300
H2561	H256	0.566600	0.935600	0.651800
H2571	H257	0.516800	0.927800	0.587600
C2051	C205	0.534200	0.043800	0.595200
H2581	H258	0.517100	0.064600	0.550200
H2591	H259	0.504400	0.029900	0.631000
H2601	H260	0.559300	0.069000	0.625400
C2061	C206	0.551900	0.079300	0.263600
C2071	C207	0.573000	0.012900	0.238900
H2611	H261	0.598200	0.014500	0.192200
H2621	H262	0.592900	0.996000	0.284700
H2631	H263	0.539900	0.989900	0.225600
C2081	C208	0.480500	0.063200	0.161500
H2641	H264	0.454700	0.036700	0.187800
H2651	H265	0.458900	0.090200	0.129300
H2661	H266	0.506300	0.042300	0.126200
C2091	C209	0.492300	0.152900	0.259000
H2671	H267	0.514800	0.183700	0.236300
H2681	H268	0.452800	0.157600	0.243100
H2691	H269	0.495300	0.153500	0.317900
C2101	C210	0.611200	0.262700	0.321000
C2111	C211	0.553200	0.281000	0.360800
H2701	H270	0.527800	0.295300	0.318900
H2711	H271	0.535900	0.248400	0.387500
H2721	H272	0.560100	0.310800	0.400700
C2121	C212	0.605900	0.333900	0.213300
H2731	H273	0.567200	0.325900	0.195600
H2741	H274	0.605700	0.366800	0.249200
H2751	H275	0.629500	0.341900	0.166200
C2131	C213	0.684200	0.274600	0.235600
H2761	H276	0.700100	0.308700	0.211200
H2771	H277	0.705900	0.264600	0.283800
H2781	H278	0.685800	0.243600	0.196700
C2141	C214	0.776200	0.141200	0.503100
C2151	C215	0.807400	0.200300	0.515600
H2791	H279	0.808200	0.209600	0.573200
H2801	H280	0.846000	0.197800	0.495000
H2811	H281	0.786900	0.229800	0.486200
C2161	C216	0.841000	0.117000	0.608600
H2821	H282	0.863800	0.082800	0.614800
H2831	H283	0.864700	0.147700	0.588000
H2841	H284	0.825300	0.127900	0.661100
C2171	C217	0.770600	0.047400	0.548700
H2851	H285	0.746200	0.044500	0.501100
H2861	H286	0.800900	0.019500	0.544700
H2871	H287	0.748300	0.040200	0.597400
N311	N31	0.398700	0.243000	0.646500
N321	N32	0.628700	0.284500	0.257000
N331	N33	0.514800	0.095100	0.226300
N341	N34	0.568700	0.993100	0.561600
N351	N35	0.795800	0.106400	0.552900
Ce81	Ce8	0.854420	0.370540	0.410600
O711	O71	0.942900	0.336900	0.471100
O721	O72	0.863300	0.317900	0.535600
O731	O73	0.871800	0.202700	0.788700
O741	O74	0.953100	0.190900	0.850100
O751	O75	0.097000	0.159900	0.639400
O761	O76	0.106400	0.352100	0.660100
O771	O77	0.863600	0.281600	0.353700
O781	O78	0.921500	0.399400	0.318900
O791	O79	0.879900	0.443500	0.496800
O801	O80	0.766500	0.368300	0.465400
C2181	C218	0.917400	0.315800	0.530300
C2191	C219	0.950300	0.286400	0.595600
C2201	C220	0.922900	0.262900	0.659200
H2881	H288	0.882900	0.264500	0.662000
C2211	C221	0.924800	0.208100	0.789700
C2221	C222	0.953900	0.236000	0.721600
C2231	C223	0.010800	0.233700	0.716900
H2891	H289	0.031500	0.214600	0.757700
C2241	C224	0.040000	0.259500	0.651600
C2251	C225	0.009800	0.285500	0.590600
H2901	H290	0.028700	0.302300	0.546200
C2261	C226	0.126900	0.202000	0.643200
C2271	C227	0.189400	0.201300	0.643000
C2281	C228	0.219900	0.251300	0.643300
C2291	C229	0.192800	0.303700	0.644600
C2301	C230	0.130500	0.308500	0.649600
C2311	C231	0.224800	0.353400	0.643700
H2911	H291	0.206300	0.389000	0.644600
C2321	C232	0.285400	0.351000	0.641400
H2921	H292	0.307300	0.384400	0.638900
C2331	C233	0.888100	0.493800	0.520100
C2341	C234	0.849900	0.544700	0.495600
H2931	H293	0.868800	0.566800	0.453600
H2941	H294	0.813800	0.530600	0.475000
H2951	H295	0.843100	0.568600	0.542900
C2351	C235	0.943100	0.563500	0.594300
H2961	H296	0.920400	0.591600	0.565300
H2971	H297	0.933400	0.564400	0.651800
H2981	H298	0.983200	0.572200	0.587600
C2361	C236	0.965800	0.456200	0.595200
H2991	H299	0.982900	0.435400	0.550200
H3001	H300	0.995600	0.470100	0.631000
H3011	H301	0.940700	0.431000	0.625400
C2371	C237	0.948100	0.420700	0.263600
C2381	C238	0.927000	0.487100	0.238900
H3021	H302	0.901800	0.485500	0.192200
H3031	H303	0.907100	0.504000	0.284700
H3041	H304	0.960100	0.510100	0.225600
C2391	C239	0.019500	0.436800	0.161500
H3051	H305	0.045300	0.463300	0.187800
H3061	H306	0.041100	0.409800	0.129300
H3071	H307	0.993700	0.457700	0.126200
C2401	C240	0.007700	0.347100	0.259000
H3081	H308	0.985200	0.316300	0.236300
H3091	H309	0.047200	0.342400	0.243100
H3101	H310	0.004700	0.346500	0.317900
C2411	C241	0.888800	0.237300	0.321000
C2421	C242	0.946800	0.219000	0.360800
H3111	H311	0.972200	0.204700	0.318900
H3121	H312	0.964100	0.251600	0.387500
H3131	H313	0.939900	0.189200	0.400700
C2431	C243	0.894100	0.166100	0.213300
H3141	H314	0.932800	0.174100	0.195600
H3151	H315	0.894300	0.133200	0.249200
H3161	H316	0.870500	0.158100	0.166200
C2441	C244	0.815800	0.225400	0.235600
H3171	H317	0.799900	0.191300	0.211200
H3181	H318	0.794100	0.235400	0.283800
H3191	H319	0.814200	0.256400	0.196700
C2451	C245	0.723800	0.358800	0.503100
C2461	C246	0.692600	0.299700	0.515600
H3201	H320	0.691800	0.290400	0.573200
H3211	H321	0.654000	0.302200	0.495000
H3221	H322	0.713100	0.270200	0.486200
C2471	C247	0.659000	0.383000	0.608600
H3231	H323	0.636200	0.417200	0.614800
H3241	H324	0.635300	0.352300	0.588000
H3251	H325	0.674700	0.372100	0.661100
C2481	C248	0.729400	0.452600	0.548700
H3261	H326	0.753800	0.455500	0.501100
H3271	H327	0.699100	0.480500	0.544700
H3281	H328	0.751700	0.459800	0.597400
N361	N36	0.101300	0.257000	0.646500
N371	N37	0.871300	0.215500	0.257000
N381	N38	0.985200	0.404900	0.226300
N391	N39	0.931300	0.506900	0.561600
N401	N40	0.704200	0.393600	0.552900
