data_NANYUX03_freeONLY_PM
_symmetry_space_group_name_H-M	'P1'
_cell_length_a	9.429900
_cell_length_b	16.490000
_cell_length_c	11.280300
_cell_angle_alpha	90.000000
_cell_angle_beta	97.731000
_cell_angle_gamma	90.000000
_symmetry_Int_Tables_number 1

loop_
_symmetry_equiv_pos_as_xyz
'x,y,z'

loop_
_atom_site_label
_atom_site_type_symbol
_atom_site_fract_x
_atom_site_fract_y
_atom_site_fract_z
Zn11	Zn1	0.366630	0.077540	0.049120
O11	O1	0.707820	0.420330	0.642090
O21	O2	0.426110	0.163070	0.949590
O31	O3	0.193570	0.191280	0.910020
O41	O4	0.768760	0.297170	0.712630
O51	O5	0.045060	0.435980	0.661620
O61	O6	0.199790	0.479920	0.541180
C11	C1	0.319310	0.204500	0.899440
C21	C2	0.357230	0.273210	0.820680
C31	C3	0.497380	0.283450	0.797200
H11	H1	0.569000	0.249200	0.833000
C41	C4	0.531140	0.344590	0.720430
C51	C5	0.423490	0.395580	0.667190
H21	H2	0.445500	0.436600	0.616100
C61	C6	0.282560	0.385610	0.689890
C71	C7	0.250100	0.324610	0.767140
H31	H3	0.156500	0.318100	0.783100
C81	C8	0.680850	0.353120	0.690430
C91	C9	0.166610	0.438200	0.626520
Zn21	Zn2	0.133370	0.577540	0.450880
O71	O7	0.792180	0.920330	0.857910
O81	O8	0.073890	0.663070	0.550410
O91	O9	0.306430	0.691280	0.589980
O101	O10	0.731240	0.797170	0.787370
O111	O11	0.454940	0.935980	0.838380
O121	O12	0.300210	0.979920	0.958820
C101	C10	0.180690	0.704500	0.600560
C111	C11	0.142770	0.773210	0.679320
C121	C12	0.002620	0.783450	0.702800
H41	H4	0.931000	0.749200	0.667000
C131	C13	0.968860	0.844590	0.779570
C141	C14	0.076510	0.895580	0.832810
H51	H5	0.054500	0.936600	0.883900
C151	C15	0.217440	0.885610	0.810110
C161	C16	0.249900	0.824610	0.732860
H61	H6	0.343500	0.818100	0.716900
C171	C17	0.819150	0.853120	0.809570
C181	C18	0.333390	0.938200	0.873480
Zn31	Zn3	0.633370	0.922460	0.950880
O131	O13	0.292180	0.579670	0.357910
O141	O14	0.573890	0.836930	0.050410
O151	O15	0.806430	0.808720	0.089980
O161	O16	0.231240	0.702830	0.287370
O171	O17	0.954940	0.564020	0.338380
O181	O18	0.800210	0.520080	0.458820
C191	C19	0.680690	0.795500	0.100560
C201	C20	0.642770	0.726790	0.179320
C211	C21	0.502620	0.716550	0.202800
H71	H7	0.431000	0.750800	0.167000
C221	C22	0.468860	0.655410	0.279570
C231	C23	0.576510	0.604420	0.332810
H81	H8	0.554500	0.563400	0.383900
C241	C24	0.717440	0.614390	0.310110
C251	C25	0.749900	0.675390	0.232860
H91	H9	0.843500	0.681900	0.216900
C261	C26	0.319150	0.646880	0.309570
C271	C27	0.833390	0.561800	0.373480
Zn41	Zn4	0.866630	0.422460	0.549120
O191	O19	0.207820	0.079670	0.142090
O201	O20	0.926110	0.336930	0.449590
O211	O21	0.693570	0.308720	0.410020
O221	O22	0.268760	0.202830	0.212630
O231	O23	0.545060	0.064020	0.161620
O241	O24	0.699790	0.020080	0.041180
C281	C28	0.819310	0.295500	0.399440
C291	C29	0.857230	0.226790	0.320680
C301	C30	0.997380	0.216550	0.297200
H101	H10	0.069000	0.250800	0.333000
C311	C31	0.031140	0.155410	0.220430
C321	C32	0.923490	0.104420	0.167190
H111	H11	0.945500	0.063400	0.116100
C331	C33	0.782560	0.114390	0.189890
C341	C34	0.750100	0.175390	0.267140
H121	H12	0.656500	0.181900	0.283100
C351	C35	0.180850	0.146880	0.190430
C361	C36	0.666610	0.061800	0.126520
