data_NAPNEA_freeONLY_PM
_symmetry_space_group_name_H-M	'P1'
_cell_length_a	30.756100
_cell_length_b	30.756100
_cell_length_c	30.756100
_cell_angle_alpha	90.000000
_cell_angle_beta	90.000000
_cell_angle_gamma	90.000000
_symmetry_Int_Tables_number 1

loop_
_symmetry_equiv_pos_as_xyz
'x,y,z'

loop_
_atom_site_label
_atom_site_type_symbol
_atom_site_fract_x
_atom_site_fract_y
_atom_site_fract_z
N11	N1	0.227900	0.158800	0.082200
C11	C1	0.230800	0.198400	0.063600
H11	H1	0.206800	0.209100	0.047300
C21	C2	0.266900	0.223200	0.067600
H21	H2	0.268000	0.250900	0.054000
C31	C3	0.302200	0.208400	0.091500
H31	H3	0.327500	0.225900	0.094300
C41	C4	0.300600	0.167800	0.111200
C51	C5	0.261900	0.144600	0.105100
H41	H4	0.259700	0.116800	0.118200
C61	C6	0.324600	0.107900	0.185700
H51	H5	0.308600	0.084100	0.171900
H61	H6	0.348500	0.095900	0.203100
H71	H7	0.305000	0.124400	0.204500
C71	C7	0.377800	0.189700	0.168700
H81	H8	0.389500	0.208700	0.146000
H91	H9	0.358200	0.206400	0.187500
H101	H10	0.401700	0.177900	0.186100
Si11	Si1	0.347090	0.144240	0.143140
N21	N2	0.727900	0.658800	0.582200
C81	C8	0.730800	0.698400	0.563600
H111	H11	0.706800	0.709100	0.547300
C91	C9	0.766900	0.723200	0.567600
H121	H12	0.768000	0.750900	0.554000
C101	C10	0.802200	0.708400	0.591500
H131	H13	0.827500	0.725900	0.594300
C111	C11	0.800600	0.667800	0.611200
C121	C12	0.761900	0.644600	0.605100
H141	H14	0.759700	0.616800	0.618200
C131	C13	0.824600	0.607900	0.685700
H151	H15	0.808600	0.584100	0.671900
H161	H16	0.848500	0.595900	0.703100
H171	H17	0.805000	0.624400	0.704500
C141	C14	0.877800	0.689700	0.668700
H181	H18	0.889500	0.708700	0.646000
H191	H19	0.858200	0.706400	0.687500
H201	H20	0.901700	0.677900	0.686100
Si21	Si2	0.847090	0.644240	0.643140
N31	N3	0.272100	0.841200	0.582200
C151	C15	0.269200	0.801600	0.563600
H211	H21	0.293200	0.790900	0.547300
C161	C16	0.233100	0.776800	0.567600
H221	H22	0.232000	0.749100	0.554000
C171	C17	0.197800	0.791600	0.591500
H231	H23	0.172500	0.774100	0.594300
C181	C18	0.199400	0.832200	0.611200
C191	C19	0.238100	0.855400	0.605100
H241	H24	0.240300	0.883200	0.618200
C201	C20	0.175400	0.892100	0.685700
H251	H25	0.191400	0.915900	0.671900
H261	H26	0.151500	0.904100	0.703100
H271	H27	0.195000	0.875600	0.704500
C211	C21	0.122200	0.810300	0.668700
H281	H28	0.110500	0.791300	0.646000
H291	H29	0.141800	0.793600	0.687500
H301	H30	0.098300	0.822100	0.686100
Si31	Si3	0.152910	0.855760	0.643140
N41	N4	0.772100	0.341200	0.082200
C221	C22	0.769200	0.301600	0.063600
H311	H31	0.793200	0.290900	0.047300
C231	C23	0.733100	0.276800	0.067600
H321	H32	0.732000	0.249100	0.054000
C241	C24	0.697800	0.291600	0.091500
H331	H33	0.672500	0.274100	0.094300
C251	C25	0.699400	0.332200	0.111200
C261	C26	0.738100	0.355400	0.105100
H341	H34	0.740300	0.383200	0.118200
C271	C27	0.675400	0.392100	0.185700
H351	H35	0.691400	0.415900	0.171900
H361	H36	0.651500	0.404100	0.203100
H371	H37	0.695000	0.375600	0.204500
C281	C28	0.622200	0.310300	0.168700
H381	H38	0.610500	0.291300	0.146000
H391	H39	0.641800	0.293600	0.187500
H401	H40	0.598300	0.322100	0.186100
Si41	Si4	0.652910	0.355760	0.143140
N51	N5	0.772100	0.658800	0.417800
C291	C29	0.769200	0.698400	0.436400
H411	H41	0.793200	0.709100	0.452700
C301	C30	0.733100	0.723200	0.432400
H421	H42	0.732000	0.750900	0.446000
C311	C31	0.697800	0.708400	0.408500
H431	H43	0.672500	0.725900	0.405700
C321	C32	0.699400	0.667800	0.388800
C331	C33	0.738100	0.644600	0.394900
H441	H44	0.740300	0.616800	0.381800
C341	C34	0.675400	0.607900	0.314300
H451	H45	0.691400	0.584100	0.328100
H461	H46	0.651500	0.595900	0.296900
H471	H47	0.695000	0.624400	0.295500
C351	C35	0.622200	0.689700	0.331300
H481	H48	0.610500	0.708700	0.354000
H491	H49	0.641800	0.706400	0.312500
H501	H50	0.598300	0.677900	0.313900
Si51	Si5	0.652910	0.644240	0.356860
N61	N6	0.272100	0.158800	0.917800
C361	C36	0.269200	0.198400	0.936400
H511	H51	0.293200	0.209100	0.952700
C371	C37	0.233100	0.223200	0.932400
H521	H52	0.232000	0.250900	0.946000
C381	C38	0.197800	0.208400	0.908500
H531	H53	0.172500	0.225900	0.905700
C391	C39	0.199400	0.167800	0.888800
C401	C40	0.238100	0.144600	0.894900
H541	H54	0.240300	0.116800	0.881800
C411	C41	0.175400	0.107900	0.814300
H551	H55	0.191400	0.084100	0.828100
H561	H56	0.151500	0.095900	0.796900
H571	H57	0.195000	0.124400	0.795500
C421	C42	0.122200	0.189700	0.831300
H581	H58	0.110500	0.208700	0.854000
H591	H59	0.141800	0.206400	0.812500
H601	H60	0.098300	0.177900	0.813900
Si61	Si6	0.152910	0.144240	0.856860
N71	N7	0.727900	0.341200	0.917800
C431	C43	0.730800	0.301600	0.936400
H611	H61	0.706800	0.290900	0.952700
C441	C44	0.766900	0.276800	0.932400
H621	H62	0.768000	0.249100	0.946000
C451	C45	0.802200	0.291600	0.908500
H631	H63	0.827500	0.274100	0.905700
C461	C46	0.800600	0.332200	0.888800
C471	C47	0.761900	0.355400	0.894900
H641	H64	0.759700	0.383200	0.881800
C481	C48	0.824600	0.392100	0.814300
H651	H65	0.808600	0.415900	0.828100
H661	H66	0.848500	0.404100	0.796900
H671	H67	0.805000	0.375600	0.795500
C491	C49	0.877800	0.310300	0.831300
H681	H68	0.889500	0.291300	0.854000
H691	H69	0.858200	0.293600	0.812500
H701	H70	0.901700	0.322100	0.813900
Si71	Si7	0.847090	0.355760	0.856860
N81	N8	0.227900	0.841200	0.417800
C501	C50	0.230800	0.801600	0.436400
H711	H71	0.206800	0.790900	0.452700
C511	C51	0.266900	0.776800	0.432400
H721	H72	0.268000	0.749100	0.446000
C521	C52	0.302200	0.791600	0.408500
H731	H73	0.327500	0.774100	0.405700
C531	C53	0.300600	0.832200	0.388800
C541	C54	0.261900	0.855400	0.394900
H741	H74	0.259700	0.883200	0.381800
C551	C55	0.324600	0.892100	0.314300
H751	H75	0.308600	0.915900	0.328100
H761	H76	0.348500	0.904100	0.296900
H771	H77	0.305000	0.875600	0.295500
C561	C56	0.377800	0.810300	0.331300
H781	H78	0.389500	0.791300	0.354000
H791	H79	0.358200	0.793600	0.312500
H801	H80	0.401700	0.822100	0.313900
Si81	Si8	0.347090	0.855760	0.356860
N91	N9	0.082200	0.227900	0.158800
C571	C57	0.063600	0.230800	0.198400
H811	H81	0.047300	0.206800	0.209100
C581	C58	0.067600	0.266900	0.223200
H821	H82	0.054000	0.268000	0.250900
C591	C59	0.091500	0.302200	0.208400
H831	H83	0.094300	0.327500	0.225900
C601	C60	0.111200	0.300600	0.167800
C611	C61	0.105100	0.261900	0.144600
H841	H84	0.118200	0.259700	0.116800
C621	C62	0.185700	0.324600	0.107900
H851	H85	0.171900	0.308600	0.084100
H861	H86	0.203100	0.348500	0.095900
H871	H87	0.204500	0.305000	0.124400
C631	C63	0.168700	0.377800	0.189700
H881	H88	0.146000	0.389500	0.208700
H891	H89	0.187500	0.358200	0.206400
H901	H90	0.186100	0.401700	0.177900
Si91	Si9	0.143140	0.347090	0.144240
N101	N10	0.582200	0.727900	0.658800
C641	C64	0.563600	0.730800	0.698400
H911	H91	0.547300	0.706800	0.709100
C651	C65	0.567600	0.766900	0.723200
H921	H92	0.554000	0.768000	0.750900
C661	C66	0.591500	0.802200	0.708400
H931	H93	0.594300	0.827500	0.725900
C671	C67	0.611200	0.800600	0.667800
C681	C68	0.605100	0.761900	0.644600
H941	H94	0.618200	0.759700	0.616800
C691	C69	0.685700	0.824600	0.607900
H951	H95	0.671900	0.808600	0.584100
H961	H96	0.703100	0.848500	0.595900
H971	H97	0.704500	0.805000	0.624400
C701	C70	0.668700	0.877800	0.689700
H981	H98	0.646000	0.889500	0.708700
H991	H99	0.687500	0.858200	0.706400
H1001	H100	0.686100	0.901700	0.677900
Si101	Si10	0.643140	0.847090	0.644240
N111	N11	0.582200	0.272100	0.841200
C711	C71	0.563600	0.269200	0.801600
H1011	H101	0.547300	0.293200	0.790900
C721	C72	0.567600	0.233100	0.776800
H1021	H102	0.554000	0.232000	0.749100
C731	C73	0.591500	0.197800	0.791600
H1031	H103	0.594300	0.172500	0.774100
C741	C74	0.611200	0.199400	0.832200
C751	C75	0.605100	0.238100	0.855400
H1041	H104	0.618200	0.240300	0.883200
C761	C76	0.685700	0.175400	0.892100
H1051	H105	0.671900	0.191400	0.915900
H1061	H106	0.703100	0.151500	0.904100
H1071	H107	0.704500	0.195000	0.875600
C771	C77	0.668700	0.122200	0.810300
H1081	H108	0.646000	0.110500	0.791300
H1091	H109	0.687500	0.141800	0.793600
H1101	H110	0.686100	0.098300	0.822100
Si111	Si11	0.643140	0.152910	0.855760
N121	N12	0.082200	0.772100	0.341200
C781	C78	0.063600	0.769200	0.301600
H1111	H111	0.047300	0.793200	0.290900
C791	C79	0.067600	0.733100	0.276800
H1121	H112	0.054000	0.732000	0.249100
C801	C80	0.091500	0.697800	0.291600
H1131	H113	0.094300	0.672500	0.274100
C811	C81	0.111200	0.699400	0.332200
C821	C82	0.105100	0.738100	0.355400
H1141	H114	0.118200	0.740300	0.383200
C831	C83	0.185700	0.675400	0.392100
H1151	H115	0.171900	0.691400	0.415900
H1161	H116	0.203100	0.651500	0.404100
H1171	H117	0.204500	0.695000	0.375600
C841	C84	0.168700	0.622200	0.310300
H1181	H118	0.146000	0.610500	0.291300
H1191	H119	0.187500	0.641800	0.293600
H1201	H120	0.186100	0.598300	0.322100
Si121	Si12	0.143140	0.652910	0.355760
N131	N13	0.417800	0.772100	0.658800
C851	C85	0.436400	0.769200	0.698400
H1211	H121	0.452700	0.793200	0.709100
C861	C86	0.432400	0.733100	0.723200
H1221	H122	0.446000	0.732000	0.750900
C871	C87	0.408500	0.697800	0.708400
H1231	H123	0.405700	0.672500	0.725900
C881	C88	0.388800	0.699400	0.667800
C891	C89	0.394900	0.738100	0.644600
H1241	H124	0.381800	0.740300	0.616800
C901	C90	0.314300	0.675400	0.607900
H1251	H125	0.328100	0.691400	0.584100
H1261	H126	0.296900	0.651500	0.595900
H1271	H127	0.295500	0.695000	0.624400
C911	C91	0.331300	0.622200	0.689700
H1281	H128	0.354000	0.610500	0.708700
H1291	H129	0.312500	0.641800	0.706400
H1301	H130	0.313900	0.598300	0.677900
Si131	Si13	0.356860	0.652910	0.644240
N141	N14	0.917800	0.272100	0.158800
C921	C92	0.936400	0.269200	0.198400
H1311	H131	0.952700	0.293200	0.209100
C931	C93	0.932400	0.233100	0.223200
H1321	H132	0.946000	0.232000	0.250900
C941	C94	0.908500	0.197800	0.208400
H1331	H133	0.905700	0.172500	0.225900
C951	C95	0.888800	0.199400	0.167800
C961	C96	0.894900	0.238100	0.144600
H1341	H134	0.881800	0.240300	0.116800
C971	C97	0.814300	0.175400	0.107900
H1351	H135	0.828100	0.191400	0.084100
H1361	H136	0.796900	0.151500	0.095900
H1371	H137	0.795500	0.195000	0.124400
C981	C98	0.831300	0.122200	0.189700
H1381	H138	0.854000	0.110500	0.208700
H1391	H139	0.812500	0.141800	0.206400
H1401	H140	0.813900	0.098300	0.177900
Si141	Si14	0.856860	0.152910	0.144240
N151	N15	0.917800	0.727900	0.341200
C991	C99	0.936400	0.730800	0.301600
H1411	H141	0.952700	0.706800	0.290900
C1001	C100	0.932400	0.766900	0.276800
H1421	H142	0.946000	0.768000	0.249100
C1011	C101	0.908500	0.802200	0.291600
H1431	H143	0.905700	0.827500	0.274100
C1021	C102	0.888800	0.800600	0.332200
C1031	C103	0.894900	0.761900	0.355400
H1441	H144	0.881800	0.759700	0.383200
C1041	C104	0.814300	0.824600	0.392100
H1451	H145	0.828100	0.808600	0.415900
H1461	H146	0.796900	0.848500	0.404100
H1471	H147	0.795500	0.805000	0.375600
C1051	C105	0.831300	0.877800	0.310300
H1481	H148	0.854000	0.889500	0.291300
H1491	H149	0.812500	0.858200	0.293600
H1501	H150	0.813900	0.901700	0.322100
Si151	Si15	0.856860	0.847090	0.355760
N161	N16	0.417800	0.227900	0.841200
C1061	C106	0.436400	0.230800	0.801600
H1511	H151	0.452700	0.206800	0.790900
C1071	C107	0.432400	0.266900	0.776800
H1521	H152	0.446000	0.268000	0.749100
C1081	C108	0.408500	0.302200	0.791600
H1531	H153	0.405700	0.327500	0.774100
C1091	C109	0.388800	0.300600	0.832200
C1101	C110	0.394900	0.261900	0.855400
H1541	H154	0.381800	0.259700	0.883200
C1111	C111	0.314300	0.324600	0.892100
H1551	H155	0.328100	0.308600	0.915900
H1561	H156	0.296900	0.348500	0.904100
H1571	H157	0.295500	0.305000	0.875600
C1121	C112	0.331300	0.377800	0.810300
H1581	H158	0.354000	0.389500	0.791300
H1591	H159	0.312500	0.358200	0.793600
H1601	H160	0.313900	0.401700	0.822100
Si161	Si16	0.356860	0.347090	0.855760
N171	N17	0.158800	0.082200	0.227900
C1131	C113	0.198400	0.063600	0.230800
H1611	H161	0.209100	0.047300	0.206800
C1141	C114	0.223200	0.067600	0.266900
H1621	H162	0.250900	0.054000	0.268000
C1151	C115	0.208400	0.091500	0.302200
H1631	H163	0.225900	0.094300	0.327500
C1161	C116	0.167800	0.111200	0.300600
C1171	C117	0.144600	0.105100	0.261900
H1641	H164	0.116800	0.118200	0.259700
C1181	C118	0.107900	0.185700	0.324600
H1651	H165	0.084100	0.171900	0.308600
H1661	H166	0.095900	0.203100	0.348500
H1671	H167	0.124400	0.204500	0.305000
C1191	C119	0.189700	0.168700	0.377800
H1681	H168	0.208700	0.146000	0.389500
H1691	H169	0.206400	0.187500	0.358200
H1701	H170	0.177900	0.186100	0.401700
Si171	Si17	0.144240	0.143140	0.347090
N181	N18	0.658800	0.582200	0.727900
C1201	C120	0.698400	0.563600	0.730800
H1711	H171	0.709100	0.547300	0.706800
C1211	C121	0.723200	0.567600	0.766900
H1721	H172	0.750900	0.554000	0.768000
C1221	C122	0.708400	0.591500	0.802200
H1731	H173	0.725900	0.594300	0.827500
C1231	C123	0.667800	0.611200	0.800600
C1241	C124	0.644600	0.605100	0.761900
H1741	H174	0.616800	0.618200	0.759700
C1251	C125	0.607900	0.685700	0.824600
H1751	H175	0.584100	0.671900	0.808600
H1761	H176	0.595900	0.703100	0.848500
H1771	H177	0.624400	0.704500	0.805000
C1261	C126	0.689700	0.668700	0.877800
H1781	H178	0.708700	0.646000	0.889500
H1791	H179	0.706400	0.687500	0.858200
H1801	H180	0.677900	0.686100	0.901700
Si181	Si18	0.644240	0.643140	0.847090
N191	N19	0.841200	0.582200	0.272100
C1271	C127	0.801600	0.563600	0.269200
H1811	H181	0.790900	0.547300	0.293200
C1281	C128	0.776800	0.567600	0.233100
H1821	H182	0.749100	0.554000	0.232000
C1291	C129	0.791600	0.591500	0.197800
H1831	H183	0.774100	0.594300	0.172500
C1301	C130	0.832200	0.611200	0.199400
C1311	C131	0.855400	0.605100	0.238100
H1841	H184	0.883200	0.618200	0.240300
C1321	C132	0.892100	0.685700	0.175400
H1851	H185	0.915900	0.671900	0.191400
H1861	H186	0.904100	0.703100	0.151500
H1871	H187	0.875600	0.704500	0.195000
C1331	C133	0.810300	0.668700	0.122200
H1881	H188	0.791300	0.646000	0.110500
H1891	H189	0.793600	0.687500	0.141800
H1901	H190	0.822100	0.686100	0.098300
Si191	Si19	0.855760	0.643140	0.152910
N201	N20	0.341200	0.082200	0.772100
C1341	C134	0.301600	0.063600	0.769200
H1911	H191	0.290900	0.047300	0.793200
C1351	C135	0.276800	0.067600	0.733100
H1921	H192	0.249100	0.054000	0.732000
C1361	C136	0.291600	0.091500	0.697800
H1931	H193	0.274100	0.094300	0.672500
C1371	C137	0.332200	0.111200	0.699400
C1381	C138	0.355400	0.105100	0.738100
H1941	H194	0.383200	0.118200	0.740300
C1391	C139	0.392100	0.185700	0.675400
H1951	H195	0.415900	0.171900	0.691400
H1961	H196	0.404100	0.203100	0.651500
H1971	H197	0.375600	0.204500	0.695000
C1401	C140	0.310300	0.168700	0.622200
H1981	H198	0.291300	0.146000	0.610500
H1991	H199	0.293600	0.187500	0.641800
H2001	H200	0.322100	0.186100	0.598300
Si201	Si20	0.355760	0.143140	0.652910
N211	N21	0.658800	0.417800	0.772100
C1411	C141	0.698400	0.436400	0.769200
H2011	H201	0.709100	0.452700	0.793200
C1421	C142	0.723200	0.432400	0.733100
H2021	H202	0.750900	0.446000	0.732000
C1431	C143	0.708400	0.408500	0.697800
H2031	H203	0.725900	0.405700	0.672500
C1441	C144	0.667800	0.388800	0.699400
C1451	C145	0.644600	0.394900	0.738100
H2041	H204	0.616800	0.381800	0.740300
C1461	C146	0.607900	0.314300	0.675400
H2051	H205	0.584100	0.328100	0.691400
H2061	H206	0.595900	0.296900	0.651500
H2071	H207	0.624400	0.295500	0.695000
C1471	C147	0.689700	0.331300	0.622200
H2081	H208	0.708700	0.354000	0.610500
H2091	H209	0.706400	0.312500	0.641800
H2101	H210	0.677900	0.313900	0.598300
Si211	Si21	0.644240	0.356860	0.652910
N221	N22	0.158800	0.917800	0.272100
C1481	C148	0.198400	0.936400	0.269200
H2111	H211	0.209100	0.952700	0.293200
C1491	C149	0.223200	0.932400	0.233100
H2121	H212	0.250900	0.946000	0.232000
C1501	C150	0.208400	0.908500	0.197800
H2131	H213	0.225900	0.905700	0.172500
C1511	C151	0.167800	0.888800	0.199400
C1521	C152	0.144600	0.894900	0.238100
H2141	H214	0.116800	0.881800	0.240300
C1531	C153	0.107900	0.814300	0.175400
H2151	H215	0.084100	0.828100	0.191400
H2161	H216	0.095900	0.796900	0.151500
H2171	H217	0.124400	0.795500	0.195000
C1541	C154	0.189700	0.831300	0.122200
H2181	H218	0.208700	0.854000	0.110500
H2191	H219	0.206400	0.812500	0.141800
H2201	H220	0.177900	0.813900	0.098300
Si221	Si22	0.144240	0.856860	0.152910
N231	N23	0.341200	0.917800	0.727900
C1551	C155	0.301600	0.936400	0.730800
H2211	H221	0.290900	0.952700	0.706800
C1561	C156	0.276800	0.932400	0.766900
H2221	H222	0.249100	0.946000	0.768000
C1571	C157	0.291600	0.908500	0.802200
H2231	H223	0.274100	0.905700	0.827500
C1581	C158	0.332200	0.888800	0.800600
C1591	C159	0.355400	0.894900	0.761900
H2241	H224	0.383200	0.881800	0.759700
C1601	C160	0.392100	0.814300	0.824600
H2251	H225	0.415900	0.828100	0.808600
H2261	H226	0.404100	0.796900	0.848500
H2271	H227	0.375600	0.795500	0.805000
C1611	C161	0.310300	0.831300	0.877800
H2281	H228	0.291300	0.854000	0.889500
H2291	H229	0.293600	0.812500	0.858200
H2301	H230	0.322100	0.813900	0.901700
Si231	Si23	0.355760	0.856860	0.847090
N241	N24	0.841200	0.417800	0.227900
C1621	C162	0.801600	0.436400	0.230800
H2311	H231	0.790900	0.452700	0.206800
C1631	C163	0.776800	0.432400	0.266900
H2321	H232	0.749100	0.446000	0.268000
C1641	C164	0.791600	0.408500	0.302200
H2331	H233	0.774100	0.405700	0.327500
C1651	C165	0.832200	0.388800	0.300600
C1661	C166	0.855400	0.394900	0.261900
H2341	H234	0.883200	0.381800	0.259700
C1671	C167	0.892100	0.314300	0.324600
H2351	H235	0.915900	0.328100	0.308600
H2361	H236	0.904100	0.296900	0.348500
H2371	H237	0.875600	0.295500	0.305000
C1681	C168	0.810300	0.331300	0.377800
H2381	H238	0.791300	0.354000	0.389500
H2391	H239	0.793600	0.312500	0.358200
H2401	H240	0.822100	0.313900	0.401700
Si241	Si24	0.855760	0.356860	0.347090
N251	N25	0.908800	0.477900	0.167800
C1691	C169	0.948400	0.480800	0.186400
H2411	H241	0.959100	0.456800	0.202700
C1701	C170	0.973200	0.516900	0.182400
H2421	H242	0.000900	0.518000	0.196000
C1711	C171	0.958400	0.552200	0.158500
H2431	H243	0.975900	0.577500	0.155700
C1721	C172	0.917800	0.550600	0.138800
C1731	C173	0.894600	0.511900	0.144900
H2441	H244	0.866800	0.509700	0.131800
C1741	C174	0.857900	0.574600	0.064300
H2451	H245	0.834100	0.558600	0.078100
H2461	H246	0.845900	0.598500	0.046900
H2471	H247	0.874400	0.555000	0.045500
C1751	C175	0.939700	0.627800	0.081300
H2481	H248	0.958700	0.639500	0.104000
H2491	H249	0.956400	0.608200	0.062500
H2501	H250	0.927900	0.651700	0.063900
Si251	Si25	0.894240	0.597090	0.106860
N261	N26	0.408800	0.977900	0.667800
C1761	C176	0.448400	0.980800	0.686400
H2511	H251	0.459100	0.956800	0.702700
C1771	C177	0.473200	0.016900	0.682400
H2521	H252	0.500900	0.018000	0.696000
C1781	C178	0.458400	0.052200	0.658500
H2531	H253	0.475900	0.077500	0.655700
C1791	C179	0.417800	0.050600	0.638800
C1801	C180	0.394600	0.011900	0.644900
H2541	H254	0.366800	0.009700	0.631800
C1811	C181	0.357900	0.074600	0.564300
H2551	H255	0.334100	0.058600	0.578100
H2561	H256	0.345900	0.098500	0.546900
H2571	H257	0.374400	0.055000	0.545500
C1821	C182	0.439700	0.127800	0.581300
H2581	H258	0.458700	0.139500	0.604000
H2591	H259	0.456400	0.108200	0.562500
H2601	H260	0.427900	0.151700	0.563900
Si261	Si26	0.394240	0.097090	0.606860
N271	N27	0.591200	0.522100	0.667800
C1831	C183	0.551600	0.519200	0.686400
H2611	H261	0.540900	0.543200	0.702700
C1841	C184	0.526800	0.483100	0.682400
H2621	H262	0.499100	0.482000	0.696000
C1851	C185	0.541600	0.447800	0.658500
H2631	H263	0.524100	0.422500	0.655700
C1861	C186	0.582200	0.449400	0.638800
C1871	C187	0.605400	0.488100	0.644900
H2641	H264	0.633200	0.490300	0.631800
C1881	C188	0.642100	0.425400	0.564300
H2651	H265	0.665900	0.441400	0.578100
H2661	H266	0.654100	0.401500	0.546900
H2671	H267	0.625600	0.445000	0.545500
C1891	C189	0.560300	0.372200	0.581300
H2681	H268	0.541300	0.360500	0.604000
H2691	H269	0.543600	0.391800	0.562500
H2701	H270	0.572100	0.348300	0.563900
Si271	Si27	0.605760	0.402910	0.606860
N281	N28	0.091200	0.022100	0.167800
C1901	C190	0.051600	0.019200	0.186400
H2711	H271	0.040900	0.043200	0.202700
C1911	C191	0.026800	0.983100	0.182400
H2721	H272	0.999100	0.982000	0.196000
C1921	C192	0.041600	0.947800	0.158500
H2731	H273	0.024100	0.922500	0.155700
C1931	C193	0.082200	0.949400	0.138800
C1941	C194	0.105400	0.988100	0.144900
H2741	H274	0.133200	0.990300	0.131800
C1951	C195	0.142100	0.925400	0.064300
H2751	H275	0.165900	0.941400	0.078100
H2761	H276	0.154100	0.901500	0.046900
H2771	H277	0.125600	0.945000	0.045500
C1961	C196	0.060300	0.872200	0.081300
H2781	H278	0.041300	0.860500	0.104000
H2791	H279	0.043600	0.891800	0.062500
H2801	H280	0.072100	0.848300	0.063900
Si281	Si28	0.105760	0.902910	0.106860
N291	N29	0.408800	0.022100	0.832200
C1971	C197	0.448400	0.019200	0.813600
H2811	H281	0.459100	0.043200	0.797300
C1981	C198	0.473200	0.983100	0.817600
H2821	H282	0.500900	0.982000	0.804000
C1991	C199	0.458400	0.947800	0.841500
H2831	H283	0.475900	0.922500	0.844300
C2001	C200	0.417800	0.949400	0.861200
C2011	C201	0.394600	0.988100	0.855100
H2841	H284	0.366800	0.990300	0.868200
C2021	C202	0.357900	0.925400	0.935700
H2851	H285	0.334100	0.941400	0.921900
H2861	H286	0.345900	0.901500	0.953100
H2871	H287	0.374400	0.945000	0.954500
C2031	C203	0.439700	0.872200	0.918700
H2881	H288	0.458700	0.860500	0.896000
H2891	H289	0.456400	0.891800	0.937500
H2901	H290	0.427900	0.848300	0.936100
Si291	Si29	0.394240	0.902910	0.893140
N301	N30	0.908800	0.522100	0.332200
C2041	C204	0.948400	0.519200	0.313600
H2911	H291	0.959100	0.543200	0.297300
C2051	C205	0.973200	0.483100	0.317600
H2921	H292	0.000900	0.482000	0.304000
C2061	C206	0.958400	0.447800	0.341500
H2931	H293	0.975900	0.422500	0.344300
C2071	C207	0.917800	0.449400	0.361200
C2081	C208	0.894600	0.488100	0.355100
H2941	H294	0.866800	0.490300	0.368200
C2091	C209	0.857900	0.425400	0.435700
H2951	H295	0.834100	0.441400	0.421900
H2961	H296	0.845900	0.401500	0.453100
H2971	H297	0.874400	0.445000	0.454500
C2101	C210	0.939700	0.372200	0.418700
H2981	H298	0.958700	0.360500	0.396000
H2991	H299	0.956400	0.391800	0.437500
H3001	H300	0.927900	0.348300	0.436100
Si301	Si30	0.894240	0.402910	0.393140
N311	N31	0.091200	0.977900	0.332200
C2111	C211	0.051600	0.980800	0.313600
H3011	H301	0.040900	0.956800	0.297300
C2121	C212	0.026800	0.016900	0.317600
H3021	H302	0.999100	0.018000	0.304000
C2131	C213	0.041600	0.052200	0.341500
H3031	H303	0.024100	0.077500	0.344300
C2141	C214	0.082200	0.050600	0.361200
C2151	C215	0.105400	0.011900	0.355100
H3041	H304	0.133200	0.009700	0.368200
C2161	C216	0.142100	0.074600	0.435700
H3051	H305	0.165900	0.058600	0.421900
H3061	H306	0.154100	0.098500	0.453100
H3071	H307	0.125600	0.055000	0.454500
C2171	C217	0.060300	0.127800	0.418700
H3081	H308	0.041300	0.139500	0.396000
H3091	H309	0.043600	0.108200	0.437500
H3101	H310	0.072100	0.151700	0.436100
Si311	Si31	0.105760	0.097090	0.393140
N321	N32	0.591200	0.477900	0.832200
C2181	C218	0.551600	0.480800	0.813600
H3111	H311	0.540900	0.456800	0.797300
C2191	C219	0.526800	0.516900	0.817600
H3121	H312	0.499100	0.518000	0.804000
C2201	C220	0.541600	0.552200	0.841500
H3131	H313	0.524100	0.577500	0.844300
C2211	C221	0.582200	0.550600	0.861200
C2221	C222	0.605400	0.511900	0.855100
H3141	H314	0.633200	0.509700	0.868200
C2231	C223	0.642100	0.574600	0.935700
H3151	H315	0.665900	0.558600	0.921900
H3161	H316	0.654100	0.598500	0.953100
H3171	H317	0.625600	0.555000	0.954500
C2241	C224	0.560300	0.627800	0.918700
H3181	H318	0.541300	0.639500	0.896000
H3191	H319	0.543600	0.608200	0.937500
H3201	H320	0.572100	0.651700	0.936100
Si321	Si32	0.605760	0.597090	0.893140
N331	N33	0.977900	0.332200	0.091200
C2251	C225	0.980800	0.313600	0.051600
H3211	H321	0.956800	0.297300	0.040900
C2261	C226	0.016900	0.317600	0.026800
H3221	H322	0.018000	0.304000	0.999100
C2271	C227	0.052200	0.341500	0.041600
H3231	H323	0.077500	0.344300	0.024100
C2281	C228	0.050600	0.361200	0.082200
C2291	C229	0.011900	0.355100	0.105400
H3241	H324	0.009700	0.368200	0.133200
C2301	C230	0.074600	0.435700	0.142100
H3251	H325	0.058600	0.421900	0.165900
H3261	H326	0.098500	0.453100	0.154100
H3271	H327	0.055000	0.454500	0.125600
C2311	C231	0.127800	0.418700	0.060300
H3281	H328	0.139500	0.396000	0.041300
H3291	H329	0.108200	0.437500	0.043600
H3301	H330	0.151700	0.436100	0.072100
Si331	Si33	0.097090	0.393140	0.105760
N341	N34	0.477900	0.832200	0.591200
C2321	C232	0.480800	0.813600	0.551600
H3311	H331	0.456800	0.797300	0.540900
C2331	C233	0.516900	0.817600	0.526800
H3321	H332	0.518000	0.804000	0.499100
C2341	C234	0.552200	0.841500	0.541600
H3331	H333	0.577500	0.844300	0.524100
C2351	C235	0.550600	0.861200	0.582200
C2361	C236	0.511900	0.855100	0.605400
H3341	H334	0.509700	0.868200	0.633200
C2371	C237	0.574600	0.935700	0.642100
H3351	H335	0.558600	0.921900	0.665900
H3361	H336	0.598500	0.953100	0.654100
H3371	H337	0.555000	0.954500	0.625600
C2381	C238	0.627800	0.918700	0.560300
H3381	H338	0.639500	0.896000	0.541300
H3391	H339	0.608200	0.937500	0.543600
H3401	H340	0.651700	0.936100	0.572100
Si341	Si34	0.597090	0.893140	0.605760
N351	N35	0.022100	0.832200	0.408800
C2391	C239	0.019200	0.813600	0.448400
H3411	H341	0.043200	0.797300	0.459100
C2401	C240	0.983100	0.817600	0.473200
H3421	H342	0.982000	0.804000	0.500900
C2411	C241	0.947800	0.841500	0.458400
H3431	H343	0.922500	0.844300	0.475900
C2421	C242	0.949400	0.861200	0.417800
C2431	C243	0.988100	0.855100	0.394600
H3441	H344	0.990300	0.868200	0.366800
C2441	C244	0.925400	0.935700	0.357900
H3451	H345	0.941400	0.921900	0.334100
H3461	H346	0.901500	0.953100	0.345900
H3471	H347	0.945000	0.954500	0.374400
C2451	C245	0.872200	0.918700	0.439700
H3481	H348	0.860500	0.896000	0.458700
H3491	H349	0.891800	0.937500	0.456400
H3501	H350	0.848300	0.936100	0.427900
Si351	Si35	0.902910	0.893140	0.394240
N361	N36	0.522100	0.332200	0.908800
C2461	C246	0.519200	0.313600	0.948400
H3511	H351	0.543200	0.297300	0.959100
C2471	C247	0.483100	0.317600	0.973200
H3521	H352	0.482000	0.304000	0.000900
C2481	C248	0.447800	0.341500	0.958400
H3531	H353	0.422500	0.344300	0.975900
C2491	C249	0.449400	0.361200	0.917800
C2501	C250	0.488100	0.355100	0.894600
H3541	H354	0.490300	0.368200	0.866800
C2511	C251	0.425400	0.435700	0.857900
H3551	H355	0.441400	0.421900	0.834100
H3561	H356	0.401500	0.453100	0.845900
H3571	H357	0.445000	0.454500	0.874400
C2521	C252	0.372200	0.418700	0.939700
H3581	H358	0.360500	0.396000	0.958700
H3591	H359	0.391800	0.437500	0.956400
H3601	H360	0.348300	0.436100	0.927900
Si361	Si36	0.402910	0.393140	0.894240
N371	N37	0.522100	0.667800	0.591200
C2531	C253	0.519200	0.686400	0.551600
H3611	H361	0.543200	0.702700	0.540900
C2541	C254	0.483100	0.682400	0.526800
H3621	H362	0.482000	0.696000	0.499100
C2551	C255	0.447800	0.658500	0.541600
H3631	H363	0.422500	0.655700	0.524100
C2561	C256	0.449400	0.638800	0.582200
C2571	C257	0.488100	0.644900	0.605400
H3641	H364	0.490300	0.631800	0.633200
C2581	C258	0.425400	0.564300	0.642100
H3651	H365	0.441400	0.578100	0.665900
H3661	H366	0.401500	0.546900	0.654100
H3671	H367	0.445000	0.545500	0.625600
C2591	C259	0.372200	0.581300	0.560300
H3681	H368	0.360500	0.604000	0.541300
H3691	H369	0.391800	0.562500	0.543600
H3701	H370	0.348300	0.563900	0.572100
Si371	Si37	0.402910	0.606860	0.605760
N381	N38	0.022100	0.167800	0.091200
C2601	C260	0.019200	0.186400	0.051600
H3711	H371	0.043200	0.202700	0.040900
C2611	C261	0.983100	0.182400	0.026800
H3721	H372	0.982000	0.196000	0.999100
C2621	C262	0.947800	0.158500	0.041600
H3731	H373	0.922500	0.155700	0.024100
C2631	C263	0.949400	0.138800	0.082200
C2641	C264	0.988100	0.144900	0.105400
H3741	H374	0.990300	0.131800	0.133200
C2651	C265	0.925400	0.064300	0.142100
H3751	H375	0.941400	0.078100	0.165900
H3761	H376	0.901500	0.046900	0.154100
H3771	H377	0.945000	0.045500	0.125600
C2661	C266	0.872200	0.081300	0.060300
H3781	H378	0.860500	0.104000	0.041300
H3791	H379	0.891800	0.062500	0.043600
H3801	H380	0.848300	0.063900	0.072100
Si381	Si38	0.902910	0.106860	0.105760
N391	N39	0.477900	0.167800	0.908800
C2671	C267	0.480800	0.186400	0.948400
H3811	H381	0.456800	0.202700	0.959100
C2681	C268	0.516900	0.182400	0.973200
H3821	H382	0.518000	0.196000	0.000900
C2691	C269	0.552200	0.158500	0.958400
H3831	H383	0.577500	0.155700	0.975900
C2701	C270	0.550600	0.138800	0.917800
C2711	C271	0.511900	0.144900	0.894600
H3841	H384	0.509700	0.131800	0.866800
C2721	C272	0.574600	0.064300	0.857900
H3851	H385	0.558600	0.078100	0.834100
H3861	H386	0.598500	0.046900	0.845900
H3871	H387	0.555000	0.045500	0.874400
C2731	C273	0.627800	0.081300	0.939700
H3881	H388	0.639500	0.104000	0.958700
H3891	H389	0.608200	0.062500	0.956400
H3901	H390	0.651700	0.063900	0.927900
Si391	Si39	0.597090	0.106860	0.894240
N401	N40	0.977900	0.667800	0.408800
C2741	C274	0.980800	0.686400	0.448400
H3911	H391	0.956800	0.702700	0.459100
C2751	C275	0.016900	0.682400	0.473200
H3921	H392	0.018000	0.696000	0.500900
C2761	C276	0.052200	0.658500	0.458400
H3931	H393	0.077500	0.655700	0.475900
C2771	C277	0.050600	0.638800	0.417800
C2781	C278	0.011900	0.644900	0.394600
H3941	H394	0.009700	0.631800	0.366800
C2791	C279	0.074600	0.564300	0.357900
H3951	H395	0.058600	0.578100	0.334100
H3961	H396	0.098500	0.546900	0.345900
H3971	H397	0.055000	0.545500	0.374400
C2801	C280	0.127800	0.581300	0.439700
H3981	H398	0.139500	0.604000	0.458700
H3991	H399	0.108200	0.562500	0.456400
H4001	H400	0.151700	0.563900	0.427900
Si401	Si40	0.097090	0.606860	0.394240
N411	N41	0.832200	0.408800	0.022100
C2811	C281	0.813600	0.448400	0.019200
H4011	H401	0.797300	0.459100	0.043200
C2821	C282	0.817600	0.473200	0.983100
H4021	H402	0.804000	0.500900	0.982000
C2831	C283	0.841500	0.458400	0.947800
H4031	H403	0.844300	0.475900	0.922500
C2841	C284	0.861200	0.417800	0.949400
C2851	C285	0.855100	0.394600	0.988100
H4041	H404	0.868200	0.366800	0.990300
C2861	C286	0.935700	0.357900	0.925400
H4051	H405	0.921900	0.334100	0.941400
H4061	H406	0.953100	0.345900	0.901500
H4071	H407	0.954500	0.374400	0.945000
C2871	C287	0.918700	0.439700	0.872200
H4081	H408	0.896000	0.458700	0.860500
H4091	H409	0.937500	0.456400	0.891800
H4101	H410	0.936100	0.427900	0.848300
Si411	Si41	0.893140	0.394240	0.902910
N421	N42	0.332200	0.908800	0.522100
C2881	C288	0.313600	0.948400	0.519200
H4111	H411	0.297300	0.959100	0.543200
C2891	C289	0.317600	0.973200	0.483100
H4121	H412	0.304000	0.000900	0.482000
C2901	C290	0.341500	0.958400	0.447800
H4131	H413	0.344300	0.975900	0.422500
C2911	C291	0.361200	0.917800	0.449400
C2921	C292	0.355100	0.894600	0.488100
H4141	H414	0.368200	0.866800	0.490300
C2931	C293	0.435700	0.857900	0.425400
H4151	H415	0.421900	0.834100	0.441400
H4161	H416	0.453100	0.845900	0.401500
H4171	H417	0.454500	0.874400	0.445000
C2941	C294	0.418700	0.939700	0.372200
H4181	H418	0.396000	0.958700	0.360500
H4191	H419	0.437500	0.956400	0.391800
H4201	H420	0.436100	0.927900	0.348300
Si421	Si42	0.393140	0.894240	0.402910
N431	N43	0.332200	0.091200	0.977900
C2951	C295	0.313600	0.051600	0.980800
H4211	H421	0.297300	0.040900	0.956800
C2961	C296	0.317600	0.026800	0.016900
H4221	H422	0.304000	0.999100	0.018000
C2971	C297	0.341500	0.041600	0.052200
H4231	H423	0.344300	0.024100	0.077500
C2981	C298	0.361200	0.082200	0.050600
C2991	C299	0.355100	0.105400	0.011900
H4241	H424	0.368200	0.133200	0.009700
C3001	C300	0.435700	0.142100	0.074600
H4251	H425	0.421900	0.165900	0.058600
H4261	H426	0.453100	0.154100	0.098500
H4271	H427	0.454500	0.125600	0.055000
C3011	C301	0.418700	0.060300	0.127800
H4281	H428	0.396000	0.041300	0.139500
H4291	H429	0.437500	0.043600	0.108200
H4301	H430	0.436100	0.072100	0.151700
Si431	Si43	0.393140	0.105760	0.097090
N441	N44	0.832200	0.591200	0.477900
C3021	C302	0.813600	0.551600	0.480800
H4311	H431	0.797300	0.540900	0.456800
C3031	C303	0.817600	0.526800	0.516900
H4321	H432	0.804000	0.499100	0.518000
C3041	C304	0.841500	0.541600	0.552200
H4331	H433	0.844300	0.524100	0.577500
C3051	C305	0.861200	0.582200	0.550600
C3061	C306	0.855100	0.605400	0.511900
H4341	H434	0.868200	0.633200	0.509700
C3071	C307	0.935700	0.642100	0.574600
H4351	H435	0.921900	0.665900	0.558600
H4361	H436	0.953100	0.654100	0.598500
H4371	H437	0.954500	0.625600	0.555000
C3081	C308	0.918700	0.560300	0.627800
H4381	H438	0.896000	0.541300	0.639500
H4391	H439	0.937500	0.543600	0.608200
H4401	H440	0.936100	0.572100	0.651700
Si441	Si44	0.893140	0.605760	0.597090
N451	N45	0.167800	0.908800	0.477900
C3091	C309	0.186400	0.948400	0.480800
H4411	H441	0.202700	0.959100	0.456800
C3101	C310	0.182400	0.973200	0.516900
H4421	H442	0.196000	0.000900	0.518000
C3111	C311	0.158500	0.958400	0.552200
H4431	H443	0.155700	0.975900	0.577500
C3121	C312	0.138800	0.917800	0.550600
C3131	C313	0.144900	0.894600	0.511900
H4441	H444	0.131800	0.866800	0.509700
C3141	C314	0.064300	0.857900	0.574600
H4451	H445	0.078100	0.834100	0.558600
H4461	H446	0.046900	0.845900	0.598500
H4471	H447	0.045500	0.874400	0.555000
C3151	C315	0.081300	0.939700	0.627800
H4481	H448	0.104000	0.958700	0.639500
H4491	H449	0.062500	0.956400	0.608200
H4501	H450	0.063900	0.927900	0.651700
Si451	Si45	0.106860	0.894240	0.597090
N461	N46	0.667800	0.408800	0.977900
C3161	C316	0.686400	0.448400	0.980800
H4511	H451	0.702700	0.459100	0.956800
C3171	C317	0.682400	0.473200	0.016900
H4521	H452	0.696000	0.500900	0.018000
C3181	C318	0.658500	0.458400	0.052200
H4531	H453	0.655700	0.475900	0.077500
C3191	C319	0.638800	0.417800	0.050600
C3201	C320	0.644900	0.394600	0.011900
H4541	H454	0.631800	0.366800	0.009700
C3211	C321	0.564300	0.357900	0.074600
H4551	H455	0.578100	0.334100	0.058600
H4561	H456	0.546900	0.345900	0.098500
H4571	H457	0.545500	0.374400	0.055000
C3221	C322	0.581300	0.439700	0.127800
H4581	H458	0.604000	0.458700	0.139500
H4591	H459	0.562500	0.456400	0.108200
H4601	H460	0.563900	0.427900	0.151700
Si461	Si46	0.606860	0.394240	0.097090
N471	N47	0.667800	0.591200	0.522100
C3231	C323	0.686400	0.551600	0.519200
H4611	H461	0.702700	0.540900	0.543200
C3241	C324	0.682400	0.526800	0.483100
H4621	H462	0.696000	0.499100	0.482000
C3251	C325	0.658500	0.541600	0.447800
H4631	H463	0.655700	0.524100	0.422500
C3261	C326	0.638800	0.582200	0.449400
C3271	C327	0.644900	0.605400	0.488100
H4641	H464	0.631800	0.633200	0.490300
C3281	C328	0.564300	0.642100	0.425400
H4651	H465	0.578100	0.665900	0.441400
H4661	H466	0.546900	0.654100	0.401500
H4671	H467	0.545500	0.625600	0.445000
C3291	C329	0.581300	0.560300	0.372200
H4681	H468	0.604000	0.541300	0.360500
H4691	H469	0.562500	0.543600	0.391800
H4701	H470	0.563900	0.572100	0.348300
Si471	Si47	0.606860	0.605760	0.402910
N481	N48	0.167800	0.091200	0.022100
C3301	C330	0.186400	0.051600	0.019200
H4711	H471	0.202700	0.040900	0.043200
C3311	C331	0.182400	0.026800	0.983100
H4721	H472	0.196000	0.999100	0.982000
C3321	C332	0.158500	0.041600	0.947800
H4731	H473	0.155700	0.024100	0.922500
C3331	C333	0.138800	0.082200	0.949400
C3341	C334	0.144900	0.105400	0.988100
H4741	H474	0.131800	0.133200	0.990300
C3351	C335	0.064300	0.142100	0.925400
H4751	H475	0.078100	0.165900	0.941400
H4761	H476	0.046900	0.154100	0.901500
H4771	H477	0.045500	0.125600	0.945000
C3361	C336	0.081300	0.060300	0.872200
H4781	H478	0.104000	0.041300	0.860500
H4791	H479	0.062500	0.043600	0.891800
H4801	H480	0.063900	0.072100	0.848300
Si481	Si48	0.106860	0.105760	0.902910
Zn11	Zn1	0.171460	0.125000	0.078540
Zn21	Zn2	0.671460	0.625000	0.578540
Zn31	Zn3	0.328540	0.875000	0.578540
Zn41	Zn4	0.828540	0.625000	0.421460
Zn51	Zn5	0.671460	0.375000	0.921460
Zn61	Zn6	0.078540	0.171460	0.125000
Zn71	Zn7	0.578540	0.671460	0.625000
Zn81	Zn8	0.578540	0.328540	0.875000
Zn91	Zn9	0.421460	0.828540	0.625000
Zn101	Zn10	0.921460	0.671460	0.375000
Zn111	Zn11	0.125000	0.078540	0.171460
Zn121	Zn12	0.625000	0.578540	0.671460
Zn131	Zn13	0.875000	0.578540	0.328540
Zn141	Zn14	0.625000	0.421460	0.828540
Zn151	Zn15	0.375000	0.921460	0.671460
Zn161	Zn16	0.875000	0.421460	0.171460
Zn171	Zn17	0.375000	0.078540	0.828540
Zn181	Zn18	0.125000	0.921460	0.328540
Zn191	Zn19	0.921460	0.328540	0.125000
Zn201	Zn20	0.078540	0.828540	0.375000
Zn211	Zn21	0.421460	0.171460	0.875000
Zn221	Zn22	0.828540	0.375000	0.078540
Zn231	Zn23	0.328540	0.125000	0.921460
Zn241	Zn24	0.171460	0.875000	0.421460
O11	O1	0.166640	0.083360	0.125000
H4811	H481	0.188500	0.061500	0.125000
O21	O2	0.666640	0.583360	0.625000
H4821	H482	0.688500	0.561500	0.625000
O31	O3	0.333360	0.916640	0.625000
H4831	H483	0.311500	0.938500	0.625000
O41	O4	0.833360	0.583360	0.375000
H4841	H484	0.811500	0.561500	0.375000
O51	O5	0.666640	0.416640	0.875000
H4851	H485	0.688500	0.438500	0.875000
O61	O6	0.125000	0.166640	0.083360
H4861	H486	0.125000	0.188500	0.061500
O71	O7	0.625000	0.666640	0.583360
H4871	H487	0.625000	0.688500	0.561500
O81	O8	0.625000	0.333360	0.916640
H4881	H488	0.625000	0.311500	0.938500
O91	O9	0.375000	0.833360	0.583360
H4891	H489	0.375000	0.811500	0.561500
O101	O10	0.875000	0.666640	0.416640
H4901	H490	0.875000	0.688500	0.438500
O111	O11	0.083360	0.125000	0.166640
H4911	H491	0.061500	0.125000	0.188500
O121	O12	0.583360	0.625000	0.666640
H4921	H492	0.561500	0.625000	0.688500
O131	O13	0.916640	0.625000	0.333360
H4931	H493	0.938500	0.625000	0.311500
O141	O14	0.583360	0.375000	0.833360
H4941	H494	0.561500	0.375000	0.811500
O151	O15	0.416640	0.875000	0.666640
H4951	H495	0.438500	0.875000	0.688500
O161	O16	0.833360	0.416640	0.125000
H4961	H496	0.811500	0.438500	0.125000
O171	O17	0.333360	0.083360	0.875000
H4971	H497	0.311500	0.061500	0.875000
O181	O18	0.166640	0.916640	0.375000
H4981	H498	0.188500	0.938500	0.375000
O191	O19	0.916640	0.375000	0.166640
H4991	H499	0.938500	0.375000	0.188500
O201	O20	0.083360	0.875000	0.333360
H5001	H500	0.061500	0.875000	0.311500
O211	O21	0.416640	0.125000	0.833360
H5011	H501	0.438500	0.125000	0.811500
O221	O22	0.875000	0.333360	0.083360
H5021	H502	0.875000	0.311500	0.061500
O231	O23	0.375000	0.166640	0.916640
H5031	H503	0.375000	0.188500	0.938500
O241	O24	0.125000	0.833360	0.416640
H5041	H504	0.125000	0.811500	0.438500
N491	N49	0.772100	0.841200	0.917800
C3371	C337	0.769200	0.801600	0.936400
H5051	H505	0.793200	0.790900	0.952700
C3381	C338	0.733100	0.776800	0.932400
H5061	H506	0.732000	0.749100	0.946000
C3391	C339	0.697800	0.791600	0.908500
H5071	H507	0.672500	0.774100	0.905700
C3401	C340	0.699400	0.832200	0.888800
C3411	C341	0.738100	0.855400	0.894900
H5081	H508	0.740300	0.883200	0.881800
C3421	C342	0.675400	0.892100	0.814300
H5091	H509	0.691400	0.915900	0.828100
H5101	H510	0.651500	0.904100	0.796900
H5111	H511	0.695000	0.875600	0.795500
C3431	C343	0.622200	0.810300	0.831300
H5121	H512	0.610500	0.791300	0.854000
H5131	H513	0.641800	0.793600	0.812500
H5141	H514	0.598300	0.822100	0.813900
Si491	Si49	0.652910	0.855760	0.856860
N501	N50	0.272100	0.341200	0.417800
C3441	C344	0.269200	0.301600	0.436400
H5151	H515	0.293200	0.290900	0.452700
C3451	C345	0.233100	0.276800	0.432400
H5161	H516	0.232000	0.249100	0.446000
C3461	C346	0.197800	0.291600	0.408500
H5171	H517	0.172500	0.274100	0.405700
C3471	C347	0.199400	0.332200	0.388800
C3481	C348	0.238100	0.355400	0.394900
H5181	H518	0.240300	0.383200	0.381800
C3491	C349	0.175400	0.392100	0.314300
H5191	H519	0.191400	0.415900	0.328100
H5201	H520	0.151500	0.404100	0.296900
H5211	H521	0.195000	0.375600	0.295500
C3501	C350	0.122200	0.310300	0.331300
H5221	H522	0.110500	0.291300	0.354000
H5231	H523	0.141800	0.293600	0.312500
H5241	H524	0.098300	0.322100	0.313900
Si501	Si50	0.152910	0.355760	0.356860
N511	N51	0.727900	0.158800	0.417800
C3511	C351	0.730800	0.198400	0.436400
H5251	H525	0.706800	0.209100	0.452700
C3521	C352	0.766900	0.223200	0.432400
H5261	H526	0.768000	0.250900	0.446000
C3531	C353	0.802200	0.208400	0.408500
H5271	H527	0.827500	0.225900	0.405700
C3541	C354	0.800600	0.167800	0.388800
C3551	C355	0.761900	0.144600	0.394900
H5281	H528	0.759700	0.116800	0.381800
C3561	C356	0.824600	0.107900	0.314300
H5291	H529	0.808600	0.084100	0.328100
H5301	H530	0.848500	0.095900	0.296900
H5311	H531	0.805000	0.124400	0.295500
C3571	C357	0.877800	0.189700	0.331300
H5321	H532	0.889500	0.208700	0.354000
H5331	H533	0.858200	0.206400	0.312500
H5341	H534	0.901700	0.177900	0.313900
Si511	Si51	0.847090	0.144240	0.356860
N521	N52	0.227900	0.658800	0.917800
C3581	C358	0.230800	0.698400	0.936400
H5351	H535	0.206800	0.709100	0.952700
C3591	C359	0.266900	0.723200	0.932400
H5361	H536	0.268000	0.750900	0.946000
C3601	C360	0.302200	0.708400	0.908500
H5371	H537	0.327500	0.725900	0.905700
C3611	C361	0.300600	0.667800	0.888800
C3621	C362	0.261900	0.644600	0.894900
H5381	H538	0.259700	0.616800	0.881800
C3631	C363	0.324600	0.607900	0.814300
H5391	H539	0.308600	0.584100	0.828100
H5401	H540	0.348500	0.595900	0.796900
H5411	H541	0.305000	0.624400	0.795500
C3641	C364	0.377800	0.689700	0.831300
H5421	H542	0.389500	0.708700	0.854000
H5431	H543	0.358200	0.706400	0.812500
H5441	H544	0.401700	0.677900	0.813900
Si521	Si52	0.347090	0.644240	0.856860
N531	N53	0.227900	0.341200	0.582200
C3651	C365	0.230800	0.301600	0.563600
H5451	H545	0.206800	0.290900	0.547300
C3661	C366	0.266900	0.276800	0.567600
H5461	H546	0.268000	0.249100	0.554000
C3671	C367	0.302200	0.291600	0.591500
H5471	H547	0.327500	0.274100	0.594300
C3681	C368	0.300600	0.332200	0.611200
C3691	C369	0.261900	0.355400	0.605100
H5481	H548	0.259700	0.383200	0.618200
C3701	C370	0.324600	0.392100	0.685700
H5491	H549	0.308600	0.415900	0.671900
H5501	H550	0.348500	0.404100	0.703100
H5511	H551	0.305000	0.375600	0.704500
C3711	C371	0.377800	0.310300	0.668700
H5521	H552	0.389500	0.291300	0.646000
H5531	H553	0.358200	0.293600	0.687500
H5541	H554	0.401700	0.322100	0.686100
Si531	Si53	0.347090	0.355760	0.643140
N541	N54	0.727900	0.841200	0.082200
C3721	C372	0.730800	0.801600	0.063600
H5551	H555	0.706800	0.790900	0.047300
C3731	C373	0.766900	0.776800	0.067600
H5561	H556	0.768000	0.749100	0.054000
C3741	C374	0.802200	0.791600	0.091500
H5571	H557	0.827500	0.774100	0.094300
C3751	C375	0.800600	0.832200	0.111200
C3761	C376	0.761900	0.855400	0.105100
H5581	H558	0.759700	0.883200	0.118200
C3771	C377	0.824600	0.892100	0.185700
H5591	H559	0.808600	0.915900	0.171900
H5601	H560	0.848500	0.904100	0.203100
H5611	H561	0.805000	0.875600	0.204500
C3781	C378	0.877800	0.810300	0.168700
H5621	H562	0.889500	0.791300	0.146000
H5631	H563	0.858200	0.793600	0.187500
H5641	H564	0.901700	0.822100	0.186100
Si541	Si54	0.847090	0.855760	0.143140
N551	N55	0.272100	0.658800	0.082200
C3791	C379	0.269200	0.698400	0.063600
H5651	H565	0.293200	0.709100	0.047300
C3801	C380	0.233100	0.723200	0.067600
H5661	H566	0.232000	0.750900	0.054000
C3811	C381	0.197800	0.708400	0.091500
H5671	H567	0.172500	0.725900	0.094300
C3821	C382	0.199400	0.667800	0.111200
C3831	C383	0.238100	0.644600	0.105100
H5681	H568	0.240300	0.616800	0.118200
C3841	C384	0.175400	0.607900	0.185700
H5691	H569	0.191400	0.584100	0.171900
H5701	H570	0.151500	0.595900	0.203100
H5711	H571	0.195000	0.624400	0.204500
C3851	C385	0.122200	0.689700	0.168700
H5721	H572	0.110500	0.708700	0.146000
H5731	H573	0.141800	0.706400	0.187500
H5741	H574	0.098300	0.677900	0.186100
Si551	Si55	0.152910	0.644240	0.143140
N561	N56	0.772100	0.158800	0.582200
C3861	C386	0.769200	0.198400	0.563600
H5751	H575	0.793200	0.209100	0.547300
C3871	C387	0.733100	0.223200	0.567600
H5761	H576	0.732000	0.250900	0.554000
C3881	C388	0.697800	0.208400	0.591500
H5771	H577	0.672500	0.225900	0.594300
C3891	C389	0.699400	0.167800	0.611200
C3901	C390	0.738100	0.144600	0.605100
H5781	H578	0.740300	0.116800	0.618200
C3911	C391	0.675400	0.107900	0.685700
H5791	H579	0.691400	0.084100	0.671900
H5801	H580	0.651500	0.095900	0.703100
H5811	H581	0.695000	0.124400	0.704500
C3921	C392	0.622200	0.189700	0.668700
H5821	H582	0.610500	0.208700	0.646000
H5831	H583	0.641800	0.206400	0.687500
H5841	H584	0.598300	0.177900	0.686100
Si561	Si56	0.652910	0.144240	0.643140
N571	N57	0.917800	0.772100	0.841200
C3931	C393	0.936400	0.769200	0.801600
H5851	H585	0.952700	0.793200	0.790900
C3941	C394	0.932400	0.733100	0.776800
H5861	H586	0.946000	0.732000	0.749100
C3951	C395	0.908500	0.697800	0.791600
H5871	H587	0.905700	0.672500	0.774100
C3961	C396	0.888800	0.699400	0.832200
C3971	C397	0.894900	0.738100	0.855400
H5881	H588	0.881800	0.740300	0.883200
C3981	C398	0.814300	0.675400	0.892100
H5891	H589	0.828100	0.691400	0.915900
H5901	H590	0.796900	0.651500	0.904100
H5911	H591	0.795500	0.695000	0.875600
C3991	C399	0.831300	0.622200	0.810300
H5921	H592	0.854000	0.610500	0.791300
H5931	H593	0.812500	0.641800	0.793600
H5941	H594	0.813900	0.598300	0.822100
Si571	Si57	0.856860	0.652910	0.855760
N581	N58	0.417800	0.272100	0.341200
C4001	C400	0.436400	0.269200	0.301600
H5951	H595	0.452700	0.293200	0.290900
C4011	C401	0.432400	0.233100	0.276800
H5961	H596	0.446000	0.232000	0.249100
C4021	C402	0.408500	0.197800	0.291600
H5971	H597	0.405700	0.172500	0.274100
C4031	C403	0.388800	0.199400	0.332200
C4041	C404	0.394900	0.238100	0.355400
H5981	H598	0.381800	0.240300	0.383200
C4051	C405	0.314300	0.175400	0.392100
H5991	H599	0.328100	0.191400	0.415900
H6001	H600	0.296900	0.151500	0.404100
H6011	H601	0.295500	0.195000	0.375600
C4061	C406	0.331300	0.122200	0.310300
H6021	H602	0.354000	0.110500	0.291300
H6031	H603	0.312500	0.141800	0.293600
H6041	H604	0.313900	0.098300	0.322100
Si581	Si58	0.356860	0.152910	0.355760
N591	N59	0.417800	0.727900	0.158800
C4071	C407	0.436400	0.730800	0.198400
H6051	H605	0.452700	0.706800	0.209100
C4081	C408	0.432400	0.766900	0.223200
H6061	H606	0.446000	0.768000	0.250900
C4091	C409	0.408500	0.802200	0.208400
H6071	H607	0.405700	0.827500	0.225900
C4101	C410	0.388800	0.800600	0.167800
C4111	C411	0.394900	0.761900	0.144600
H6081	H608	0.381800	0.759700	0.116800
C4121	C412	0.314300	0.824600	0.107900
H6091	H609	0.328100	0.808600	0.084100
H6101	H610	0.296900	0.848500	0.095900
H6111	H611	0.295500	0.805000	0.124400
C4131	C413	0.331300	0.877800	0.189700
H6121	H612	0.354000	0.889500	0.208700
H6131	H613	0.312500	0.858200	0.206400
H6141	H614	0.313900	0.901700	0.177900
Si591	Si59	0.356860	0.847090	0.144240
N601	N60	0.917800	0.227900	0.658800
C4141	C414	0.936400	0.230800	0.698400
H6151	H615	0.952700	0.206800	0.709100
C4151	C415	0.932400	0.266900	0.723200
H6161	H616	0.946000	0.268000	0.750900
C4161	C416	0.908500	0.302200	0.708400
H6171	H617	0.905700	0.327500	0.725900
C4171	C417	0.888800	0.300600	0.667800
C4181	C418	0.894900	0.261900	0.644600
H6181	H618	0.881800	0.259700	0.616800
C4191	C419	0.814300	0.324600	0.607900
H6191	H619	0.828100	0.308600	0.584100
H6201	H620	0.796900	0.348500	0.595900
H6211	H621	0.795500	0.305000	0.624400
C4201	C420	0.831300	0.377800	0.689700
H6221	H622	0.854000	0.389500	0.708700
H6231	H623	0.812500	0.358200	0.706400
H6241	H624	0.813900	0.401700	0.677900
Si601	Si60	0.856860	0.347090	0.644240
N611	N61	0.582200	0.227900	0.341200
C4211	C421	0.563600	0.230800	0.301600
H6251	H625	0.547300	0.206800	0.290900
C4221	C422	0.567600	0.266900	0.276800
H6261	H626	0.554000	0.268000	0.249100
C4231	C423	0.591500	0.302200	0.291600
H6271	H627	0.594300	0.327500	0.274100
C4241	C424	0.611200	0.300600	0.332200
C4251	C425	0.605100	0.261900	0.355400
H6281	H628	0.618200	0.259700	0.383200
C4261	C426	0.685700	0.324600	0.392100
H6291	H629	0.671900	0.308600	0.415900
H6301	H630	0.703100	0.348500	0.404100
H6311	H631	0.704500	0.305000	0.375600
C4271	C427	0.668700	0.377800	0.310300
H6321	H632	0.646000	0.389500	0.291300
H6331	H633	0.687500	0.358200	0.293600
H6341	H634	0.686100	0.401700	0.322100
Si611	Si61	0.643140	0.347090	0.355760
N621	N62	0.082200	0.727900	0.841200
C4281	C428	0.063600	0.730800	0.801600
H6351	H635	0.047300	0.706800	0.790900
C4291	C429	0.067600	0.766900	0.776800
H6361	H636	0.054000	0.768000	0.749100
C4301	C430	0.091500	0.802200	0.791600
H6371	H637	0.094300	0.827500	0.774100
C4311	C431	0.111200	0.800600	0.832200
C4321	C432	0.105100	0.761900	0.855400
H6381	H638	0.118200	0.759700	0.883200
C4331	C433	0.185700	0.824600	0.892100
H6391	H639	0.171900	0.808600	0.915900
H6401	H640	0.203100	0.848500	0.904100
H6411	H641	0.204500	0.805000	0.875600
C4341	C434	0.168700	0.877800	0.810300
H6421	H642	0.146000	0.889500	0.791300
H6431	H643	0.187500	0.858200	0.793600
H6441	H644	0.186100	0.901700	0.822100
Si621	Si62	0.143140	0.847090	0.855760
N631	N63	0.082200	0.272100	0.658800
C4351	C435	0.063600	0.269200	0.698400
H6451	H645	0.047300	0.293200	0.709100
C4361	C436	0.067600	0.233100	0.723200
H6461	H646	0.054000	0.232000	0.750900
C4371	C437	0.091500	0.197800	0.708400
H6471	H647	0.094300	0.172500	0.725900
C4381	C438	0.111200	0.199400	0.667800
C4391	C439	0.105100	0.238100	0.644600
H6481	H648	0.118200	0.240300	0.616800
C4401	C440	0.185700	0.175400	0.607900
H6491	H649	0.171900	0.191400	0.584100
H6501	H650	0.203100	0.151500	0.595900
H6511	H651	0.204500	0.195000	0.624400
C4411	C441	0.168700	0.122200	0.689700
H6521	H652	0.146000	0.110500	0.708700
H6531	H653	0.187500	0.141800	0.706400
H6541	H654	0.186100	0.098300	0.677900
Si631	Si63	0.143140	0.152910	0.644240
N641	N64	0.582200	0.772100	0.158800
C4421	C442	0.563600	0.769200	0.198400
H6551	H655	0.547300	0.793200	0.209100
C4431	C443	0.567600	0.733100	0.223200
H6561	H656	0.554000	0.732000	0.250900
C4441	C444	0.591500	0.697800	0.208400
H6571	H657	0.594300	0.672500	0.225900
C4451	C445	0.611200	0.699400	0.167800
C4461	C446	0.605100	0.738100	0.144600
H6581	H658	0.618200	0.740300	0.116800
C4471	C447	0.685700	0.675400	0.107900
H6591	H659	0.671900	0.691400	0.084100
H6601	H660	0.703100	0.651500	0.095900
H6611	H661	0.704500	0.695000	0.124400
C4481	C448	0.668700	0.622200	0.189700
H6621	H662	0.646000	0.610500	0.208700
H6631	H663	0.687500	0.641800	0.206400
H6641	H664	0.686100	0.598300	0.177900
Si641	Si64	0.643140	0.652910	0.144240
N651	N65	0.841200	0.917800	0.772100
C4491	C449	0.801600	0.936400	0.769200
H6651	H665	0.790900	0.952700	0.793200
C4501	C450	0.776800	0.932400	0.733100
H6661	H666	0.749100	0.946000	0.732000
C4511	C451	0.791600	0.908500	0.697800
H6671	H667	0.774100	0.905700	0.672500
C4521	C452	0.832200	0.888800	0.699400
C4531	C453	0.855400	0.894900	0.738100
H6681	H668	0.883200	0.881800	0.740300
C4541	C454	0.892100	0.814300	0.675400
H6691	H669	0.915900	0.828100	0.691400
H6701	H670	0.904100	0.796900	0.651500
H6711	H671	0.875600	0.795500	0.695000
C4551	C455	0.810300	0.831300	0.622200
H6721	H672	0.791300	0.854000	0.610500
H6731	H673	0.793600	0.812500	0.641800
H6741	H674	0.822100	0.813900	0.598300
Si651	Si65	0.855760	0.856860	0.652910
N661	N66	0.341200	0.417800	0.272100
C4561	C456	0.301600	0.436400	0.269200
H6751	H675	0.290900	0.452700	0.293200
C4571	C457	0.276800	0.432400	0.233100
H6761	H676	0.249100	0.446000	0.232000
C4581	C458	0.291600	0.408500	0.197800
H6771	H677	0.274100	0.405700	0.172500
C4591	C459	0.332200	0.388800	0.199400
C4601	C460	0.355400	0.394900	0.238100
H6781	H678	0.383200	0.381800	0.240300
C4611	C461	0.392100	0.314300	0.175400
H6791	H679	0.415900	0.328100	0.191400
H6801	H680	0.404100	0.296900	0.151500
H6811	H681	0.375600	0.295500	0.195000
C4621	C462	0.310300	0.331300	0.122200
H6821	H682	0.291300	0.354000	0.110500
H6831	H683	0.293600	0.312500	0.141800
H6841	H684	0.322100	0.313900	0.098300
Si661	Si66	0.355760	0.356860	0.152910
N671	N67	0.158800	0.417800	0.727900
C4631	C463	0.198400	0.436400	0.730800
H6851	H685	0.209100	0.452700	0.706800
C4641	C464	0.223200	0.432400	0.766900
H6861	H686	0.250900	0.446000	0.768000
C4651	C465	0.208400	0.408500	0.802200
H6871	H687	0.225900	0.405700	0.827500
C4661	C466	0.167800	0.388800	0.800600
C4671	C467	0.144600	0.394900	0.761900
H6881	H688	0.116800	0.381800	0.759700
C4681	C468	0.107900	0.314300	0.824600
H6891	H689	0.084100	0.328100	0.808600
H6901	H690	0.095900	0.296900	0.848500
H6911	H691	0.124400	0.295500	0.805000
C4691	C469	0.189700	0.331300	0.877800
H6921	H692	0.208700	0.354000	0.889500
H6931	H693	0.206400	0.312500	0.858200
H6941	H694	0.177900	0.313900	0.901700
Si671	Si67	0.144240	0.356860	0.847090
N681	N68	0.658800	0.917800	0.227900
C4701	C470	0.698400	0.936400	0.230800
H6951	H695	0.709100	0.952700	0.206800
C4711	C471	0.723200	0.932400	0.266900
H6961	H696	0.750900	0.946000	0.268000
C4721	C472	0.708400	0.908500	0.302200
H6971	H697	0.725900	0.905700	0.327500
C4731	C473	0.667800	0.888800	0.300600
C4741	C474	0.644600	0.894900	0.261900
H6981	H698	0.616800	0.881800	0.259700
C4751	C475	0.607900	0.814300	0.324600
H6991	H699	0.584100	0.828100	0.308600
H7001	H700	0.595900	0.796900	0.348500
H7011	H701	0.624400	0.795500	0.305000
C4761	C476	0.689700	0.831300	0.377800
H7021	H702	0.708700	0.854000	0.389500
H7031	H703	0.706400	0.812500	0.358200
H7041	H704	0.677900	0.813900	0.401700
Si681	Si68	0.644240	0.856860	0.347090
N691	N69	0.341200	0.582200	0.227900
C4771	C477	0.301600	0.563600	0.230800
H7051	H705	0.290900	0.547300	0.206800
C4781	C478	0.276800	0.567600	0.266900
H7061	H706	0.249100	0.554000	0.268000
C4791	C479	0.291600	0.591500	0.302200
H7071	H707	0.274100	0.594300	0.327500
C4801	C480	0.332200	0.611200	0.300600
C4811	C481	0.355400	0.605100	0.261900
H7081	H708	0.383200	0.618200	0.259700
C4821	C482	0.392100	0.685700	0.324600
H7091	H709	0.415900	0.671900	0.308600
H7101	H710	0.404100	0.703100	0.348500
H7111	H711	0.375600	0.704500	0.305000
C4831	C483	0.310300	0.668700	0.377800
H7121	H712	0.291300	0.646000	0.389500
H7131	H713	0.293600	0.687500	0.358200
H7141	H714	0.322100	0.686100	0.401700
Si691	Si69	0.355760	0.643140	0.347090
N701	N70	0.841200	0.082200	0.727900
C4841	C484	0.801600	0.063600	0.730800
H7151	H715	0.790900	0.047300	0.706800
C4851	C485	0.776800	0.067600	0.766900
H7161	H716	0.749100	0.054000	0.768000
C4861	C486	0.791600	0.091500	0.802200
H7171	H717	0.774100	0.094300	0.827500
C4871	C487	0.832200	0.111200	0.800600
C4881	C488	0.855400	0.105100	0.761900
H7181	H718	0.883200	0.118200	0.759700
C4891	C489	0.892100	0.185700	0.824600
H7191	H719	0.915900	0.171900	0.808600
H7201	H720	0.904100	0.203100	0.848500
H7211	H721	0.875600	0.204500	0.805000
C4901	C490	0.810300	0.168700	0.877800
H7221	H722	0.791300	0.146000	0.889500
H7231	H723	0.793600	0.187500	0.858200
H7241	H724	0.822100	0.186100	0.901700
Si701	Si70	0.855760	0.143140	0.847090
N711	N71	0.658800	0.082200	0.272100
C4911	C491	0.698400	0.063600	0.269200
H7251	H725	0.709100	0.047300	0.293200
C4921	C492	0.723200	0.067600	0.233100
H7261	H726	0.750900	0.054000	0.232000
C4931	C493	0.708400	0.091500	0.197800
H7271	H727	0.725900	0.094300	0.172500
C4941	C494	0.667800	0.111200	0.199400
C4951	C495	0.644600	0.105100	0.238100
H7281	H728	0.616800	0.118200	0.240300
C4961	C496	0.607900	0.185700	0.175400
H7291	H729	0.584100	0.171900	0.191400
H7301	H730	0.595900	0.203100	0.151500
H7311	H731	0.624400	0.204500	0.195000
C4971	C497	0.689700	0.168700	0.122200
H7321	H732	0.708700	0.146000	0.110500
H7331	H733	0.706400	0.187500	0.141800
H7341	H734	0.677900	0.186100	0.098300
Si711	Si71	0.644240	0.143140	0.152910
N721	N72	0.158800	0.582200	0.772100
C4981	C498	0.198400	0.563600	0.769200
H7351	H735	0.209100	0.547300	0.793200
C4991	C499	0.223200	0.567600	0.733100
H7361	H736	0.250900	0.554000	0.732000
C5001	C500	0.208400	0.591500	0.697800
H7371	H737	0.225900	0.594300	0.672500
C5011	C501	0.167800	0.611200	0.699400
C5021	C502	0.144600	0.605100	0.738100
H7381	H738	0.116800	0.618200	0.740300
C5031	C503	0.107900	0.685700	0.675400
H7391	H739	0.084100	0.671900	0.691400
H7401	H740	0.095900	0.703100	0.651500
H7411	H741	0.124400	0.704500	0.695000
C5041	C504	0.189700	0.668700	0.622200
H7421	H742	0.208700	0.646000	0.610500
H7431	H743	0.206400	0.687500	0.641800
H7441	H744	0.177900	0.686100	0.598300
Si721	Si72	0.144240	0.643140	0.652910
N731	N73	0.091200	0.522100	0.832200
C5051	C505	0.051600	0.519200	0.813600
H7451	H745	0.040900	0.543200	0.797300
C5061	C506	0.026800	0.483100	0.817600
H7461	H746	0.999100	0.482000	0.804000
C5071	C507	0.041600	0.447800	0.841500
H7471	H747	0.024100	0.422500	0.844300
C5081	C508	0.082200	0.449400	0.861200
C5091	C509	0.105400	0.488100	0.855100
H7481	H748	0.133200	0.490300	0.868200
C5101	C510	0.142100	0.425400	0.935700
H7491	H749	0.165900	0.441400	0.921900
H7501	H750	0.154100	0.401500	0.953100
H7511	H751	0.125600	0.445000	0.954500
C5111	C511	0.060300	0.372200	0.918700
H7521	H752	0.041300	0.360500	0.896000
H7531	H753	0.043600	0.391800	0.937500
H7541	H754	0.072100	0.348300	0.936100
Si731	Si73	0.105760	0.402910	0.893140
N741	N74	0.591200	0.022100	0.332200
C5121	C512	0.551600	0.019200	0.313600
H7551	H755	0.540900	0.043200	0.297300
C5131	C513	0.526800	0.983100	0.317600
H7561	H756	0.499100	0.982000	0.304000
C5141	C514	0.541600	0.947800	0.341500
H7571	H757	0.524100	0.922500	0.344300
C5151	C515	0.582200	0.949400	0.361200
C5161	C516	0.605400	0.988100	0.355100
H7581	H758	0.633200	0.990300	0.368200
C5171	C517	0.642100	0.925400	0.435700
H7591	H759	0.665900	0.941400	0.421900
H7601	H760	0.654100	0.901500	0.453100
H7611	H761	0.625600	0.945000	0.454500
C5181	C518	0.560300	0.872200	0.418700
H7621	H762	0.541300	0.860500	0.396000
H7631	H763	0.543600	0.891800	0.437500
H7641	H764	0.572100	0.848300	0.436100
Si741	Si74	0.605760	0.902910	0.393140
N751	N75	0.408800	0.477900	0.332200
C5191	C519	0.448400	0.480800	0.313600
H7651	H765	0.459100	0.456800	0.297300
C5201	C520	0.473200	0.516900	0.317600
H7661	H766	0.500900	0.518000	0.304000
C5211	C521	0.458400	0.552200	0.341500
H7671	H767	0.475900	0.577500	0.344300
C5221	C522	0.417800	0.550600	0.361200
C5231	C523	0.394600	0.511900	0.355100
H7681	H768	0.366800	0.509700	0.368200
C5241	C524	0.357900	0.574600	0.435700
H7691	H769	0.334100	0.558600	0.421900
H7701	H770	0.345900	0.598500	0.453100
H7711	H771	0.374400	0.555000	0.454500
C5251	C525	0.439700	0.627800	0.418700
H7721	H772	0.458700	0.639500	0.396000
H7731	H773	0.456400	0.608200	0.437500
H7741	H774	0.427900	0.651700	0.436100
Si751	Si75	0.394240	0.597090	0.393140
N761	N76	0.908800	0.977900	0.832200
C5261	C526	0.948400	0.980800	0.813600
H7751	H775	0.959100	0.956800	0.797300
C5271	C527	0.973200	0.016900	0.817600
H7761	H776	0.000900	0.018000	0.804000
C5281	C528	0.958400	0.052200	0.841500
H7771	H777	0.975900	0.077500	0.844300
C5291	C529	0.917800	0.050600	0.861200
C5301	C530	0.894600	0.011900	0.855100
H7781	H778	0.866800	0.009700	0.868200
C5311	C531	0.857900	0.074600	0.935700
H7791	H779	0.834100	0.058600	0.921900
H7801	H780	0.845900	0.098500	0.953100
H7811	H781	0.874400	0.055000	0.954500
C5321	C532	0.939700	0.127800	0.918700
H7821	H782	0.958700	0.139500	0.896000
H7831	H783	0.956400	0.108200	0.937500
H7841	H784	0.927900	0.151700	0.936100
Si761	Si76	0.894240	0.097090	0.893140
N771	N77	0.591200	0.977900	0.167800
C5331	C533	0.551600	0.980800	0.186400
H7851	H785	0.540900	0.956800	0.202700
C5341	C534	0.526800	0.016900	0.182400
H7861	H786	0.499100	0.018000	0.196000
C5351	C535	0.541600	0.052200	0.158500
H7871	H787	0.524100	0.077500	0.155700
C5361	C536	0.582200	0.050600	0.138800
C5371	C537	0.605400	0.011900	0.144900
H7881	H788	0.633200	0.009700	0.131800
C5381	C538	0.642100	0.074600	0.064300
H7891	H789	0.665900	0.058600	0.078100
H7901	H790	0.654100	0.098500	0.046900
H7911	H791	0.625600	0.055000	0.045500
C5391	C539	0.560300	0.127800	0.081300
H7921	H792	0.541300	0.139500	0.104000
H7931	H793	0.543600	0.108200	0.062500
H7941	H794	0.572100	0.151700	0.063900
Si771	Si77	0.605760	0.097090	0.106860
N781	N78	0.091200	0.477900	0.667800
C5401	C540	0.051600	0.480800	0.686400
H7951	H795	0.040900	0.456800	0.702700
C5411	C541	0.026800	0.516900	0.682400
H7961	H796	0.999100	0.518000	0.696000
C5421	C542	0.041600	0.552200	0.658500
H7971	H797	0.024100	0.577500	0.655700
C5431	C543	0.082200	0.550600	0.638800
C5441	C544	0.105400	0.511900	0.644900
H7981	H798	0.133200	0.509700	0.631800
C5451	C545	0.142100	0.574600	0.564300
H7991	H799	0.165900	0.558600	0.578100
H8001	H800	0.154100	0.598500	0.546900
H8011	H801	0.125600	0.555000	0.545500
C5461	C546	0.060300	0.627800	0.581300
H8021	H802	0.041300	0.639500	0.604000
H8031	H803	0.043600	0.608200	0.562500
H8041	H804	0.072100	0.651700	0.563900
Si781	Si78	0.105760	0.597090	0.606860
N791	N79	0.908800	0.022100	0.667800
C5471	C547	0.948400	0.019200	0.686400
H8051	H805	0.959100	0.043200	0.702700
C5481	C548	0.973200	0.983100	0.682400
H8061	H806	0.000900	0.982000	0.696000
C5491	C549	0.958400	0.947800	0.658500
H8071	H807	0.975900	0.922500	0.655700
C5501	C550	0.917800	0.949400	0.638800
C5511	C551	0.894600	0.988100	0.644900
H8081	H808	0.866800	0.990300	0.631800
C5521	C552	0.857900	0.925400	0.564300
H8091	H809	0.834100	0.941400	0.578100
H8101	H810	0.845900	0.901500	0.546900
H8111	H811	0.874400	0.945000	0.545500
C5531	C553	0.939700	0.872200	0.581300
H8121	H812	0.958700	0.860500	0.604000
H8131	H813	0.956400	0.891800	0.562500
H8141	H814	0.927900	0.848300	0.563900
Si791	Si79	0.894240	0.902910	0.606860
N801	N80	0.408800	0.522100	0.167800
C5541	C554	0.448400	0.519200	0.186400
H8151	H815	0.459100	0.543200	0.202700
C5551	C555	0.473200	0.483100	0.182400
H8161	H816	0.500900	0.482000	0.196000
C5561	C556	0.458400	0.447800	0.158500
H8171	H817	0.475900	0.422500	0.155700
C5571	C557	0.417800	0.449400	0.138800
C5581	C558	0.394600	0.488100	0.144900
H8181	H818	0.366800	0.490300	0.131800
C5591	C559	0.357900	0.425400	0.064300
H8191	H819	0.334100	0.441400	0.078100
H8201	H820	0.345900	0.401500	0.046900
H8211	H821	0.374400	0.445000	0.045500
C5601	C560	0.439700	0.372200	0.081300
H8221	H822	0.458700	0.360500	0.104000
H8231	H823	0.456400	0.391800	0.062500
H8241	H824	0.427900	0.348300	0.063900
Si801	Si80	0.394240	0.402910	0.106860
N811	N81	0.022100	0.667800	0.908800
C5611	C561	0.019200	0.686400	0.948400
H8251	H825	0.043200	0.702700	0.959100
C5621	C562	0.983100	0.682400	0.973200
H8261	H826	0.982000	0.696000	0.000900
C5631	C563	0.947800	0.658500	0.958400
H8271	H827	0.922500	0.655700	0.975900
C5641	C564	0.949400	0.638800	0.917800
C5651	C565	0.988100	0.644900	0.894600
H8281	H828	0.990300	0.631800	0.866800
C5661	C566	0.925400	0.564300	0.857900
H8291	H829	0.941400	0.578100	0.834100
H8301	H830	0.901500	0.546900	0.845900
H8311	H831	0.945000	0.545500	0.874400
C5671	C567	0.872200	0.581300	0.939700
H8321	H832	0.860500	0.604000	0.958700
H8331	H833	0.891800	0.562500	0.956400
H8341	H834	0.848300	0.563900	0.927900
Si811	Si81	0.902910	0.606860	0.894240
N821	N82	0.522100	0.167800	0.408800
C5681	C568	0.519200	0.186400	0.448400
H8351	H835	0.543200	0.202700	0.459100
C5691	C569	0.483100	0.182400	0.473200
H8361	H836	0.482000	0.196000	0.500900
C5701	C570	0.447800	0.158500	0.458400
H8371	H837	0.422500	0.155700	0.475900
C5711	C571	0.449400	0.138800	0.417800
C5721	C572	0.488100	0.144900	0.394600
H8381	H838	0.490300	0.131800	0.366800
C5731	C573	0.425400	0.064300	0.357900
H8391	H839	0.441400	0.078100	0.334100
H8401	H840	0.401500	0.046900	0.345900
H8411	H841	0.445000	0.045500	0.374400
C5741	C574	0.372200	0.081300	0.439700
H8421	H842	0.360500	0.104000	0.458700
H8431	H843	0.391800	0.062500	0.456400
H8441	H844	0.348300	0.063900	0.427900
Si821	Si82	0.402910	0.106860	0.394240
N831	N83	0.977900	0.167800	0.591200
C5751	C575	0.980800	0.186400	0.551600
H8451	H845	0.956800	0.202700	0.540900
C5761	C576	0.016900	0.182400	0.526800
H8461	H846	0.018000	0.196000	0.499100
C5771	C577	0.052200	0.158500	0.541600
H8471	H847	0.077500	0.155700	0.524100
C5781	C578	0.050600	0.138800	0.582200
C5791	C579	0.011900	0.144900	0.605400
H8481	H848	0.009700	0.131800	0.633200
C5801	C580	0.074600	0.064300	0.642100
H8491	H849	0.058600	0.078100	0.665900
H8501	H850	0.098500	0.046900	0.654100
H8511	H851	0.055000	0.045500	0.625600
C5811	C581	0.127800	0.081300	0.560300
H8521	H852	0.139500	0.104000	0.541300
H8531	H853	0.108200	0.062500	0.543600
H8541	H854	0.151700	0.063900	0.572100
Si831	Si83	0.097090	0.106860	0.605760
N841	N84	0.477900	0.667800	0.091200
C5821	C582	0.480800	0.686400	0.051600
H8551	H855	0.456800	0.702700	0.040900
C5831	C583	0.516900	0.682400	0.026800
H8561	H856	0.518000	0.696000	0.999100
C5841	C584	0.552200	0.658500	0.041600
H8571	H857	0.577500	0.655700	0.024100
C5851	C585	0.550600	0.638800	0.082200
C5861	C586	0.511900	0.644900	0.105400
H8581	H858	0.509700	0.631800	0.133200
C5871	C587	0.574600	0.564300	0.142100
H8591	H859	0.558600	0.578100	0.165900
H8601	H860	0.598500	0.546900	0.154100
H8611	H861	0.555000	0.545500	0.125600
C5881	C588	0.627800	0.581300	0.060300
H8621	H862	0.639500	0.604000	0.041300
H8631	H863	0.608200	0.562500	0.043600
H8641	H864	0.651700	0.563900	0.072100
Si841	Si84	0.597090	0.606860	0.105760
N851	N85	0.477900	0.332200	0.408800
C5891	C589	0.480800	0.313600	0.448400
H8651	H865	0.456800	0.297300	0.459100
C5901	C590	0.516900	0.317600	0.473200
H8661	H866	0.518000	0.304000	0.500900
C5911	C591	0.552200	0.341500	0.458400
H8671	H867	0.577500	0.344300	0.475900
C5921	C592	0.550600	0.361200	0.417800
C5931	C593	0.511900	0.355100	0.394600
H8681	H868	0.509700	0.368200	0.366800
C5941	C594	0.574600	0.435700	0.357900
H8691	H869	0.558600	0.421900	0.334100
H8701	H870	0.598500	0.453100	0.345900
H8711	H871	0.555000	0.454500	0.374400
C5951	C595	0.627800	0.418700	0.439700
H8721	H872	0.639500	0.396000	0.458700
H8731	H873	0.608200	0.437500	0.456400
H8741	H874	0.651700	0.436100	0.427900
Si851	Si85	0.597090	0.393140	0.394240
N861	N86	0.977900	0.832200	0.908800
C5961	C596	0.980800	0.813600	0.948400
H8751	H875	0.956800	0.797300	0.959100
C5971	C597	0.016900	0.817600	0.973200
H8761	H876	0.018000	0.804000	0.000900
C5981	C598	0.052200	0.841500	0.958400
H8771	H877	0.077500	0.844300	0.975900
C5991	C599	0.050600	0.861200	0.917800
C6001	C600	0.011900	0.855100	0.894600
H8781	H878	0.009700	0.868200	0.866800
C6011	C601	0.074600	0.935700	0.857900
H8791	H879	0.058600	0.921900	0.834100
H8801	H880	0.098500	0.953100	0.845900
H8811	H881	0.055000	0.954500	0.874400
C6021	C602	0.127800	0.918700	0.939700
H8821	H882	0.139500	0.896000	0.958700
H8831	H883	0.108200	0.937500	0.956400
H8841	H884	0.151700	0.936100	0.927900
Si861	Si86	0.097090	0.893140	0.894240
N871	N87	0.522100	0.832200	0.091200
C6031	C603	0.519200	0.813600	0.051600
H8851	H885	0.543200	0.797300	0.040900
C6041	C604	0.483100	0.817600	0.026800
H8861	H886	0.482000	0.804000	0.999100
C6051	C605	0.447800	0.841500	0.041600
H8871	H887	0.422500	0.844300	0.024100
C6061	C606	0.449400	0.861200	0.082200
C6071	C607	0.488100	0.855100	0.105400
H8881	H888	0.490300	0.868200	0.133200
C6081	C608	0.425400	0.935700	0.142100
H8891	H889	0.441400	0.921900	0.165900
H8901	H890	0.401500	0.953100	0.154100
H8911	H891	0.445000	0.954500	0.125600
C6091	C609	0.372200	0.918700	0.060300
H8921	H892	0.360500	0.896000	0.041300
H8931	H893	0.391800	0.937500	0.043600
H8941	H894	0.348300	0.936100	0.072100
Si871	Si87	0.402910	0.893140	0.105760
N881	N88	0.022100	0.332200	0.591200
C6101	C610	0.019200	0.313600	0.551600
H8951	H895	0.043200	0.297300	0.540900
C6111	C611	0.983100	0.317600	0.526800
H8961	H896	0.982000	0.304000	0.499100
C6121	C612	0.947800	0.341500	0.541600
H8971	H897	0.922500	0.344300	0.524100
C6131	C613	0.949400	0.361200	0.582200
C6141	C614	0.988100	0.355100	0.605400
H8981	H898	0.990300	0.368200	0.633200
C6151	C615	0.925400	0.435700	0.642100
H8991	H899	0.941400	0.421900	0.665900
H9001	H900	0.901500	0.453100	0.654100
H9011	H901	0.945000	0.454500	0.625600
C6161	C616	0.872200	0.418700	0.560300
H9021	H902	0.860500	0.396000	0.541300
H9031	H903	0.891800	0.437500	0.543600
H9041	H904	0.848300	0.436100	0.572100
Si881	Si88	0.902910	0.393140	0.605760
N891	N89	0.167800	0.591200	0.977900
C6171	C617	0.186400	0.551600	0.980800
H9051	H905	0.202700	0.540900	0.956800
C6181	C618	0.182400	0.526800	0.016900
H9061	H906	0.196000	0.499100	0.018000
C6191	C619	0.158500	0.541600	0.052200
H9071	H907	0.155700	0.524100	0.077500
C6201	C620	0.138800	0.582200	0.050600
C6211	C621	0.144900	0.605400	0.011900
H9081	H908	0.131800	0.633200	0.009700
C6221	C622	0.064300	0.642100	0.074600
H9091	H909	0.078100	0.665900	0.058600
H9101	H910	0.046900	0.654100	0.098500
H9111	H911	0.045500	0.625600	0.055000
C6231	C623	0.081300	0.560300	0.127800
H9121	H912	0.104000	0.541300	0.139500
H9131	H913	0.062500	0.543600	0.108200
H9141	H914	0.063900	0.572100	0.151700
Si891	Si89	0.106860	0.605760	0.097090
N901	N90	0.667800	0.091200	0.477900
C6241	C624	0.686400	0.051600	0.480800
H9151	H915	0.702700	0.040900	0.456800
C6251	C625	0.682400	0.026800	0.516900
H9161	H916	0.696000	0.999100	0.518000
C6261	C626	0.658500	0.041600	0.552200
H9171	H917	0.655700	0.024100	0.577500
C6271	C627	0.638800	0.082200	0.550600
C6281	C628	0.644900	0.105400	0.511900
H9181	H918	0.631800	0.133200	0.509700
C6291	C629	0.564300	0.142100	0.574600
H9191	H919	0.578100	0.165900	0.558600
H9201	H920	0.546900	0.154100	0.598500
H9211	H921	0.545500	0.125600	0.555000
C6301	C630	0.581300	0.060300	0.627800
H9221	H922	0.604000	0.041300	0.639500
H9231	H923	0.562500	0.043600	0.608200
H9241	H924	0.563900	0.072100	0.651700
Si901	Si90	0.606860	0.105760	0.597090
N911	N91	0.667800	0.908800	0.022100
C6311	C631	0.686400	0.948400	0.019200
H9251	H925	0.702700	0.959100	0.043200
C6321	C632	0.682400	0.973200	0.983100
H9261	H926	0.696000	0.000900	0.982000
C6331	C633	0.658500	0.958400	0.947800
H9271	H927	0.655700	0.975900	0.922500
C6341	C634	0.638800	0.917800	0.949400
C6351	C635	0.644900	0.894600	0.988100
H9281	H928	0.631800	0.866800	0.990300
C6361	C636	0.564300	0.857900	0.925400
H9291	H929	0.578100	0.834100	0.941400
H9301	H930	0.546900	0.845900	0.901500
H9311	H931	0.545500	0.874400	0.945000
C6371	C637	0.581300	0.939700	0.872200
H9321	H932	0.604000	0.958700	0.860500
H9331	H933	0.562500	0.956400	0.891800
H9341	H934	0.563900	0.927900	0.848300
Si911	Si91	0.606860	0.894240	0.902910
N921	N92	0.167800	0.408800	0.522100
C6381	C638	0.186400	0.448400	0.519200
H9351	H935	0.202700	0.459100	0.543200
C6391	C639	0.182400	0.473200	0.483100
H9361	H936	0.196000	0.500900	0.482000
C6401	C640	0.158500	0.458400	0.447800
H9371	H937	0.155700	0.475900	0.422500
C6411	C641	0.138800	0.417800	0.449400
C6421	C642	0.144900	0.394600	0.488100
H9381	H938	0.131800	0.366800	0.490300
C6431	C643	0.064300	0.357900	0.425400
H9391	H939	0.078100	0.334100	0.441400
H9401	H940	0.046900	0.345900	0.401500
H9411	H941	0.045500	0.374400	0.445000
C6441	C644	0.081300	0.439700	0.372200
H9421	H942	0.104000	0.458700	0.360500
H9431	H943	0.062500	0.456400	0.391800
H9441	H944	0.063900	0.427900	0.348300
Si921	Si92	0.106860	0.394240	0.402910
N931	N93	0.832200	0.091200	0.522100
C6451	C645	0.813600	0.051600	0.519200
H9451	H945	0.797300	0.040900	0.543200
C6461	C646	0.817600	0.026800	0.483100
H9461	H946	0.804000	0.999100	0.482000
C6471	C647	0.841500	0.041600	0.447800
H9471	H947	0.844300	0.024100	0.422500
C6481	C648	0.861200	0.082200	0.449400
C6491	C649	0.855100	0.105400	0.488100
H9481	H948	0.868200	0.133200	0.490300
C6501	C650	0.935700	0.142100	0.425400
H9491	H949	0.921900	0.165900	0.441400
H9501	H950	0.953100	0.154100	0.401500
H9511	H951	0.954500	0.125600	0.445000
C6511	C651	0.918700	0.060300	0.372200
H9521	H952	0.896000	0.041300	0.360500
H9531	H953	0.937500	0.043600	0.391800
H9541	H954	0.936100	0.072100	0.348300
Si931	Si93	0.893140	0.105760	0.402910
N941	N94	0.332200	0.591200	0.022100
C6521	C652	0.313600	0.551600	0.019200
H9551	H955	0.297300	0.540900	0.043200
C6531	C653	0.317600	0.526800	0.983100
H9561	H956	0.304000	0.499100	0.982000
C6541	C654	0.341500	0.541600	0.947800
H9571	H957	0.344300	0.524100	0.922500
C6551	C655	0.361200	0.582200	0.949400
C6561	C656	0.355100	0.605400	0.988100
H9581	H958	0.368200	0.633200	0.990300
C6571	C657	0.435700	0.642100	0.925400
H9591	H959	0.421900	0.665900	0.941400
H9601	H960	0.453100	0.654100	0.901500
H9611	H961	0.454500	0.625600	0.945000
C6581	C658	0.418700	0.560300	0.872200
H9621	H962	0.396000	0.541300	0.860500
H9631	H963	0.437500	0.543600	0.891800
H9641	H964	0.436100	0.572100	0.848300
Si941	Si94	0.393140	0.605760	0.902910
N951	N95	0.332200	0.408800	0.477900
C6591	C659	0.313600	0.448400	0.480800
H9651	H965	0.297300	0.459100	0.456800
C6601	C660	0.317600	0.473200	0.516900
H9661	H966	0.304000	0.500900	0.518000
C6611	C661	0.341500	0.458400	0.552200
H9671	H967	0.344300	0.475900	0.577500
C6621	C662	0.361200	0.417800	0.550600
C6631	C663	0.355100	0.394600	0.511900
H9681	H968	0.368200	0.366800	0.509700
C6641	C664	0.435700	0.357900	0.574600
H9691	H969	0.421900	0.334100	0.558600
H9701	H970	0.453100	0.345900	0.598500
H9711	H971	0.454500	0.374400	0.555000
C6651	C665	0.418700	0.439700	0.627800
H9721	H972	0.396000	0.458700	0.639500
H9731	H973	0.437500	0.456400	0.608200
H9741	H974	0.436100	0.427900	0.651700
Si951	Si95	0.393140	0.394240	0.597090
N961	N96	0.832200	0.908800	0.977900
C6661	C666	0.813600	0.948400	0.980800
H9751	H975	0.797300	0.959100	0.956800
C6671	C667	0.817600	0.973200	0.016900
H9761	H976	0.804000	0.000900	0.018000
C6681	C668	0.841500	0.958400	0.052200
H9771	H977	0.844300	0.975900	0.077500
C6691	C669	0.861200	0.917800	0.050600
C6701	C670	0.855100	0.894600	0.011900
H9781	H978	0.868200	0.866800	0.009700
C6711	C671	0.935700	0.857900	0.074600
H9791	H979	0.921900	0.834100	0.058600
H9801	H980	0.953100	0.845900	0.098500
H9811	H981	0.954500	0.874400	0.055000
C6721	C672	0.918700	0.939700	0.127800
H9821	H982	0.896000	0.958700	0.139500
H9831	H983	0.937500	0.956400	0.108200
H9841	H984	0.936100	0.927900	0.151700
Si961	Si96	0.893140	0.894240	0.097090
Zn251	Zn25	0.828540	0.875000	0.921460
Zn261	Zn26	0.328540	0.375000	0.421460
Zn271	Zn27	0.671460	0.125000	0.421460
Zn281	Zn28	0.171460	0.375000	0.578540
Zn291	Zn29	0.328540	0.625000	0.078540
Zn301	Zn30	0.921460	0.828540	0.875000
Zn311	Zn31	0.421460	0.328540	0.375000
Zn321	Zn32	0.421460	0.671460	0.125000
Zn331	Zn33	0.578540	0.171460	0.375000
Zn341	Zn34	0.078540	0.328540	0.625000
Zn351	Zn35	0.875000	0.921460	0.828540
Zn361	Zn36	0.375000	0.421460	0.328540
Zn371	Zn37	0.125000	0.421460	0.671460
Zn381	Zn38	0.375000	0.578540	0.171460
Zn391	Zn39	0.625000	0.078540	0.328540
Zn401	Zn40	0.125000	0.578540	0.828540
Zn411	Zn41	0.625000	0.921460	0.171460
Zn421	Zn42	0.875000	0.078540	0.671460
Zn431	Zn43	0.078540	0.671460	0.875000
Zn441	Zn44	0.921460	0.171460	0.625000
Zn451	Zn45	0.578540	0.828540	0.125000
Zn461	Zn46	0.171460	0.625000	0.921460
Zn471	Zn47	0.671460	0.875000	0.078540
Zn481	Zn48	0.828540	0.125000	0.578540
O251	O25	0.833360	0.916640	0.875000
H9851	H985	0.811500	0.938500	0.875000
O261	O26	0.333360	0.416640	0.375000
H9861	H986	0.311500	0.438500	0.375000
O271	O27	0.666640	0.083360	0.375000
H9871	H987	0.688500	0.061500	0.375000
O281	O28	0.166640	0.416640	0.625000
H9881	H988	0.188500	0.438500	0.625000
O291	O29	0.333360	0.583360	0.125000
H9891	H989	0.311500	0.561500	0.125000
O301	O30	0.875000	0.833360	0.916640
H9901	H990	0.875000	0.811500	0.938500
O311	O31	0.375000	0.333360	0.416640
H9911	H991	0.375000	0.311500	0.438500
O321	O32	0.375000	0.666640	0.083360
H9921	H992	0.375000	0.688500	0.061500
O331	O33	0.625000	0.166640	0.416640
H9931	H993	0.625000	0.188500	0.438500
O341	O34	0.125000	0.333360	0.583360
H9941	H994	0.125000	0.311500	0.561500
O351	O35	0.916640	0.875000	0.833360
H9951	H995	0.938500	0.875000	0.811500
O361	O36	0.416640	0.375000	0.333360
H9961	H996	0.438500	0.375000	0.311500
O371	O37	0.083360	0.375000	0.666640
H9971	H997	0.061500	0.375000	0.688500
O381	O38	0.416640	0.625000	0.166640
H9981	H998	0.438500	0.625000	0.188500
O391	O39	0.583360	0.125000	0.333360
H9991	H999	0.561500	0.125000	0.311500
O401	O40	0.166640	0.583360	0.875000
H10001	H1000	0.188500	0.561500	0.875000
O411	O41	0.666640	0.916640	0.125000
H10011	H1001	0.688500	0.938500	0.125000
O421	O42	0.833360	0.083360	0.625000
H10021	H1002	0.811500	0.061500	0.625000
O431	O43	0.083360	0.625000	0.833360
H10031	H1003	0.061500	0.625000	0.811500
O441	O44	0.916640	0.125000	0.666640
H10041	H1004	0.938500	0.125000	0.688500
O451	O45	0.583360	0.875000	0.166640
H10051	H1005	0.561500	0.875000	0.188500
O461	O46	0.125000	0.666640	0.916640
H10061	H1006	0.125000	0.688500	0.938500
O471	O47	0.625000	0.833360	0.083360
H10071	H1007	0.625000	0.811500	0.061500
O481	O48	0.875000	0.166640	0.583360
H10081	H1008	0.875000	0.188500	0.561500
