data_NAQQIH_freeONLY_PM
_symmetry_space_group_name_H-M	'P1'
_cell_length_a	21.815400
_cell_length_b	21.815400
_cell_length_c	16.196700
_cell_angle_alpha	90.000000
_cell_angle_beta	90.000000
_cell_angle_gamma	90.000000
_symmetry_Int_Tables_number 1

loop_
_symmetry_equiv_pos_as_xyz
'x,y,z'

loop_
_atom_site_label
_atom_site_type_symbol
_atom_site_fract_x
_atom_site_fract_y
_atom_site_fract_z
Y11	Y1	0.335020	0.367590	0.873770
O11	O1	0.254700	0.389400	0.774500
O21	O2	0.223800	0.427500	0.653800
O31	O3	0.524100	0.419900	0.804100
O41	O4	0.441900	0.385700	0.867200
O51	O5	0.350000	0.288000	0.777700
O61	O6	0.370500	0.383100	0.010600
O71	O7	0.238800	0.362700	0.937500
N11	N1	0.368600	0.420200	0.747400
C11	C1	0.427200	0.435000	0.738800
C21	C2	0.449200	0.469200	0.671200
H11	H1	0.490400	0.479400	0.665900
C31	C3	0.406400	0.486800	0.613300
H21	H2	0.418700	0.510600	0.568700
C41	C4	0.345000	0.469700	0.620200
H31	H3	0.316300	0.480000	0.580000
C51	C5	0.329200	0.437000	0.688900
C61	C6	0.264600	0.416200	0.704500
C71	C7	0.467500	0.412300	0.807700
Y21	Y2	0.835020	0.867590	0.373770
O81	O8	0.754700	0.889400	0.274500
O91	O9	0.723800	0.927500	0.153800
O101	O10	0.024100	0.919900	0.304100
O111	O11	0.941900	0.885700	0.367200
O121	O12	0.850000	0.788000	0.277700
O131	O13	0.870500	0.883100	0.510600
O141	O14	0.738800	0.862700	0.437500
N21	N2	0.868600	0.920200	0.247400
C81	C8	0.927200	0.935000	0.238800
C91	C9	0.949200	0.969200	0.171200
H41	H4	0.990400	0.979400	0.165900
C101	C10	0.906400	0.986800	0.113300
H51	H5	0.918700	0.010600	0.068700
C111	C11	0.845000	0.969700	0.120200
H61	H6	0.816300	0.980000	0.080000
C121	C12	0.829200	0.937000	0.188900
C131	C13	0.764600	0.916200	0.204500
C141	C14	0.967500	0.912300	0.307700
Y31	Y3	0.164980	0.632410	0.373770
O151	O15	0.245300	0.610600	0.274500
O161	O16	0.276200	0.572500	0.153800
O171	O17	0.975900	0.580100	0.304100
O181	O18	0.058100	0.614300	0.367200
O191	O19	0.150000	0.712000	0.277700
O201	O20	0.129500	0.616900	0.510600
O211	O21	0.261200	0.637300	0.437500
N31	N3	0.131400	0.579800	0.247400
C151	C15	0.072800	0.565000	0.238800
C161	C16	0.050800	0.530800	0.171200
H71	H7	0.009600	0.520600	0.165900
C171	C17	0.093600	0.513200	0.113300
H81	H8	0.081300	0.489400	0.068700
C181	C18	0.155000	0.530300	0.120200
H91	H9	0.183700	0.520000	0.080000
C191	C19	0.170800	0.563000	0.188900
C201	C20	0.235400	0.583800	0.204500
C211	C21	0.032500	0.587700	0.307700
Y41	Y4	0.664980	0.132410	0.873770
O221	O22	0.745300	0.110600	0.774500
O231	O23	0.776200	0.072500	0.653800
O241	O24	0.475900	0.080100	0.804100
O251	O25	0.558100	0.114300	0.867200
O261	O26	0.650000	0.212000	0.777700
O271	O27	0.629500	0.116900	0.010600
O281	O28	0.761200	0.137300	0.937500
N41	N4	0.631400	0.079800	0.747400
C221	C22	0.572800	0.065000	0.738800
C231	C23	0.550800	0.030800	0.671200
H101	H10	0.509600	0.020600	0.665900
C241	C24	0.593600	0.013200	0.613300
H111	H11	0.581300	0.989400	0.568700
C251	C25	0.655000	0.030300	0.620200
H121	H12	0.683700	0.020000	0.580000
C261	C26	0.670800	0.063000	0.688900
C271	C27	0.735400	0.083800	0.704500
C281	C28	0.532500	0.087700	0.807700
Y51	Y5	0.382410	0.585020	0.123770
O291	O29	0.360600	0.504700	0.024500
O301	O30	0.322500	0.473800	0.903800
O311	O31	0.330100	0.774100	0.054100
O321	O32	0.364300	0.691900	0.117200
O331	O33	0.462000	0.600000	0.027700
O341	O34	0.366900	0.620500	0.260600
O351	O35	0.387300	0.488800	0.187500
N51	N5	0.329800	0.618600	0.997400
C291	C29	0.315000	0.677200	0.988800
C301	C30	0.280800	0.699200	0.921200
H131	H13	0.270600	0.740400	0.915900
C311	C31	0.263200	0.656400	0.863300
H141	H14	0.239400	0.668700	0.818700
C321	C32	0.280300	0.595000	0.870200
H151	H15	0.270000	0.566300	0.830000
C331	C33	0.313000	0.579200	0.938900
C341	C34	0.333800	0.514600	0.954500
C351	C35	0.337700	0.717500	0.057700
Y61	Y6	0.882410	0.085020	0.623770
O361	O36	0.860600	0.004700	0.524500
O371	O37	0.822500	0.973800	0.403800
O381	O38	0.830100	0.274100	0.554100
O391	O39	0.864300	0.191900	0.617200
O401	O40	0.962000	0.100000	0.527700
O411	O41	0.866900	0.120500	0.760600
O421	O42	0.887300	0.988800	0.687500
N61	N6	0.829800	0.118600	0.497400
C361	C36	0.815000	0.177200	0.488800
C371	C37	0.780800	0.199200	0.421200
H161	H16	0.770600	0.240400	0.415900
C381	C38	0.763200	0.156400	0.363300
H171	H17	0.739400	0.168700	0.318700
C391	C39	0.780300	0.095000	0.370200
H181	H18	0.770000	0.066300	0.330000
C401	C40	0.813000	0.079200	0.438900
C411	C41	0.833800	0.014600	0.454500
C421	C42	0.837700	0.217500	0.557700
Y71	Y7	0.117590	0.414980	0.623770
O431	O43	0.139400	0.495300	0.524500
O441	O44	0.177500	0.526200	0.403800
O451	O45	0.169900	0.225900	0.554100
O461	O46	0.135700	0.308100	0.617200
O471	O47	0.038000	0.400000	0.527700
O481	O48	0.133100	0.379500	0.760600
O491	O49	0.112700	0.511200	0.687500
N71	N7	0.170200	0.381400	0.497400
C431	C43	0.185000	0.322800	0.488800
C441	C44	0.219200	0.300800	0.421200
H191	H19	0.229400	0.259600	0.415900
C451	C45	0.236800	0.343600	0.363300
H201	H20	0.260600	0.331300	0.318700
C461	C46	0.219700	0.405000	0.370200
H211	H21	0.230000	0.433700	0.330000
C471	C47	0.187000	0.420800	0.438900
C481	C48	0.166200	0.485400	0.454500
C491	C49	0.162300	0.282500	0.557700
Y81	Y8	0.617590	0.914980	0.123770
O501	O50	0.639400	0.995300	0.024500
O511	O51	0.677500	0.026200	0.903800
O521	O52	0.669900	0.725900	0.054100
O531	O53	0.635700	0.808100	0.117200
O541	O54	0.538000	0.900000	0.027700
O551	O55	0.633100	0.879500	0.260600
O561	O56	0.612700	0.011200	0.187500
N81	N8	0.670200	0.881400	0.997400
C501	C50	0.685000	0.822800	0.988800
C511	C51	0.719200	0.800800	0.921200
H221	H22	0.729400	0.759600	0.915900
C521	C52	0.736800	0.843600	0.863300
H231	H23	0.760600	0.831300	0.818700
C531	C53	0.719700	0.905000	0.870200
H241	H24	0.730000	0.933700	0.830000
C541	C54	0.687000	0.920800	0.938900
C551	C55	0.666200	0.985400	0.954500
C561	C56	0.662300	0.782500	0.057700
Y91	Y9	0.664980	0.632410	0.126230
O571	O57	0.745300	0.610600	0.225500
O581	O58	0.776200	0.572500	0.346200
O591	O59	0.475900	0.580100	0.195900
O601	O60	0.558100	0.614300	0.132800
O611	O61	0.650000	0.712000	0.222300
O621	O62	0.629500	0.616900	0.989400
O631	O63	0.761200	0.637300	0.062500
N91	N9	0.631400	0.579800	0.252600
C571	C57	0.572800	0.565000	0.261200
C581	C58	0.550800	0.530800	0.328800
H251	H25	0.509600	0.520600	0.334100
C591	C59	0.593600	0.513200	0.386700
H261	H26	0.581300	0.489400	0.431300
C601	C60	0.655000	0.530300	0.379800
H271	H27	0.683700	0.520000	0.420000
C611	C61	0.670800	0.563000	0.311100
C621	C62	0.735400	0.583800	0.295500
C631	C63	0.532500	0.587700	0.192300
Y101	Y10	0.164980	0.132410	0.626230
O641	O64	0.245300	0.110600	0.725500
O651	O65	0.276200	0.072500	0.846200
O661	O66	0.975900	0.080100	0.695900
O671	O67	0.058100	0.114300	0.632800
O681	O68	0.150000	0.212000	0.722300
O691	O69	0.129500	0.116900	0.489400
O701	O70	0.261200	0.137300	0.562500
N101	N10	0.131400	0.079800	0.752600
C641	C64	0.072800	0.065000	0.761200
C651	C65	0.050800	0.030800	0.828800
H281	H28	0.009600	0.020600	0.834100
C661	C66	0.093600	0.013200	0.886700
H291	H29	0.081300	0.989400	0.931300
C671	C67	0.155000	0.030300	0.879800
H301	H30	0.183700	0.020000	0.920000
C681	C68	0.170800	0.063000	0.811100
C691	C69	0.235400	0.083800	0.795500
C701	C70	0.032500	0.087700	0.692300
Y111	Y11	0.835020	0.367590	0.626230
O711	O71	0.754700	0.389400	0.725500
O721	O72	0.723800	0.427500	0.846200
O731	O73	0.024100	0.419900	0.695900
O741	O74	0.941900	0.385700	0.632800
O751	O75	0.850000	0.288000	0.722300
O761	O76	0.870500	0.383100	0.489400
O771	O77	0.738800	0.362700	0.562500
N111	N11	0.868600	0.420200	0.752600
C711	C71	0.927200	0.435000	0.761200
C721	C72	0.949200	0.469200	0.828800
H311	H31	0.990400	0.479400	0.834100
C731	C73	0.906400	0.486800	0.886700
H321	H32	0.918700	0.510600	0.931300
C741	C74	0.845000	0.469700	0.879800
H331	H33	0.816300	0.480000	0.920000
C751	C75	0.829200	0.437000	0.811100
C761	C76	0.764600	0.416200	0.795500
C771	C77	0.967500	0.412300	0.692300
Y121	Y12	0.335020	0.867590	0.126230
O781	O78	0.254700	0.889400	0.225500
O791	O79	0.223800	0.927500	0.346200
O801	O80	0.524100	0.919900	0.195900
O811	O81	0.441900	0.885700	0.132800
O821	O82	0.350000	0.788000	0.222300
O831	O83	0.370500	0.883100	0.989400
O841	O84	0.238800	0.862700	0.062500
N121	N12	0.368600	0.920200	0.252600
C781	C78	0.427200	0.935000	0.261200
C791	C79	0.449200	0.969200	0.328800
H341	H34	0.490400	0.979400	0.334100
C801	C80	0.406400	0.986800	0.386700
H351	H35	0.418700	0.010600	0.431300
C811	C81	0.345000	0.969700	0.379800
H361	H36	0.316300	0.980000	0.420000
C821	C82	0.329200	0.937000	0.311100
C831	C83	0.264600	0.916200	0.295500
C841	C84	0.467500	0.912300	0.192300
Y131	Y13	0.617590	0.414980	0.876230
O851	O85	0.639400	0.495300	0.975500
O861	O86	0.677500	0.526200	0.096200
O871	O87	0.669900	0.225900	0.945900
O881	O88	0.635700	0.308100	0.882800
O891	O89	0.538000	0.400000	0.972300
O901	O90	0.633100	0.379500	0.739400
O911	O91	0.612700	0.511200	0.812500
N131	N13	0.670200	0.381400	0.002600
C851	C85	0.685000	0.322800	0.011200
C861	C86	0.719200	0.300800	0.078800
H371	H37	0.729400	0.259600	0.084100
C871	C87	0.736800	0.343600	0.136700
H381	H38	0.760600	0.331300	0.181300
C881	C88	0.719700	0.405000	0.129800
H391	H39	0.730000	0.433700	0.170000
C891	C89	0.687000	0.420800	0.061100
C901	C90	0.666200	0.485400	0.045500
C911	C91	0.662300	0.282500	0.942300
Y141	Y14	0.117590	0.914980	0.376230
O921	O92	0.139400	0.995300	0.475500
O931	O93	0.177500	0.026200	0.596200
O941	O94	0.169900	0.725900	0.445900
O951	O95	0.135700	0.808100	0.382800
O961	O96	0.038000	0.900000	0.472300
O971	O97	0.133100	0.879500	0.239400
O981	O98	0.112700	0.011200	0.312500
N141	N14	0.170200	0.881400	0.502600
C921	C92	0.185000	0.822800	0.511200
C931	C93	0.219200	0.800800	0.578800
H401	H40	0.229400	0.759600	0.584100
C941	C94	0.236800	0.843600	0.636700
H411	H41	0.260600	0.831300	0.681300
C951	C95	0.219700	0.905000	0.629800
H421	H42	0.230000	0.933700	0.670000
C961	C96	0.187000	0.920800	0.561100
C971	C97	0.166200	0.985400	0.545500
C981	C98	0.162300	0.782500	0.442300
Y151	Y15	0.882410	0.585020	0.376230
O991	O99	0.860600	0.504700	0.475500
O1001	O100	0.822500	0.473800	0.596200
O1011	O101	0.830100	0.774100	0.445900
O1021	O102	0.864300	0.691900	0.382800
O1031	O103	0.962000	0.600000	0.472300
O1041	O104	0.866900	0.620500	0.239400
O1051	O105	0.887300	0.488800	0.312500
N151	N15	0.829800	0.618600	0.502600
C991	C99	0.815000	0.677200	0.511200
C1001	C100	0.780800	0.699200	0.578800
H431	H43	0.770600	0.740400	0.584100
C1011	C101	0.763200	0.656400	0.636700
H441	H44	0.739400	0.668700	0.681300
C1021	C102	0.780300	0.595000	0.629800
H451	H45	0.770000	0.566300	0.670000
C1031	C103	0.813000	0.579200	0.561100
C1041	C104	0.833800	0.514600	0.545500
C1051	C105	0.837700	0.717500	0.442300
Y161	Y16	0.382410	0.085020	0.876230
O1061	O106	0.360600	0.004700	0.975500
O1071	O107	0.322500	0.973800	0.096200
O1081	O108	0.330100	0.274100	0.945900
O1091	O109	0.364300	0.191900	0.882800
O1101	O110	0.462000	0.100000	0.972300
O1111	O111	0.366900	0.120500	0.739400
O1121	O112	0.387300	0.988800	0.812500
N161	N16	0.329800	0.118600	0.002600
C1061	C106	0.315000	0.177200	0.011200
C1071	C107	0.280800	0.199200	0.078800
H461	H46	0.270600	0.240400	0.084100
C1081	C108	0.263200	0.156400	0.136700
H471	H47	0.239400	0.168700	0.181300
C1091	C109	0.280300	0.095000	0.129800
H481	H48	0.270000	0.066300	0.170000
C1101	C110	0.313000	0.079200	0.061100
C1111	C111	0.333800	0.014600	0.045500
C1121	C112	0.337700	0.217500	0.942300
