data_NAQRAA_freeONLY_PM
_symmetry_space_group_name_H-M	'P1'
_cell_length_a	21.685000
_cell_length_b	21.685000
_cell_length_c	16.470000
_cell_angle_alpha	90.000000
_cell_angle_beta	90.000000
_cell_angle_gamma	90.000000
_symmetry_Int_Tables_number 1

loop_
_symmetry_equiv_pos_as_xyz
'x,y,z'

loop_
_atom_site_label
_atom_site_type_symbol
_atom_site_fract_x
_atom_site_fract_y
_atom_site_fract_z
Sm11	Sm1	0.827260	0.636800	0.367470
O11	O1	0.750200	0.610900	0.264600
O21	O2	0.721600	0.568600	0.145600
O31	O3	0.934800	0.611000	0.365500
O41	O4	0.018600	0.570800	0.305100
O51	O5	0.727200	0.630000	0.437400
O61	O6	0.858300	0.719500	0.277600
O71	O7	0.860500	0.622500	0.508300
O81	O8	0.742700	0.719400	0.323100
N11	N1	0.864600	0.579800	0.242100
C11	C1	0.761300	0.582900	0.198200
C21	C2	0.825800	0.562800	0.182500
C31	C3	0.846200	0.531100	0.116200
H11	H1	0.819300	0.521500	0.074200
C41	C4	0.907000	0.513400	0.112100
H21	H2	0.920800	0.490400	0.068000
C51	C5	0.947200	0.529500	0.172100
H31	H3	0.988400	0.517700	0.170100
C61	C6	0.924500	0.563700	0.235400
C71	C7	0.963000	0.582600	0.306700
Sm21	Sm2	0.327260	0.136800	0.867470
O91	O9	0.250200	0.110900	0.764600
O101	O10	0.221600	0.068600	0.645600
O111	O11	0.434800	0.111000	0.865500
O121	O12	0.518600	0.070800	0.805100
O131	O13	0.227200	0.130000	0.937400
O141	O14	0.358300	0.219500	0.777600
O151	O15	0.360500	0.122500	0.008300
O161	O16	0.242700	0.219400	0.823100
N21	N2	0.364600	0.079800	0.742100
C81	C8	0.261300	0.082900	0.698200
C91	C9	0.325800	0.062800	0.682500
C101	C10	0.346200	0.031100	0.616200
H41	H4	0.319300	0.021500	0.574200
C111	C11	0.407000	0.013400	0.612100
H51	H5	0.420800	0.990400	0.568000
C121	C12	0.447200	0.029500	0.672100
H61	H6	0.488400	0.017700	0.670100
C131	C13	0.424500	0.063700	0.735400
C141	C14	0.463000	0.082600	0.806700
Sm31	Sm3	0.672740	0.363200	0.867470
O171	O17	0.749800	0.389100	0.764600
O181	O18	0.778400	0.431400	0.645600
O191	O19	0.565200	0.389000	0.865500
O201	O20	0.481400	0.429200	0.805100
O211	O21	0.772800	0.370000	0.937400
O221	O22	0.641700	0.280500	0.777600
O231	O23	0.639500	0.377500	0.008300
O241	O24	0.757300	0.280600	0.823100
N31	N3	0.635400	0.420200	0.742100
C151	C15	0.738700	0.417100	0.698200
C161	C16	0.674200	0.437200	0.682500
C171	C17	0.653800	0.468900	0.616200
H71	H7	0.680700	0.478500	0.574200
C181	C18	0.593000	0.486600	0.612100
H81	H8	0.579200	0.509600	0.568000
C191	C19	0.552800	0.470500	0.672100
H91	H9	0.511600	0.482300	0.670100
C201	C20	0.575500	0.436300	0.735400
C211	C21	0.537000	0.417400	0.806700
Sm41	Sm4	0.172740	0.863200	0.367470
O251	O25	0.249800	0.889100	0.264600
O261	O26	0.278400	0.931400	0.145600
O271	O27	0.065200	0.889000	0.365500
O281	O28	0.981400	0.929200	0.305100
O291	O29	0.272800	0.870000	0.437400
O301	O30	0.141700	0.780500	0.277600
O311	O31	0.139500	0.877500	0.508300
O321	O32	0.257300	0.780600	0.323100
N41	N4	0.135400	0.920200	0.242100
C221	C22	0.238700	0.917100	0.198200
C231	C23	0.174200	0.937200	0.182500
C241	C24	0.153800	0.968900	0.116200
H101	H10	0.180700	0.978500	0.074200
C251	C25	0.093000	0.986600	0.112100
H111	H11	0.079200	0.009600	0.068000
C261	C26	0.052800	0.970500	0.172100
H121	H12	0.011600	0.982300	0.170100
C271	C27	0.075500	0.936300	0.235400
C281	C28	0.037000	0.917400	0.306700
Sm51	Sm5	0.113200	0.077260	0.617470
O331	O33	0.139100	0.000200	0.514600
O341	O34	0.181400	0.971600	0.395600
O351	O35	0.139000	0.184800	0.615500
O361	O36	0.179200	0.268600	0.555100
O371	O37	0.120000	0.977200	0.687400
O381	O38	0.030500	0.108300	0.527600
O391	O39	0.127500	0.110500	0.758300
O401	O40	0.030600	0.992700	0.573100
N51	N5	0.170200	0.114600	0.492100
C291	C29	0.167100	0.011300	0.448200
C301	C30	0.187200	0.075800	0.432500
C311	C31	0.218900	0.096200	0.366200
H131	H13	0.228500	0.069300	0.324200
C321	C32	0.236600	0.157000	0.362100
H141	H14	0.259600	0.170800	0.318000
C331	C33	0.220500	0.197200	0.422100
H151	H15	0.232300	0.238400	0.420100
C341	C34	0.186300	0.174500	0.485400
C351	C35	0.167400	0.213000	0.556700
Sm61	Sm6	0.613200	0.577260	0.117470
O411	O41	0.639100	0.500200	0.014600
O421	O42	0.681400	0.471600	0.895600
O431	O43	0.639000	0.684800	0.115500
O441	O44	0.679200	0.768600	0.055100
O451	O45	0.620000	0.477200	0.187400
O461	O46	0.530500	0.608300	0.027600
O471	O47	0.627500	0.610500	0.258300
O481	O48	0.530600	0.492700	0.073100
N61	N6	0.670200	0.614600	0.992100
C361	C36	0.667100	0.511300	0.948200
C371	C37	0.687200	0.575800	0.932500
C381	C38	0.718900	0.596200	0.866200
H161	H16	0.728500	0.569300	0.824200
C391	C39	0.736600	0.657000	0.862100
H171	H17	0.759600	0.670800	0.818000
C401	C40	0.720500	0.697200	0.922100
H181	H18	0.732300	0.738400	0.920100
C411	C41	0.686300	0.674500	0.985400
C421	C42	0.667400	0.713000	0.056700
Sm71	Sm7	0.386800	0.922740	0.117470
O491	O49	0.360900	0.999800	0.014600
O501	O50	0.318600	0.028400	0.895600
O511	O51	0.361000	0.815200	0.115500
O521	O52	0.320800	0.731400	0.055100
O531	O53	0.380000	0.022800	0.187400
O541	O54	0.469500	0.891700	0.027600
O551	O55	0.372500	0.889500	0.258300
O561	O56	0.469400	0.007300	0.073100
N71	N7	0.329800	0.885400	0.992100
C431	C43	0.332900	0.988700	0.948200
C441	C44	0.312800	0.924200	0.932500
C451	C45	0.281100	0.903800	0.866200
H191	H19	0.271500	0.930700	0.824200
C461	C46	0.263400	0.843000	0.862100
H201	H20	0.240400	0.829200	0.818000
C471	C47	0.279500	0.802800	0.922100
H211	H21	0.267700	0.761600	0.920100
C481	C48	0.313700	0.825500	0.985400
C491	C49	0.332600	0.787000	0.056700
Sm81	Sm8	0.886800	0.422740	0.617470
O571	O57	0.860900	0.499800	0.514600
O581	O58	0.818600	0.528400	0.395600
O591	O59	0.861000	0.315200	0.615500
O601	O60	0.820800	0.231400	0.555100
O611	O61	0.880000	0.522800	0.687400
O621	O62	0.969500	0.391700	0.527600
O631	O63	0.872500	0.389500	0.758300
O641	O64	0.969400	0.507300	0.573100
N81	N8	0.829800	0.385400	0.492100
C501	C50	0.832900	0.488700	0.448200
C511	C51	0.812800	0.424200	0.432500
C521	C52	0.781100	0.403800	0.366200
H221	H22	0.771500	0.430700	0.324200
C531	C53	0.763400	0.343000	0.362100
H231	H23	0.740400	0.329200	0.318000
C541	C54	0.779500	0.302800	0.422100
H241	H24	0.767700	0.261600	0.420100
C551	C55	0.813700	0.325500	0.485400
C561	C56	0.832600	0.287000	0.556700
Sm91	Sm9	0.172740	0.363200	0.632530
O651	O65	0.249800	0.389100	0.735400
O661	O66	0.278400	0.431400	0.854400
O671	O67	0.065200	0.389000	0.634500
O681	O68	0.981400	0.429200	0.694900
O691	O69	0.272800	0.370000	0.562600
O701	O70	0.141700	0.280500	0.722400
O711	O71	0.139500	0.377500	0.491700
O721	O72	0.257300	0.280600	0.676900
N91	N9	0.135400	0.420200	0.757900
C571	C57	0.238700	0.417100	0.801800
C581	C58	0.174200	0.437200	0.817500
C591	C59	0.153800	0.468900	0.883800
H251	H25	0.180700	0.478500	0.925800
C601	C60	0.093000	0.486600	0.887900
H261	H26	0.079200	0.509600	0.932000
C611	C61	0.052800	0.470500	0.827900
H271	H27	0.011600	0.482300	0.829900
C621	C62	0.075500	0.436300	0.764600
C631	C63	0.037000	0.417400	0.693300
Sm101	Sm10	0.672740	0.863200	0.132530
O731	O73	0.749800	0.889100	0.235400
O741	O74	0.778400	0.931400	0.354400
O751	O75	0.565200	0.889000	0.134500
O761	O76	0.481400	0.929200	0.194900
O771	O77	0.772800	0.870000	0.062600
O781	O78	0.641700	0.780500	0.222400
O791	O79	0.639500	0.877500	0.991700
O801	O80	0.757300	0.780600	0.176900
N101	N10	0.635400	0.920200	0.257900
C641	C64	0.738700	0.917100	0.301800
C651	C65	0.674200	0.937200	0.317500
C661	C66	0.653800	0.968900	0.383800
H281	H28	0.680700	0.978500	0.425800
C671	C67	0.593000	0.986600	0.387900
H291	H29	0.579200	0.009600	0.432000
C681	C68	0.552800	0.970500	0.327900
H301	H30	0.511600	0.982300	0.329900
C691	C69	0.575500	0.936300	0.264600
C701	C70	0.537000	0.917400	0.193300
Sm111	Sm11	0.327260	0.636800	0.132530
O811	O81	0.250200	0.610900	0.235400
O821	O82	0.221600	0.568600	0.354400
O831	O83	0.434800	0.611000	0.134500
O841	O84	0.518600	0.570800	0.194900
O851	O85	0.227200	0.630000	0.062600
O861	O86	0.358300	0.719500	0.222400
O871	O87	0.360500	0.622500	0.991700
O881	O88	0.242700	0.719400	0.176900
N111	N11	0.364600	0.579800	0.257900
C711	C71	0.261300	0.582900	0.301800
C721	C72	0.325800	0.562800	0.317500
C731	C73	0.346200	0.531100	0.383800
H311	H31	0.319300	0.521500	0.425800
C741	C74	0.407000	0.513400	0.387900
H321	H32	0.420800	0.490400	0.432000
C751	C75	0.447200	0.529500	0.327900
H331	H33	0.488400	0.517700	0.329900
C761	C76	0.424500	0.563700	0.264600
C771	C77	0.463000	0.582600	0.193300
Sm121	Sm12	0.827260	0.136800	0.632530
O891	O89	0.750200	0.110900	0.735400
O901	O90	0.721600	0.068600	0.854400
O911	O91	0.934800	0.111000	0.634500
O921	O92	0.018600	0.070800	0.694900
O931	O93	0.727200	0.130000	0.562600
O941	O94	0.858300	0.219500	0.722400
O951	O95	0.860500	0.122500	0.491700
O961	O96	0.742700	0.219400	0.676900
N121	N12	0.864600	0.079800	0.757900
C781	C78	0.761300	0.082900	0.801800
C791	C79	0.825800	0.062800	0.817500
C801	C80	0.846200	0.031100	0.883800
H341	H34	0.819300	0.021500	0.925800
C811	C81	0.907000	0.013400	0.887900
H351	H35	0.920800	0.990400	0.932000
C821	C82	0.947200	0.029500	0.827900
H361	H36	0.988400	0.017700	0.829900
C831	C83	0.924500	0.063700	0.764600
C841	C84	0.963000	0.082600	0.693300
Sm131	Sm13	0.886800	0.922740	0.382530
O971	O97	0.860900	0.999800	0.485400
O981	O98	0.818600	0.028400	0.604400
O991	O99	0.861000	0.815200	0.384500
O1001	O100	0.820800	0.731400	0.444900
O1011	O101	0.880000	0.022800	0.312600
O1021	O102	0.969500	0.891700	0.472400
O1031	O103	0.872500	0.889500	0.241700
O1041	O104	0.969400	0.007300	0.426900
N131	N13	0.829800	0.885400	0.507900
C851	C85	0.832900	0.988700	0.551800
C861	C86	0.812800	0.924200	0.567500
C871	C87	0.781100	0.903800	0.633800
H371	H37	0.771500	0.930700	0.675800
C881	C88	0.763400	0.843000	0.637900
H381	H38	0.740400	0.829200	0.682000
C891	C89	0.779500	0.802800	0.577900
H391	H39	0.767700	0.761600	0.579900
C901	C90	0.813700	0.825500	0.514600
C911	C91	0.832600	0.787000	0.443300
Sm141	Sm14	0.386800	0.422740	0.882530
O1051	O105	0.360900	0.499800	0.985400
O1061	O106	0.318600	0.528400	0.104400
O1071	O107	0.361000	0.315200	0.884500
O1081	O108	0.320800	0.231400	0.944900
O1091	O109	0.380000	0.522800	0.812600
O1101	O110	0.469500	0.391700	0.972400
O1111	O111	0.372500	0.389500	0.741700
O1121	O112	0.469400	0.507300	0.926900
N141	N14	0.329800	0.385400	0.007900
C921	C92	0.332900	0.488700	0.051800
C931	C93	0.312800	0.424200	0.067500
C941	C94	0.281100	0.403800	0.133800
H401	H40	0.271500	0.430700	0.175800
C951	C95	0.263400	0.343000	0.137900
H411	H41	0.240400	0.329200	0.182000
C961	C96	0.279500	0.302800	0.077900
H421	H42	0.267700	0.261600	0.079900
C971	C97	0.313700	0.325500	0.014600
C981	C98	0.332600	0.287000	0.943300
Sm151	Sm15	0.613200	0.077260	0.882530
O1131	O113	0.639100	0.000200	0.985400
O1141	O114	0.681400	0.971600	0.104400
O1151	O115	0.639000	0.184800	0.884500
O1161	O116	0.679200	0.268600	0.944900
O1171	O117	0.620000	0.977200	0.812600
O1181	O118	0.530500	0.108300	0.972400
O1191	O119	0.627500	0.110500	0.741700
O1201	O120	0.530600	0.992700	0.926900
N151	N15	0.670200	0.114600	0.007900
C991	C99	0.667100	0.011300	0.051800
C1001	C100	0.687200	0.075800	0.067500
C1011	C101	0.718900	0.096200	0.133800
H431	H43	0.728500	0.069300	0.175800
C1021	C102	0.736600	0.157000	0.137900
H441	H44	0.759600	0.170800	0.182000
C1031	C103	0.720500	0.197200	0.077900
H451	H45	0.732300	0.238400	0.079900
C1041	C104	0.686300	0.174500	0.014600
C1051	C105	0.667400	0.213000	0.943300
Sm161	Sm16	0.113200	0.577260	0.382530
O1211	O121	0.139100	0.500200	0.485400
O1221	O122	0.181400	0.471600	0.604400
O1231	O123	0.139000	0.684800	0.384500
O1241	O124	0.179200	0.768600	0.444900
O1251	O125	0.120000	0.477200	0.312600
O1261	O126	0.030500	0.608300	0.472400
O1271	O127	0.127500	0.610500	0.241700
O1281	O128	0.030600	0.492700	0.426900
N161	N16	0.170200	0.614600	0.507900
C1061	C106	0.167100	0.511300	0.551800
C1071	C107	0.187200	0.575800	0.567500
C1081	C108	0.218900	0.596200	0.633800
H461	H46	0.228500	0.569300	0.675800
C1091	C109	0.236600	0.657000	0.637900
H471	H47	0.259600	0.670800	0.682000
C1101	C110	0.220500	0.697200	0.577900
H481	H48	0.232300	0.738400	0.579900
C1111	C111	0.186300	0.674500	0.514600
C1121	C112	0.167400	0.713000	0.443300
