data_NARHEV_charged_PM
_symmetry_space_group_name_H-M	'P1'
_cell_length_a	10.152000
_cell_length_b	18.879300
_cell_length_c	20.900300
_cell_angle_alpha	115.564000
_cell_angle_beta	101.854000
_cell_angle_gamma	94.756600
_symmetry_Int_Tables_number 1

loop_
_symmetry_equiv_pos_as_xyz
'x,y,z'

loop_
_atom_site_label
_atom_site_type_symbol
_atom_site_fract_x
_atom_site_fract_y
_atom_site_fract_z
Ce11	Ce1	0.128240	0.108740	0.939260
Ce21	Ce2	0.056480	0.063730	0.614780
Ce31	Ce3	0.311020	0.830520	0.939260
Ce41	Ce4	0.058300	0.551050	0.614780
Ce51	Ce5	0.871760	0.891260	0.060740
Ce61	Ce6	0.943520	0.936270	0.385220
Ce71	Ce7	0.688980	0.169480	0.060740
Ce81	Ce8	0.941700	0.448950	0.385220
Ce91	Ce9	0.030620	0.280620	0.561240
Ce101	Ce10	0.969380	0.719380	0.438760
S11	S1	0.160140	0.101310	0.465680
S21	S2	0.385480	0.022930	0.929000
S31	S3	0.767340	0.091540	0.495700
S41	S4	0.211070	0.246910	0.686160
S51	S5	0.077190	0.092860	0.777740
S61	S6	0.405480	0.277980	0.048980
S71	S7	0.805540	0.364370	0.465680
S81	S8	0.043520	0.906070	0.929000
S91	S9	0.228360	0.404160	0.495700
S101	S10	0.975090	0.439250	0.686160
S111	S11	0.200550	0.684880	0.777740
S121	S12	0.143500	0.771000	0.048980
S131	S13	0.839860	0.898690	0.534320
S141	S14	0.614520	0.977070	0.071000
S151	S15	0.232660	0.908460	0.504300
S161	S16	0.788930	0.753090	0.313840
S171	S17	0.922810	0.907140	0.222260
S181	S18	0.594520	0.722020	0.951020
S191	S19	0.194460	0.635630	0.534320
S201	S20	0.956480	0.093930	0.071000
S211	S21	0.771640	0.595840	0.504300
S221	S22	0.024910	0.560750	0.313840
S231	S23	0.799450	0.315120	0.222260
S241	S24	0.856500	0.229000	0.951020
O11	O1	0.233300	0.298000	0.763600
O21	O2	0.825740	0.079340	0.560880
O31	O3	0.081570	0.069670	0.504340
O41	O4	0.296060	0.033460	0.869720
O51	O5	0.787800	0.027600	0.428600
O61	O6	0.336700	0.064100	0.994800
O71	O7	0.131510	0.180210	0.479220
O81	O8	0.159950	0.162050	0.847500
O91	O9	0.528860	0.059260	0.943520
O101	O10	0.058950	0.216650	0.649500
O111	O11	0.270350	0.175150	0.673900
O121	O12	0.621010	0.091110	0.487820
O131	O13	0.376730	0.937230	0.906060
O141	O14	0.838220	0.169520	0.508240
O151	O15	0.102590	0.044890	0.386780
O161	O16	0.163910	0.052910	0.729620
O171	O17	0.008750	0.037750	0.799100
O181	O18	0.304840	0.104840	0.489880
O191	O19	0.257960	0.289860	0.648720
O201	O20	0.979770	0.120570	0.735140
O211	O21	0.274200	0.230100	0.027800
O221	O22	0.513700	0.237700	0.043400
O231	O23	0.433100	0.341200	0.122800
O241	O24	0.404900	0.329400	0.010800
O251	O25	0.030300	0.465600	0.763600
O261	O26	0.235140	0.481540	0.560880
O271	O27	0.922770	0.434670	0.504340
O281	O28	0.073660	0.836260	0.869720
O291	O29	0.140800	0.401000	0.428600
O301	O30	0.158100	0.930700	0.994800
O311	O31	0.847710	0.299010	0.479220
O321	O32	0.187550	0.685450	0.847500
O331	O33	0.914660	0.884260	0.943520
O341	O34	0.090550	0.432850	0.649500
O351	O35	0.903550	0.498750	0.673900
O361	O36	0.366810	0.396710	0.487820
O371	O37	0.029330	0.968830	0.906060
O381	O38	0.170020	0.338720	0.508240
O391	O39	0.784190	0.341890	0.386780
O401	O40	0.065710	0.676710	0.729620
O411	O41	0.290350	0.761350	0.799100
O421	O42	0.685040	0.385040	0.489880
O431	O43	0.890760	0.358860	0.648720
O441	O44	0.255370	0.614570	0.735140
O451	O45	0.253600	0.797700	0.027800
O461	O46	0.029700	0.805700	0.043400
O471	O47	0.189700	0.781600	0.122800
O481	O48	0.105900	0.681400	0.010800
O491	O49	0.766700	0.702000	0.236400
O501	O50	0.174260	0.920660	0.439120
O511	O51	0.918430	0.930330	0.495660
O521	O52	0.703940	0.966540	0.130280
O531	O53	0.212200	0.972400	0.571400
O541	O54	0.663300	0.935900	0.005200
O551	O55	0.868490	0.819790	0.520780
O561	O56	0.840050	0.837950	0.152500
O571	O57	0.471140	0.940740	0.056480
O581	O58	0.941050	0.783350	0.350500
O591	O59	0.729650	0.824850	0.326100
O601	O60	0.378990	0.908890	0.512180
O611	O61	0.623270	0.062770	0.093940
O621	O62	0.161780	0.830480	0.491760
O631	O63	0.897410	0.955110	0.613220
O641	O64	0.836090	0.947090	0.270380
O651	O65	0.991250	0.962250	0.200900
O661	O66	0.695160	0.895160	0.510120
O671	O67	0.742040	0.710140	0.351280
O681	O68	0.020230	0.879430	0.264860
O691	O69	0.725800	0.769900	0.972200
O701	O70	0.486300	0.762300	0.956600
O711	O71	0.566900	0.658800	0.877200
O721	O72	0.595100	0.670600	0.989200
O731	O73	0.969700	0.534400	0.236400
O741	O74	0.764860	0.518460	0.439120
O751	O75	0.077230	0.565330	0.495660
O761	O76	0.926340	0.163740	0.130280
O771	O77	0.859200	0.599000	0.571400
O781	O78	0.841900	0.069300	0.005200
O791	O79	0.152290	0.700990	0.520780
O801	O80	0.812450	0.314550	0.152500
O811	O81	0.085340	0.115740	0.056480
O821	O82	0.909450	0.567150	0.350500
O831	O83	0.096450	0.501250	0.326100
O841	O84	0.633190	0.603290	0.512180
O851	O85	0.970670	0.031170	0.093940
O861	O86	0.829980	0.661280	0.491760
O871	O87	0.215810	0.658110	0.613220
O881	O88	0.934290	0.323290	0.270380
O891	O89	0.709650	0.238650	0.200900
O901	O90	0.314960	0.614960	0.510120
O911	O91	0.109240	0.641140	0.351280
O921	O92	0.744630	0.385430	0.264860
O931	O93	0.746400	0.202300	0.972200
O941	O94	0.970300	0.194300	0.956600
O951	O95	0.810300	0.218400	0.877200
O961	O96	0.894100	0.318600	0.989200
H11	H1	0.417700	0.525000	0.412800
H21	H2	0.307100	0.449600	0.353400
H31	H3	0.426800	0.483400	0.331200
H41	H4	0.527600	0.311100	0.337600
H51	H5	0.495700	0.349600	0.284400
H61	H6	0.376000	0.315800	0.306600
H71	H7	0.576500	0.446100	0.402800
H81	H8	0.465700	0.414900	0.423600
C11	C1	0.402300	0.474600	0.369400
C21	C2	0.470200	0.342700	0.323400
N11	N1	0.487750	0.421850	0.386900
H91	H9	0.738700	0.033700	0.860200
H101	H10	0.612000	0.973000	0.797400
H111	H11	0.760300	0.955400	0.797400
H121	H12	0.769200	0.942400	0.901200
H131	H13	0.621500	0.826500	0.860200
H141	H14	0.685400	0.824400	0.797400
H151	H15	0.537100	0.842000	0.797400
H161	H16	0.632000	0.958800	0.901200
C31	C3	0.700600	0.978100	0.827800
C41	C4	0.627200	0.849700	0.827800
N21	N2	0.686000	0.936000	0.872000
H171	H17	0.830100	0.264900	0.743400
H181	H18	0.936100	0.343900	0.770600
H191	H19	0.840100	0.338600	0.819000
H201	H20	0.154300	0.324100	0.910000
H211	H21	0.041600	0.376800	0.922800
H221	H22	0.137600	0.382200	0.874600
H231	H23	0.950600	0.254000	0.836800
H241	H24	0.039500	0.258800	0.791800
C51	C5	0.891300	0.309300	0.785800
C61	C6	0.089800	0.347100	0.888200
N31	N3	0.993300	0.287100	0.823600
H251	H25	0.079300	0.449100	0.101800
H261	H26	0.197600	0.400300	0.091800
H271	H27	0.205800	0.470900	0.169000
H281	H28	0.095300	0.300000	0.188800
H291	H29	0.217100	0.373800	0.226200
H301	H30	0.209000	0.303200	0.149000
H311	H31	0.027500	0.400300	0.172600
H321	H32	0.019900	0.335100	0.101400
C71	C7	0.145300	0.427900	0.125000
C81	C8	0.156300	0.334400	0.180000
N41	N4	0.078500	0.373400	0.143200
H331	H33	0.692500	0.103700	0.265200
H341	H34	0.777900	0.186000	0.329000
H351	H35	0.808100	0.105900	0.329000
H361	H36	0.877700	0.076700	0.227400
H371	H37	0.072700	0.161500	0.265200
H381	H38	0.051100	0.143000	0.329000
H391	H39	0.020900	0.223100	0.329000
H401	H40	0.849700	0.150700	0.227400
C91	C9	0.781400	0.131300	0.298600
C101	C10	0.017200	0.167300	0.298600
N51	N5	0.878400	0.128400	0.256800
H411	H41	0.495100	0.887800	0.412800
H421	H42	0.546300	0.903800	0.353400
H431	H43	0.404400	0.847800	0.331200
H441	H44	0.310000	0.026500	0.337600
H451	H45	0.288700	0.934800	0.284400
H461	H46	0.430600	0.990800	0.306600
H471	H47	0.326300	0.956700	0.402800
H481	H48	0.457900	0.008700	0.423600
C111	C11	0.467100	0.894800	0.369400
C121	C12	0.353200	0.980700	0.323400
N61	N6	0.399150	0.965050	0.386900
H491	H49	0.413300	0.478500	0.743400
H501	H50	0.334500	0.426700	0.770600
H511	H51	0.478900	0.480400	0.819000
H521	H52	0.255700	0.585900	0.910000
H531	H53	0.381200	0.546000	0.922800
H541	H54	0.237000	0.492400	0.874600
H551	H55	0.386200	0.582800	0.836800
H561	H56	0.252300	0.533000	0.791800
C131	C13	0.394500	0.476500	0.785800
C141	C14	0.298400	0.541100	0.888200
N71	N7	0.330300	0.536500	0.823600
H571	H57	0.522500	0.652700	0.101800
H581	H58	0.394200	0.691500	0.091800
H591	H59	0.463200	0.698100	0.169000
H601	H60	0.593500	0.888800	0.188800
H611	H61	0.509100	0.852400	0.226200
H621	H62	0.440000	0.845800	0.149000
H631	H63	0.645100	0.772300	0.172600
H641	H64	0.581500	0.766300	0.101400
C151	C15	0.479700	0.697100	0.125000
C161	C16	0.523700	0.845600	0.180000
N81	N8	0.564700	0.769800	0.143200
H651	H65	0.582300	0.475000	0.587200
H661	H66	0.692900	0.550400	0.646600
H671	H67	0.573200	0.516600	0.668800
H681	H68	0.472400	0.688900	0.662400
H691	H69	0.504300	0.650400	0.715600
H701	H70	0.624000	0.684200	0.693400
H711	H71	0.423500	0.553900	0.597200
H721	H72	0.534300	0.585100	0.576400
C171	C17	0.597700	0.525400	0.630600
C181	C18	0.529800	0.657300	0.676600
N91	N9	0.512250	0.578150	0.613100
H731	H73	0.261300	0.966300	0.139800
H741	H74	0.388000	0.027000	0.202600
H751	H75	0.239700	0.044600	0.202600
H761	H76	0.230800	0.057600	0.098800
H771	H77	0.378500	0.173500	0.139800
H781	H78	0.314600	0.175600	0.202600
H791	H79	0.462900	0.158000	0.202600
H801	H80	0.368000	0.041200	0.098800
C191	C19	0.299400	0.021900	0.172200
C201	C20	0.372800	0.150300	0.172200
N101	N10	0.314000	0.064000	0.128000
H811	H81	0.169900	0.735100	0.256600
H821	H82	0.063900	0.656100	0.229400
H831	H83	0.159900	0.661400	0.181000
H841	H84	0.845700	0.675900	0.090000
H851	H85	0.958400	0.623200	0.077200
H861	H86	0.862400	0.617800	0.125400
H871	H87	0.049400	0.746000	0.163200
H881	H88	0.960500	0.741200	0.208200
C211	C21	0.108700	0.690700	0.214200
C221	C22	0.910200	0.652900	0.111800
N111	N11	0.006700	0.712900	0.176400
H891	H89	0.920700	0.550900	0.898200
H901	H90	0.802400	0.599700	0.908200
H911	H91	0.794200	0.529100	0.831000
H921	H92	0.904700	0.700000	0.811200
H931	H93	0.782900	0.626200	0.773800
H941	H94	0.791000	0.696800	0.851000
H951	H95	0.972500	0.599700	0.827400
H961	H96	0.980100	0.664900	0.898600
C231	C23	0.854700	0.572100	0.875000
C241	C24	0.843700	0.665600	0.820000
N121	N12	0.921500	0.626600	0.856800
H971	H97	0.307500	0.896300	0.734800
H981	H98	0.222100	0.814000	0.671000
H991	H99	0.191900	0.894100	0.671000
H1001	H100	0.122300	0.923300	0.772600
H1011	H101	0.927300	0.838500	0.734800
H1021	H102	0.948900	0.857000	0.671000
H1031	H103	0.979100	0.776900	0.671000
H1041	H104	0.150300	0.849300	0.772600
C251	C25	0.218600	0.868700	0.701400
C261	C26	0.982800	0.832700	0.701400
N131	N13	0.121600	0.871600	0.743200
H1051	H105	0.504900	0.112200	0.587200
H1061	H106	0.453700	0.096200	0.646600
H1071	H107	0.595600	0.152200	0.668800
H1081	H108	0.690000	0.973500	0.662400
H1091	H109	0.711300	0.065200	0.715600
H1101	H110	0.569400	0.009200	0.693400
H1111	H111	0.673700	0.043300	0.597200
H1121	H112	0.542100	0.991300	0.576400
C271	C27	0.532900	0.105200	0.630600
C281	C28	0.646800	0.019300	0.676600
N141	N14	0.600850	0.034950	0.613100
H1131	H113	0.586700	0.521500	0.256600
H1141	H114	0.665500	0.573300	0.229400
H1151	H115	0.521100	0.519600	0.181000
H1161	H116	0.744300	0.414100	0.090000
H1171	H117	0.618800	0.454000	0.077200
H1181	H118	0.763000	0.507600	0.125400
H1191	H119	0.613800	0.417200	0.163200
H1201	H120	0.747700	0.467000	0.208200
C291	C29	0.605500	0.523500	0.214200
C301	C30	0.701600	0.458900	0.111800
N151	N15	0.669700	0.463500	0.176400
H1211	H121	0.477500	0.347300	0.898200
H1221	H122	0.605800	0.308500	0.908200
H1231	H123	0.536800	0.301900	0.831000
H1241	H124	0.406500	0.111200	0.811200
H1251	H125	0.490900	0.147600	0.773800
H1261	H126	0.560000	0.154200	0.851000
H1271	H127	0.354900	0.227700	0.827400
H1281	H128	0.418500	0.233700	0.898600
C311	C31	0.520300	0.302900	0.875000
C321	C32	0.476300	0.154400	0.820000
N161	N16	0.435300	0.230200	0.856800
