data_NATFAS_freeONLY_PM
_symmetry_space_group_name_H-M	'P1'
_cell_length_a	14.392900
_cell_length_b	17.851600
_cell_length_c	26.711100
_cell_angle_alpha	90.000000
_cell_angle_beta	90.000000
_cell_angle_gamma	90.000000
_symmetry_Int_Tables_number 1

loop_
_symmetry_equiv_pos_as_xyz
'x,y,z'

loop_
_atom_site_label
_atom_site_type_symbol
_atom_site_fract_x
_atom_site_fract_y
_atom_site_fract_z
Zn11	Zn1	0.564160	0.471320	0.704040
Zn21	Zn2	0.754170	0.535920	0.341990
Zn31	Zn3	0.866570	0.457820	0.444100
O11	O1	0.542600	0.496600	0.634090
O21	O2	0.491200	0.384500	0.614250
O31	O3	0.665600	0.495900	0.396680
O41	O4	0.804200	0.436800	0.324420
O51	O5	0.882200	0.387600	0.388870
O61	O6	0.741200	0.475300	0.467110
O71	O7	0.919300	0.401300	0.498370
O81	O8	0.057800	0.420000	0.465800
O91	O9	0.082700	0.447100	0.577530
O101	O10	0.200800	0.384800	0.611930
O111	O11	0.946300	0.433490	0.241260
O121	O12	0.813400	0.403800	0.204260
O131	O13	0.480600	0.390650	0.730220
O141	O14	0.355600	0.447750	0.701710
O151	O15	0.160500	0.422500	0.715200
O161	O16	0.174300	0.402100	0.795660
C11	C1	0.509500	0.450700	0.604100
C21	C2	0.501300	0.477200	0.550400
C31	C3	0.579300	0.474900	0.521310
H11	H1	0.634600	0.459100	0.535900
C41	C4	0.580400	0.495000	0.471050
C51	C5	0.669000	0.488000	0.442380
C61	C6	0.851000	0.387400	0.345080
C71	C7	0.005300	0.387100	0.493900
C81	C8	0.037500	0.317700	0.521400
C91	C9	0.096100	0.317500	0.561820
C101	C10	0.130200	0.388400	0.585300
C111	C11	0.868700	0.318000	0.315260
C121	C12	0.874700	0.318300	0.262980
C131	C13	0.876300	0.390700	0.233770
C141	C14	0.396200	0.390100	0.718420
C151	C15	0.343400	0.318400	0.725770
C161	C16	0.251900	0.317800	0.741160
C171	C17	0.193100	0.386900	0.750980
Zn41	Zn4	0.935840	0.528680	0.204040
Zn51	Zn5	0.745830	0.464080	0.841990
Zn61	Zn6	0.633430	0.542180	0.944100
O171	O17	0.957400	0.503400	0.134090
O181	O18	0.008800	0.615500	0.114250
O191	O19	0.834400	0.504100	0.896680
O201	O20	0.695800	0.563200	0.824420
O211	O21	0.617800	0.612400	0.888870
O221	O22	0.758800	0.524700	0.967110
O231	O23	0.580700	0.598700	0.998370
O241	O24	0.442200	0.580000	0.965800
O251	O25	0.417300	0.552900	0.077530
O261	O26	0.299200	0.615200	0.111930
O271	O27	0.553700	0.566510	0.741260
O281	O28	0.686600	0.596200	0.704260
O291	O29	0.019400	0.609350	0.230220
O301	O30	0.144400	0.552250	0.201710
O311	O31	0.339500	0.577500	0.215200
O321	O32	0.325700	0.597900	0.295660
C181	C18	0.990500	0.549300	0.104100
C191	C19	0.998700	0.522800	0.050400
C201	C20	0.920700	0.525100	0.021310
H21	H2	0.865400	0.540900	0.035900
C211	C21	0.919600	0.505000	0.971050
C221	C22	0.831000	0.512000	0.942380
C231	C23	0.649000	0.612600	0.845080
C241	C24	0.494700	0.612900	0.993900
C251	C25	0.462500	0.682300	0.021400
C261	C26	0.403900	0.682500	0.061820
C271	C27	0.369800	0.611600	0.085300
C281	C28	0.631300	0.682000	0.815260
C291	C29	0.625300	0.681700	0.762980
C301	C30	0.623700	0.609300	0.733770
C311	C31	0.103800	0.609900	0.218420
C321	C32	0.156600	0.681600	0.225770
C331	C33	0.248100	0.682200	0.241160
C341	C34	0.306900	0.613100	0.250980
Zn71	Zn7	0.435840	0.971320	0.295960
Zn81	Zn8	0.245830	0.035920	0.658010
Zn91	Zn9	0.133430	0.957820	0.555900
O331	O33	0.457400	0.996600	0.365910
O341	O34	0.508800	0.884500	0.385750
O351	O35	0.334400	0.995900	0.603320
O361	O36	0.195800	0.936800	0.675580
O371	O37	0.117800	0.887600	0.611130
O381	O38	0.258800	0.975300	0.532890
O391	O39	0.080700	0.901300	0.501630
O401	O40	0.942200	0.920000	0.534200
O411	O41	0.917300	0.947100	0.422470
O421	O42	0.799200	0.884800	0.388070
O431	O43	0.053700	0.933490	0.758740
O441	O44	0.186600	0.903800	0.795740
O451	O45	0.519400	0.890650	0.269780
O461	O46	0.644400	0.947750	0.298290
O471	O47	0.839500	0.922500	0.284800
O481	O48	0.825700	0.902100	0.204340
C351	C35	0.490500	0.950700	0.395900
C361	C36	0.498700	0.977200	0.449600
C371	C37	0.420700	0.974900	0.478690
H31	H3	0.365400	0.959100	0.464100
C381	C38	0.419600	0.995000	0.528950
C391	C39	0.331000	0.988000	0.557620
C401	C40	0.149000	0.887400	0.654920
C411	C41	0.994700	0.887100	0.506100
C421	C42	0.962500	0.817700	0.478600
C431	C43	0.903900	0.817500	0.438180
C441	C44	0.869800	0.888400	0.414700
C451	C45	0.131300	0.818000	0.684740
C461	C46	0.125300	0.818300	0.737020
C471	C47	0.123700	0.890700	0.766230
C481	C48	0.603800	0.890100	0.281580
C491	C49	0.656600	0.818400	0.274230
C501	C50	0.748100	0.817800	0.258840
C511	C51	0.806900	0.886900	0.249020
Zn101	Zn10	0.064160	0.028680	0.795960
Zn111	Zn11	0.254170	0.964080	0.158010
Zn121	Zn12	0.366570	0.042180	0.055900
O491	O49	0.042600	0.003400	0.865910
O501	O50	0.991200	0.115500	0.885750
O511	O51	0.165600	0.004100	0.103320
O521	O52	0.304200	0.063200	0.175580
O531	O53	0.382200	0.112400	0.111130
O541	O54	0.241200	0.024700	0.032890
O551	O55	0.419300	0.098700	0.001630
O561	O56	0.557800	0.080000	0.034200
O571	O57	0.582700	0.052900	0.922470
O581	O58	0.700800	0.115200	0.888070
O591	O59	0.446300	0.066510	0.258740
O601	O60	0.313400	0.096200	0.295740
O611	O61	0.980600	0.109350	0.769780
O621	O62	0.855600	0.052250	0.798290
O631	O63	0.660500	0.077500	0.784800
O641	O64	0.674300	0.097900	0.704340
C521	C52	0.009500	0.049300	0.895900
C531	C53	0.001300	0.022800	0.949600
C541	C54	0.079300	0.025100	0.978690
H41	H4	0.134600	0.040900	0.964100
C551	C55	0.080400	0.005000	0.028950
C561	C56	0.169000	0.012000	0.057620
C571	C57	0.351000	0.112600	0.154920
C581	C58	0.505300	0.112900	0.006100
C591	C59	0.537500	0.182300	0.978600
C601	C60	0.596100	0.182500	0.938180
C611	C61	0.630200	0.111600	0.914700
C621	C62	0.368700	0.182000	0.184740
C631	C63	0.374700	0.181700	0.237020
C641	C64	0.376300	0.109300	0.266230
C651	C65	0.896200	0.109900	0.781580
C661	C66	0.843400	0.181600	0.774230
C671	C67	0.751900	0.182200	0.758840
C681	C68	0.693100	0.113100	0.749020
Zn131	Zn13	0.435840	0.528680	0.295960
Zn141	Zn14	0.245830	0.464080	0.658010
Zn151	Zn15	0.133430	0.542180	0.555900
O651	O65	0.457400	0.503400	0.365910
O661	O66	0.508800	0.615500	0.385750
O671	O67	0.334400	0.504100	0.603320
O681	O68	0.195800	0.563200	0.675580
O691	O69	0.117800	0.612400	0.611130
O701	O70	0.258800	0.524700	0.532890
O711	O71	0.080700	0.598700	0.501630
O721	O72	0.942200	0.580000	0.534200
O731	O73	0.917300	0.552900	0.422470
O741	O74	0.799200	0.615200	0.388070
O751	O75	0.053700	0.566510	0.758740
O761	O76	0.186600	0.596200	0.795740
O771	O77	0.519400	0.609350	0.269780
O781	O78	0.644400	0.552250	0.298290
O791	O79	0.839500	0.577500	0.284800
O801	O80	0.825700	0.597900	0.204340
C691	C69	0.490500	0.549300	0.395900
C701	C70	0.498700	0.522800	0.449600
C711	C71	0.420700	0.525100	0.478690
H51	H5	0.365400	0.540900	0.464100
C721	C72	0.419600	0.505000	0.528950
C731	C73	0.331000	0.512000	0.557620
C741	C74	0.149000	0.612600	0.654920
C751	C75	0.994700	0.612900	0.506100
C761	C76	0.962500	0.682300	0.478600
C771	C77	0.903900	0.682500	0.438180
C781	C78	0.869800	0.611600	0.414700
C791	C79	0.131300	0.682000	0.684740
C801	C80	0.125300	0.681700	0.737020
C811	C81	0.123700	0.609300	0.766230
C821	C82	0.603800	0.609900	0.281580
C831	C83	0.656600	0.681600	0.274230
C841	C84	0.748100	0.682200	0.258840
C851	C85	0.806900	0.613100	0.249020
Zn161	Zn16	0.064160	0.471320	0.795960
Zn171	Zn17	0.254170	0.535920	0.158010
Zn181	Zn18	0.366570	0.457820	0.055900
O811	O81	0.042600	0.496600	0.865910
O821	O82	0.991200	0.384500	0.885750
O831	O83	0.165600	0.495900	0.103320
O841	O84	0.304200	0.436800	0.175580
O851	O85	0.382200	0.387600	0.111130
O861	O86	0.241200	0.475300	0.032890
O871	O87	0.419300	0.401300	0.001630
O881	O88	0.557800	0.420000	0.034200
O891	O89	0.582700	0.447100	0.922470
O901	O90	0.700800	0.384800	0.888070
O911	O91	0.446300	0.433490	0.258740
O921	O92	0.313400	0.403800	0.295740
O931	O93	0.980600	0.390650	0.769780
O941	O94	0.855600	0.447750	0.798290
O951	O95	0.660500	0.422500	0.784800
O961	O96	0.674300	0.402100	0.704340
C861	C86	0.009500	0.450700	0.895900
C871	C87	0.001300	0.477200	0.949600
C881	C88	0.079300	0.474900	0.978690
H61	H6	0.134600	0.459100	0.964100
C891	C89	0.080400	0.495000	0.028950
C901	C90	0.169000	0.488000	0.057620
C911	C91	0.351000	0.387400	0.154920
C921	C92	0.505300	0.387100	0.006100
C931	C93	0.537500	0.317700	0.978600
C941	C94	0.596100	0.317500	0.938180
C951	C95	0.630200	0.388400	0.914700
C961	C96	0.368700	0.318000	0.184740
C971	C97	0.374700	0.318300	0.237020
C981	C98	0.376300	0.390700	0.266230
C991	C99	0.896200	0.390100	0.781580
C1001	C100	0.843400	0.318400	0.774230
C1011	C101	0.751900	0.317800	0.758840
C1021	C102	0.693100	0.386900	0.749020
Zn191	Zn19	0.564160	0.028680	0.704040
Zn201	Zn20	0.754170	0.964080	0.341990
Zn211	Zn21	0.866570	0.042180	0.444100
O971	O97	0.542600	0.003400	0.634090
O981	O98	0.491200	0.115500	0.614250
O991	O99	0.665600	0.004100	0.396680
O1001	O100	0.804200	0.063200	0.324420
O1011	O101	0.882200	0.112400	0.388870
O1021	O102	0.741200	0.024700	0.467110
O1031	O103	0.919300	0.098700	0.498370
O1041	O104	0.057800	0.080000	0.465800
O1051	O105	0.082700	0.052900	0.577530
O1061	O106	0.200800	0.115200	0.611930
O1071	O107	0.946300	0.066510	0.241260
O1081	O108	0.813400	0.096200	0.204260
O1091	O109	0.480600	0.109350	0.730220
O1101	O110	0.355600	0.052250	0.701710
O1111	O111	0.160500	0.077500	0.715200
O1121	O112	0.174300	0.097900	0.795660
C1031	C103	0.509500	0.049300	0.604100
C1041	C104	0.501300	0.022800	0.550400
C1051	C105	0.579300	0.025100	0.521310
H71	H7	0.634600	0.040900	0.535900
C1061	C106	0.580400	0.005000	0.471050
C1071	C107	0.669000	0.012000	0.442380
C1081	C108	0.851000	0.112600	0.345080
C1091	C109	0.005300	0.112900	0.493900
C1101	C110	0.037500	0.182300	0.521400
C1111	C111	0.096100	0.182500	0.561820
C1121	C112	0.130200	0.111600	0.585300
C1131	C113	0.868700	0.182000	0.315260
C1141	C114	0.874700	0.181700	0.262980
C1151	C115	0.876300	0.109300	0.233770
C1161	C116	0.396200	0.109900	0.718420
C1171	C117	0.343400	0.181600	0.725770
C1181	C118	0.251900	0.182200	0.741160
C1191	C119	0.193100	0.113100	0.750980
Zn221	Zn22	0.935840	0.971320	0.204040
Zn231	Zn23	0.745830	0.035920	0.841990
Zn241	Zn24	0.633430	0.957820	0.944100
O1131	O113	0.957400	0.996600	0.134090
O1141	O114	0.008800	0.884500	0.114250
O1151	O115	0.834400	0.995900	0.896680
O1161	O116	0.695800	0.936800	0.824420
O1171	O117	0.617800	0.887600	0.888870
O1181	O118	0.758800	0.975300	0.967110
O1191	O119	0.580700	0.901300	0.998370
O1201	O120	0.442200	0.920000	0.965800
O1211	O121	0.417300	0.947100	0.077530
O1221	O122	0.299200	0.884800	0.111930
O1231	O123	0.553700	0.933490	0.741260
O1241	O124	0.686600	0.903800	0.704260
O1251	O125	0.019400	0.890650	0.230220
O1261	O126	0.144400	0.947750	0.201710
O1271	O127	0.339500	0.922500	0.215200
O1281	O128	0.325700	0.902100	0.295660
C1201	C120	0.990500	0.950700	0.104100
C1211	C121	0.998700	0.977200	0.050400
C1221	C122	0.920700	0.974900	0.021310
H81	H8	0.865400	0.959100	0.035900
C1231	C123	0.919600	0.995000	0.971050
C1241	C124	0.831000	0.988000	0.942380
C1251	C125	0.649000	0.887400	0.845080
C1261	C126	0.494700	0.887100	0.993900
C1271	C127	0.462500	0.817700	0.021400
C1281	C128	0.403900	0.817500	0.061820
C1291	C129	0.369800	0.888400	0.085300
C1301	C130	0.631300	0.818000	0.815260
C1311	C131	0.625300	0.818300	0.762980
C1321	C132	0.623700	0.890700	0.733770
C1331	C133	0.103800	0.890100	0.218420
C1341	C134	0.156600	0.818400	0.225770
C1351	C135	0.248100	0.817800	0.241160
C1361	C136	0.306900	0.886900	0.250980
C1371	C137	0.125500	0.250000	0.582100
H91	H9	0.165200	0.250000	0.609600
C1381	C138	0.008700	0.250000	0.501100
H101	H10	0.969400	0.250000	0.473500
C1391	C139	0.879500	0.250000	0.237400
H111	H11	0.885900	0.250000	0.202800
C1401	C140	0.866900	0.250000	0.340200
H121	H12	0.864400	0.250000	0.375000
C1411	C141	0.207000	0.250000	0.749900
H131	H13	0.146200	0.250000	0.761800
C1421	C142	0.389800	0.250000	0.719700
H141	H14	0.452600	0.250000	0.711400
C1431	C143	0.374500	0.750000	0.082100
H151	H15	0.334800	0.750000	0.109600
C1441	C144	0.491300	0.750000	0.001100
H161	H16	0.530600	0.750000	0.973500
C1451	C145	0.620500	0.750000	0.737400
H171	H17	0.614100	0.750000	0.702800
C1461	C146	0.633100	0.750000	0.840200
H181	H18	0.635600	0.750000	0.875000
C1471	C147	0.293000	0.750000	0.249900
H191	H19	0.353800	0.750000	0.261800
C1481	C148	0.110200	0.750000	0.219700
H201	H20	0.047400	0.750000	0.211400
C1491	C149	0.874500	0.750000	0.417900
H211	H21	0.834800	0.750000	0.390400
C1501	C150	0.991300	0.750000	0.498900
H221	H22	0.030600	0.750000	0.526500
C1511	C151	0.120500	0.750000	0.762600
H231	H23	0.114100	0.750000	0.797200
C1521	C152	0.133100	0.750000	0.659800
H241	H24	0.135600	0.750000	0.625000
C1531	C153	0.793000	0.750000	0.250100
H251	H25	0.853800	0.750000	0.238200
C1541	C154	0.610200	0.750000	0.280300
H261	H26	0.547400	0.750000	0.288600
C1551	C155	0.625500	0.250000	0.917900
H271	H27	0.665200	0.250000	0.890400
C1561	C156	0.508700	0.250000	0.998900
H281	H28	0.469400	0.250000	0.026500
C1571	C157	0.379500	0.250000	0.262600
H291	H29	0.385900	0.250000	0.297200
C1581	C158	0.366900	0.250000	0.159800
H301	H30	0.364400	0.250000	0.125000
C1591	C159	0.707000	0.250000	0.750100
H311	H31	0.646200	0.250000	0.738200
C1601	C160	0.889800	0.250000	0.780300
H321	H32	0.952600	0.250000	0.788600
