data_NATXIR_freeONLY_PM
_symmetry_space_group_name_H-M	'P1'
_cell_length_a	6.151000
_cell_length_b	11.706000
_cell_length_c	14.063000
_cell_angle_alpha	92.255000
_cell_angle_beta	90.000000
_cell_angle_gamma	90.000000
_symmetry_Int_Tables_number 1

loop_
_symmetry_equiv_pos_as_xyz
'x,y,z'

loop_
_atom_site_label
_atom_site_type_symbol
_atom_site_fract_x
_atom_site_fract_y
_atom_site_fract_z
Er11	Er1	0.506670	0.846270	0.245830
Er21	Er2	0.006670	0.653730	0.254170
Er31	Er3	0.493330	0.153730	0.754170
Er41	Er4	0.993330	0.346270	0.745830
H11	H1	0.783100	0.965100	0.597800
H21	H2	0.216000	0.118000	0.976800
H31	H3	0.806000	0.032000	0.217000
H41	H4	0.669000	0.072000	0.293000
H51	H5	0.222000	0.766000	0.380000
H61	H6	0.283100	0.534900	0.902200
H71	H7	0.716000	0.382000	0.523200
H81	H8	0.306000	0.468000	0.283000
H91	H9	0.169000	0.428000	0.207000
H101	H10	0.722000	0.734000	0.120000
H111	H11	0.216900	0.034900	0.402200
H121	H12	0.784000	0.882000	0.023200
H131	H13	0.194000	0.968000	0.783000
H141	H14	0.331000	0.928000	0.707000
H151	H15	0.778000	0.234000	0.620000
H161	H16	0.716900	0.465100	0.097800
H171	H17	0.284000	0.618000	0.476800
H181	H18	0.694000	0.532000	0.717000
H191	H19	0.831000	0.572000	0.793000
H201	H20	0.278000	0.266000	0.880000
C11	C1	0.823200	0.840800	0.434600
C21	C2	0.652700	0.925200	0.469600
C31	C3	0.666100	0.980500	0.558400
C41	C4	0.177900	0.017800	0.144900
C51	C5	0.346200	0.007800	0.066800
C61	C6	0.334200	0.069900	0.985200
C71	C7	0.323200	0.659200	0.065400
C81	C8	0.152700	0.574800	0.030400
C91	C9	0.166100	0.519500	0.941600
C101	C10	0.677900	0.482200	0.355100
C111	C11	0.846200	0.492200	0.433200
C121	C12	0.834200	0.430100	0.514800
C131	C13	0.176800	0.159200	0.565400
C141	C14	0.347300	0.074800	0.530400
C151	C15	0.333900	0.019500	0.441600
C161	C16	0.822100	0.982200	0.855100
C171	C17	0.653800	0.992200	0.933200
C181	C18	0.665800	0.930100	0.014800
C191	C19	0.676800	0.340800	0.934600
C201	C20	0.847300	0.425200	0.969600
C211	C21	0.833900	0.480500	0.058400
C221	C22	0.322100	0.517800	0.644900
C231	C23	0.153800	0.507800	0.566800
C241	C24	0.165800	0.569900	0.485200
N11	N1	0.484300	0.945000	0.411400
N21	N2	0.513200	0.937300	0.081000
N31	N3	0.984300	0.555000	0.088600
N41	N4	0.013200	0.562700	0.419000
N51	N5	0.515700	0.055000	0.588600
N61	N6	0.486800	0.062700	0.919000
N71	N7	0.015700	0.445000	0.911400
N81	N8	0.986800	0.437300	0.581000
O11	O1	0.783300	0.788900	0.354600
O21	O2	0.984400	0.827900	0.483400
O31	O3	0.214900	0.962100	0.218000
O41	O4	0.018400	0.079600	0.131100
O51	O5	0.703300	0.017400	0.254300
O61	O6	0.270000	0.746700	0.328960
O71	O7	0.283300	0.711100	0.145400
O81	O8	0.484400	0.672100	0.016600
O91	O9	0.714900	0.537900	0.282000
O101	O10	0.518400	0.420400	0.368900
O111	O11	0.203300	0.482600	0.245700
O121	O12	0.770000	0.753300	0.171040
O131	O13	0.216700	0.211100	0.645400
O141	O14	0.015600	0.172100	0.516600
O151	O15	0.785100	0.037900	0.782000
O161	O16	0.981600	0.920400	0.868900
O171	O17	0.296700	0.982600	0.745700
O181	O18	0.730000	0.253300	0.671040
O191	O19	0.716700	0.288900	0.854600
O201	O20	0.515600	0.327900	0.983400
O211	O21	0.285100	0.462100	0.718000
O221	O22	0.481600	0.579600	0.631100
O231	O23	0.796700	0.517400	0.754300
O241	O24	0.230000	0.246700	0.828960
