data_NAWHOL_freeONLY_PM
_symmetry_space_group_name_H-M	'P1'
_cell_length_a	9.076000
_cell_length_b	9.867000
_cell_length_c	16.303000
_cell_angle_alpha	103.349000
_cell_angle_beta	104.110000
_cell_angle_gamma	98.526000
_symmetry_Int_Tables_number 1

loop_
_symmetry_equiv_pos_as_xyz
'x,y,z'

loop_
_atom_site_label
_atom_site_type_symbol
_atom_site_fract_x
_atom_site_fract_y
_atom_site_fract_z
La11	La1	0.692130	0.451440	0.598110
La21	La2	0.848420	0.426700	0.864330
O11	O1	0.020200	0.671100	0.893300
H11	H1	0.071100	0.668300	0.855800
H21	H2	0.084800	0.694500	0.944400
O21	O2	0.698100	0.215300	0.742800
O31	O3	0.791400	0.223000	0.546400
H31	H3	0.854600	0.207400	0.589300
H41	H4	0.836300	0.230000	0.507100
O41	O4	0.533200	0.258000	0.632500
O51	O5	0.762100	0.725300	0.642990
O61	O6	0.764900	0.455000	0.458500
O71	O7	0.559500	0.642000	0.526720
O81	O8	0.758400	0.244000	0.943350
O91	O9	0.583300	0.357100	0.889800
O101	O10	0.108200	0.426900	0.975910
O111	O11	0.044600	0.260800	0.851260
O121	O12	0.681800	0.552100	0.777800
O131	O13	0.486000	0.547100	0.667730
O141	O14	0.924200	0.444500	0.725700
O151	O15	0.002100	0.541700	0.631850
C11	C1	0.571800	0.183700	0.683300
C21	C2	0.458300	0.048400	0.672200
H51	H5	0.377400	0.027500	0.616900
H61	H6	0.409500	0.063100	0.719300
C31	C3	0.533400	0.920900	0.672800
H71	H7	0.609300	0.938600	0.729600
H81	H8	0.454300	0.837400	0.664900
C41	C4	0.613000	0.891400	0.601000
H91	H9	0.545900	0.897300	0.546300
H101	H10	0.708700	0.962500	0.616800
C51	C5	0.648600	0.745500	0.588800
C61	C6	0.617700	0.257200	0.919800
C71	C7	0.492500	0.143600	0.925600
H111	H11	0.512500	0.141700	0.986500
H121	H12	0.500500	0.051700	0.891700
C81	C8	0.325700	0.162400	0.892900
H131	H13	0.311400	0.184400	0.836900
H141	H14	0.253500	0.073400	0.883500
C91	C9	0.288900	0.280000	0.957500
H151	H15	0.287400	0.249700	0.009900
H161	H16	0.372600	0.363600	0.974700
C101	C10	0.138500	0.322200	0.924900
C111	C11	0.550000	0.578700	0.748900
C121	C12	0.474200	0.653000	0.813300
H171	H17	0.533900	0.750100	0.840400
H181	H18	0.479500	0.605600	0.859500
C131	C13	0.305100	0.657900	0.774500
H191	H19	0.295300	0.692600	0.722800
H201	H20	0.272500	0.723300	0.817300
C141	C14	0.199800	0.509200	0.749000
H211	H21	0.242200	0.442000	0.712900
H221	H22	0.201100	0.480400	0.802100
C151	C15	0.034200	0.501000	0.699800
H231	H23	0.681000	0.445000	0.411000
H241	H24	0.837000	0.448000	0.446000
La31	La3	0.307870	0.548560	0.401890
La41	La4	0.151580	0.573300	0.135670
O161	O16	0.979800	0.328900	0.106700
H251	H25	0.928900	0.331700	0.144200
H261	H26	0.915200	0.305500	0.055600
O171	O17	0.301900	0.784700	0.257200
O181	O18	0.208600	0.777000	0.453600
H271	H27	0.145400	0.792600	0.410700
H281	H28	0.163700	0.770000	0.492900
O191	O19	0.466800	0.742000	0.367500
O201	O20	0.237900	0.274700	0.357010
O211	O21	0.235100	0.545000	0.541500
O221	O22	0.440500	0.358000	0.473280
O231	O23	0.241600	0.756000	0.056650
O241	O24	0.416700	0.642900	0.110200
O251	O25	0.891800	0.573100	0.024090
O261	O26	0.955400	0.739200	0.148740
O271	O27	0.318200	0.447900	0.222200
O281	O28	0.514000	0.452900	0.332270
O291	O29	0.075800	0.555500	0.274300
O301	O30	0.997900	0.458300	0.368150
C161	C16	0.428200	0.816300	0.316700
C171	C17	0.541700	0.951600	0.327800
H291	H29	0.622600	0.972500	0.383100
H301	H30	0.590500	0.936900	0.280700
C181	C18	0.466600	0.079100	0.327200
H311	H31	0.390700	0.061400	0.270400
H321	H32	0.545700	0.162600	0.335100
C191	C19	0.387000	0.108600	0.399000
H331	H33	0.454100	0.102700	0.453700
H341	H34	0.291300	0.037500	0.383200
C201	C20	0.351400	0.254500	0.411200
C211	C21	0.382300	0.742800	0.080200
C221	C22	0.507500	0.856400	0.074400
H351	H35	0.487500	0.858300	0.013500
H361	H36	0.499500	0.948300	0.108300
C231	C23	0.674300	0.837600	0.107100
H371	H37	0.688600	0.815600	0.163100
H381	H38	0.746500	0.926600	0.116500
C241	C24	0.711100	0.720000	0.042500
H391	H39	0.712600	0.750300	0.990100
H401	H40	0.627400	0.636400	0.025300
C251	C25	0.861500	0.677800	0.075100
C261	C26	0.450000	0.421300	0.251100
C271	C27	0.525800	0.347000	0.186700
H411	H41	0.466100	0.249900	0.159600
H421	H42	0.520500	0.394400	0.140500
C281	C28	0.694900	0.342100	0.225500
H431	H43	0.704700	0.307400	0.277200
H441	H44	0.727500	0.276700	0.182700
C291	C29	0.800200	0.490800	0.251000
H451	H45	0.757800	0.558000	0.287100
H461	H46	0.798900	0.519600	0.197900
C301	C30	0.965800	0.499000	0.300200
H471	H47	0.319000	0.555000	0.589000
H481	H48	0.163000	0.552000	0.554000
