data_NAXKOO02_freeONLY_PM
_symmetry_space_group_name_H-M	'P1'
_cell_length_a	20.437500
_cell_length_b	7.849600
_cell_length_c	6.593400
_cell_angle_alpha	90.000000
_cell_angle_beta	111.801000
_cell_angle_gamma	90.000000
_symmetry_Int_Tables_number 1

loop_
_symmetry_equiv_pos_as_xyz
'x,y,z'

loop_
_atom_site_label
_atom_site_type_symbol
_atom_site_fract_x
_atom_site_fract_y
_atom_site_fract_z
Al11	Al1	0.000000	0.000000	0.000000
C11	C1	0.179550	0.767710	0.460130
C21	C2	0.206410	0.706500	0.304650
C31	C3	0.278830	0.666560	0.369560
C41	C4	0.324380	0.687830	0.589940
C51	C5	0.297510	0.749050	0.745420
C61	C6	0.225100	0.788990	0.680510
C71	C7	0.107130	0.807700	0.395220
O11	O1	0.067160	0.789000	0.201820
O21	O2	0.083560	0.861400	0.531650
C81	C8	0.396790	0.647900	0.654850
O31	O3	0.420370	0.594200	0.518420
O41	O4	0.436760	0.666600	0.848250
N11	N1	0.160860	0.685230	0.084270
O51	O5	0.002600	0.889700	0.739000
Al21	Al2	0.500000	0.500000	0.000000
C91	C9	0.679550	0.267710	0.460130
C101	C10	0.706410	0.206500	0.304650
C111	C11	0.778830	0.166560	0.369560
C121	C12	0.824380	0.187830	0.589940
C131	C13	0.797510	0.249050	0.745420
C141	C14	0.725100	0.288990	0.680510
C151	C15	0.607130	0.307700	0.395220
O61	O6	0.567160	0.289000	0.201820
O71	O7	0.583560	0.361400	0.531650
C161	C16	0.896790	0.147900	0.654850
O81	O8	0.920370	0.094200	0.518420
O91	O9	0.936760	0.166600	0.848250
N21	N2	0.660860	0.185230	0.084270
O101	O10	0.502600	0.389700	0.739000
Al31	Al3	0.000000	0.000000	0.500000
C171	C17	0.179550	0.232290	0.960130
C181	C18	0.206410	0.293500	0.804650
C191	C19	0.278830	0.333440	0.869560
C201	C20	0.324380	0.312170	0.089940
C211	C21	0.297510	0.250950	0.245420
C221	C22	0.225100	0.211010	0.180510
C231	C23	0.107130	0.192300	0.895220
O111	O11	0.067160	0.211000	0.701820
O121	O12	0.083560	0.138600	0.031650
C241	C24	0.396790	0.352100	0.154850
O131	O13	0.420370	0.405800	0.018420
O141	O14	0.436760	0.333400	0.348250
N31	N3	0.160860	0.314770	0.584270
O151	O15	0.002600	0.110300	0.239000
Al41	Al4	0.500000	0.500000	0.500000
C251	C25	0.679550	0.732290	0.960130
C261	C26	0.706410	0.793500	0.804650
C271	C27	0.778830	0.833440	0.869560
C281	C28	0.824380	0.812170	0.089940
C291	C29	0.797510	0.750950	0.245420
C301	C30	0.725100	0.711010	0.180510
C311	C31	0.607130	0.692300	0.895220
O161	O16	0.567160	0.711000	0.701820
O171	O17	0.583560	0.638600	0.031650
C321	C32	0.896790	0.852100	0.154850
O181	O18	0.920370	0.905800	0.018420
O191	O19	0.936760	0.833400	0.348250
N41	N4	0.660860	0.814770	0.584270
O201	O20	0.502600	0.610300	0.239000
