data_NAYMOQ_freeONLY_PM
_symmetry_space_group_name_H-M	'P1'
_cell_length_a	8.903000
_cell_length_b	12.372200
_cell_length_c	12.372200
_cell_angle_alpha	93.094900
_cell_angle_beta	110.844000
_cell_angle_gamma	110.844000
_symmetry_Int_Tables_number 1

loop_
_symmetry_equiv_pos_as_xyz
'x,y,z'

loop_
_atom_site_label
_atom_site_type_symbol
_atom_site_fract_x
_atom_site_fract_y
_atom_site_fract_z
Na11	Na1	0.167500	0.302910	0.478950
Na21	Na2	0.183000	0.572900	0.589220
Na31	Na3	0.667500	0.478950	0.302910
Na41	Na4	0.683000	0.589220	0.572900
H11	H1	0.022000	0.424000	0.364000
H21	H2	0.157000	0.492000	0.352000
H31	H3	0.091000	0.375000	0.685000
H41	H4	0.938000	0.324000	0.598000
H51	H5	0.150000	0.178000	0.656000
H61	H6	0.309000	0.179000	0.637000
H71	H7	0.454000	0.467000	0.689000
H81	H8	0.515000	0.390000	0.638000
H91	H9	0.522000	0.364000	0.424000
H101	H10	0.657000	0.352000	0.492000
H111	H11	0.591000	0.685000	0.375000
H121	H12	0.438000	0.598000	0.324000
H131	H13	0.650000	0.656000	0.178000
H141	H14	0.809000	0.637000	0.179000
H151	H15	0.954000	0.689000	0.467000
H161	H16	0.015000	0.638000	0.390000
C11	C1	0.498800	0.043700	0.601700
C21	C2	0.591700	0.175100	0.604300
C31	C3	0.387700	0.843400	0.495400
C41	C4	0.531800	0.807000	0.569000
C51	C5	0.323400	0.997200	0.388800
C61	C6	0.135600	0.938000	0.382400
C71	C7	0.004500	0.966100	0.281500
C81	C8	0.009300	0.926500	0.164700
C91	C9	0.192400	0.988300	0.168900
C101	C10	0.331700	0.965300	0.270900
C111	C11	0.539800	0.961300	0.186100
C121	C12	0.554500	0.846900	0.216100
C131	C13	0.551500	0.152300	0.259900
C141	C14	0.747100	0.232000	0.303800
C151	C15	0.998800	0.601700	0.043700
C161	C16	0.091700	0.604300	0.175100
C171	C17	0.887700	0.495400	0.843400
C181	C18	0.031800	0.569000	0.807000
C191	C19	0.823400	0.388800	0.997200
C201	C20	0.635600	0.382400	0.938000
C211	C21	0.504500	0.281500	0.966100
C221	C22	0.509300	0.164700	0.926500
C231	C23	0.692400	0.168900	0.988300
C241	C24	0.831700	0.270900	0.965300
C251	C25	0.039800	0.186100	0.961300
C261	C26	0.054500	0.216100	0.846900
C271	C27	0.051500	0.259900	0.152300
C281	C28	0.247100	0.303800	0.232000
N11	N1	0.454900	0.970400	0.487600
N21	N2	0.514300	0.028300	0.275900
N31	N3	0.954900	0.487600	0.970400
N41	N4	0.014300	0.275900	0.028300
O11	O1	0.693000	0.202500	0.550900
O21	O2	0.560700	0.246200	0.659800
O31	O3	0.687400	0.872700	0.594900
O41	O4	0.481100	0.708800	0.599200
O51	O5	0.601100	0.839900	0.324900
O61	O6	0.531600	0.771000	0.134800
O71	O7	0.858800	0.194000	0.358800
O81	O8	0.780900	0.333800	0.280200
O91	O9	0.131600	0.466900	0.405300
O101	O10	0.055100	0.374000	0.614400
O111	O11	0.193100	0.166400	0.606200
O121	O12	0.465500	0.442500	0.624900
O131	O13	0.193000	0.550900	0.202500
O141	O14	0.060700	0.659800	0.246200
O151	O15	0.187400	0.594900	0.872700
O161	O16	0.981100	0.599200	0.708800
O171	O17	0.101100	0.324900	0.839900
O181	O18	0.031600	0.134800	0.771000
O191	O19	0.358800	0.358800	0.194000
O201	O20	0.280900	0.280200	0.333800
O211	O21	0.631600	0.405300	0.466900
O221	O22	0.555100	0.614400	0.374000
O231	O23	0.693100	0.606200	0.166400
O241	O24	0.965500	0.624900	0.442500
