data_NAYNIK_freeONLY_PM
_symmetry_space_group_name_H-M	'P1'
_cell_length_a	20.150000
_cell_length_b	10.299000
_cell_length_c	17.849000
_cell_angle_alpha	90.000000
_cell_angle_beta	99.880000
_cell_angle_gamma	90.000000
_symmetry_Int_Tables_number 1

loop_
_symmetry_equiv_pos_as_xyz
'x,y,z'

loop_
_atom_site_label
_atom_site_type_symbol
_atom_site_fract_x
_atom_site_fract_y
_atom_site_fract_z
Cd11	Cd1	0.411230	0.993750	0.109760
Cd21	Cd2	0.181920	0.991130	0.872520
Cd31	Cd3	0.647340	0.016040	0.336940
Cd41	Cd4	0.259670	0.017290	0.356070
C11	C1	0.483040	0.983300	0.022630
N11	N1	0.316630	0.990500	0.014200
C21	C2	0.271380	0.994400	0.965830
N21	N2	0.400680	0.771900	0.124380
C31	C3	0.375590	0.674800	0.126650
N31	N3	0.402060	0.217800	0.109850
C41	C4	0.376810	0.311700	0.116070
N41	N4	0.505270	0.003500	0.210800
C51	C5	0.551090	0.005800	0.257170
N51	N5	0.344750	0.005800	0.210580
C61	C6	0.317630	0.014600	0.261870
C71	C7	0.231490	0.988000	0.768780
C81	C8	0.266920	0.994600	0.727050
C91	C9	0.665380	0.011400	0.461860
C101	C10	0.683770	0.012200	0.527460
N61	N6	0.670440	0.240700	0.341290
C111	C11	0.697110	0.338200	0.346340
N71	N7	0.653730	0.768600	0.347920
C121	C12	0.688670	0.683900	0.351510
Cd51	Cd5	0.911230	0.493750	0.109760
Cd61	Cd6	0.681920	0.491130	0.872520
Cd71	Cd7	0.147340	0.516040	0.336940
Cd81	Cd8	0.759670	0.517290	0.356070
C131	C13	0.983040	0.483300	0.022630
N81	N8	0.816630	0.490500	0.014200
C141	C14	0.771380	0.494400	0.965830
N91	N9	0.900680	0.271900	0.124380
C151	C15	0.875590	0.174800	0.126650
N101	N10	0.902060	0.717800	0.109850
C161	C16	0.876810	0.811700	0.116070
N111	N11	0.005270	0.503500	0.210800
C171	C17	0.051090	0.505800	0.257170
N121	N12	0.844750	0.505800	0.210580
C181	C18	0.817630	0.514600	0.261870
C191	C19	0.731490	0.488000	0.768780
C201	C20	0.766920	0.494600	0.727050
C211	C21	0.165380	0.511400	0.461860
C221	C22	0.183770	0.512200	0.527460
N131	N13	0.170440	0.740700	0.341290
C231	C23	0.197110	0.838200	0.346340
N141	N14	0.153730	0.268600	0.347920
C241	C24	0.188670	0.183900	0.351510
Cd91	Cd9	0.588770	0.993750	0.890240
Cd101	Cd10	0.818080	0.991130	0.127480
Cd111	Cd11	0.352660	0.016040	0.663060
Cd121	Cd12	0.740330	0.017290	0.643930
C251	C25	0.516960	0.983300	0.977370
N151	N15	0.683370	0.990500	0.985800
C261	C26	0.728620	0.994400	0.034170
N161	N16	0.599320	0.771900	0.875620
C271	C27	0.624410	0.674800	0.873350
N171	N17	0.597940	0.217800	0.890150
C281	C28	0.623190	0.311700	0.883930
N181	N18	0.494730	0.003500	0.789200
C291	C29	0.448910	0.005800	0.742830
N191	N19	0.655250	0.005800	0.789420
C301	C30	0.682370	0.014600	0.738130
C311	C31	0.768510	0.988000	0.231220
C321	C32	0.733080	0.994600	0.272950
C331	C33	0.334620	0.011400	0.538140
C341	C34	0.316230	0.012200	0.472540
N201	N20	0.329560	0.240700	0.658710
C351	C35	0.302890	0.338200	0.653660
N211	N21	0.346270	0.768600	0.652080
C361	C36	0.311330	0.683900	0.648490
Cd131	Cd13	0.088770	0.493750	0.890240
Cd141	Cd14	0.318080	0.491130	0.127480
Cd151	Cd15	0.852660	0.516040	0.663060
Cd161	Cd16	0.240330	0.517290	0.643930
C371	C37	0.016960	0.483300	0.977370
N221	N22	0.183370	0.490500	0.985800
C381	C38	0.228620	0.494400	0.034170
N231	N23	0.099320	0.271900	0.875620
C391	C39	0.124410	0.174800	0.873350
N241	N24	0.097940	0.717800	0.890150
C401	C40	0.123190	0.811700	0.883930
N251	N25	0.994730	0.503500	0.789200
C411	C41	0.948910	0.505800	0.742830
N261	N26	0.155250	0.505800	0.789420
C421	C42	0.182370	0.514600	0.738130
C431	C43	0.268510	0.488000	0.231220
C441	C44	0.233080	0.494600	0.272950
C451	C45	0.834620	0.511400	0.538140
C461	C46	0.816230	0.512200	0.472540
N271	N27	0.829560	0.740700	0.658710
C471	C47	0.802890	0.838200	0.653660
N281	N28	0.846270	0.268600	0.652080
C481	C48	0.811330	0.183900	0.648490
Cd171	Cd17	0.550610	0.489340	0.155090
C491	C49	0.504520	0.499100	0.031600
C501	C50	0.502460	0.464300	0.255660
N291	N29	0.477450	0.440200	0.302590
N301	N30	0.579400	0.271300	0.132400
C511	C51	0.646200	0.261400	0.126900
C521	C52	0.675550	0.376100	0.097200
N311	N31	0.663040	0.495300	0.137780
C531	C53	0.672600	0.620300	0.100400
C541	C54	0.646800	0.731700	0.138500
N321	N32	0.576180	0.714500	0.149620
H11	H1	0.570650	0.220600	0.170600
H21	H2	0.554080	0.243100	0.088900
H31	H3	0.651700	0.188200	0.094400
H41	H4	0.671400	0.242500	0.177000
H51	H5	0.656760	0.385900	0.043720
H61	H6	0.723760	0.363600	0.101400
H71	H7	0.689890	0.494400	0.184310
H81	H8	0.720240	0.633000	0.100000
H91	H9	0.649690	0.616900	0.048000
H101	H10	0.649800	0.809200	0.108400
H111	H11	0.675200	0.744700	0.187600
H121	H12	0.548160	0.751900	0.110940
H131	H13	0.570200	0.753400	0.193110
Cd181	Cd18	0.449390	0.489340	0.844910
C551	C55	0.495480	0.499100	0.968400
C561	C56	0.497540	0.464300	0.744340
N331	N33	0.522550	0.440200	0.697410
N341	N34	0.420600	0.271300	0.867600
C571	C57	0.353800	0.261400	0.873100
C581	C58	0.324450	0.376100	0.902800
N351	N35	0.336960	0.495300	0.862220
C591	C59	0.327400	0.620300	0.899600
C601	C60	0.353200	0.731700	0.861500
N361	N36	0.423820	0.714500	0.850380
H141	H14	0.429350	0.220600	0.829400
H151	H15	0.445920	0.243100	0.911100
H161	H16	0.348300	0.188200	0.905600
H171	H17	0.328600	0.242500	0.823000
H181	H18	0.343240	0.385900	0.956280
H191	H19	0.276240	0.363600	0.898600
H201	H20	0.310110	0.494400	0.815690
H211	H21	0.279760	0.633000	0.900000
H221	H22	0.350310	0.616900	0.952000
H231	H23	0.350200	0.809200	0.891600
H241	H24	0.324800	0.744700	0.812400
H251	H25	0.451840	0.751900	0.889060
H261	H26	0.429800	0.753400	0.806890
Cd191	Cd19	0.050610	0.989340	0.155090
C611	C61	0.004520	0.999100	0.031600
C621	C62	0.002460	0.964300	0.255660
N371	N37	0.977450	0.940200	0.302590
N381	N38	0.079400	0.771300	0.132400
C631	C63	0.146200	0.761400	0.126900
C641	C64	0.175550	0.876100	0.097200
N391	N39	0.163040	0.995300	0.137780
C651	C65	0.172600	0.120300	0.100400
C661	C66	0.146800	0.231700	0.138500
N401	N40	0.076180	0.214500	0.149620
H271	H27	0.070650	0.720600	0.170600
H281	H28	0.054080	0.743100	0.088900
H291	H29	0.151700	0.688200	0.094400
H301	H30	0.171400	0.742500	0.177000
H311	H31	0.156760	0.885900	0.043720
H321	H32	0.223760	0.863600	0.101400
H331	H33	0.189890	0.994400	0.184310
H341	H34	0.220240	0.133000	0.100000
H351	H35	0.149690	0.116900	0.048000
H361	H36	0.149800	0.309200	0.108400
H371	H37	0.175200	0.244700	0.187600
H381	H38	0.048160	0.251900	0.110940
H391	H39	0.070200	0.253400	0.193110
Cd201	Cd20	0.949390	0.989340	0.844910
C671	C67	0.995480	0.999100	0.968400
C681	C68	0.997540	0.964300	0.744340
N411	N41	0.022550	0.940200	0.697410
N421	N42	0.920600	0.771300	0.867600
C691	C69	0.853800	0.761400	0.873100
C701	C70	0.824450	0.876100	0.902800
N431	N43	0.836960	0.995300	0.862220
C711	C71	0.827400	0.120300	0.899600
C721	C72	0.853200	0.231700	0.861500
N441	N44	0.923820	0.214500	0.850380
H401	H40	0.929350	0.720600	0.829400
H411	H41	0.945920	0.743100	0.911100
H421	H42	0.848300	0.688200	0.905600
H431	H43	0.828600	0.742500	0.823000
H441	H44	0.843240	0.885900	0.956280
H451	H45	0.776240	0.863600	0.898600
H461	H46	0.810110	0.994400	0.815690
H471	H47	0.779760	0.133000	0.900000
H481	H48	0.850310	0.116900	0.952000
H491	H49	0.850200	0.309200	0.891600
H501	H50	0.824800	0.244700	0.812400
H511	H51	0.951840	0.251900	0.889060
H521	H52	0.929800	0.253400	0.806890
