data_ncomms7350-s2_freeONLY_PM
_symmetry_space_group_name_H-M	'P1'
_cell_length_a	14.403400
_cell_length_b	14.403400
_cell_length_c	15.879000
_cell_angle_alpha	65.472000
_cell_angle_beta	65.472000
_cell_angle_gamma	67.935100
_symmetry_Int_Tables_number 1

loop_
_symmetry_equiv_pos_as_xyz
'x,y,z'

loop_
_atom_site_label
_atom_site_type_symbol
_atom_site_fract_x
_atom_site_fract_y
_atom_site_fract_z
Cu11	Cu1	0.915660	0.448040	0.324810
Cu21	Cu2	0.448040	0.915660	0.824810
Cu31	Cu3	0.385100	0.090020	0.052360
Cu41	Cu4	0.084340	0.551960	0.675190
Cu51	Cu5	0.730700	0.269300	0.750000
Cu61	Cu6	0.551960	0.084340	0.175190
Cu71	Cu7	0.939080	0.060920	0.250000
Cu81	Cu8	0.060920	0.939080	0.750000
Cu91	Cu9	0.022850	0.833390	0.010370
Cu101	Cu10	0.269300	0.730700	0.250000
Cu111	Cu11	0.166610	0.977150	0.489630
Cu121	Cu12	0.833390	0.022850	0.510370
Cu131	Cu13	0.977150	0.166610	0.989630
Cu141	Cu14	0.909980	0.614900	0.447640
Cu151	Cu15	0.090020	0.385100	0.552360
Cu161	Cu16	0.614900	0.909980	0.947640
H11	H1	0.960600	0.403200	0.966300
H21	H2	0.206000	0.273800	0.378300
H31	H3	0.487500	0.275100	0.780500
H41	H4	0.196800	0.927600	0.273700
H51	H5	0.881100	0.968900	0.699600
H61	H6	0.031100	0.118900	0.800400
H71	H7	0.087400	0.307400	0.376700
H81	H8	0.275100	0.487500	0.280500
H91	H9	0.162200	0.196000	0.364400
H101	H10	0.667400	0.965200	0.344900
H111	H11	0.273800	0.206000	0.878300
H121	H12	0.183700	0.880100	0.065200
H131	H13	0.237500	0.763100	0.439100
H141	H14	0.008900	0.742300	0.863100
H151	H15	0.919000	0.371200	0.145400
H161	H16	0.072400	0.803200	0.226300
H171	H17	0.257700	0.991100	0.636900
H181	H18	0.512500	0.724900	0.219500
H191	H19	0.466100	0.047700	0.388500
H201	H20	0.568900	0.172700	0.752500
H211	H21	0.047700	0.466100	0.888500
H221	H22	0.196000	0.162200	0.864400
H231	H23	0.455800	0.164800	0.831300
H241	H24	0.912600	0.692600	0.623300
H251	H25	0.803200	0.072400	0.726300
H261	H26	0.307400	0.087400	0.876700
H271	H27	0.880100	0.183700	0.565200
H281	H28	0.083000	0.345600	0.949700
H291	H29	0.596800	0.039400	0.533700
H301	H30	0.345600	0.083000	0.449700
H311	H31	0.991100	0.257700	0.136900
H321	H32	0.172700	0.568900	0.252500
H331	H33	0.164800	0.455800	0.331300
H341	H34	0.119900	0.816300	0.434800
H351	H35	0.726200	0.794000	0.121700
H361	H36	0.544200	0.835200	0.168700
H371	H37	0.762500	0.236900	0.560900
H381	H38	0.835200	0.544200	0.668700
H391	H39	0.816300	0.119900	0.934800
H401	H40	0.827300	0.431100	0.747500
H411	H41	0.039400	0.596800	0.033700
H421	H42	0.533900	0.952300	0.611500
H431	H43	0.927600	0.196800	0.773700
H441	H44	0.692600	0.912600	0.123300
H451	H45	0.968900	0.881100	0.199600
H461	H46	0.917000	0.654400	0.050300
H471	H47	0.794000	0.726200	0.621700
H481	H48	0.118900	0.031100	0.300400
H491	H49	0.236900	0.762500	0.060900
H501	H50	0.724900	0.512500	0.719500
H511	H51	0.081000	0.628800	0.854600
H521	H52	0.965200	0.667400	0.844900
H531	H53	0.804000	0.837800	0.135600
H541	H54	0.763100	0.237500	0.939100
H551	H55	0.403200	0.960600	0.466300
H561	H56	0.034800	0.332600	0.155100
H571	H57	0.371200	0.919000	0.645400
H581	H58	0.431100	0.827300	0.247500
H591	H59	0.952300	0.533900	0.111500
H601	H60	0.654400	0.917000	0.550300
H611	H61	0.332600	0.034800	0.655100
H621	H62	0.837800	0.804000	0.635600
H631	H63	0.628800	0.081000	0.354600
H641	H64	0.742300	0.008900	0.363100
C11	C1	0.968800	0.636600	0.158700
C21	C2	0.162000	0.660000	0.458200
C31	C3	0.144000	0.248200	0.396700
C41	C4	0.801300	0.486300	0.694600
C51	C5	0.826400	0.441800	0.615100
C61	C6	0.813700	0.995300	0.745300
C71	C7	0.826600	0.948600	0.844500
C81	C8	0.108500	0.199500	0.503200
C91	C9	0.173600	0.558200	0.384900
C101	C10	0.441800	0.826400	0.115100
C111	C11	0.972100	0.310300	0.169300
C121	C12	0.948600	0.826600	0.344500
C131	C13	0.891500	0.800500	0.496800
C141	C14	0.263000	0.928400	0.776800
C151	C15	0.969400	0.602600	0.082000
C161	C16	0.310300	0.972100	0.669300
C171	C17	0.248200	0.144000	0.896700
C181	C18	0.186300	0.004700	0.254700
C191	C19	0.198700	0.513700	0.305400
C201	C20	0.689700	0.027900	0.330700
C211	C21	0.164300	0.754900	0.471000
C221	C22	0.129800	0.761400	0.571700
C231	C23	0.486300	0.801300	0.194600
C241	C24	0.513700	0.198700	0.805400
C251	C25	0.363400	0.031200	0.341300
C261	C26	0.976600	0.728000	0.229900
C271	C27	0.660000	0.162000	0.958200
C281	C28	0.754900	0.164300	0.971000
C291	C29	0.004700	0.186300	0.754700
C301	C30	0.199500	0.108500	0.003200
C311	C31	0.636600	0.968800	0.658700
C321	C32	0.835700	0.245100	0.529000
C331	C33	0.027900	0.689700	0.830700
C341	C34	0.051400	0.173400	0.655500
C351	C35	0.023400	0.272000	0.770100
C361	C36	0.838000	0.340000	0.541800
C371	C37	0.751800	0.856000	0.103300
C381	C38	0.245100	0.835700	0.029000
C391	C39	0.030600	0.397400	0.918000
C401	C40	0.728000	0.976600	0.729900
C411	C41	0.173400	0.051400	0.155500
C421	C42	0.995300	0.813700	0.245300
C431	C43	0.800500	0.891500	0.996800
C441	C44	0.870200	0.238600	0.428300
C451	C45	0.558200	0.173600	0.884900
C461	C46	0.602600	0.969400	0.582000
C471	C47	0.928400	0.263000	0.276800
C481	C48	0.737000	0.071600	0.223200
C491	C49	0.761400	0.129800	0.071700
C501	C50	0.856000	0.751800	0.603300
C511	C51	0.272000	0.023400	0.270100
C521	C52	0.340000	0.838000	0.041800
C531	C53	0.071600	0.737000	0.723200
C541	C54	0.238600	0.870200	0.928300
C551	C55	0.397400	0.030600	0.418000
C561	C56	0.031200	0.363400	0.841300
N11	N1	0.832600	0.088000	0.183000
N21	N2	0.350100	0.803700	0.132400
N31	N3	0.486400	0.868200	0.021400
N41	N4	0.912000	0.167400	0.317000
N51	N5	0.131800	0.513600	0.478600
N61	N6	0.513600	0.131800	0.978600
N71	N7	0.125500	0.848700	0.583500
N81	N8	0.167400	0.912000	0.817000
N91	N9	0.901400	0.897400	0.955300
N101	N10	0.249600	0.077800	0.068900
N111	N11	0.750400	0.922200	0.931100
N121	N12	0.935600	0.916800	0.355200
N131	N13	0.904200	0.311800	0.342100
N141	N14	0.688200	0.095800	0.157900
N151	N15	0.098600	0.102600	0.044700
N161	N16	0.803700	0.350100	0.632400
N171	N17	0.643200	0.948200	0.799700
N181	N18	0.868200	0.486400	0.521400
N191	N19	0.948200	0.643200	0.299700
N201	N20	0.416500	0.055700	0.247600
N211	N21	0.083200	0.064400	0.144800
N221	N22	0.583500	0.944300	0.752400
N231	N23	0.649900	0.196300	0.867600
N241	N24	0.848700	0.125500	0.083500
N251	N25	0.876700	0.419500	0.474200
N261	N26	0.051800	0.356800	0.700300
N271	N27	0.922200	0.750400	0.431100
N281	N28	0.010400	0.272000	0.860000
N291	N29	0.311800	0.904200	0.842100
N301	N30	0.356800	0.051800	0.200300
N311	N31	0.874500	0.151300	0.416500
N321	N32	0.102600	0.098600	0.544700
N331	N33	0.989600	0.728000	0.140000
N341	N34	0.055700	0.416500	0.747600
N351	N35	0.580500	0.123300	0.025800
N361	N36	0.088000	0.832600	0.683000
N371	N37	0.123300	0.580500	0.525800
N381	N38	0.151300	0.874500	0.916500
N391	N39	0.419500	0.876700	0.974200
N401	N40	0.095800	0.688200	0.657900
N411	N41	0.728000	0.989600	0.640000
N421	N42	0.897400	0.901400	0.455300
N431	N43	0.916800	0.935600	0.855200
N441	N44	0.944300	0.583500	0.252400
N451	N45	0.064400	0.083200	0.644800
N461	N46	0.196300	0.649900	0.367600
N471	N47	0.272000	0.010400	0.360000
N481	N48	0.077800	0.249600	0.568900
