data_ncomms10007_ncomms10007-s3_freeONLY_PM
_symmetry_space_group_name_H-M	'P1'
_cell_length_a	15.102900
_cell_length_b	13.253500
_cell_length_c	18.033000
_cell_angle_alpha	90.000000
_cell_angle_beta	94.440000
_cell_angle_gamma	90.000000
_symmetry_Int_Tables_number 1

loop_
_symmetry_equiv_pos_as_xyz
'x,y,z'

loop_
_atom_site_label
_atom_site_type_symbol
_atom_site_fract_x
_atom_site_fract_y
_atom_site_fract_z
W11	W1	0.203610	0.058860	0.912720
W21	W2	0.378810	0.980700	0.833590
W31	W3	0.177760	0.917860	0.762980
W41	W4	0.432920	0.091350	0.654780
W51	W5	0.236160	0.024260	0.582460
W61	W6	0.302270	0.258580	0.571500
W71	W7	0.035710	0.112930	0.667290
W81	W8	0.104650	0.350390	0.662040
W91	W9	0.054210	0.250050	0.818420
W101	W10	0.277100	0.325080	0.901810
W111	W11	0.330340	0.417150	0.741570
W121	W12	0.456940	0.245600	0.827040
Zn11	Zn1	0.248910	0.170480	0.745140
Zn21	Zn2	0.599650	0.943930	0.560200
Zn31	Zn3	0.096870	0.898580	0.058080
O11	O1	0.163700	0.024400	0.997500
O21	O2	0.315800	0.987100	0.923900
O31	O3	0.149000	0.935900	0.863500
O41	O4	0.103000	0.135500	0.869800
O51	O5	0.259900	0.183600	0.929900
O61	O6	0.251300	0.052400	0.804900
O71	O7	0.462200	0.899000	0.869300
O81	O8	0.298300	0.874400	0.798200
O91	O9	0.409500	0.997100	0.732600
O101	O10	0.426800	0.109900	0.856500
O111	O11	0.135800	0.807600	0.747900
O121	O12	0.225800	0.939300	0.667700
O131	O13	0.080600	0.005800	0.728100
O141	O14	0.531600	0.044600	0.628400
O151	O15	0.364300	0.998800	0.590000
O161	O16	0.421600	0.195900	0.579800
O171	O17	0.467300	0.191600	0.727300
O181	O18	0.298400	0.138100	0.653900
O191	O19	0.208400	0.937900	0.512900
O201	O20	0.256000	0.144200	0.517600
O211	O21	0.122800	0.082800	0.600100
O221	O22	0.324600	0.336500	0.497200
O231	O23	0.187300	0.299300	0.593900
O241	O24	0.347000	0.347400	0.652700
O251	O25	0.944100	0.061200	0.620300
O261	O26	0.023600	0.246200	0.620400
O271	O27	0.978200	0.161500	0.753700
O281	O28	0.130400	0.213600	0.727300
O291	O29	0.157500	0.324100	0.859400
O301	O30	0.037700	0.361500	0.747700
O311	O31	0.202800	0.412500	0.712900
O321	O32	0.973600	0.289000	0.876200
O331	O33	0.272800	0.379700	0.988400
O341	O34	0.401600	0.296400	0.915200
O351	O35	0.317100	0.269700	0.794700
O361	O36	0.356000	0.542300	0.722000
O371	O37	0.448200	0.381800	0.778800
O381	O38	0.298300	0.440500	0.845300
O391	O39	0.056700	0.449400	0.612400
O401	O40	0.564600	0.254000	0.863200
C11	C1	0.652900	0.899300	0.724900
H11	H1	0.591600	0.899600	0.726900
C21	C2	0.706100	0.882900	0.792600
C31	C3	0.795100	0.891300	0.786600
C41	C4	0.831500	0.911900	0.716200
H21	H2	0.892300	0.916800	0.712100
C51	C5	0.771000	0.923900	0.655400
H31	H3	0.792400	0.939500	0.609800
C61	C6	0.862300	0.884500	0.851400
C71	C7	0.882900	0.796900	0.896500
H41	H4	0.853100	0.736500	0.886100
C81	C8	0.947000	0.802600	0.955600
H51	H5	0.958300	0.745300	0.984500
C91	C9	0.973200	0.970200	0.930400
H61	H6	0.003500	0.029800	0.942700
C101	C10	0.910700	0.968700	0.871100
H71	H7	0.900800	0.027200	0.843300
C111	C11	0.156200	0.954300	0.216700
H81	H8	0.095400	0.964200	0.217900
C121	C12	0.208400	0.966200	0.283400
C131	C13	0.302100	0.962100	0.278300
C141	C14	0.333300	0.941300	0.206600
H91	H9	0.393700	0.933500	0.201600
C151	C15	0.274500	0.933200	0.146400
H101	H10	0.295500	0.929500	0.099300
C161	C16	0.363500	0.966300	0.344000
C171	C17	0.411000	0.885100	0.368900
H111	H11	0.403400	0.825000	0.342500
C181	C18	0.474500	0.886300	0.435700
H121	H12	0.497600	0.825000	0.453200
C191	C19	0.448900	0.054900	0.449800
H131	H13	0.460300	0.113600	0.477200
C201	C20	0.380400	0.052700	0.385300
H141	H14	0.348500	0.111000	0.372700
C211	C21	0.738000	0.055500	0.474200
H151	H15	0.768900	0.996700	0.464800
C221	C22	0.695300	0.206300	0.468600
H161	H16	0.689200	0.274500	0.457000
C231	C23	0.643800	0.153800	0.510600
H171	H17	0.595300	0.179600	0.533200
C241	C24	0.831400	0.159800	0.402200
H181	H18	0.819300	0.217100	0.369600
H191	H19	0.838800	0.100900	0.371400
C251	C25	0.919300	0.179100	0.451700
H201	H20	0.928400	0.126400	0.489600
C261	C26	0.051200	0.271100	0.424000
H211	H21	0.081000	0.298800	0.382800
H221	H22	0.095000	0.255700	0.464600
C271	C27	0.977800	0.346200	0.449700
H231	H23	0.004000	0.397500	0.482800
H241	H24	0.946400	0.378800	0.407200
N11	N1	0.919100	0.282000	0.487700
H251	H25	0.863800	0.307700	0.484200
H261	H26	0.937900	0.277200	0.536200
C281	C28	0.236800	0.782800	0.976100
H271	H27	0.258900	0.841500	0.956200
C291	C29	0.223900	0.630100	0.004100
H281	H28	0.232800	0.560900	0.009200
C301	C30	0.167700	0.684300	0.036200
H291	H29	0.127100	0.658200	0.067300
C311	C31	0.340500	0.673300	0.918000
H301	H30	0.346500	0.727100	0.882300
H311	H31	0.330500	0.610600	0.891000
C321	C32	0.424800	0.665700	0.970300
H321	H32	0.410400	0.695900	0.017500
C331	C33	0.566500	0.632300	0.915100
H331	H33	0.572700	0.642100	0.862500
H341	H34	0.625000	0.630400	0.941500
C341	C34	0.514500	0.537500	0.929000
H351	H35	0.555500	0.483800	0.944300
H361	H36	0.482000	0.516900	0.882900
C351	C35	0.449700	0.552200	0.988100
H371	H37	0.477800	0.543800	0.037900
H381	H38	0.398800	0.507700	0.981000
C361	C36	0.956500	0.049800	0.132200
N21	N2	0.685300	0.914400	0.658600
N31	N3	0.992100	0.883400	0.972500
N41	N4	0.666600	0.875300	0.857400
H391	H39	0.698400	0.875700	0.899100
H401	H40	0.609800	0.870200	0.856900
N51	N5	0.185200	0.930400	0.152900
N61	N6	0.497800	0.961200	0.468500
N71	N7	0.173200	0.990300	0.346700
H411	H41	0.116800	0.998900	0.347100
H421	H42	0.206900	0.997200	0.387000
N81	N8	0.672100	0.057300	0.515800
N91	N9	0.757700	0.144200	0.445900
C371	C37	0.999000	0.181400	0.401100
H431	H43	0.034700	0.120800	0.408200
H441	H44	0.977600	0.186000	0.349100
N101	N10	0.173900	0.783200	0.019800
N111	N11	0.267400	0.693800	0.961700
N121	N12	0.505100	0.719600	0.948000
H451	H45	0.533900	0.750100	0.987500
H461	H46	0.490300	0.766400	0.913100
N131	N13	0.011000	0.023200	0.098300
O411	O41	0.509300	0.822200	0.595200
H471	H47	0.489900	0.836400	0.637000
H481	H48	0.539800	0.768200	0.599100
C381	C38	0.898100	0.093700	0.183800
H491	H49	0.845900	0.119800	0.156700
H501	H50	0.928500	0.147500	0.210900
H511	H51	0.881400	0.042900	0.218000
W131	W13	0.796390	0.558860	0.087280
W141	W14	0.621190	0.480700	0.166410
W151	W15	0.822240	0.417860	0.237020
W161	W16	0.567080	0.591350	0.345220
W171	W17	0.763840	0.524260	0.417540
W181	W18	0.697730	0.758580	0.428500
W191	W19	0.964290	0.612930	0.332710
W201	W20	0.895350	0.850390	0.337960
W211	W21	0.945790	0.750050	0.181580
W221	W22	0.722900	0.825080	0.098190
W231	W23	0.669660	0.917150	0.258430
W241	W24	0.543060	0.745600	0.172960
Zn41	Zn4	0.751090	0.670480	0.254860
Zn51	Zn5	0.400350	0.443930	0.439800
Zn61	Zn6	0.903130	0.398580	0.941920
O421	O42	0.836300	0.524400	0.002500
O431	O43	0.684200	0.487100	0.076100
O441	O44	0.851000	0.435900	0.136500
O451	O45	0.897000	0.635500	0.130200
O461	O46	0.740100	0.683600	0.070100
O471	O47	0.748700	0.552400	0.195100
O481	O48	0.537800	0.399000	0.130700
O491	O49	0.701700	0.374400	0.201800
O501	O50	0.590500	0.497100	0.267400
O511	O51	0.573200	0.609900	0.143500
O521	O52	0.864200	0.307600	0.252100
O531	O53	0.774200	0.439300	0.332300
O541	O54	0.919400	0.505800	0.271900
O551	O55	0.468400	0.544600	0.371600
O561	O56	0.635700	0.498800	0.410000
O571	O57	0.578400	0.695900	0.420200
O581	O58	0.532700	0.691600	0.272700
O591	O59	0.701600	0.638100	0.346100
O601	O60	0.791600	0.437900	0.487100
O611	O61	0.744000	0.644200	0.482400
O621	O62	0.877200	0.582800	0.399900
O631	O63	0.675400	0.836500	0.502800
O641	O64	0.812700	0.799300	0.406100
O651	O65	0.653000	0.847400	0.347300
O661	O66	0.055900	0.561200	0.379700
O671	O67	0.976400	0.746200	0.379600
O681	O68	0.021800	0.661500	0.246300
O691	O69	0.869600	0.713600	0.272700
O701	O70	0.842500	0.824100	0.140600
O711	O71	0.962300	0.861500	0.252300
O721	O72	0.797200	0.912500	0.287100
O731	O73	0.026400	0.789000	0.123800
O741	O74	0.727200	0.879700	0.011600
O751	O75	0.598400	0.796400	0.084800
O761	O76	0.682900	0.769700	0.205300
O771	O77	0.644000	0.042300	0.278000
O781	O78	0.551800	0.881800	0.221200
O791	O79	0.701700	0.940500	0.154700
O801	O80	0.943300	0.949400	0.387600
O811	O81	0.435400	0.754000	0.136800
C391	C39	0.347100	0.399300	0.275100
H521	H52	0.408400	0.399600	0.273100
C401	C40	0.293900	0.382900	0.207400
C411	C41	0.204900	0.391300	0.213400
C421	C42	0.168500	0.411900	0.283800
H531	H53	0.107700	0.416800	0.287900
C431	C43	0.229000	0.423900	0.344600
H541	H54	0.207600	0.439500	0.390200
C441	C44	0.137700	0.384500	0.148600
C451	C45	0.117100	0.296900	0.103500
H551	H55	0.146900	0.236500	0.113900
C461	C46	0.053000	0.302600	0.044400
H561	H56	0.041700	0.245300	0.015500
C471	C47	0.026800	0.470200	0.069600
H571	H57	0.996500	0.529800	0.057300
C481	C48	0.089300	0.468700	0.128900
H581	H58	0.099200	0.527200	0.156700
C491	C49	0.843800	0.454300	0.783300
H591	H59	0.904600	0.464200	0.782100
C501	C50	0.791600	0.466200	0.716600
C511	C51	0.697900	0.462100	0.721700
C521	C52	0.666700	0.441300	0.793400
H601	H60	0.606300	0.433500	0.798400
C531	C53	0.725500	0.433200	0.853600
H611	H61	0.704500	0.429500	0.900700
C541	C54	0.636500	0.466300	0.656000
C551	C55	0.589000	0.385100	0.631100
H621	H62	0.596600	0.325000	0.657500
C561	C56	0.525500	0.386300	0.564300
H631	H63	0.502400	0.325000	0.546800
C571	C57	0.551100	0.554900	0.550200
H641	H64	0.539700	0.613600	0.522800
C581	C58	0.619600	0.552700	0.614700
H651	H65	0.651500	0.611000	0.627300
C591	C59	0.262000	0.555500	0.525800
H661	H66	0.231100	0.496700	0.535200
C601	C60	0.304700	0.706300	0.531400
H671	H67	0.310800	0.774500	0.543000
C611	C61	0.356200	0.653800	0.489400
H681	H68	0.404700	0.679600	0.466800
C621	C62	0.168600	0.659800	0.597800
H691	H69	0.180700	0.717100	0.630400
H701	H70	0.161200	0.600900	0.628600
C631	C63	0.080700	0.679100	0.548300
H711	H71	0.071600	0.626400	0.510400
C641	C64	0.948800	0.771100	0.576000
H721	H72	0.919000	0.798800	0.617200
H731	H73	0.905000	0.755700	0.535400
C651	C65	0.022200	0.846200	0.550300
H741	H74	0.996000	0.897500	0.517200
H751	H75	0.053600	0.878800	0.592800
N141	N14	0.080900	0.782000	0.512300
H761	H76	0.136200	0.807700	0.515800
H771	H77	0.062100	0.777200	0.463800
C661	C66	0.763200	0.282800	0.023900
H781	H78	0.741100	0.341500	0.043800
C671	C67	0.776100	0.130100	0.995900
H791	H79	0.767200	0.060900	0.990800
C681	C68	0.832300	0.184300	0.963800
H801	H80	0.872900	0.158200	0.932700
C691	C69	0.659500	0.173300	0.082000
H811	H81	0.653500	0.227100	0.117700
H821	H82	0.669500	0.110600	0.109000
C701	C70	0.575200	0.165700	0.029700
H831	H83	0.589600	0.195900	0.982500
C711	C71	0.433500	0.132300	0.084900
H841	H84	0.427300	0.142100	0.137500
H851	H85	0.375000	0.130400	0.058500
C721	C72	0.485500	0.037500	0.071000
H861	H86	0.444500	0.983800	0.055700
H871	H87	0.518000	0.016900	0.117100
C731	C73	0.550300	0.052200	0.011900
H881	H88	0.522200	0.043800	0.962100
H891	H89	0.601200	0.007700	0.019000
C741	C74	0.043500	0.549800	0.867800
N151	N15	0.314700	0.414400	0.341400
N161	N16	0.007900	0.383400	0.027500
N171	N17	0.333400	0.375300	0.142600
H901	H90	0.301600	0.375700	0.100900
H911	H91	0.390200	0.370200	0.143100
N181	N18	0.814800	0.430400	0.847100
N191	N19	0.502200	0.461200	0.531500
N201	N20	0.826800	0.490300	0.653300
H921	H92	0.883200	0.498900	0.652900
H931	H93	0.793100	0.497200	0.613000
N211	N21	0.327900	0.557300	0.484200
N221	N22	0.242300	0.644200	0.554100
C751	C75	0.001000	0.681400	0.598900
H941	H94	0.965300	0.620800	0.591800
H951	H95	0.022400	0.686000	0.650900
N231	N23	0.826100	0.283200	0.980200
N241	N24	0.732600	0.193800	0.038300
N251	N25	0.494900	0.219600	0.052000
H961	H96	0.466100	0.250100	0.012500
H971	H97	0.509700	0.266400	0.086900
N261	N26	0.989000	0.523200	0.901700
O821	O82	0.490700	0.322200	0.404800
H981	H98	0.510100	0.336400	0.363000
H991	H99	0.460200	0.268200	0.400900
C761	C76	0.101900	0.593700	0.816200
H1001	H100	0.154100	0.619800	0.843300
H1011	H101	0.071500	0.647500	0.789100
H1021	H102	0.118600	0.542900	0.782000
