data_ncomms11831_ncomms11831-s3_freeONLY_PM
_symmetry_space_group_name_H-M	'P1'
_cell_length_a	11.881900
_cell_length_b	5.555500
_cell_length_c	22.641100
_cell_angle_alpha	90.000000
_cell_angle_beta	101.302000
_cell_angle_gamma	90.000000
_symmetry_Int_Tables_number 1

loop_
_symmetry_equiv_pos_as_xyz
'x,y,z'

loop_
_atom_site_label
_atom_site_type_symbol
_atom_site_fract_x
_atom_site_fract_y
_atom_site_fract_z
Ca11	Ca1	0.102160	0.734760	0.042090
S11	S1	0.392340	0.524690	0.104580
O11	O1	0.907380	0.592700	0.026800
O21	O2	0.382350	0.961600	0.380060
O31	O3	0.379000	0.267400	0.098050
O41	O4	0.867890	0.983800	0.029630
O51	O5	0.309440	0.682900	0.067740
O61	O6	0.393720	0.566100	0.399200
C11	C1	0.398750	0.696400	0.300540
C21	C2	0.397810	0.597800	0.180830
C31	C3	0.527860	0.601500	0.089130
C41	C4	0.734300	0.708700	0.056650
C51	C5	0.443490	0.479200	0.284650
H11	H1	0.473300	0.364800	0.314900
C61	C6	0.843980	0.766800	0.035730
C71	C7	0.719870	0.487200	0.083010
H21	H2	0.780600	0.373100	0.089400
C81	C8	0.355380	0.865000	0.256280
H31	H3	0.326900	0.014400	0.267600
C91	C9	0.391550	0.745700	0.365570
C101	C10	0.616000	0.433400	0.099950
H41	H4	0.605700	0.284000	0.118600
C111	C11	0.444520	0.430200	0.224460
H51	H5	0.476600	0.284400	0.213300
C121	C12	0.542230	0.826100	0.064400
H61	H6	0.482000	0.941400	0.058600
C131	C13	0.353420	0.816700	0.195710
H71	H7	0.322700	0.930000	0.165400
C141	C14	0.646670	0.877900	0.048400
H81	H8	0.658200	0.030600	0.031600
Ca21	Ca2	0.397840	0.234760	0.457910
S21	S2	0.107660	0.024690	0.395420
O71	O7	0.592620	0.092700	0.473200
O81	O8	0.117650	0.461600	0.119940
O91	O9	0.121000	0.767400	0.401950
O101	O10	0.632110	0.483800	0.470370
O111	O11	0.190560	0.182900	0.432260
O121	O12	0.106280	0.066100	0.100800
C151	C15	0.101250	0.196400	0.199460
C161	C16	0.102190	0.097800	0.319170
C171	C17	0.972140	0.101500	0.410870
C181	C18	0.765700	0.208700	0.443350
C191	C19	0.056510	0.979200	0.215350
H91	H9	0.026700	0.864800	0.185100
C201	C20	0.656020	0.266800	0.464270
C211	C21	0.780130	0.987200	0.416990
H101	H10	0.719400	0.873100	0.410600
C221	C22	0.144620	0.365000	0.243720
H111	H11	0.173100	0.514400	0.232400
C231	C23	0.108450	0.245700	0.134430
C241	C24	0.884000	0.933400	0.400050
H121	H12	0.894300	0.784000	0.381400
C251	C25	0.055480	0.930200	0.275540
H131	H13	0.023400	0.784400	0.286700
C261	C26	0.957770	0.326100	0.435600
H141	H14	0.018000	0.441400	0.441400
C271	C27	0.146580	0.316700	0.304290
H151	H15	0.177300	0.430000	0.334600
C281	C28	0.853330	0.377900	0.451600
H161	H16	0.841800	0.530600	0.468400
Ca31	Ca3	0.897840	0.265240	0.957910
S31	S3	0.607660	0.475310	0.895420
O131	O13	0.092620	0.407300	0.973200
O141	O14	0.617650	0.038400	0.619940
O151	O15	0.621000	0.732600	0.901950
O161	O16	0.132110	0.016200	0.970370
O171	O17	0.690560	0.317100	0.932260
O181	O18	0.606280	0.433900	0.600800
C291	C29	0.601250	0.303600	0.699460
C301	C30	0.602190	0.402200	0.819170
C311	C31	0.472140	0.398500	0.910870
C321	C32	0.265700	0.291300	0.943350
C331	C33	0.556510	0.520800	0.715350
H171	H17	0.526700	0.635200	0.685100
C341	C34	0.156020	0.233200	0.964270
C351	C35	0.280130	0.512800	0.916990
H181	H18	0.219400	0.626900	0.910600
C361	C36	0.644620	0.135000	0.743720
H191	H19	0.673100	0.985600	0.732400
C371	C37	0.608450	0.254300	0.634430
C381	C38	0.384000	0.566600	0.900050
H201	H20	0.394300	0.716000	0.881400
C391	C39	0.555480	0.569800	0.775540
H211	H21	0.523400	0.715600	0.786700
C401	C40	0.457770	0.173900	0.935600
H221	H22	0.518000	0.058600	0.941400
C411	C41	0.646580	0.183300	0.804290
H231	H23	0.677300	0.070000	0.834600
C421	C42	0.353330	0.122100	0.951600
H241	H24	0.341800	0.969400	0.968400
Ca41	Ca4	0.602160	0.765240	0.542090
S41	S4	0.892340	0.975310	0.604580
O191	O19	0.407380	0.907300	0.526800
O201	O20	0.882350	0.538400	0.880060
O211	O21	0.879000	0.232600	0.598050
O221	O22	0.367890	0.516200	0.529630
O231	O23	0.809440	0.817100	0.567740
O241	O24	0.893720	0.933900	0.899200
C431	C43	0.898750	0.803600	0.800540
C441	C44	0.897810	0.902200	0.680830
C451	C45	0.027860	0.898500	0.589130
C461	C46	0.234300	0.791300	0.556650
C471	C47	0.943490	0.020800	0.784650
H251	H25	0.973300	0.135200	0.814900
C481	C48	0.343980	0.733200	0.535730
C491	C49	0.219870	0.012800	0.583010
H261	H26	0.280600	0.126900	0.589400
C501	C50	0.855380	0.635000	0.756280
H271	H27	0.826900	0.485600	0.767600
C511	C51	0.891550	0.754300	0.865570
C521	C52	0.116000	0.066600	0.599950
H281	H28	0.105700	0.216000	0.618600
C531	C53	0.944520	0.069800	0.724460
H291	H29	0.976600	0.215600	0.713300
C541	C54	0.042230	0.673900	0.564400
H301	H30	0.982000	0.558600	0.558600
C551	C55	0.853420	0.683300	0.695710
H311	H31	0.822700	0.570000	0.665400
C561	C56	0.146670	0.622100	0.548400
H321	H32	0.158200	0.469400	0.531600
