data_NEDXOL_freeONLY_PM
_symmetry_space_group_name_H-M	'P1'
_cell_length_a	9.267100
_cell_length_b	17.119800
_cell_length_c	24.841600
_cell_angle_alpha	90.000000
_cell_angle_beta	90.000000
_cell_angle_gamma	90.000000
_symmetry_Int_Tables_number 1

loop_
_symmetry_equiv_pos_as_xyz
'x,y,z'

loop_
_atom_site_label
_atom_site_type_symbol
_atom_site_fract_x
_atom_site_fract_y
_atom_site_fract_z
Zn11	Zn1	0.181460	0.199980	0.249120
P11	P1	0.844960	0.142130	0.245680
O11	O1	0.976600	0.191370	0.255230
O21	O2	0.838300	0.071090	0.285210
O31	O3	0.854700	0.099780	0.190750
O41	O4	0.710100	0.189860	0.250910
N11	N1	0.264900	0.143240	0.313140
N21	N2	0.277800	0.147070	0.186150
C11	C1	0.180300	0.115000	0.352720
C21	C2	0.234300	0.075100	0.396550
C31	C3	0.383100	0.064610	0.401200
C41	C4	0.469600	0.092000	0.359760
C51	C5	0.408400	0.130800	0.316960
C61	C6	0.444300	0.028080	0.450670
C71	C7	0.250200	0.072400	0.175060
C81	C8	0.311500	0.034000	0.132420
C91	C9	0.404100	0.072520	0.098810
C101	C10	0.436500	0.149900	0.110920
C111	C11	0.371200	0.184800	0.154250
C121	C12	0.461000	0.034980	0.048950
H11	H1	0.173700	0.059200	0.426000
H21	H2	0.579900	0.090600	0.361700
H31	H3	0.464100	0.156600	0.288700
H41	H4	0.079600	0.119200	0.348400
H51	H5	0.179000	0.049100	0.201500
H61	H6	0.307200	0.976700	0.127700
H71	H7	0.492200	0.180400	0.085000
H81	H8	0.395400	0.234900	0.164700
H91	H9	0.839500	0.091500	0.317300
H101	H10	0.879100	0.131300	0.160200
Zn21	Zn2	0.818540	0.800020	0.249120
P21	P2	0.155040	0.857870	0.245680
O51	O5	0.023400	0.808630	0.255230
O61	O6	0.161700	0.928910	0.285210
O71	O7	0.145300	0.900220	0.190750
O81	O8	0.289900	0.810140	0.250910
N31	N3	0.735100	0.856760	0.313140
N41	N4	0.722200	0.852930	0.186150
C131	C13	0.819700	0.885000	0.352720
C141	C14	0.765700	0.924900	0.396550
C151	C15	0.616900	0.935390	0.401200
C161	C16	0.530400	0.908000	0.359760
C171	C17	0.591600	0.869200	0.316960
C181	C18	0.555700	0.971920	0.450670
C191	C19	0.749800	0.927600	0.175060
C201	C20	0.688500	0.966000	0.132420
C211	C21	0.595900	0.927480	0.098810
C221	C22	0.563500	0.850100	0.110920
C231	C23	0.628800	0.815200	0.154250
C241	C24	0.539000	0.965020	0.048950
H111	H11	0.826300	0.940800	0.426000
H121	H12	0.420100	0.909400	0.361700
H131	H13	0.535900	0.843400	0.288700
H141	H14	0.920400	0.880800	0.348400
H151	H15	0.821000	0.950900	0.201500
H161	H16	0.692800	0.023300	0.127700
H171	H17	0.507800	0.819600	0.085000
H181	H18	0.604600	0.765100	0.164700
H191	H19	0.160500	0.908500	0.317300
H201	H20	0.120900	0.868700	0.160200
Zn31	Zn3	0.318540	0.699980	0.250880
P31	P3	0.655040	0.642130	0.254320
O91	O9	0.523400	0.691370	0.244770
O101	O10	0.661700	0.571090	0.214790
O111	O11	0.645300	0.599780	0.309250
O121	O12	0.789900	0.689860	0.249090
N51	N5	0.235100	0.643240	0.186860
N61	N6	0.222200	0.647070	0.313850
C251	C25	0.319700	0.615000	0.147280
C261	C26	0.265700	0.575100	0.103450
C271	C27	0.116900	0.564610	0.098800
C281	C28	0.030400	0.592000	0.140240
C291	C29	0.091600	0.630800	0.183040
C301	C30	0.055700	0.528080	0.049330
C311	C31	0.249800	0.572400	0.324940
C321	C32	0.188500	0.534000	0.367580
C331	C33	0.095900	0.572520	0.401190
C341	C34	0.063500	0.649900	0.389080
C351	C35	0.128800	0.684800	0.345750
C361	C36	0.039000	0.534980	0.451050
H211	H21	0.326300	0.559200	0.074000
H221	H22	0.920100	0.590600	0.138300
H231	H23	0.035900	0.656600	0.211300
H241	H24	0.420400	0.619200	0.151600
H251	H25	0.321000	0.549100	0.298500
H261	H26	0.192800	0.476700	0.372300
H271	H27	0.007800	0.680400	0.415000
H281	H28	0.104600	0.734900	0.335300
H291	H29	0.660500	0.591500	0.182700
H301	H30	0.620900	0.631300	0.339800
Zn41	Zn4	0.681460	0.300020	0.250880
P41	P4	0.344960	0.357870	0.254320
O131	O13	0.476600	0.308630	0.244770
O141	O14	0.338300	0.428910	0.214790
O151	O15	0.354700	0.400220	0.309250
O161	O16	0.210100	0.310140	0.249090
N71	N7	0.764900	0.356760	0.186860
N81	N8	0.777800	0.352930	0.313850
C371	C37	0.680300	0.385000	0.147280
C381	C38	0.734300	0.424900	0.103450
C391	C39	0.883100	0.435390	0.098800
C401	C40	0.969600	0.408000	0.140240
C411	C41	0.908400	0.369200	0.183040
C421	C42	0.944300	0.471920	0.049330
C431	C43	0.750200	0.427600	0.324940
C441	C44	0.811500	0.466000	0.367580
C451	C45	0.904100	0.427480	0.401190
C461	C46	0.936500	0.350100	0.389080
C471	C47	0.871200	0.315200	0.345750
C481	C48	0.961000	0.465020	0.451050
H311	H31	0.673700	0.440800	0.074000
H321	H32	0.079900	0.409400	0.138300
H331	H33	0.964100	0.343400	0.211300
H341	H34	0.579600	0.380800	0.151600
H351	H35	0.679000	0.450900	0.298500
H361	H36	0.807200	0.523300	0.372300
H371	H37	0.992200	0.319600	0.415000
H381	H38	0.895400	0.265100	0.335300
H391	H39	0.339500	0.408500	0.182700
H401	H40	0.379100	0.368700	0.339800
Zn51	Zn5	0.818540	0.800020	0.750880
P51	P5	0.155040	0.857870	0.754320
O171	O17	0.023400	0.808630	0.744770
O181	O18	0.161700	0.928910	0.714790
O191	O19	0.145300	0.900220	0.809250
O201	O20	0.289900	0.810140	0.749090
N91	N9	0.735100	0.856760	0.686860
N101	N10	0.722200	0.852930	0.813850
C491	C49	0.819700	0.885000	0.647280
C501	C50	0.765700	0.924900	0.603450
C511	C51	0.616900	0.935390	0.598800
C521	C52	0.530400	0.908000	0.640240
C531	C53	0.591600	0.869200	0.683040
C541	C54	0.555700	0.971920	0.549330
C551	C55	0.749800	0.927600	0.824940
C561	C56	0.688500	0.966000	0.867580
C571	C57	0.595900	0.927480	0.901190
C581	C58	0.563500	0.850100	0.889080
C591	C59	0.628800	0.815200	0.845750
C601	C60	0.539000	0.965020	0.951050
H411	H41	0.826300	0.940800	0.574000
H421	H42	0.420100	0.909400	0.638300
H431	H43	0.535900	0.843400	0.711300
H441	H44	0.920400	0.880800	0.651600
H451	H45	0.821000	0.950900	0.798500
H461	H46	0.692800	0.023300	0.872300
H471	H47	0.507800	0.819600	0.915000
H481	H48	0.604600	0.765100	0.835300
H491	H49	0.160500	0.908500	0.682700
H501	H50	0.120900	0.868700	0.839800
Zn61	Zn6	0.181460	0.199980	0.750880
P61	P6	0.844960	0.142130	0.754320
O211	O21	0.976600	0.191370	0.744770
O221	O22	0.838300	0.071090	0.714790
O231	O23	0.854700	0.099780	0.809250
O241	O24	0.710100	0.189860	0.749090
N111	N11	0.264900	0.143240	0.686860
N121	N12	0.277800	0.147070	0.813850
C611	C61	0.180300	0.115000	0.647280
C621	C62	0.234300	0.075100	0.603450
C631	C63	0.383100	0.064610	0.598800
C641	C64	0.469600	0.092000	0.640240
C651	C65	0.408400	0.130800	0.683040
C661	C66	0.444300	0.028080	0.549330
C671	C67	0.250200	0.072400	0.824940
C681	C68	0.311500	0.034000	0.867580
C691	C69	0.404100	0.072520	0.901190
C701	C70	0.436500	0.149900	0.889080
C711	C71	0.371200	0.184800	0.845750
C721	C72	0.461000	0.034980	0.951050
H511	H51	0.173700	0.059200	0.574000
H521	H52	0.579900	0.090600	0.638300
H531	H53	0.464100	0.156600	0.711300
H541	H54	0.079600	0.119200	0.651600
H551	H55	0.179000	0.049100	0.798500
H561	H56	0.307200	0.976700	0.872300
H571	H57	0.492200	0.180400	0.915000
H581	H58	0.395400	0.234900	0.835300
H591	H59	0.839500	0.091500	0.682700
H601	H60	0.879100	0.131300	0.839800
Zn71	Zn7	0.681460	0.300020	0.749120
P71	P7	0.344960	0.357870	0.745680
O251	O25	0.476600	0.308630	0.755230
O261	O26	0.338300	0.428910	0.785210
O271	O27	0.354700	0.400220	0.690750
O281	O28	0.210100	0.310140	0.750910
N131	N13	0.764900	0.356760	0.813140
N141	N14	0.777800	0.352930	0.686150
C731	C73	0.680300	0.385000	0.852720
C741	C74	0.734300	0.424900	0.896550
C751	C75	0.883100	0.435390	0.901200
C761	C76	0.969600	0.408000	0.859760
C771	C77	0.908400	0.369200	0.816960
C781	C78	0.944300	0.471920	0.950670
C791	C79	0.750200	0.427600	0.675060
C801	C80	0.811500	0.466000	0.632420
C811	C81	0.904100	0.427480	0.598810
C821	C82	0.936500	0.350100	0.610920
C831	C83	0.871200	0.315200	0.654250
C841	C84	0.961000	0.465020	0.548950
H611	H61	0.673700	0.440800	0.926000
H621	H62	0.079900	0.409400	0.861700
H631	H63	0.964100	0.343400	0.788700
H641	H64	0.579600	0.380800	0.848400
H651	H65	0.679000	0.450900	0.701500
H661	H66	0.807200	0.523300	0.627700
H671	H67	0.992200	0.319600	0.585000
H681	H68	0.895400	0.265100	0.664700
H691	H69	0.339500	0.408500	0.817300
H701	H70	0.379100	0.368700	0.660200
Zn81	Zn8	0.318540	0.699980	0.749120
P81	P8	0.655040	0.642130	0.745680
O291	O29	0.523400	0.691370	0.755230
O301	O30	0.661700	0.571090	0.785210
O311	O31	0.645300	0.599780	0.690750
O321	O32	0.789900	0.689860	0.750910
N151	N15	0.235100	0.643240	0.813140
N161	N16	0.222200	0.647070	0.686150
C851	C85	0.319700	0.615000	0.852720
C861	C86	0.265700	0.575100	0.896550
C871	C87	0.116900	0.564610	0.901200
C881	C88	0.030400	0.592000	0.859760
C891	C89	0.091600	0.630800	0.816960
C901	C90	0.055700	0.528080	0.950670
C911	C91	0.249800	0.572400	0.675060
C921	C92	0.188500	0.534000	0.632420
C931	C93	0.095900	0.572520	0.598810
C941	C94	0.063500	0.649900	0.610920
C951	C95	0.128800	0.684800	0.654250
C961	C96	0.039000	0.534980	0.548950
H711	H71	0.326300	0.559200	0.926000
H721	H72	0.920100	0.590600	0.861700
H731	H73	0.035900	0.656600	0.788700
H741	H74	0.420400	0.619200	0.848400
H751	H75	0.321000	0.549100	0.701500
H761	H76	0.192800	0.476700	0.627700
H771	H77	0.007800	0.680400	0.585000
H781	H78	0.104600	0.734900	0.664700
H791	H79	0.660500	0.591500	0.817300
H801	H80	0.620900	0.631300	0.660200
C971	C97	0.390800	0.053300	0.500000
H811	H81	0.326600	0.091400	0.500000
C981	C98	0.609200	0.946700	0.500000
H821	H82	0.673400	0.908600	0.500000
C991	C99	0.109200	0.553300	0.000000
H831	H83	0.173400	0.591400	0.000000
C1001	C100	0.890800	0.446700	0.000000
H841	H84	0.826600	0.408600	0.000000
C1011	C101	0.422400	0.068300	0.000000
H851	H85	0.364200	0.113800	0.000000
C1021	C102	0.577600	0.931700	0.000000
H861	H86	0.635800	0.886200	0.000000
C1031	C103	0.077600	0.568300	0.500000
H871	H87	0.135800	0.613800	0.500000
C1041	C104	0.922400	0.431700	0.500000
H881	H88	0.864200	0.386200	0.500000
