data_NEFZOO_freeONLY_PM
_symmetry_space_group_name_H-M	'P1'
_cell_length_a	11.499200
_cell_length_b	11.499200
_cell_length_c	12.734100
_cell_angle_alpha	90.000000
_cell_angle_beta	90.000000
_cell_angle_gamma	90.000000
_symmetry_Int_Tables_number 1

loop_
_symmetry_equiv_pos_as_xyz
'x,y,z'

loop_
_atom_site_label
_atom_site_type_symbol
_atom_site_fract_x
_atom_site_fract_y
_atom_site_fract_z
N11	N1	0.698700	0.500500	0.821000
N21	N2	0.792800	0.702900	0.911000
N31	N3	0.396600	0.505700	0.085500
C11	C1	0.789900	0.555600	0.780700
H11	H1	0.823800	0.525700	0.720200
C21	C2	0.837400	0.656400	0.824900
H21	H2	0.901300	0.691300	0.793200
C31	C3	0.699000	0.648800	0.952800
C41	C4	0.549000	0.652500	0.090900
C51	C5	0.496300	0.549900	0.043400
C61	C6	0.355300	0.410400	0.043300
H31	H3	0.377700	0.287900	0.929200
N41	N4	0.301300	0.499500	0.321000
N51	N5	0.207200	0.297100	0.411000
N61	N6	0.603400	0.494300	0.585500
C71	C7	0.210100	0.444400	0.280700
H41	H4	0.176200	0.474300	0.220200
C81	C8	0.162600	0.343600	0.324900
H51	H5	0.098700	0.308700	0.293200
C91	C9	0.301000	0.351200	0.452800
C101	C10	0.451000	0.347500	0.590900
C111	C11	0.503700	0.450100	0.543400
C121	C12	0.644700	0.589600	0.543300
H61	H6	0.622300	0.712100	0.429200
N71	N7	0.999500	0.198700	0.571000
N81	N8	0.797100	0.292800	0.661000
N91	N9	0.994300	0.896600	0.835500
C131	C13	0.944400	0.289900	0.530700
H71	H7	0.974300	0.323800	0.470200
C141	C14	0.843600	0.337400	0.574900
H81	H8	0.808700	0.401300	0.543200
C151	C15	0.851200	0.199000	0.702800
C161	C16	0.847500	0.049000	0.840900
C171	C17	0.950100	0.996300	0.793400
C181	C18	0.089600	0.855300	0.793300
H91	H9	0.212100	0.877700	0.679200
N101	N10	0.000500	0.801300	0.071000
N111	N11	0.202900	0.707200	0.161000
N121	N12	0.005700	0.103400	0.335500
C191	C19	0.055600	0.710100	0.030700
H101	H10	0.025700	0.676200	0.970200
C201	C20	0.156400	0.662600	0.074900
H111	H11	0.191300	0.598700	0.043200
C211	C21	0.148800	0.801000	0.202800
C221	C22	0.152500	0.951000	0.340900
C231	C23	0.049900	0.003700	0.293400
C241	C24	0.910400	0.144700	0.293300
H121	H12	0.787900	0.122300	0.179200
N131	N13	0.801300	0.000500	0.929000
N141	N14	0.707200	0.202900	0.839000
N151	N15	0.103400	0.005700	0.664500
C251	C25	0.710100	0.055600	0.969300
H131	H13	0.676200	0.025700	0.029800
C261	C26	0.662600	0.156400	0.925100
H141	H14	0.598700	0.191300	0.956800
C271	C27	0.801000	0.148800	0.797200
C281	C28	0.951000	0.152500	0.659100
C291	C29	0.003700	0.049900	0.706600
C301	C30	0.144700	0.910400	0.706700
H151	H15	0.122300	0.787900	0.820800
N161	N16	0.198700	0.999500	0.429000
N171	N17	0.292800	0.797100	0.339000
N181	N18	0.896600	0.994300	0.164500
C311	C31	0.289900	0.944400	0.469300
H161	H16	0.323800	0.974300	0.529800
C321	C32	0.337400	0.843600	0.425100
H171	H17	0.401300	0.808700	0.456800
C331	C33	0.199000	0.851200	0.297200
C341	C34	0.049000	0.847500	0.159100
C351	C35	0.996300	0.950100	0.206600
C361	C36	0.855300	0.089600	0.206700
H181	H18	0.877700	0.212100	0.320800
N191	N19	0.500500	0.698700	0.179000
N201	N20	0.702900	0.792800	0.089000
N211	N21	0.505700	0.396600	0.914500
C371	C37	0.555600	0.789900	0.219300
H191	H19	0.525700	0.823800	0.279800
C381	C38	0.656400	0.837400	0.175100
H201	H20	0.691300	0.901300	0.206800
C391	C39	0.648800	0.699000	0.047200
C401	C40	0.652500	0.549000	0.909100
C411	C41	0.549900	0.496300	0.956600
C421	C42	0.410400	0.355300	0.956700
H211	H21	0.287900	0.377700	0.070800
N221	N22	0.499500	0.301300	0.679000
N231	N23	0.297100	0.207200	0.589000
N241	N24	0.494300	0.603400	0.414500
C431	C43	0.444400	0.210100	0.719300
H221	H22	0.474300	0.176200	0.779800
C441	C44	0.343600	0.162600	0.675100
H231	H23	0.308700	0.098700	0.706800
C451	C45	0.351200	0.301000	0.547200
C461	C46	0.347500	0.451000	0.409100
C471	C47	0.450100	0.503700	0.456600
C481	C48	0.589600	0.644700	0.456700
H241	H24	0.712100	0.622300	0.570800
Cu11	Cu1	0.647340	0.352660	0.750000
Cu21	Cu2	0.352660	0.647340	0.250000
Cu31	Cu3	0.147340	0.147340	0.500000
Cu41	Cu4	0.852660	0.852660	0.000000
