data_NEHGIS_freeONLY_PM
_symmetry_space_group_name_H-M	'P1'
_cell_length_a	22.515000
_cell_length_b	22.515000
_cell_length_c	22.515000
_cell_angle_alpha	90.000000
_cell_angle_beta	90.000000
_cell_angle_gamma	90.000000
_symmetry_Int_Tables_number 1

loop_
_symmetry_equiv_pos_as_xyz
'x,y,z'

loop_
_atom_site_label
_atom_site_type_symbol
_atom_site_fract_x
_atom_site_fract_y
_atom_site_fract_z
C11	C1	0.674950	0.317920	0.048670
C21	C2	0.667240	0.378960	0.033560
H11	H1	0.670800	0.408000	0.062800
C31	C3	0.654610	0.395200	0.975930
H21	H2	0.650600	0.435100	0.966200
C41	C4	0.647940	0.352660	0.933020
C51	C5	0.654170	0.293380	0.946870
H31	H3	0.649100	0.264600	0.917700
C61	C6	0.668020	0.276970	0.004570
H41	H4	0.672700	0.236900	0.013500
C71	C7	0.695700	0.298600	0.109030
O11	O1	0.705200	0.247600	0.115000
O21	O2	0.698760	0.335150	0.150020
Zn11	Zn1	0.677410	0.237390	0.203810
C81	C8	0.825050	0.682080	0.548670
C91	C9	0.832760	0.621040	0.533560
H51	H5	0.829200	0.592000	0.562800
C101	C10	0.845390	0.604800	0.475930
H61	H6	0.849400	0.564900	0.466200
C111	C11	0.852060	0.647340	0.433020
C121	C12	0.845830	0.706620	0.446870
H71	H7	0.850900	0.735400	0.417700
C131	C13	0.831980	0.723030	0.504570
H81	H8	0.827300	0.763100	0.513500
C141	C14	0.804300	0.701400	0.609030
O31	O3	0.794800	0.752400	0.615000
O41	O4	0.801240	0.664850	0.650020
Zn21	Zn2	0.822590	0.762610	0.703810
C151	C15	0.325050	0.817920	0.451330
C161	C16	0.332760	0.878960	0.466440
H91	H9	0.329200	0.908000	0.437200
C171	C17	0.345390	0.895200	0.524070
H101	H10	0.349400	0.935100	0.533800
C181	C18	0.352060	0.852660	0.566980
C191	C19	0.345830	0.793380	0.553130
H111	H11	0.350900	0.764600	0.582300
C201	C20	0.331980	0.776970	0.495430
H121	H12	0.327300	0.736900	0.486500
C211	C21	0.304300	0.798600	0.390970
O51	O5	0.294800	0.747600	0.385000
O61	O6	0.301240	0.835150	0.349980
Zn31	Zn3	0.322590	0.737390	0.296190
C221	C22	0.174950	0.182080	0.951330
C231	C23	0.167240	0.121040	0.966440
H131	H13	0.170800	0.092000	0.937200
C241	C24	0.154610	0.104800	0.024070
H141	H14	0.150600	0.064900	0.033800
C251	C25	0.147940	0.147340	0.066980
C261	C26	0.154170	0.206620	0.053130
H151	H15	0.149100	0.235400	0.082300
C271	C27	0.168020	0.223030	0.995430
H161	H16	0.172700	0.263100	0.986500
C281	C28	0.195700	0.201400	0.890970
O71	O7	0.205200	0.252400	0.885000
O81	O8	0.198760	0.164850	0.849980
Zn41	Zn4	0.177410	0.262610	0.796190
C291	C29	0.048670	0.674950	0.317920
C301	C30	0.033560	0.667240	0.378960
H171	H17	0.062800	0.670800	0.408000
C311	C31	0.975930	0.654610	0.395200
H181	H18	0.966200	0.650600	0.435100
C321	C32	0.933020	0.647940	0.352660
C331	C33	0.946870	0.654170	0.293380
H191	H19	0.917700	0.649100	0.264600
C341	C34	0.004570	0.668020	0.276970
H201	H20	0.013500	0.672700	0.236900
C351	C35	0.109030	0.695700	0.298600
O91	O9	0.115000	0.705200	0.247600
O101	O10	0.150020	0.698760	0.335150
Zn51	Zn5	0.203810	0.677410	0.237390
C361	C36	0.548670	0.825050	0.682080
C371	C37	0.533560	0.832760	0.621040
H211	H21	0.562800	0.829200	0.592000
C381	C38	0.475930	0.845390	0.604800
H221	H22	0.466200	0.849400	0.564900
C391	C39	0.433020	0.852060	0.647340
C401	C40	0.446870	0.845830	0.706620
H231	H23	0.417700	0.850900	0.735400
C411	C41	0.504570	0.831980	0.723030
H241	H24	0.513500	0.827300	0.763100
C421	C42	0.609030	0.804300	0.701400
O111	O11	0.615000	0.794800	0.752400
O121	O12	0.650020	0.801240	0.664850
Zn61	Zn6	0.703810	0.822590	0.762610
C431	C43	0.451330	0.325050	0.817920
C441	C44	0.466440	0.332760	0.878960
H251	H25	0.437200	0.329200	0.908000
C451	C45	0.524070	0.345390	0.895200
H261	H26	0.533800	0.349400	0.935100
C461	C46	0.566980	0.352060	0.852660
C471	C47	0.553130	0.345830	0.793380
H271	H27	0.582300	0.350900	0.764600
C481	C48	0.495430	0.331980	0.776970
H281	H28	0.486500	0.327300	0.736900
C491	C49	0.390970	0.304300	0.798600
O131	O13	0.385000	0.294800	0.747600
O141	O14	0.349980	0.301240	0.835150
Zn71	Zn7	0.296190	0.322590	0.737390
C501	C50	0.951330	0.174950	0.182080
C511	C51	0.966440	0.167240	0.121040
H291	H29	0.937200	0.170800	0.092000
C521	C52	0.024070	0.154610	0.104800
H301	H30	0.033800	0.150600	0.064900
C531	C53	0.066980	0.147940	0.147340
C541	C54	0.053130	0.154170	0.206620
H311	H31	0.082300	0.149100	0.235400
C551	C55	0.995430	0.168020	0.223030
H321	H32	0.986500	0.172700	0.263100
C561	C56	0.890970	0.195700	0.201400
O151	O15	0.885000	0.205200	0.252400
O161	O16	0.849980	0.198760	0.164850
Zn81	Zn8	0.796190	0.177410	0.262610
C571	C57	0.317920	0.048670	0.674950
C581	C58	0.378960	0.033560	0.667240
H331	H33	0.408000	0.062800	0.670800
C591	C59	0.395200	0.975930	0.654610
H341	H34	0.435100	0.966200	0.650600
C601	C60	0.352660	0.933020	0.647940
C611	C61	0.293380	0.946870	0.654170
H351	H35	0.264600	0.917700	0.649100
C621	C62	0.276970	0.004570	0.668020
H361	H36	0.236900	0.013500	0.672700
C631	C63	0.298600	0.109030	0.695700
O171	O17	0.247600	0.115000	0.705200
O181	O18	0.335150	0.150020	0.698760
Zn91	Zn9	0.237390	0.203810	0.677410
C641	C64	0.682080	0.548670	0.825050
C651	C65	0.621040	0.533560	0.832760
H371	H37	0.592000	0.562800	0.829200
C661	C66	0.604800	0.475930	0.845390
H381	H38	0.564900	0.466200	0.849400
C671	C67	0.647340	0.433020	0.852060
C681	C68	0.706620	0.446870	0.845830
H391	H39	0.735400	0.417700	0.850900
C691	C69	0.723030	0.504570	0.831980
H401	H40	0.763100	0.513500	0.827300
C701	C70	0.701400	0.609030	0.804300
O191	O19	0.752400	0.615000	0.794800
O201	O20	0.664850	0.650020	0.801240
Zn101	Zn10	0.762610	0.703810	0.822590
C711	C71	0.817920	0.451330	0.325050
C721	C72	0.878960	0.466440	0.332760
H411	H41	0.908000	0.437200	0.329200
C731	C73	0.895200	0.524070	0.345390
H421	H42	0.935100	0.533800	0.349400
C741	C74	0.852660	0.566980	0.352060
C751	C75	0.793380	0.553130	0.345830
H431	H43	0.764600	0.582300	0.350900
C761	C76	0.776970	0.495430	0.331980
H441	H44	0.736900	0.486500	0.327300
C771	C77	0.798600	0.390970	0.304300
O211	O21	0.747600	0.385000	0.294800
O221	O22	0.835150	0.349980	0.301240
Zn111	Zn11	0.737390	0.296190	0.322590
C781	C78	0.182080	0.951330	0.174950
C791	C79	0.121040	0.966440	0.167240
H451	H45	0.092000	0.937200	0.170800
C801	C80	0.104800	0.024070	0.154610
H461	H46	0.064900	0.033800	0.150600
C811	C81	0.147340	0.066980	0.147940
C821	C82	0.206620	0.053130	0.154170
H471	H47	0.235400	0.082300	0.149100
C831	C83	0.223030	0.995430	0.168020
H481	H48	0.263100	0.986500	0.172700
C841	C84	0.201400	0.890970	0.195700
O231	O23	0.252400	0.885000	0.205200
O241	O24	0.164850	0.849980	0.198760
Zn121	Zn12	0.262610	0.796190	0.177410
C851	C85	0.825050	0.182080	0.451330
C861	C86	0.832760	0.121040	0.466440
H491	H49	0.829200	0.092000	0.437200
C871	C87	0.845390	0.104800	0.524070
H501	H50	0.849400	0.064900	0.533800
C881	C88	0.852060	0.147340	0.566980
C891	C89	0.845830	0.206620	0.553130
H511	H51	0.850900	0.235400	0.582300
C901	C90	0.831980	0.223030	0.495430
H521	H52	0.827300	0.263100	0.486500
C911	C91	0.804300	0.201400	0.390970
O251	O25	0.794800	0.252400	0.385000
O261	O26	0.801240	0.164850	0.349980
Zn131	Zn13	0.822590	0.262610	0.296190
C921	C92	0.674950	0.817920	0.951330
C931	C93	0.667240	0.878960	0.966440
H531	H53	0.670800	0.908000	0.937200
C941	C94	0.654610	0.895200	0.024070
H541	H54	0.650600	0.935100	0.033800
C951	C95	0.647940	0.852660	0.066980
C961	C96	0.654170	0.793380	0.053130
H551	H55	0.649100	0.764600	0.082300
C971	C97	0.668020	0.776970	0.995430
H561	H56	0.672700	0.736900	0.986500
C981	C98	0.695700	0.798600	0.890970
O271	O27	0.705200	0.747600	0.885000
O281	O28	0.698760	0.835150	0.849980
Zn141	Zn14	0.677410	0.737390	0.796190
C991	C99	0.174950	0.682080	0.048670
C1001	C100	0.167240	0.621040	0.033560
H571	H57	0.170800	0.592000	0.062800
C1011	C101	0.154610	0.604800	0.975930
H581	H58	0.150600	0.564900	0.966200
C1021	C102	0.147940	0.647340	0.933020
C1031	C103	0.154170	0.706620	0.946870
H591	H59	0.149100	0.735400	0.917700
C1041	C104	0.168020	0.723030	0.004570
H601	H60	0.172700	0.763100	0.013500
C1051	C105	0.195700	0.701400	0.109030
O291	O29	0.205200	0.752400	0.115000
O301	O30	0.198760	0.664850	0.150020
Zn151	Zn15	0.177410	0.762610	0.203810
C1061	C106	0.325050	0.317920	0.548670
C1071	C107	0.332760	0.378960	0.533560
H611	H61	0.329200	0.408000	0.562800
C1081	C108	0.345390	0.395200	0.475930
H621	H62	0.349400	0.435100	0.466200
C1091	C109	0.352060	0.352660	0.433020
C1101	C110	0.345830	0.293380	0.446870
H631	H63	0.350900	0.264600	0.417700
C1111	C111	0.331980	0.276970	0.504570
H641	H64	0.327300	0.236900	0.513500
C1121	C112	0.304300	0.298600	0.609030
O311	O31	0.294800	0.247600	0.615000
O321	O32	0.301240	0.335150	0.650020
Zn161	Zn16	0.322590	0.237390	0.703810
C1131	C113	0.451330	0.825050	0.182080
C1141	C114	0.466440	0.832760	0.121040
H651	H65	0.437200	0.829200	0.092000
C1151	C115	0.524070	0.845390	0.104800
H661	H66	0.533800	0.849400	0.064900
C1161	C116	0.566980	0.852060	0.147340
C1171	C117	0.553130	0.845830	0.206620
H671	H67	0.582300	0.850900	0.235400
C1181	C118	0.495430	0.831980	0.223030
H681	H68	0.486500	0.827300	0.263100
C1191	C119	0.390970	0.804300	0.201400
O331	O33	0.385000	0.794800	0.252400
O341	O34	0.349980	0.801240	0.164850
Zn171	Zn17	0.296190	0.822590	0.262610
C1201	C120	0.951330	0.674950	0.817920
C1211	C121	0.966440	0.667240	0.878960
H691	H69	0.937200	0.670800	0.908000
C1221	C122	0.024070	0.654610	0.895200
H701	H70	0.033800	0.650600	0.935100
C1231	C123	0.066980	0.647940	0.852660
C1241	C124	0.053130	0.654170	0.793380
H711	H71	0.082300	0.649100	0.764600
C1251	C125	0.995430	0.668020	0.776970
H721	H72	0.986500	0.672700	0.736900
C1261	C126	0.890970	0.695700	0.798600
O351	O35	0.885000	0.705200	0.747600
O361	O36	0.849980	0.698760	0.835150
Zn181	Zn18	0.796190	0.677410	0.737390
C1271	C127	0.048670	0.174950	0.682080
C1281	C128	0.033560	0.167240	0.621040
H731	H73	0.062800	0.170800	0.592000
C1291	C129	0.975930	0.154610	0.604800
H741	H74	0.966200	0.150600	0.564900
C1301	C130	0.933020	0.147940	0.647340
C1311	C131	0.946870	0.154170	0.706620
H751	H75	0.917700	0.149100	0.735400
C1321	C132	0.004570	0.168020	0.723030
H761	H76	0.013500	0.172700	0.763100
C1331	C133	0.109030	0.195700	0.701400
O371	O37	0.115000	0.205200	0.752400
O381	O38	0.150020	0.198760	0.664850
Zn191	Zn19	0.203810	0.177410	0.762610
C1341	C134	0.548670	0.325050	0.317920
C1351	C135	0.533560	0.332760	0.378960
H771	H77	0.562800	0.329200	0.408000
C1361	C136	0.475930	0.345390	0.395200
H781	H78	0.466200	0.349400	0.435100
C1371	C137	0.433020	0.352060	0.352660
C1381	C138	0.446870	0.345830	0.293380
H791	H79	0.417700	0.350900	0.264600
C1391	C139	0.504570	0.331980	0.276970
H801	H80	0.513500	0.327300	0.236900
C1401	C140	0.609030	0.304300	0.298600
O391	O39	0.615000	0.294800	0.247600
O401	O40	0.650020	0.301240	0.335150
Zn201	Zn20	0.703810	0.322590	0.237390
C1411	C141	0.182080	0.451330	0.825050
C1421	C142	0.121040	0.466440	0.832760
H811	H81	0.092000	0.437200	0.829200
C1431	C143	0.104800	0.524070	0.845390
H821	H82	0.064900	0.533800	0.849400
C1441	C144	0.147340	0.566980	0.852060
C1451	C145	0.206620	0.553130	0.845830
H831	H83	0.235400	0.582300	0.850900
C1461	C146	0.223030	0.495430	0.831980
H841	H84	0.263100	0.486500	0.827300
C1471	C147	0.201400	0.390970	0.804300
O411	O41	0.252400	0.385000	0.794800
O421	O42	0.164850	0.349980	0.801240
Zn211	Zn21	0.262610	0.296190	0.822590
C1481	C148	0.817920	0.951330	0.674950
C1491	C149	0.878960	0.966440	0.667240
H851	H85	0.908000	0.937200	0.670800
C1501	C150	0.895200	0.024070	0.654610
H861	H86	0.935100	0.033800	0.650600
C1511	C151	0.852660	0.066980	0.647940
C1521	C152	0.793380	0.053130	0.654170
H871	H87	0.764600	0.082300	0.649100
C1531	C153	0.776970	0.995430	0.668020
H881	H88	0.736900	0.986500	0.672700
C1541	C154	0.798600	0.890970	0.695700
O431	O43	0.747600	0.885000	0.705200
O441	O44	0.835150	0.849980	0.698760
Zn221	Zn22	0.737390	0.796190	0.677410
C1551	C155	0.682080	0.048670	0.174950
C1561	C156	0.621040	0.033560	0.167240
H891	H89	0.592000	0.062800	0.170800
C1571	C157	0.604800	0.975930	0.154610
H901	H90	0.564900	0.966200	0.150600
C1581	C158	0.647340	0.933020	0.147940
C1591	C159	0.706620	0.946870	0.154170
H911	H91	0.735400	0.917700	0.149100
C1601	C160	0.723030	0.004570	0.168020
H921	H92	0.763100	0.013500	0.172700
C1611	C161	0.701400	0.109030	0.195700
O451	O45	0.752400	0.115000	0.205200
O461	O46	0.664850	0.150020	0.198760
Zn231	Zn23	0.762610	0.203810	0.177410
C1621	C162	0.317920	0.548670	0.325050
C1631	C163	0.378960	0.533560	0.332760
H931	H93	0.408000	0.562800	0.329200
C1641	C164	0.395200	0.475930	0.345390
H941	H94	0.435100	0.466200	0.349400
C1651	C165	0.352660	0.433020	0.352060
C1661	C166	0.293380	0.446870	0.345830
H951	H95	0.264600	0.417700	0.350900
C1671	C167	0.276970	0.504570	0.331980
H961	H96	0.236900	0.513500	0.327300
C1681	C168	0.298600	0.609030	0.304300
O471	O47	0.247600	0.615000	0.294800
O481	O48	0.335150	0.650020	0.301240
Zn241	Zn24	0.237390	0.703810	0.322590
C1691	C169	0.635460	0.364540	0.864540
H971	H97	0.660600	0.339400	0.839400
C1701	C170	0.864540	0.635460	0.364540
H981	H98	0.839400	0.660600	0.339400
C1711	C171	0.364540	0.864540	0.635460
H991	H99	0.339400	0.839400	0.660600
C1721	C172	0.135460	0.135460	0.135460
H1001	H100	0.160600	0.160600	0.160600
C1731	C173	0.864540	0.135460	0.635460
H1011	H101	0.839400	0.160600	0.660600
C1741	C174	0.635460	0.864540	0.135460
H1021	H102	0.660600	0.839400	0.160600
C1751	C175	0.135460	0.635460	0.864540
H1031	H103	0.160600	0.660600	0.839400
C1761	C176	0.364540	0.364540	0.364540
H1041	H104	0.339400	0.339400	0.339400
O491	O49	0.750000	0.250000	0.250000
O501	O50	0.750000	0.750000	0.750000
O511	O51	0.250000	0.750000	0.250000
O521	O52	0.250000	0.250000	0.750000
C1771	C177	0.174950	0.817920	0.548670
C1781	C178	0.167240	0.878960	0.533560
H1051	H105	0.170800	0.908000	0.562800
C1791	C179	0.154610	0.895200	0.475930
H1061	H106	0.150600	0.935100	0.466200
C1801	C180	0.147940	0.852660	0.433020
C1811	C181	0.154170	0.793380	0.446870
H1071	H107	0.149100	0.764600	0.417700
C1821	C182	0.168020	0.776970	0.504570
H1081	H108	0.172700	0.736900	0.513500
C1831	C183	0.195700	0.798600	0.609030
O531	O53	0.205200	0.747600	0.615000
O541	O54	0.198760	0.835150	0.650020
Zn251	Zn25	0.177410	0.737390	0.703810
C1841	C184	0.325050	0.182080	0.048670
C1851	C185	0.332760	0.121040	0.033560
H1091	H109	0.329200	0.092000	0.062800
C1861	C186	0.345390	0.104800	0.975930
H1101	H110	0.349400	0.064900	0.966200
C1871	C187	0.352060	0.147340	0.933020
C1881	C188	0.345830	0.206620	0.946870
H1111	H111	0.350900	0.235400	0.917700
C1891	C189	0.331980	0.223030	0.004570
H1121	H112	0.327300	0.263100	0.013500
C1901	C190	0.304300	0.201400	0.109030
O551	O55	0.294800	0.252400	0.115000
O561	O56	0.301240	0.164850	0.150020
Zn261	Zn26	0.322590	0.262610	0.203810
C1911	C191	0.825050	0.317920	0.951330
C1921	C192	0.832760	0.378960	0.966440
H1131	H113	0.829200	0.408000	0.937200
C1931	C193	0.845390	0.395200	0.024070
H1141	H114	0.849400	0.435100	0.033800
C1941	C194	0.852060	0.352660	0.066980
C1951	C195	0.845830	0.293380	0.053130
H1151	H115	0.850900	0.264600	0.082300
C1961	C196	0.831980	0.276970	0.995430
H1161	H116	0.827300	0.236900	0.986500
C1971	C197	0.804300	0.298600	0.890970
O571	O57	0.794800	0.247600	0.885000
O581	O58	0.801240	0.335150	0.849980
Zn271	Zn27	0.822590	0.237390	0.796190
C1981	C198	0.674950	0.682080	0.451330
C1991	C199	0.667240	0.621040	0.466440
H1171	H117	0.670800	0.592000	0.437200
C2001	C200	0.654610	0.604800	0.524070
H1181	H118	0.650600	0.564900	0.533800
C2011	C201	0.647940	0.647340	0.566980
C2021	C202	0.654170	0.706620	0.553130
H1191	H119	0.649100	0.735400	0.582300
C2031	C203	0.668020	0.723030	0.495430
H1201	H120	0.672700	0.763100	0.486500
C2041	C204	0.695700	0.701400	0.390970
O591	O59	0.705200	0.752400	0.385000
O601	O60	0.698760	0.664850	0.349980
Zn281	Zn28	0.677410	0.762610	0.296190
C2051	C205	0.548670	0.174950	0.817920
C2061	C206	0.533560	0.167240	0.878960
H1211	H121	0.562800	0.170800	0.908000
C2071	C207	0.475930	0.154610	0.895200
H1221	H122	0.466200	0.150600	0.935100
C2081	C208	0.433020	0.147940	0.852660
C2091	C209	0.446870	0.154170	0.793380
H1231	H123	0.417700	0.149100	0.764600
C2101	C210	0.504570	0.168020	0.776970
H1241	H124	0.513500	0.172700	0.736900
C2111	C211	0.609030	0.195700	0.798600
O611	O61	0.615000	0.205200	0.747600
O621	O62	0.650020	0.198760	0.835150
Zn291	Zn29	0.703810	0.177410	0.737390
C2121	C212	0.048670	0.325050	0.182080
C2131	C213	0.033560	0.332760	0.121040
H1251	H125	0.062800	0.329200	0.092000
C2141	C214	0.975930	0.345390	0.104800
H1261	H126	0.966200	0.349400	0.064900
C2151	C215	0.933020	0.352060	0.147340
C2161	C216	0.946870	0.345830	0.206620
H1271	H127	0.917700	0.350900	0.235400
C2171	C217	0.004570	0.331980	0.223030
H1281	H128	0.013500	0.327300	0.263100
C2181	C218	0.109030	0.304300	0.201400
O631	O63	0.115000	0.294800	0.252400
O641	O64	0.150020	0.301240	0.164850
Zn301	Zn30	0.203810	0.322590	0.262610
C2191	C219	0.951330	0.825050	0.317920
C2201	C220	0.966440	0.832760	0.378960
H1291	H129	0.937200	0.829200	0.408000
C2211	C221	0.024070	0.845390	0.395200
H1301	H130	0.033800	0.849400	0.435100
C2221	C222	0.066980	0.852060	0.352660
C2231	C223	0.053130	0.845830	0.293380
H1311	H131	0.082300	0.850900	0.264600
C2241	C224	0.995430	0.831980	0.276970
H1321	H132	0.986500	0.827300	0.236900
C2251	C225	0.890970	0.804300	0.298600
O651	O65	0.885000	0.794800	0.247600
O661	O66	0.849980	0.801240	0.335150
Zn311	Zn31	0.796190	0.822590	0.237390
C2261	C226	0.451330	0.674950	0.682080
C2271	C227	0.466440	0.667240	0.621040
H1331	H133	0.437200	0.670800	0.592000
C2281	C228	0.524070	0.654610	0.604800
H1341	H134	0.533800	0.650600	0.564900
C2291	C229	0.566980	0.647940	0.647340
C2301	C230	0.553130	0.654170	0.706620
H1351	H135	0.582300	0.649100	0.735400
C2311	C231	0.495430	0.668020	0.723030
H1361	H136	0.486500	0.672700	0.763100
C2321	C232	0.390970	0.695700	0.701400
O671	O67	0.385000	0.705200	0.752400
O681	O68	0.349980	0.698760	0.664850
Zn321	Zn32	0.296190	0.677410	0.762610
C2331	C233	0.817920	0.548670	0.174950
C2341	C234	0.878960	0.533560	0.167240
H1371	H137	0.908000	0.562800	0.170800
C2351	C235	0.895200	0.475930	0.154610
H1381	H138	0.935100	0.466200	0.150600
C2361	C236	0.852660	0.433020	0.147940
C2371	C237	0.793380	0.446870	0.154170
H1391	H139	0.764600	0.417700	0.149100
C2381	C238	0.776970	0.504570	0.168020
H1401	H140	0.736900	0.513500	0.172700
C2391	C239	0.798600	0.609030	0.195700
O691	O69	0.747600	0.615000	0.205200
O701	O70	0.835150	0.650020	0.198760
Zn331	Zn33	0.737390	0.703810	0.177410
C2401	C240	0.182080	0.048670	0.325050
C2411	C241	0.121040	0.033560	0.332760
H1411	H141	0.092000	0.062800	0.329200
C2421	C242	0.104800	0.975930	0.345390
H1421	H142	0.064900	0.966200	0.349400
C2431	C243	0.147340	0.933020	0.352060
C2441	C244	0.206620	0.946870	0.345830
H1431	H143	0.235400	0.917700	0.350900
C2451	C245	0.223030	0.004570	0.331980
H1441	H144	0.263100	0.013500	0.327300
C2461	C246	0.201400	0.109030	0.304300
O711	O71	0.252400	0.115000	0.294800
O721	O72	0.164850	0.150020	0.301240
Zn341	Zn34	0.262610	0.203810	0.322590
C2471	C247	0.317920	0.951330	0.825050
C2481	C248	0.378960	0.966440	0.832760
H1451	H145	0.408000	0.937200	0.829200
C2491	C249	0.395200	0.024070	0.845390
H1461	H146	0.435100	0.033800	0.849400
C2501	C250	0.352660	0.066980	0.852060
C2511	C251	0.293380	0.053130	0.845830
H1471	H147	0.264600	0.082300	0.850900
C2521	C252	0.276970	0.995430	0.831980
H1481	H148	0.236900	0.986500	0.827300
C2531	C253	0.298600	0.890970	0.804300
O731	O73	0.247600	0.885000	0.794800
O741	O74	0.335150	0.849980	0.801240
Zn351	Zn35	0.237390	0.796190	0.822590
C2541	C254	0.682080	0.451330	0.674950
C2551	C255	0.621040	0.466440	0.667240
H1491	H149	0.592000	0.437200	0.670800
C2561	C256	0.604800	0.524070	0.654610
H1501	H150	0.564900	0.533800	0.650600
C2571	C257	0.647340	0.566980	0.647940
C2581	C258	0.706620	0.553130	0.654170
H1511	H151	0.735400	0.582300	0.649100
C2591	C259	0.723030	0.495430	0.668020
H1521	H152	0.763100	0.486500	0.672700
C2601	C260	0.701400	0.390970	0.695700
O751	O75	0.752400	0.385000	0.705200
O761	O76	0.664850	0.349980	0.698760
Zn361	Zn36	0.762610	0.296190	0.677410
C2611	C261	0.325050	0.682080	0.951330
C2621	C262	0.332760	0.621040	0.966440
H1531	H153	0.329200	0.592000	0.937200
C2631	C263	0.345390	0.604800	0.024070
H1541	H154	0.349400	0.564900	0.033800
C2641	C264	0.352060	0.647340	0.066980
C2651	C265	0.345830	0.706620	0.053130
H1551	H155	0.350900	0.735400	0.082300
C2661	C266	0.331980	0.723030	0.995430
H1561	H156	0.327300	0.763100	0.986500
C2671	C267	0.304300	0.701400	0.890970
O771	O77	0.294800	0.752400	0.885000
O781	O78	0.301240	0.664850	0.849980
Zn371	Zn37	0.322590	0.762610	0.796190
C2681	C268	0.174950	0.317920	0.451330
C2691	C269	0.167240	0.378960	0.466440
H1571	H157	0.170800	0.408000	0.437200
C2701	C270	0.154610	0.395200	0.524070
H1581	H158	0.150600	0.435100	0.533800
C2711	C271	0.147940	0.352660	0.566980
C2721	C272	0.154170	0.293380	0.553130
H1591	H159	0.149100	0.264600	0.582300
C2731	C273	0.168020	0.276970	0.495430
H1601	H160	0.172700	0.236900	0.486500
C2741	C274	0.195700	0.298600	0.390970
O791	O79	0.205200	0.247600	0.385000
O801	O80	0.198760	0.335150	0.349980
Zn381	Zn38	0.177410	0.237390	0.296190
C2751	C275	0.674950	0.182080	0.548670
C2761	C276	0.667240	0.121040	0.533560
H1611	H161	0.670800	0.092000	0.562800
C2771	C277	0.654610	0.104800	0.475930
H1621	H162	0.650600	0.064900	0.466200
C2781	C278	0.647940	0.147340	0.433020
C2791	C279	0.654170	0.206620	0.446870
H1631	H163	0.649100	0.235400	0.417700
C2801	C280	0.668020	0.223030	0.504570
H1641	H164	0.672700	0.263100	0.513500
C2811	C281	0.695700	0.201400	0.609030
O811	O81	0.705200	0.252400	0.615000
O821	O82	0.698760	0.164850	0.650020
Zn391	Zn39	0.677410	0.262610	0.703810
C2821	C282	0.825050	0.817920	0.048670
C2831	C283	0.832760	0.878960	0.033560
H1651	H165	0.829200	0.908000	0.062800
C2841	C284	0.845390	0.895200	0.975930
H1661	H166	0.849400	0.935100	0.966200
C2851	C285	0.852060	0.852660	0.933020
C2861	C286	0.845830	0.793380	0.946870
H1671	H167	0.850900	0.764600	0.917700
C2871	C287	0.831980	0.776970	0.004570
H1681	H168	0.827300	0.736900	0.013500
C2881	C288	0.804300	0.798600	0.109030
O831	O83	0.794800	0.747600	0.115000
O841	O84	0.801240	0.835150	0.150020
Zn401	Zn40	0.822590	0.737390	0.203810
C2891	C289	0.951330	0.325050	0.682080
C2901	C290	0.966440	0.332760	0.621040
H1691	H169	0.937200	0.329200	0.592000
C2911	C291	0.024070	0.345390	0.604800
H1701	H170	0.033800	0.349400	0.564900
C2921	C292	0.066980	0.352060	0.647340
C2931	C293	0.053130	0.345830	0.706620
H1711	H171	0.082300	0.350900	0.735400
C2941	C294	0.995430	0.331980	0.723030
H1721	H172	0.986500	0.327300	0.763100
C2951	C295	0.890970	0.304300	0.701400
O851	O85	0.885000	0.294800	0.752400
O861	O86	0.849980	0.301240	0.664850
Zn411	Zn41	0.796190	0.322590	0.762610
C2961	C296	0.451330	0.174950	0.317920
C2971	C297	0.466440	0.167240	0.378960
H1731	H173	0.437200	0.170800	0.408000
C2981	C298	0.524070	0.154610	0.395200
H1741	H174	0.533800	0.150600	0.435100
C2991	C299	0.566980	0.147940	0.352660
C3001	C300	0.553130	0.154170	0.293380
H1751	H175	0.582300	0.149100	0.264600
C3011	C301	0.495430	0.168020	0.276970
H1761	H176	0.486500	0.172700	0.236900
C3021	C302	0.390970	0.195700	0.298600
O871	O87	0.385000	0.205200	0.247600
O881	O88	0.349980	0.198760	0.335150
Zn421	Zn42	0.296190	0.177410	0.237390
C3031	C303	0.548670	0.674950	0.182080
C3041	C304	0.533560	0.667240	0.121040
H1771	H177	0.562800	0.670800	0.092000
C3051	C305	0.475930	0.654610	0.104800
H1781	H178	0.466200	0.650600	0.064900
C3061	C306	0.433020	0.647940	0.147340
C3071	C307	0.446870	0.654170	0.206620
H1791	H179	0.417700	0.649100	0.235400
C3081	C308	0.504570	0.668020	0.223030
H1801	H180	0.513500	0.672700	0.263100
C3091	C309	0.609030	0.695700	0.201400
O891	O89	0.615000	0.705200	0.252400
O901	O90	0.650020	0.698760	0.164850
Zn431	Zn43	0.703810	0.677410	0.262610
C3101	C310	0.048670	0.825050	0.817920
C3111	C311	0.033560	0.832760	0.878960
H1811	H181	0.062800	0.829200	0.908000
C3121	C312	0.975930	0.845390	0.895200
H1821	H182	0.966200	0.849400	0.935100
C3131	C313	0.933020	0.852060	0.852660
C3141	C314	0.946870	0.845830	0.793380
H1831	H183	0.917700	0.850900	0.764600
C3151	C315	0.004570	0.831980	0.776970
H1841	H184	0.013500	0.827300	0.736900
C3161	C316	0.109030	0.804300	0.798600
O911	O91	0.115000	0.794800	0.747600
O921	O92	0.150020	0.801240	0.835150
Zn441	Zn44	0.203810	0.822590	0.737390
C3171	C317	0.682080	0.951330	0.325050
C3181	C318	0.621040	0.966440	0.332760
H1851	H185	0.592000	0.937200	0.329200
C3191	C319	0.604800	0.024070	0.345390
H1861	H186	0.564900	0.033800	0.349400
C3201	C320	0.647340	0.066980	0.352060
C3211	C321	0.706620	0.053130	0.345830
H1871	H187	0.735400	0.082300	0.350900
C3221	C322	0.723030	0.995430	0.331980
H1881	H188	0.763100	0.986500	0.327300
C3231	C323	0.701400	0.890970	0.304300
O931	O93	0.752400	0.885000	0.294800
O941	O94	0.664850	0.849980	0.301240
Zn451	Zn45	0.762610	0.796190	0.322590
C3241	C324	0.317920	0.451330	0.174950
C3251	C325	0.378960	0.466440	0.167240
H1891	H189	0.408000	0.437200	0.170800
C3261	C326	0.395200	0.524070	0.154610
H1901	H190	0.435100	0.533800	0.150600
C3271	C327	0.352660	0.566980	0.147940
C3281	C328	0.293380	0.553130	0.154170
H1911	H191	0.264600	0.582300	0.149100
C3291	C329	0.276970	0.495430	0.168020
H1921	H192	0.236900	0.486500	0.172700
C3301	C330	0.298600	0.390970	0.195700
O951	O95	0.247600	0.385000	0.205200
O961	O96	0.335150	0.349980	0.198760
Zn461	Zn46	0.237390	0.296190	0.177410
C3311	C331	0.182080	0.548670	0.674950
C3321	C332	0.121040	0.533560	0.667240
H1931	H193	0.092000	0.562800	0.670800
C3331	C333	0.104800	0.475930	0.654610
H1941	H194	0.064900	0.466200	0.650600
C3341	C334	0.147340	0.433020	0.647940
C3351	C335	0.206620	0.446870	0.654170
H1951	H195	0.235400	0.417700	0.649100
C3361	C336	0.223030	0.504570	0.668020
H1961	H196	0.263100	0.513500	0.672700
C3371	C337	0.201400	0.609030	0.695700
O971	O97	0.252400	0.615000	0.705200
O981	O98	0.164850	0.650020	0.698760
Zn471	Zn47	0.262610	0.703810	0.677410
C3381	C338	0.817920	0.048670	0.825050
C3391	C339	0.878960	0.033560	0.832760
H1971	H197	0.908000	0.062800	0.829200
C3401	C340	0.895200	0.975930	0.845390
H1981	H198	0.935100	0.966200	0.849400
C3411	C341	0.852660	0.933020	0.852060
C3421	C342	0.793380	0.946870	0.845830
H1991	H199	0.764600	0.917700	0.850900
C3431	C343	0.776970	0.004570	0.831980
H2001	H200	0.736900	0.013500	0.827300
C3441	C344	0.798600	0.109030	0.804300
O991	O99	0.747600	0.115000	0.794800
O1001	O100	0.835150	0.150020	0.801240
Zn481	Zn48	0.737390	0.203810	0.822590
C3451	C345	0.135460	0.864540	0.364540
H2011	H201	0.160600	0.839400	0.339400
C3461	C346	0.364540	0.135460	0.864540
H2021	H202	0.339400	0.160600	0.839400
C3471	C347	0.864540	0.364540	0.135460
H2031	H203	0.839400	0.339400	0.160600
C3481	C348	0.635460	0.635460	0.635460
H2041	H204	0.660600	0.660600	0.660600
C3491	C349	0.364540	0.635460	0.135460
H2051	H205	0.339400	0.660600	0.160600
C3501	C350	0.135460	0.364540	0.635460
H2061	H206	0.160600	0.339400	0.660600
C3511	C351	0.635460	0.135460	0.364540
H2071	H207	0.660600	0.160600	0.339400
C3521	C352	0.864540	0.864540	0.864540
H2081	H208	0.839400	0.839400	0.839400
O1011	O101	0.250000	0.250000	0.250000
O1021	O102	0.250000	0.750000	0.750000
O1031	O103	0.750000	0.250000	0.750000
O1041	O104	0.750000	0.750000	0.250000
