data_NEJRUR_freeONLY_PM
_symmetry_space_group_name_H-M	'P1'
_cell_length_a	10.811100
_cell_length_b	10.847500
_cell_length_c	14.021000
_cell_angle_alpha	87.531000
_cell_angle_beta	89.039000
_cell_angle_gamma	85.997000
_symmetry_Int_Tables_number 1

loop_
_symmetry_equiv_pos_as_xyz
'x,y,z'

loop_
_atom_site_label
_atom_site_type_symbol
_atom_site_fract_x
_atom_site_fract_y
_atom_site_fract_z
Cu11	Cu1	0.775710	0.652110	0.386260
Cu21	Cu2	0.779080	0.663220	0.197380
H11	H1	0.769300	0.254800	0.434400
H21	H2	0.764500	0.043000	0.432900
H31	H3	0.784500	0.058700	0.147300
H41	H4	0.788700	0.271800	0.147900
H51	H5	0.381700	0.639800	0.435700
H61	H6	0.168100	0.633400	0.435400
H71	H7	0.173300	0.675300	0.147700
H81	H8	0.386100	0.681000	0.148700
H91	H9	0.595400	0.662600	0.558900
H101	H10	0.590900	0.669900	0.722200
H111	H11	0.962700	0.660500	0.714800
H121	H12	0.955900	0.655400	0.553000
H131	H13	0.947200	0.588900	0.027800
H141	H14	0.951600	0.584500	0.864500
H151	H15	0.612500	0.759900	0.864200
H161	H16	0.617100	0.754700	0.027400
C11	C1	0.780100	0.424200	0.292600
C21	C2	0.543400	0.663300	0.292490
C31	C3	0.772100	0.891100	0.289600
C41	C4	0.011100	0.651700	0.291010
C51	C5	0.776400	0.285900	0.291600
C61	C6	0.771200	0.215700	0.375800
C71	C7	0.768800	0.089300	0.374900
C81	C8	0.772400	0.029800	0.290100
C91	C9	0.780500	0.098600	0.205600
C101	C10	0.782800	0.225700	0.205900
C111	C11	0.405500	0.661400	0.292060
C121	C12	0.339300	0.647100	0.377500
C131	C13	0.212200	0.643500	0.377600
C141	C14	0.148900	0.655100	0.290890
C151	C15	0.215300	0.668500	0.206000
C161	C16	0.342100	0.671700	0.206600
C171	C17	0.670900	0.662200	0.591200
C181	C18	0.667400	0.666300	0.689200
C191	C19	0.776900	0.665200	0.739130
C201	C20	0.885600	0.661000	0.684700
C211	C21	0.880900	0.657800	0.587900
C221	C22	0.877000	0.621400	0.994000
C231	C23	0.880800	0.618500	0.896200
C241	C24	0.777700	0.667000	0.844500
C251	C25	0.681400	0.721000	0.896000
C261	C26	0.685400	0.718400	0.993900
N11	N1	0.775600	0.657800	0.540010
N21	N2	0.780000	0.667400	0.043800
O11	O1	0.782200	0.471370	0.371880
O21	O2	0.780500	0.481620	0.213190
O31	O3	0.595850	0.655900	0.372400
O41	O4	0.598670	0.671100	0.213060
O51	O5	0.768100	0.834140	0.368590
O61	O6	0.775300	0.843100	0.210150
O71	O7	0.955920	0.648800	0.370610
O81	O8	0.959550	0.653000	0.211330
Cu31	Cu3	0.224290	0.347890	0.613740
Cu41	Cu4	0.220920	0.336780	0.802620
H171	H17	0.230700	0.745200	0.565600
H181	H18	0.235500	0.957000	0.567100
H191	H19	0.215500	0.941300	0.852700
H201	H20	0.211300	0.728200	0.852100
H211	H21	0.618300	0.360200	0.564300
H221	H22	0.831900	0.366600	0.564600
H231	H23	0.826700	0.324700	0.852300
H241	H24	0.613900	0.319000	0.851300
H251	H25	0.404600	0.337400	0.441100
H261	H26	0.409100	0.330100	0.277800
H271	H27	0.037300	0.339500	0.285200
H281	H28	0.044100	0.344600	0.447000
H291	H29	0.052800	0.411100	0.972200
H301	H30	0.048400	0.415500	0.135500
H311	H31	0.387500	0.240100	0.135800
H321	H32	0.382900	0.245300	0.972600
C271	C27	0.219900	0.575800	0.707400
C281	C28	0.456600	0.336700	0.707510
C291	C29	0.227900	0.108900	0.710400
C301	C30	0.988900	0.348300	0.708990
C311	C31	0.223600	0.714100	0.708400
C321	C32	0.228800	0.784300	0.624200
C331	C33	0.231200	0.910700	0.625100
C341	C34	0.227600	0.970200	0.709900
C351	C35	0.219500	0.901400	0.794400
C361	C36	0.217200	0.774300	0.794100
C371	C37	0.594500	0.338600	0.707940
C381	C38	0.660700	0.352900	0.622500
C391	C39	0.787800	0.356500	0.622400
C401	C40	0.851100	0.344900	0.709110
C411	C41	0.784700	0.331500	0.794000
C421	C42	0.657900	0.328300	0.793400
C431	C43	0.329100	0.337800	0.408800
C441	C44	0.332600	0.333700	0.310800
C451	C45	0.223100	0.334800	0.260870
C461	C46	0.114400	0.339000	0.315300
C471	C47	0.119100	0.342200	0.412100
C481	C48	0.123000	0.378600	0.006000
C491	C49	0.119200	0.381500	0.103800
C501	C50	0.222300	0.333000	0.155500
C511	C51	0.318600	0.279000	0.104000
C521	C52	0.314600	0.281600	0.006100
N31	N3	0.224400	0.342200	0.459990
N41	N4	0.220000	0.332600	0.956200
O91	O9	0.217800	0.528630	0.628120
O101	O10	0.219500	0.518380	0.786810
O111	O11	0.404150	0.344100	0.627600
O121	O12	0.401330	0.328900	0.786940
O131	O13	0.231900	0.165860	0.631410
O141	O14	0.224700	0.156900	0.789850
O151	O15	0.044080	0.351200	0.629390
O161	O16	0.040450	0.347000	0.788670
