data_NEJSAY_freeONLY_PM
_symmetry_space_group_name_H-M	'P1'
_cell_length_a	10.819500
_cell_length_b	14.004000
_cell_length_c	21.682000
_cell_angle_alpha	87.570000
_cell_angle_beta	86.557000
_cell_angle_gamma	88.083000
_symmetry_Int_Tables_number 1

loop_
_symmetry_equiv_pos_as_xyz
'x,y,z'

loop_
_atom_site_label
_atom_site_type_symbol
_atom_site_fract_x
_atom_site_fract_y
_atom_site_fract_z
Cu11	Cu1	0.228740	0.304900	0.667770
Cu21	Cu2	0.237000	0.115670	0.672910
Cu31	Cu3	0.198320	0.302780	0.168790
Cu41	Cu4	0.207150	0.113350	0.173920
H11	H1	0.205600	0.353800	0.863600
H21	H2	0.193100	0.354100	0.970100
H31	H3	0.246000	0.068100	0.977600
H41	H4	0.255600	0.069500	0.870900
H51	H5	0.845900	0.067400	0.681200
H61	H6	0.632400	0.065400	0.677100
H71	H7	0.618600	0.352100	0.659600
H81	H8	0.832200	0.355600	0.665600
H91	H9	0.259200	0.069900	0.475200
H101	H10	0.244300	0.069400	0.370800
H111	H11	0.168800	0.353400	0.365700
H121	H12	0.178900	0.353500	0.472200
H131	H13	0.816400	0.063300	0.182000
H141	H14	0.601500	0.061900	0.183200
H151	H15	0.588700	0.350700	0.159600
H161	H16	0.803600	0.351400	0.161900
H171	H17	0.382900	0.472000	0.616800
H181	H18	0.390300	0.634700	0.613400
H191	H19	0.072700	0.639500	0.717100
H201	H20	0.073800	0.476600	0.715100
H211	H21	0.418700	0.940100	0.664400
H221	H22	0.420100	0.776900	0.661700
H231	H23	0.049000	0.790000	0.671600
H241	H24	0.057000	0.952000	0.675200
H251	H25	0.387400	0.938200	0.167200
H261	H26	0.390100	0.774800	0.161900
H271	H27	0.020200	0.788400	0.167400
H281	H28	0.029000	0.950200	0.169400
H291	H29	0.357300	0.470000	0.115000
H301	H30	0.368300	0.632600	0.116400
H311	H31	0.034000	0.639700	0.207200
H321	H32	0.038200	0.475500	0.208300
C11	C1	0.233600	0.210800	0.786830
C21	C2	0.998400	0.211300	0.674240
C31	C3	0.229600	0.212600	0.553750
C41	C4	0.466300	0.208800	0.667000
C51	C5	0.200800	0.210500	0.288170
C61	C6	0.968700	0.208800	0.172930
C71	C7	0.212700	0.209900	0.053860
C81	C8	0.436100	0.204400	0.169060
C91	C9	0.232000	0.211600	0.856510
C101	C10	0.213600	0.295800	0.886600
C111	C11	0.206900	0.296000	0.950200
C121	C12	0.220400	0.211500	0.985380
C131	C13	0.238000	0.126400	0.954800
C141	C14	0.243600	0.127500	0.891100
C151	C15	0.861200	0.211100	0.672930
C161	C16	0.800100	0.125300	0.676900
C171	C17	0.672900	0.123900	0.674600
C181	C18	0.605500	0.208500	0.668670
C191	C19	0.665000	0.294600	0.664500
C201	C20	0.792400	0.296800	0.667400
C211	C21	0.220500	0.213000	0.484700
C221	C22	0.240300	0.127200	0.453100
C231	C23	0.232300	0.127200	0.391200
C241	C24	0.206500	0.210700	0.356860
C251	C25	0.186600	0.296100	0.388000
C261	C26	0.193200	0.296200	0.451500
C271	C27	0.830700	0.207900	0.171620
C281	C28	0.770200	0.121100	0.177800
C291	C29	0.642400	0.120100	0.177800
C301	C30	0.574400	0.205700	0.169770
C311	C31	0.634600	0.292900	0.164100
C321	C32	0.762700	0.293100	0.165300
C331	C33	0.318000	0.506700	0.637200
C341	C34	0.323800	0.604300	0.635200
C351	C35	0.232600	0.657000	0.665000
C361	C36	0.137900	0.606700	0.695500
C371	C37	0.139400	0.509400	0.694300
C381	C38	0.342700	0.909200	0.666200
C391	C39	0.344100	0.811400	0.664400
C401	C40	0.234600	0.763500	0.666500
C411	C41	0.126200	0.819100	0.670400
C421	C42	0.131700	0.915800	0.672400
C431	C43	0.311700	0.907000	0.167500
C441	C44	0.313800	0.809000	0.164200
C451	C45	0.205400	0.760700	0.164220
C461	C46	0.097600	0.817000	0.167000
C471	C47	0.103500	0.913700	0.169100
C481	C48	0.292800	0.504800	0.135600
C491	C49	0.299000	0.602000	0.135400
C501	C50	0.202800	0.655500	0.163300
C511	C51	0.103200	0.606400	0.189400
C521	C52	0.106100	0.507700	0.189200
N11	N1	0.229100	0.458900	0.665270
N21	N2	0.238600	0.962100	0.670540
N31	N3	0.208000	0.958800	0.170890
N41	N4	0.197400	0.456200	0.164240
O11	O1	0.231400	0.290100	0.758280
O21	O2	0.234100	0.131000	0.762690
O31	O3	0.048200	0.292500	0.674270
O41	O4	0.056600	0.132300	0.676060
O51	O5	0.225900	0.292800	0.578200
O61	O6	0.240300	0.133500	0.582110
O71	O7	0.409900	0.287200	0.662620
O81	O8	0.416100	0.128300	0.669190
O91	O9	0.196800	0.290500	0.259410
O101	O10	0.200200	0.131200	0.264220
O111	O11	0.017700	0.288300	0.172530
O121	O12	0.026600	0.129500	0.174700
O131	O13	0.203200	0.290200	0.078920
O141	O14	0.217100	0.131700	0.083000
O151	O15	0.378900	0.284500	0.165910
O161	O16	0.385800	0.125300	0.173090
Cu51	Cu5	0.771260	0.695100	0.332230
Cu61	Cu6	0.763000	0.884330	0.327090
Cu71	Cu7	0.801680	0.697220	0.831210
Cu81	Cu8	0.792850	0.886650	0.826080
H331	H33	0.794400	0.646200	0.136400
H341	H34	0.806900	0.645900	0.029900
H351	H35	0.754000	0.931900	0.022400
H361	H36	0.744400	0.930500	0.129100
H371	H37	0.154100	0.932600	0.318800
H381	H38	0.367600	0.934600	0.322900
H391	H39	0.381400	0.647900	0.340400
H401	H40	0.167800	0.644400	0.334400
H411	H41	0.740800	0.930100	0.524800
H421	H42	0.755700	0.930600	0.629200
H431	H43	0.831200	0.646600	0.634300
H441	H44	0.821100	0.646500	0.527800
H451	H45	0.183600	0.936700	0.818000
H461	H46	0.398500	0.938100	0.816800
H471	H47	0.411300	0.649300	0.840400
H481	H48	0.196400	0.648600	0.838100
H491	H49	0.617100	0.528000	0.383200
H501	H50	0.609700	0.365300	0.386600
H511	H51	0.927300	0.360500	0.282900
H521	H52	0.926200	0.523400	0.284900
H531	H53	0.581300	0.059900	0.335600
H541	H54	0.579900	0.223100	0.338300
H551	H55	0.951000	0.210000	0.328400
H561	H56	0.943000	0.048000	0.324800
H571	H57	0.612600	0.061800	0.832800
H581	H58	0.609900	0.225200	0.838100
H591	H59	0.979800	0.211600	0.832600
H601	H60	0.971000	0.049800	0.830600
H611	H61	0.642700	0.530000	0.885000
H621	H62	0.631700	0.367400	0.883600
H631	H63	0.966000	0.360300	0.792800
H641	H64	0.961800	0.524500	0.791700
C531	C53	0.766400	0.789200	0.213170
C541	C54	0.001600	0.788700	0.325760
C551	C55	0.770400	0.787400	0.446250
C561	C56	0.533700	0.791200	0.333000
C571	C57	0.799200	0.789500	0.711830
C581	C58	0.031300	0.791200	0.827070
C591	C59	0.787300	0.790100	0.946140
C601	C60	0.563900	0.795600	0.830940
C611	C61	0.768000	0.788400	0.143490
C621	C62	0.786400	0.704200	0.113400
C631	C63	0.793100	0.704000	0.049800
C641	C64	0.779600	0.788500	0.014620
C651	C65	0.762000	0.873600	0.045200
C661	C66	0.756400	0.872500	0.108900
C671	C67	0.138800	0.788900	0.327070
C681	C68	0.199900	0.874700	0.323100
C691	C69	0.327100	0.876100	0.325400
C701	C70	0.394500	0.791500	0.331330
C711	C71	0.335000	0.705400	0.335500
C721	C72	0.207600	0.703200	0.332600
C731	C73	0.779500	0.787000	0.515300
C741	C74	0.759700	0.872800	0.546900
C751	C75	0.767700	0.872800	0.608800
C761	C76	0.793500	0.789300	0.643140
C771	C77	0.813400	0.703900	0.612000
C781	C78	0.806800	0.703800	0.548500
C791	C79	0.169300	0.792100	0.828380
C801	C80	0.229800	0.878900	0.822200
C811	C81	0.357600	0.879900	0.822200
C821	C82	0.425600	0.794300	0.830230
C831	C83	0.365400	0.707100	0.835900
C841	C84	0.237300	0.706900	0.834700
C851	C85	0.682000	0.493300	0.362800
C861	C86	0.676200	0.395700	0.364800
C871	C87	0.767400	0.343000	0.335000
C881	C88	0.862100	0.393300	0.304500
C891	C89	0.860600	0.490600	0.305700
C901	C90	0.657300	0.090800	0.333800
C911	C91	0.655900	0.188600	0.335600
C921	C92	0.765400	0.236500	0.333500
C931	C93	0.873800	0.180900	0.329600
C941	C94	0.868300	0.084200	0.327600
C951	C95	0.688300	0.093000	0.832500
C961	C96	0.686200	0.191000	0.835800
C971	C97	0.794600	0.239300	0.835780
C981	C98	0.902400	0.183000	0.833000
C991	C99	0.896500	0.086300	0.830900
C1001	C100	0.707200	0.495200	0.864400
C1011	C101	0.701000	0.398000	0.864600
C1021	C102	0.797200	0.344500	0.836700
C1031	C103	0.896800	0.393600	0.810600
C1041	C104	0.893900	0.492300	0.810800
N51	N5	0.770900	0.541100	0.334730
N61	N6	0.761400	0.037900	0.329460
N71	N7	0.792000	0.041200	0.829110
N81	N8	0.802600	0.543800	0.835760
O171	O17	0.768600	0.709900	0.241720
O181	O18	0.765900	0.869000	0.237310
O191	O19	0.951800	0.707500	0.325730
O201	O20	0.943400	0.867700	0.323940
O211	O21	0.774100	0.707200	0.421800
O221	O22	0.759700	0.866500	0.417890
O231	O23	0.590100	0.712800	0.337380
O241	O24	0.583900	0.871700	0.330810
O251	O25	0.803200	0.709500	0.740590
O261	O26	0.799800	0.868800	0.735780
O271	O27	0.982300	0.711700	0.827470
O281	O28	0.973400	0.870500	0.825300
O291	O29	0.796800	0.709800	0.921080
O301	O30	0.782900	0.868300	0.917000
O311	O31	0.621100	0.715500	0.834090
O321	O32	0.614200	0.874700	0.826910
