data_NELVAC_freeONLY_PM
_symmetry_space_group_name_H-M	'P1'
_cell_length_a	10.865800
_cell_length_b	16.605000
_cell_length_c	10.392600
_cell_angle_alpha	90.000000
_cell_angle_beta	103.965000
_cell_angle_gamma	90.000000
_symmetry_Int_Tables_number 1

loop_
_symmetry_equiv_pos_as_xyz
'x,y,z'

loop_
_atom_site_label
_atom_site_type_symbol
_atom_site_fract_x
_atom_site_fract_y
_atom_site_fract_z
Zn11	Zn1	0.055020	0.166580	0.403510
Zn21	Zn2	0.134870	0.835310	0.316900
P11	P1	0.212560	0.005790	0.455500
P21	P2	0.137890	0.222920	0.692600
P31	P3	0.791380	0.260030	0.909510
O11	O1	0.220100	0.936400	0.366800
O21	O2	0.093300	0.054100	0.409500
O31	O3	0.225800	0.977600	0.601700
H11	H1	0.194700	0.932600	0.601800
O41	O4	0.047900	0.157200	0.715400
O51	O5	0.143700	0.231400	0.548400
O61	O6	0.102900	0.306000	0.740300
O71	O7	0.871700	0.331500	0.880900
O81	O8	0.794000	0.253500	0.055200
O91	O9	0.835900	0.180800	0.859800
C11	C1	0.349800	0.068700	0.468900
H21	H2	0.337600	0.117100	0.516600
H31	H3	0.353100	0.085000	0.380200
C21	C2	0.478200	0.033100	0.536700
H41	H4	0.474000	0.013200	0.623300
H51	H5	0.541000	0.075800	0.550500
C31	C3	0.294400	0.194800	0.785100
H61	H6	0.298000	0.199500	0.879000
H71	H7	0.308700	0.138800	0.767000
C41	C4	0.400300	0.244800	0.754400
H81	H8	0.383200	0.301300	0.766400
H91	H9	0.401200	0.236900	0.662100
C51	C5	0.633700	0.280300	0.816500
H101	H10	0.632700	0.278200	0.723000
H111	H11	0.612000	0.334800	0.836000
C61	C6	0.530900	0.224000	0.841000
H121	H12	0.552000	0.169000	0.823000
H131	H13	0.528500	0.227100	0.933500
Zn31	Zn3	0.944980	0.666580	0.096490
Zn41	Zn4	0.865130	0.335310	0.183100
P41	P4	0.787440	0.505790	0.044500
P51	P5	0.862110	0.722920	0.807400
P61	P6	0.208620	0.760030	0.590490
O101	O10	0.779900	0.436400	0.133200
O111	O11	0.906700	0.554100	0.090500
O121	O12	0.774200	0.477600	0.898300
H141	H14	0.805300	0.432600	0.898200
O131	O13	0.952100	0.657200	0.784600
O141	O14	0.856300	0.731400	0.951600
O151	O15	0.897100	0.806000	0.759700
O161	O16	0.128300	0.831500	0.619100
O171	O17	0.206000	0.753500	0.444800
O181	O18	0.164100	0.680800	0.640200
C71	C7	0.650200	0.568700	0.031100
H151	H15	0.662400	0.617100	0.983400
H161	H16	0.646900	0.585000	0.119800
C81	C8	0.521800	0.533100	0.963300
H171	H17	0.526000	0.513200	0.876700
H181	H18	0.459000	0.575800	0.949500
C91	C9	0.705600	0.694800	0.714900
H191	H19	0.702000	0.699500	0.621000
H201	H20	0.691300	0.638800	0.733000
C101	C10	0.599700	0.744800	0.745600
H211	H21	0.616800	0.801300	0.733600
H221	H22	0.598800	0.736900	0.837900
C111	C11	0.366300	0.780300	0.683500
H231	H23	0.367300	0.778200	0.777000
H241	H24	0.388000	0.834800	0.664000
C121	C12	0.469100	0.724000	0.659000
H251	H25	0.448000	0.669000	0.677000
H261	H26	0.471500	0.727100	0.566500
Zn51	Zn5	0.944980	0.833420	0.596490
Zn61	Zn6	0.865130	0.164690	0.683100
P71	P7	0.787440	0.994210	0.544500
P81	P8	0.862110	0.777080	0.307400
P91	P9	0.208620	0.739970	0.090490
O191	O19	0.779900	0.063600	0.633200
O201	O20	0.906700	0.945900	0.590500
O211	O21	0.774200	0.022400	0.398300
H271	H27	0.805300	0.067400	0.398200
O221	O22	0.952100	0.842800	0.284600
O231	O23	0.856300	0.768600	0.451600
O241	O24	0.897100	0.694000	0.259700
O251	O25	0.128300	0.668500	0.119100
O261	O26	0.206000	0.746500	0.944800
O271	O27	0.164100	0.819200	0.140200
C131	C13	0.650200	0.931300	0.531100
H281	H28	0.662400	0.882900	0.483400
H291	H29	0.646900	0.915000	0.619800
C141	C14	0.521800	0.966900	0.463300
H301	H30	0.526000	0.986800	0.376700
H311	H31	0.459000	0.924200	0.449500
C151	C15	0.705600	0.805200	0.214900
H321	H32	0.702000	0.800500	0.121000
H331	H33	0.691300	0.861200	0.233000
C161	C16	0.599700	0.755200	0.245600
H341	H34	0.616800	0.698700	0.233600
H351	H35	0.598800	0.763100	0.337900
C171	C17	0.366300	0.719700	0.183500
H361	H36	0.367300	0.721800	0.277000
H371	H37	0.388000	0.665200	0.164000
C181	C18	0.469100	0.776000	0.159000
H381	H38	0.448000	0.831000	0.177000
H391	H39	0.471500	0.772900	0.066500
Zn71	Zn7	0.055020	0.333420	0.903510
Zn81	Zn8	0.134870	0.664690	0.816900
P101	P10	0.212560	0.494210	0.955500
P111	P11	0.137890	0.277080	0.192600
P121	P12	0.791380	0.239970	0.409510
O281	O28	0.220100	0.563600	0.866800
O291	O29	0.093300	0.445900	0.909500
O301	O30	0.225800	0.522400	0.101700
H401	H40	0.194700	0.567400	0.101800
O311	O31	0.047900	0.342800	0.215400
O321	O32	0.143700	0.268600	0.048400
O331	O33	0.102900	0.194000	0.240300
O341	O34	0.871700	0.168500	0.380900
O351	O35	0.794000	0.246500	0.555200
O361	O36	0.835900	0.319200	0.359800
C191	C19	0.349800	0.431300	0.968900
H411	H41	0.337600	0.382900	0.016600
H421	H42	0.353100	0.415000	0.880200
C201	C20	0.478200	0.466900	0.036700
H431	H43	0.474000	0.486800	0.123300
H441	H44	0.541000	0.424200	0.050500
C211	C21	0.294400	0.305200	0.285100
H451	H45	0.298000	0.300500	0.379000
H461	H46	0.308700	0.361200	0.267000
C221	C22	0.400300	0.255200	0.254400
H471	H47	0.383200	0.198700	0.266400
H481	H48	0.401200	0.263100	0.162100
C231	C23	0.633700	0.219700	0.316500
H491	H49	0.632700	0.221800	0.223000
H501	H50	0.612000	0.165200	0.336000
C241	C24	0.530900	0.276000	0.341000
H511	H51	0.552000	0.331000	0.323000
H521	H52	0.528500	0.272900	0.433500
