data_NELVEG_freeONLY_PM
_symmetry_space_group_name_H-M	'P1'
_cell_length_a	8.598900
_cell_length_b	17.044000
_cell_length_c	10.165000
_cell_angle_alpha	90.000000
_cell_angle_beta	108.434000
_cell_angle_gamma	90.000000
_symmetry_Int_Tables_number 1

loop_
_symmetry_equiv_pos_as_xyz
'x,y,z'

loop_
_atom_site_label
_atom_site_type_symbol
_atom_site_fract_x
_atom_site_fract_y
_atom_site_fract_z
Zn11	Zn1	0.105720	0.171660	0.921180
Zn21	Zn2	0.122580	0.831640	0.821820
P11	P1	0.241020	0.996480	0.991650
P21	P2	0.764140	0.247740	0.894560
P31	P3	0.224440	0.260950	0.714890
O11	O1	0.275000	0.956900	0.136900
H11	H1	0.226900	0.914700	0.127700
O21	O2	0.187800	0.937900	0.876000
O31	O3	0.124500	0.063800	0.975400
O41	O4	0.817200	0.326530	0.849800
O51	O5	0.865800	0.180140	0.863300
O61	O6	0.773000	0.249600	0.046700
O71	O7	0.113800	0.323570	0.743700
O81	O8	0.188100	0.179020	0.762700
O91	O9	0.215700	0.254600	0.563300
C11	C1	0.437400	0.033000	0.997000
H21	H2	0.425400	0.065000	0.915400
H31	H3	0.479300	0.066400	0.077800
C21	C2	0.555800	0.228800	0.791300
H41	H4	0.548600	0.230600	0.694200
H51	H5	0.526800	0.176100	0.811100
C31	C3	0.430300	0.286100	0.815000
H61	H6	0.454600	0.338700	0.790200
H71	H7	0.439700	0.286300	0.912600
Zn31	Zn3	0.894280	0.671660	0.578820
Zn41	Zn4	0.877420	0.331640	0.678180
P41	P4	0.758980	0.496480	0.508350
P51	P5	0.235860	0.747740	0.605440
P61	P6	0.775560	0.760950	0.785110
O101	O10	0.725000	0.456900	0.363100
H81	H8	0.773100	0.414700	0.372300
O111	O11	0.812200	0.437900	0.624000
O121	O12	0.875500	0.563800	0.524600
O131	O13	0.182800	0.826530	0.650200
O141	O14	0.134200	0.680140	0.636700
O151	O15	0.227000	0.749600	0.453300
O161	O16	0.886200	0.823570	0.756300
O171	O17	0.811900	0.679020	0.737300
O181	O18	0.784300	0.754600	0.936700
C41	C4	0.562600	0.533000	0.503000
H91	H9	0.574600	0.565000	0.584600
H101	H10	0.520700	0.566400	0.422200
C51	C5	0.444200	0.728800	0.708700
H111	H11	0.451400	0.730600	0.805800
H121	H12	0.473200	0.676100	0.688900
C61	C6	0.569700	0.786100	0.685000
H131	H13	0.545400	0.838700	0.709800
H141	H14	0.560300	0.786300	0.587400
Zn51	Zn5	0.894280	0.828340	0.078820
Zn61	Zn6	0.877420	0.168360	0.178180
P71	P7	0.758980	0.003520	0.008350
P81	P8	0.235860	0.752260	0.105440
P91	P9	0.775560	0.739050	0.285110
O191	O19	0.725000	0.043100	0.863100
H151	H15	0.773100	0.085300	0.872300
O201	O20	0.812200	0.062100	0.124000
O211	O21	0.875500	0.936200	0.024600
O221	O22	0.182800	0.673470	0.150200
O231	O23	0.134200	0.819860	0.136700
O241	O24	0.227000	0.750400	0.953300
O251	O25	0.886200	0.676430	0.256300
O261	O26	0.811900	0.820980	0.237300
O271	O27	0.784300	0.745400	0.436700
C71	C7	0.562600	0.967000	0.003000
H161	H16	0.574600	0.935000	0.084600
H171	H17	0.520700	0.933600	0.922200
C81	C8	0.444200	0.771200	0.208700
H181	H18	0.451400	0.769400	0.305800
H191	H19	0.473200	0.823900	0.188900
C91	C9	0.569700	0.713900	0.185000
H201	H20	0.545400	0.661300	0.209800
H211	H21	0.560300	0.713700	0.087400
Zn71	Zn7	0.105720	0.328340	0.421180
Zn81	Zn8	0.122580	0.668360	0.321820
P101	P10	0.241020	0.503520	0.491650
P111	P11	0.764140	0.252260	0.394560
P121	P12	0.224440	0.239050	0.214890
O281	O28	0.275000	0.543100	0.636900
H221	H22	0.226900	0.585300	0.627700
O291	O29	0.187800	0.562100	0.376000
O301	O30	0.124500	0.436200	0.475400
O311	O31	0.817200	0.173470	0.349800
O321	O32	0.865800	0.319860	0.363300
O331	O33	0.773000	0.250400	0.546700
O341	O34	0.113800	0.176430	0.243700
O351	O35	0.188100	0.320980	0.262700
O361	O36	0.215700	0.245400	0.063300
C101	C10	0.437400	0.467000	0.497000
H231	H23	0.425400	0.435000	0.415400
H241	H24	0.479300	0.433600	0.577800
C111	C11	0.555800	0.271200	0.291300
H251	H25	0.548600	0.269400	0.194200
H261	H26	0.526800	0.323900	0.311100
C121	C12	0.430300	0.213900	0.315000
H271	H27	0.454600	0.161300	0.290200
H281	H28	0.439700	0.213700	0.412600
