data_NELWIL_freeONLY_PM
_symmetry_space_group_name_H-M	'P1'
_cell_length_a	4.709400
_cell_length_b	11.282400
_cell_length_c	20.246700
_cell_angle_alpha	90.000000
_cell_angle_beta	90.000000
_cell_angle_gamma	98.827000
_symmetry_Int_Tables_number 1

loop_
_symmetry_equiv_pos_as_xyz
'x,y,z'

loop_
_atom_site_label
_atom_site_type_symbol
_atom_site_fract_x
_atom_site_fract_y
_atom_site_fract_z
Cu11	Cu1	0.324200	0.444900	0.662500
Cu21	Cu2	0.675800	0.055100	0.162500
Cu31	Cu3	0.675800	0.555100	0.337500
Cu41	Cu4	0.324200	0.944900	0.837500
H11	H1	0.280000	0.417000	0.909500
H21	H2	0.476000	0.505000	0.811300
H31	H3	0.539000	0.320000	0.550800
H41	H4	0.323000	0.645000	0.559900
H51	H5	0.720000	0.083000	0.409500
H61	H6	0.524000	0.995000	0.311300
H71	H7	0.461000	0.180000	0.050800
H81	H8	0.677000	0.855000	0.059900
H91	H9	0.720000	0.583000	0.090500
H101	H10	0.524000	0.495000	0.188700
H111	H11	0.461000	0.680000	0.449200
H121	H12	0.677000	0.355000	0.440100
H131	H13	0.280000	0.917000	0.590500
H141	H14	0.476000	0.005000	0.688700
H151	H15	0.539000	0.820000	0.949200
H161	H16	0.323000	0.145000	0.940100
C11	C1	0.088000	0.273700	0.753000
C21	C2	0.983000	0.220500	0.810900
C31	C3	0.243000	0.373000	0.867900
C41	C4	0.354000	0.429000	0.811100
C51	C5	0.020000	0.221700	0.684100
C61	C6	0.784000	0.105200	0.818500
C71	C7	0.516000	0.396400	0.531000
C81	C8	0.392000	0.582000	0.535600
C91	C9	0.912000	0.226300	0.253000
C101	C10	0.017000	0.279500	0.310900
C111	C11	0.757000	0.127000	0.367900
C121	C12	0.646000	0.071000	0.311100
C131	C13	0.980000	0.278300	0.184100
C141	C14	0.216000	0.394800	0.318500
C151	C15	0.484000	0.103600	0.031000
C161	C16	0.608000	0.918000	0.035600
C171	C17	0.912000	0.726300	0.247000
C181	C18	0.017000	0.779500	0.189100
C191	C19	0.757000	0.627000	0.132100
C201	C20	0.646000	0.571000	0.188900
C211	C21	0.980000	0.778300	0.315900
C221	C22	0.216000	0.894800	0.181500
C231	C23	0.484000	0.603600	0.469000
C241	C24	0.608000	0.418000	0.464400
C251	C25	0.088000	0.773700	0.747000
C261	C26	0.983000	0.720500	0.689100
C271	C27	0.243000	0.873000	0.632100
C281	C28	0.354000	0.929000	0.688900
C291	C29	0.020000	0.721700	0.815900
C301	C30	0.784000	0.605200	0.681500
C311	C31	0.516000	0.896400	0.969000
C321	C32	0.392000	0.082000	0.964400
N11	N1	0.268000	0.377400	0.753100
N21	N2	0.080000	0.268000	0.868000
N31	N3	0.426000	0.480700	0.565900
N41	N4	0.732000	0.122600	0.253100
N51	N5	0.920000	0.232000	0.368000
N61	N6	0.574000	0.019300	0.065900
N71	N7	0.732000	0.622600	0.246900
N81	N8	0.920000	0.732000	0.132000
N91	N9	0.574000	0.519300	0.434100
N101	N10	0.268000	0.877400	0.746900
N111	N11	0.080000	0.768000	0.632000
N121	N12	0.426000	0.980700	0.934100
O11	O1	0.149000	0.281600	0.639200
O21	O2	0.873000	0.123600	0.678600
O31	O3	0.525000	0.108000	0.807500
O41	O4	0.884000	0.013600	0.831400
O51	O5	0.851000	0.218400	0.139200
O61	O6	0.127000	0.376400	0.178600
O71	O7	0.475000	0.392000	0.307500
O81	O8	0.116000	0.486400	0.331400
O91	O9	0.851000	0.718400	0.360800
O101	O10	0.127000	0.876400	0.321400
O111	O11	0.475000	0.892000	0.192500
O121	O12	0.116000	0.986400	0.168600
O131	O13	0.149000	0.781600	0.860800
O141	O14	0.873000	0.623600	0.821400
O151	O15	0.525000	0.608000	0.692500
O161	O16	0.884000	0.513600	0.668600
