data_NERNON_charged_PM
_symmetry_space_group_name_H-M	'P1'
_cell_length_a	15.169000
_cell_length_b	19.067000
_cell_length_c	24.303000
_cell_angle_alpha	90.000000
_cell_angle_beta	92.657000
_cell_angle_gamma	90.000000
_symmetry_Int_Tables_number 1

loop_
_symmetry_equiv_pos_as_xyz
'x,y,z'

loop_
_atom_site_label
_atom_site_type_symbol
_atom_site_fract_x
_atom_site_fract_y
_atom_site_fract_z
Yb11	Yb1	0.785180	0.525180	0.064710
Yb21	Yb2	0.285180	0.974820	0.564710
Ni11	Ni1	0.767570	0.487390	0.563390
Ni21	Ni2	0.267570	0.012610	0.063390
H11	H1	0.819600	0.394800	0.664700
H21	H2	0.840800	0.400000	0.758100
H31	H3	0.773100	0.604100	0.750200
H41	H4	0.749100	0.591500	0.657300
H51	H5	0.947400	0.473800	0.828800
H61	H6	0.969700	0.486100	0.921200
H71	H7	0.723600	0.562500	0.929000
H81	H8	0.702300	0.547200	0.837300
H91	H9	0.447800	0.959100	0.103400
H101	H10	0.540100	0.865000	0.096400
H111	H11	0.354300	0.769800	0.000300
H121	H12	0.264500	0.866700	0.011400
H131	H13	0.549300	0.737300	0.118900
H141	H14	0.634600	0.641900	0.110300
H151	H15	0.566600	0.637600	0.948100
H161	H16	0.475900	0.730400	0.959700
H171	H17	0.881600	0.485600	0.465400
H181	H18	0.874800	0.497900	0.371200
H191	H19	0.610000	0.496900	0.375100
H201	H20	0.624200	0.483200	0.469300
H211	H21	0.631900	0.580900	0.300700
H221	H22	0.613400	0.586900	0.208000
H231	H23	0.805200	0.444400	0.194200
H241	H24	0.813600	0.433100	0.286900
H251	H25	0.249600	0.160800	0.016200
H261	H26	0.163300	0.259600	0.021200
H271	H27	0.024900	0.161800	0.135800
H281	H28	0.108000	0.062600	0.121700
H291	H29	0.027000	0.311000	0.008900
H301	H30	0.945200	0.408400	0.018600
H311	H31	0.967600	0.383800	0.183300
H321	H32	0.049900	0.286300	0.170900
H331	H33	0.319600	0.105200	0.164700
H341	H34	0.340800	0.100000	0.258100
H351	H35	0.273100	0.895900	0.250200
H361	H36	0.249100	0.908500	0.157300
H371	H37	0.447400	0.026200	0.328800
H381	H38	0.469700	0.013900	0.421200
H391	H39	0.223600	0.937500	0.429000
H401	H40	0.202300	0.952800	0.337300
H411	H41	0.947800	0.540900	0.603400
H421	H42	0.040100	0.635000	0.596400
H431	H43	0.854300	0.730200	0.500300
H441	H44	0.764500	0.633300	0.511400
H451	H45	0.049300	0.762700	0.618900
H461	H46	0.134600	0.858100	0.610300
H471	H47	0.066600	0.862400	0.448100
H481	H48	0.975900	0.769600	0.459700
H491	H49	0.381600	0.014400	0.965400
H501	H50	0.374800	0.002100	0.871200
H511	H51	0.110000	0.003100	0.875100
H521	H52	0.124200	0.016800	0.969300
H531	H53	0.131900	0.919100	0.800700
H541	H54	0.113400	0.913100	0.708000
H551	H55	0.305200	0.055600	0.694200
H561	H56	0.313600	0.066900	0.786900
H571	H57	0.749600	0.339200	0.516200
H581	H58	0.663300	0.240400	0.521200
H591	H59	0.524900	0.338200	0.635800
H601	H60	0.608000	0.437400	0.621700
H611	H61	0.527000	0.189000	0.508900
H621	H62	0.445200	0.091600	0.518600
H631	H63	0.467600	0.116200	0.683300
H641	H64	0.549900	0.213700	0.670900
C11	C1	0.809500	0.437700	0.682400
C21	C2	0.822500	0.439900	0.738000
C31	C3	0.808100	0.503200	0.764100
C41	C4	0.781900	0.560400	0.733400
C51	C5	0.769100	0.552500	0.678000
C61	C6	0.901600	0.491600	0.849500
C71	C7	0.915300	0.500000	0.904600
C81	C8	0.851100	0.528800	0.938100
C91	C9	0.770300	0.544600	0.909100
C101	C10	0.757100	0.535200	0.854400
C111	C11	0.428500	0.920100	0.082500
C121	C12	0.484000	0.864500	0.078300
C131	C13	0.457000	0.808000	0.047300
C141	C14	0.374400	0.808200	0.021800
C151	C15	0.321400	0.866200	0.028400
C161	C16	0.554200	0.716800	0.084000
C171	C17	0.604800	0.660600	0.078800
C181	C18	0.615000	0.628000	0.026800
C191	C19	0.563900	0.657700	0.983300
C201	C20	0.511200	0.713400	0.989700
C211	C21	0.826200	0.489100	0.446700
C221	C22	0.822900	0.496900	0.390900
C231	C23	0.740700	0.503200	0.364200
C241	C24	0.666200	0.496100	0.393200
C251	C25	0.675200	0.487800	0.449000
C261	C26	0.666900	0.552500	0.278800
C271	C27	0.656600	0.556500	0.223400
C281	C28	0.707900	0.517100	0.187500
C291	C29	0.768000	0.472000	0.215200
C301	C30	0.774900	0.466500	0.270800
C311	C31	0.202400	0.160700	0.040000
C321	C32	0.152500	0.220200	0.043200
C331	C33	0.085700	0.220500	0.079900
C341	C34	0.069500	0.162100	0.110300
C351	C35	0.120700	0.103800	0.102400
C361	C36	0.014700	0.326600	0.044400
C371	C37	0.965300	0.383800	0.050300
C381	C38	0.942000	0.408700	0.102600
C391	C39	0.978500	0.369400	0.147200
C401	C40	0.028500	0.311700	0.139900
C411	C41	0.599400	0.585500	0.558400
C421	C42	0.939500	0.395200	0.579200
C431	C43	0.309500	0.062300	0.182400
C441	C44	0.322500	0.060100	0.238000
C451	C45	0.308100	0.996800	0.264100
C461	C46	0.281900	0.939600	0.233400
C471	C47	0.269100	0.947500	0.178000
C481	C48	0.401600	0.008400	0.349500
C491	C49	0.415300	0.000000	0.404600
C501	C50	0.351100	0.971200	0.438100
C511	C51	0.270300	0.955400	0.409100
C521	C52	0.257100	0.964800	0.354400
C531	C53	0.928500	0.579900	0.582500
C541	C54	0.984000	0.635500	0.578300
C551	C55	0.957000	0.692000	0.547300
C561	C56	0.874400	0.691800	0.521800
C571	C57	0.821400	0.633800	0.528400
C581	C58	0.054200	0.783200	0.584000
C591	C59	0.104800	0.839400	0.578800
C601	C60	0.115000	0.872000	0.526800
C611	C61	0.063900	0.842300	0.483300
C621	C62	0.011200	0.786600	0.489700
C631	C63	0.326200	0.010900	0.946700
C641	C64	0.322900	0.003100	0.890900
C651	C65	0.240700	0.996800	0.864200
C661	C66	0.166200	0.003900	0.893200
C671	C67	0.175200	0.012200	0.949000
C681	C68	0.166900	0.947500	0.778800
C691	C69	0.156600	0.943500	0.723400
C701	C70	0.207900	0.982900	0.687500
C711	C71	0.268000	0.028000	0.715200
C721	C72	0.274900	0.033500	0.770800
C731	C73	0.702400	0.339300	0.540000
C741	C74	0.652500	0.279800	0.543200
C751	C75	0.585700	0.279500	0.579900
C761	C76	0.569500	0.337900	0.610300
C771	C77	0.620700	0.396200	0.602400
C781	C78	0.514700	0.173400	0.544400
C791	C79	0.465300	0.116200	0.550300
C801	C80	0.442000	0.091300	0.602600
C811	C81	0.478500	0.130600	0.647200
C821	C82	0.528500	0.188300	0.639900
C831	C83	0.099400	0.914500	0.058400
C841	C84	0.439500	0.104800	0.079200
S11	S1	0.513100	0.637900	0.550100
S21	S2	0.025800	0.356100	0.608000
S31	S3	0.013100	0.862100	0.050100
S41	S4	0.525800	0.143900	0.108000
N11	N1	0.783200	0.492400	0.651000
N21	N2	0.822300	0.508500	0.823300
N31	N3	0.348200	0.921600	0.058200
N41	N4	0.509300	0.745400	0.039900
N51	N5	0.753900	0.486100	0.475800
N61	N6	0.727300	0.507800	0.303900
N71	N7	0.188000	0.103000	0.068500
N81	N8	0.048100	0.290100	0.089700
N91	N9	0.659600	0.549900	0.565500
N101	N10	0.878600	0.423500	0.561700
N111	N11	0.687900	0.402700	0.045300
N121	N12	0.887500	0.649500	0.082600
N131	N13	0.283200	0.007600	0.151000
N141	N14	0.322300	0.991500	0.323300
N151	N15	0.848200	0.578400	0.558200
N161	N16	0.009300	0.754600	0.539900
N171	N17	0.253900	0.013900	0.975800
N181	N18	0.227300	0.992200	0.803900
N191	N19	0.688000	0.397000	0.568500
N201	N20	0.548100	0.209900	0.589700
N211	N21	0.159600	0.950100	0.065500
N221	N22	0.378600	0.076500	0.061700
N231	N23	0.187900	0.097300	0.545300
N241	N24	0.387500	0.850500	0.582600
O11	O1	0.863300	0.536300	0.990100
O21	O2	0.663400	0.574100	0.022200
O31	O3	0.698500	0.521600	0.134400
O41	O4	0.893900	0.461900	0.108200
O51	O5	0.675700	0.437900	0.087400
O61	O6	0.734500	0.428100	0.008600
O71	O7	0.648200	0.346700	0.037400
O81	O8	0.910100	0.591100	0.103100
O91	O9	0.812600	0.651900	0.058000
O101	O10	0.933100	0.701900	0.088200
O111	O11	0.363300	0.963700	0.490100
O121	O12	0.163400	0.925900	0.522200
O131	O13	0.198500	0.978400	0.634400
O141	O14	0.393900	0.038100	0.608200
O151	O15	0.175700	0.062100	0.587400
O161	O16	0.234500	0.071900	0.508600
O171	O17	0.148200	0.153300	0.537400
O181	O18	0.410100	0.908900	0.603100
O191	O19	0.312600	0.848100	0.558000
O201	O20	0.433100	0.798100	0.588200
Yb31	Yb3	0.714820	0.025180	0.435290
Yb41	Yb4	0.214820	0.474820	0.935290
Ni31	Ni3	0.732430	0.987390	0.936610
Ni41	Ni4	0.232430	0.512610	0.436610
H651	H65	0.680400	0.894800	0.835300
H661	H66	0.659200	0.900000	0.741900
H671	H67	0.726900	0.104100	0.749800
H681	H68	0.750900	0.091500	0.842700
H691	H69	0.552600	0.973800	0.671200
H701	H70	0.530300	0.986100	0.578800
H711	H71	0.776400	0.062500	0.571000
H721	H72	0.797700	0.047200	0.662700
H731	H73	0.052200	0.459100	0.396600
H741	H74	0.959900	0.365000	0.403600
H751	H75	0.145700	0.269800	0.499700
H761	H76	0.235500	0.366700	0.488600
H771	H77	0.950700	0.237300	0.381100
H781	H78	0.865400	0.141900	0.389700
H791	H79	0.933400	0.137600	0.551900
H801	H80	0.024100	0.230400	0.540300
H811	H81	0.618400	0.985600	0.034600
H821	H82	0.625200	0.997900	0.128800
H831	H83	0.890000	0.996900	0.124900
H841	H84	0.875800	0.983200	0.030700
H851	H85	0.868100	0.080900	0.199300
H861	H86	0.886600	0.086900	0.292000
H871	H87	0.694800	0.944400	0.305800
H881	H88	0.686400	0.933100	0.213100
H891	H89	0.250400	0.660800	0.483800
H901	H90	0.336700	0.759600	0.478800
H911	H91	0.475100	0.661800	0.364200
H921	H92	0.392000	0.562600	0.378300
H931	H93	0.473000	0.811000	0.491100
H941	H94	0.554800	0.908400	0.481400
H951	H95	0.532400	0.883800	0.316700
H961	H96	0.450100	0.786300	0.329100
H971	H97	0.180400	0.605200	0.335300
H981	H98	0.159200	0.600000	0.241900
H991	H99	0.226900	0.395900	0.249800
H1001	H100	0.250900	0.408500	0.342700
H1011	H101	0.052600	0.526200	0.171200
H1021	H102	0.030300	0.513900	0.078800
H1031	H103	0.276400	0.437500	0.071000
H1041	H104	0.297700	0.452800	0.162700
H1051	H105	0.552200	0.040900	0.896600
H1061	H106	0.459900	0.135000	0.903600
H1071	H107	0.645700	0.230200	0.999700
H1081	H108	0.735500	0.133300	0.988600
H1091	H109	0.450700	0.262700	0.881100
H1101	H110	0.365400	0.358100	0.889700
H1111	H111	0.433400	0.362400	0.051900
H1121	H112	0.524100	0.269600	0.040300
H1131	H113	0.118400	0.514400	0.534600
H1141	H114	0.125200	0.502100	0.628800
H1151	H115	0.390000	0.503100	0.624900
H1161	H116	0.375800	0.516800	0.530700
H1171	H117	0.368100	0.419100	0.699300
H1181	H118	0.386600	0.413100	0.792000
H1191	H119	0.194800	0.555600	0.805800
H1201	H120	0.186400	0.566900	0.713100
H1211	H121	0.750400	0.839200	0.983800
H1221	H122	0.836700	0.740400	0.978800
H1231	H123	0.975100	0.838200	0.864200
H1241	H124	0.892000	0.937400	0.878300
H1251	H125	0.973000	0.689000	0.991100
H1261	H126	0.054800	0.591600	0.981400
H1271	H127	0.032400	0.616200	0.816700
H1281	H128	0.950100	0.713700	0.829100
C851	C85	0.690500	0.937700	0.817600
C861	C86	0.677500	0.939900	0.762000
C871	C87	0.691900	0.003200	0.735900
C881	C88	0.718100	0.060400	0.766600
C891	C89	0.730900	0.052500	0.822000
C901	C90	0.598400	0.991600	0.650500
C911	C91	0.584700	0.000000	0.595400
C921	C92	0.648900	0.028800	0.561900
C931	C93	0.729700	0.044600	0.590900
C941	C94	0.742900	0.035200	0.645600
C951	C95	0.071500	0.420100	0.417500
C961	C96	0.016000	0.364500	0.421700
C971	C97	0.043000	0.308000	0.452700
C981	C98	0.125600	0.308200	0.478200
C991	C99	0.178600	0.366200	0.471600
C1001	C100	0.945800	0.216800	0.416000
C1011	C101	0.895200	0.160600	0.421200
C1021	C102	0.885000	0.128000	0.473200
C1031	C103	0.936100	0.157700	0.516700
C1041	C104	0.988800	0.213400	0.510300
C1051	C105	0.673800	0.989100	0.053300
C1061	C106	0.677100	0.996900	0.109100
C1071	C107	0.759300	0.003200	0.135800
C1081	C108	0.833800	0.996100	0.106800
C1091	C109	0.824800	0.987800	0.051000
C1101	C110	0.833100	0.052500	0.221200
C1111	C111	0.843400	0.056500	0.276600
C1121	C112	0.792100	0.017100	0.312500
C1131	C113	0.732000	0.972000	0.284800
C1141	C114	0.725100	0.966500	0.229200
C1151	C115	0.297600	0.660700	0.460000
C1161	C116	0.347500	0.720200	0.456800
C1171	C117	0.414300	0.720500	0.420100
C1181	C118	0.430500	0.662100	0.389700
C1191	C119	0.379300	0.603800	0.397600
C1201	C120	0.485300	0.826600	0.455600
C1211	C121	0.534700	0.883800	0.449700
C1221	C122	0.558000	0.908700	0.397400
C1231	C123	0.521500	0.869400	0.352800
C1241	C124	0.471500	0.811700	0.360100
C1251	C125	0.900600	0.085500	0.941600
C1261	C126	0.560500	0.895200	0.920800
C1271	C127	0.190500	0.562300	0.317600
C1281	C128	0.177500	0.560100	0.262000
C1291	C129	0.191900	0.496800	0.235900
C1301	C130	0.218100	0.439600	0.266600
C1311	C131	0.230900	0.447500	0.322000
C1321	C132	0.098400	0.508400	0.150500
C1331	C133	0.084700	0.500000	0.095400
C1341	C134	0.148900	0.471200	0.061900
C1351	C135	0.229700	0.455400	0.090900
C1361	C136	0.242900	0.464800	0.145600
C1371	C137	0.571500	0.079900	0.917500
C1381	C138	0.516000	0.135500	0.921700
C1391	C139	0.543000	0.192000	0.952700
C1401	C140	0.625600	0.191800	0.978200
C1411	C141	0.678600	0.133800	0.971600
C1421	C142	0.445800	0.283200	0.916000
C1431	C143	0.395200	0.339400	0.921200
C1441	C144	0.385000	0.372000	0.973200
C1451	C145	0.436100	0.342300	0.016700
C1461	C146	0.488800	0.286600	0.010300
C1471	C147	0.173800	0.510900	0.553300
C1481	C148	0.177100	0.503100	0.609100
C1491	C149	0.259300	0.496800	0.635800
C1501	C150	0.333800	0.503900	0.606800
C1511	C151	0.324800	0.512200	0.551000
C1521	C152	0.333100	0.447500	0.721200
C1531	C153	0.343400	0.443500	0.776600
C1541	C154	0.292100	0.482900	0.812500
C1551	C155	0.232000	0.528000	0.784800
C1561	C156	0.225100	0.533500	0.729200
C1571	C157	0.797600	0.839300	0.960000
C1581	C158	0.847500	0.779800	0.956800
C1591	C159	0.914300	0.779500	0.920100
C1601	C160	0.930500	0.837900	0.889700
C1611	C161	0.879300	0.896200	0.897600
C1621	C162	0.985300	0.673400	0.955600
C1631	C163	0.034700	0.616200	0.949700
C1641	C164	0.058000	0.591300	0.897400
C1651	C165	0.021500	0.630600	0.852800
C1661	C166	0.971500	0.688300	0.860100
C1671	C167	0.400600	0.414500	0.441600
C1681	C168	0.060500	0.604800	0.420800
S51	S5	0.986900	0.137900	0.949900
S61	S6	0.474200	0.856100	0.892000
S71	S7	0.486900	0.362100	0.449900
S81	S8	0.974200	0.643900	0.392000
N251	N25	0.716800	0.992400	0.849000
N261	N26	0.677700	0.008500	0.676700
N271	N27	0.151800	0.421600	0.441800
N281	N28	0.990700	0.245400	0.460100
N291	N29	0.746100	0.986100	0.024200
N301	N30	0.772700	0.007800	0.196100
N311	N31	0.312000	0.603000	0.431500
N321	N32	0.451900	0.790100	0.410300
N331	N33	0.840400	0.049900	0.934500
N341	N34	0.621400	0.923500	0.938300
N351	N35	0.812100	0.902700	0.454700
N361	N36	0.612500	0.149500	0.417400
N371	N37	0.216800	0.507600	0.349000
N381	N38	0.177700	0.491500	0.176700
N391	N39	0.651800	0.078400	0.941800
N401	N40	0.490700	0.254600	0.960100
N411	N41	0.246100	0.513900	0.524200
N421	N42	0.272700	0.492200	0.696100
N431	N43	0.812000	0.897000	0.931500
N441	N44	0.951900	0.709900	0.910300
N451	N45	0.340400	0.450100	0.434500
N461	N46	0.121400	0.576500	0.438300
N471	N47	0.312100	0.597300	0.954700
N481	N48	0.112500	0.350500	0.917400
O211	O21	0.636700	0.036300	0.509900
O221	O22	0.836600	0.074100	0.477800
O231	O23	0.801500	0.021600	0.365600
O241	O24	0.606100	0.961900	0.391800
O251	O25	0.824300	0.937900	0.412600
O261	O26	0.765500	0.928100	0.491400
O271	O27	0.851800	0.846700	0.462600
O281	O28	0.589900	0.091100	0.396900
O291	O29	0.687400	0.151900	0.442000
O301	O30	0.566900	0.201900	0.411800
O311	O31	0.136700	0.463700	0.009900
O321	O32	0.336600	0.425900	0.977800
O331	O33	0.301500	0.478400	0.865600
O341	O34	0.106100	0.538100	0.891800
O351	O35	0.324300	0.562100	0.912600
O361	O36	0.265500	0.571900	0.991400
O371	O37	0.351800	0.653300	0.962600
O381	O38	0.089900	0.408900	0.896900
O391	O39	0.187400	0.348100	0.942000
O401	O40	0.066900	0.298100	0.911800
N491	N49	0.499800	0.173700	0.781400
O411	O41	0.485600	0.109300	0.783100
O421	O42	0.434600	0.215300	0.778900
O431	O43	0.575900	0.197400	0.781500
N501	N50	0.000200	0.673700	0.718600
O441	O44	0.014400	0.609300	0.716900
O451	O45	0.065400	0.715300	0.721100
O461	O46	0.924100	0.697400	0.718500
N511	N51	0.500200	0.826300	0.218600
O471	O47	0.514400	0.890700	0.216900
O481	O48	0.565400	0.784700	0.221100
O491	O49	0.424100	0.802600	0.218500
N521	N52	0.999800	0.326300	0.281400
O501	O50	0.985600	0.390700	0.283100
O511	O51	0.934600	0.284700	0.278900
O521	O52	0.075900	0.302600	0.281500
