data_NERVEN_freeONLY_PM
_symmetry_space_group_name_H-M	'P1'
_cell_length_a	30.454600
_cell_length_b	30.454600
_cell_length_c	30.454600
_cell_angle_alpha	80.298900
_cell_angle_beta	80.298900
_cell_angle_gamma	80.298900
_symmetry_Int_Tables_number 1

loop_
_symmetry_equiv_pos_as_xyz
'x,y,z'

loop_
_atom_site_label
_atom_site_type_symbol
_atom_site_fract_x
_atom_site_fract_y
_atom_site_fract_z
Cd11	Cd1	0.815620	0.812200	0.294960
Cd21	Cd2	0.785730	0.813310	0.419710
Cd31	Cd3	0.741520	0.855120	0.529930
Cd41	Cd4	0.294960	0.815620	0.812200
Cd51	Cd5	0.419710	0.785730	0.813310
Cd61	Cd6	0.529930	0.741520	0.855120
Cd71	Cd7	0.812200	0.294960	0.815620
Cd81	Cd8	0.813310	0.419710	0.785730
Cd91	Cd9	0.855120	0.529930	0.741520
Cd101	Cd10	0.687800	0.684380	0.205040
Cd111	Cd11	0.686690	0.714270	0.080290
Cd121	Cd12	0.644880	0.758480	0.970070
Cd131	Cd13	0.684380	0.205040	0.687800
Cd141	Cd14	0.714270	0.080290	0.686690
Cd151	Cd15	0.758480	0.970070	0.644880
Cd161	Cd16	0.205040	0.687800	0.684380
Cd171	Cd17	0.080290	0.686690	0.714270
Cd181	Cd18	0.970070	0.644880	0.758480
Cd191	Cd19	0.184380	0.187800	0.705040
Cd201	Cd20	0.214270	0.186690	0.580290
Cd211	Cd21	0.258480	0.144880	0.470070
Cd221	Cd22	0.705040	0.184380	0.187800
Cd231	Cd23	0.580290	0.214270	0.186690
Cd241	Cd24	0.470070	0.258480	0.144880
Cd251	Cd25	0.187800	0.705040	0.184380
Cd261	Cd26	0.186690	0.580290	0.214270
Cd271	Cd27	0.144880	0.470070	0.258480
Cd281	Cd28	0.312200	0.315620	0.794960
Cd291	Cd29	0.313310	0.285730	0.919710
Cd301	Cd30	0.355120	0.241520	0.029930
Cd311	Cd31	0.315620	0.794960	0.312200
Cd321	Cd32	0.285730	0.919710	0.313310
Cd331	Cd33	0.241520	0.029930	0.355120
Cd341	Cd34	0.794960	0.312200	0.315620
Cd351	Cd35	0.919710	0.313310	0.285730
Cd361	Cd36	0.029930	0.355120	0.241520
H11	H1	0.872600	0.906700	0.416000
H21	H2	0.927700	0.015900	0.351300
H31	H3	0.912100	0.002300	0.283300
H41	H4	0.875900	0.940500	0.280800
H51	H5	0.869300	0.944400	0.477300
H61	H6	0.916200	0.912700	0.466000
H71	H7	0.877100	0.024800	0.628500
H81	H8	0.848800	0.043200	0.587400
H91	H9	0.819600	0.097300	0.631200
H101	H10	0.835600	0.225500	0.637300
H111	H11	0.911300	0.210600	0.605300
H121	H12	0.939300	0.141600	0.582700
H131	H13	0.038300	0.964100	0.572700
H141	H14	0.047700	0.941200	0.527700
H151	H15	0.052500	0.820700	0.626600
H161	H16	0.187600	0.814700	0.610600
H171	H17	0.181900	0.887200	0.569600
H181	H18	0.111100	0.927300	0.557700
H191	H19	0.841400	0.044300	0.522900
H201	H20	0.845300	0.009500	0.488100
H211	H21	0.823300	0.997000	0.539400
H221	H22	0.981300	0.022200	0.611500
H231	H23	0.940800	0.000200	0.643100
H241	H24	0.988300	0.969800	0.631400
H251	H25	0.008400	0.933600	0.456100
H261	H26	0.021200	0.898600	0.499000
H271	H27	0.980000	0.893200	0.475100
H281	H28	0.744700	0.923200	0.368100
H291	H29	0.780200	0.047400	0.326900
H301	H30	0.792800	0.051000	0.398000
H311	H31	0.780600	0.991600	0.457000
H321	H32	0.760100	0.922700	0.283900
H331	H33	0.711200	0.939700	0.309500
H341	H34	0.785000	0.946400	0.117400
H351	H35	0.744800	0.974600	0.091600
H361	H36	0.719900	0.840900	0.086400
H371	H37	0.742000	0.871500	0.950300
H381	H38	0.768000	0.937500	0.958200
H391	H39	0.768300	0.957000	0.028100
H401	H40	0.620900	0.059100	0.168200
H411	H41	0.616500	0.059200	0.221400
H421	H42	0.556100	0.106400	0.195000
H431	H43	0.427000	0.107000	0.176800
H441	H44	0.440300	0.028200	0.187700
H451	H45	0.509400	0.989700	0.200600
H461	H46	0.811100	0.935300	0.178600
H471	H47	0.798700	0.919500	0.231400
H481	H48	0.787400	0.891200	0.196000
H491	H49	0.656900	0.972800	0.108400
H501	H50	0.632000	0.019300	0.124000
H511	H51	0.681000	0.016900	0.094800
H521	H52	0.654000	0.981300	0.308900
H531	H53	0.658700	0.032700	0.289100
H541	H54	0.617300	0.011000	0.280200
H551	H55	0.907900	0.787600	0.282900
H561	H56	0.948400	0.768300	0.247300
H571	H57	0.945700	0.818100	0.259000
H581	H58	0.970800	0.762500	0.177300
H591	H59	0.971300	0.795100	0.130100
H601	H60	0.986000	0.811100	0.172300
H611	H61	0.894800	0.866900	0.135100
H621	H62	0.904500	0.821200	0.113500
H631	H63	0.861300	0.830100	0.150500
H641	H64	0.737800	0.787500	0.188500
H651	H65	0.751700	0.820600	0.217700
H661	H66	0.773900	0.820200	0.166200
H671	H67	0.781200	0.769500	0.134600
H681	H68	0.832600	0.759300	0.112000
H691	H69	0.803600	0.718900	0.129500
H701	H70	0.850700	0.683600	0.213400
H711	H71	0.882600	0.700900	0.168700
H721	H72	0.878000	0.724200	0.213000
H731	H73	0.416000	0.872600	0.906700
H741	H74	0.351300	0.927700	0.015900
H751	H75	0.283300	0.912100	0.002300
H761	H76	0.280800	0.875900	0.940500
H771	H77	0.477300	0.869300	0.944400
H781	H78	0.466000	0.916200	0.912700
H791	H79	0.628500	0.877100	0.024800
H801	H80	0.587400	0.848800	0.043200
H811	H81	0.631200	0.819600	0.097300
H821	H82	0.637300	0.835600	0.225500
H831	H83	0.605300	0.911300	0.210600
H841	H84	0.582700	0.939300	0.141600
H851	H85	0.572700	0.038300	0.964100
H861	H86	0.527700	0.047700	0.941200
H871	H87	0.626600	0.052500	0.820700
H881	H88	0.610600	0.187600	0.814700
H891	H89	0.569600	0.181900	0.887200
H901	H90	0.557700	0.111100	0.927300
H911	H91	0.522900	0.841400	0.044300
H921	H92	0.488100	0.845300	0.009500
H931	H93	0.539400	0.823300	0.997000
H941	H94	0.611500	0.981300	0.022200
H951	H95	0.643100	0.940800	0.000200
H961	H96	0.631400	0.988300	0.969800
H971	H97	0.456100	0.008400	0.933600
H981	H98	0.499000	0.021200	0.898600
H991	H99	0.475100	0.980000	0.893200
H1001	H100	0.368100	0.744700	0.923200
H1011	H101	0.326900	0.780200	0.047400
H1021	H102	0.398000	0.792800	0.051000
H1031	H103	0.457000	0.780600	0.991600
H1041	H104	0.283900	0.760100	0.922700
H1051	H105	0.309500	0.711200	0.939700
H1061	H106	0.117400	0.785000	0.946400
H1071	H107	0.091600	0.744800	0.974600
H1081	H108	0.086400	0.719900	0.840900
H1091	H109	0.950300	0.742000	0.871500
H1101	H110	0.958200	0.768000	0.937500
H1111	H111	0.028100	0.768300	0.957000
H1121	H112	0.168200	0.620900	0.059100
H1131	H113	0.221400	0.616500	0.059200
H1141	H114	0.195000	0.556100	0.106400
H1151	H115	0.176800	0.427000	0.107000
H1161	H116	0.187700	0.440300	0.028200
H1171	H117	0.200600	0.509400	0.989700
H1181	H118	0.178600	0.811100	0.935300
H1191	H119	0.231400	0.798700	0.919500
H1201	H120	0.196000	0.787400	0.891200
H1211	H121	0.108400	0.656900	0.972800
H1221	H122	0.124000	0.632000	0.019300
H1231	H123	0.094800	0.681000	0.016900
H1241	H124	0.308900	0.654000	0.981300
H1251	H125	0.289100	0.658700	0.032700
H1261	H126	0.280200	0.617300	0.011000
H1271	H127	0.282900	0.907900	0.787600
H1281	H128	0.247300	0.948400	0.768300
H1291	H129	0.259000	0.945700	0.818100
H1301	H130	0.177300	0.970800	0.762500
H1311	H131	0.130100	0.971300	0.795100
H1321	H132	0.172300	0.986000	0.811100
H1331	H133	0.135100	0.894800	0.866900
H1341	H134	0.113500	0.904500	0.821200
H1351	H135	0.150500	0.861300	0.830100
H1361	H136	0.188500	0.737800	0.787500
H1371	H137	0.217700	0.751700	0.820600
H1381	H138	0.166200	0.773900	0.820200
H1391	H139	0.134600	0.781200	0.769500
H1401	H140	0.112000	0.832600	0.759300
H1411	H141	0.129500	0.803600	0.718900
H1421	H142	0.213400	0.850700	0.683600
H1431	H143	0.168700	0.882600	0.700900
H1441	H144	0.213000	0.878000	0.724200
H1451	H145	0.906700	0.416000	0.872600
H1461	H146	0.015900	0.351300	0.927700
H1471	H147	0.002300	0.283300	0.912100
H1481	H148	0.940500	0.280800	0.875900
H1491	H149	0.944400	0.477300	0.869300
H1501	H150	0.912700	0.466000	0.916200
H1511	H151	0.024800	0.628500	0.877100
H1521	H152	0.043200	0.587400	0.848800
H1531	H153	0.097300	0.631200	0.819600
H1541	H154	0.225500	0.637300	0.835600
H1551	H155	0.210600	0.605300	0.911300
H1561	H156	0.141600	0.582700	0.939300
H1571	H157	0.964100	0.572700	0.038300
H1581	H158	0.941200	0.527700	0.047700
H1591	H159	0.820700	0.626600	0.052500
H1601	H160	0.814700	0.610600	0.187600
H1611	H161	0.887200	0.569600	0.181900
H1621	H162	0.927300	0.557700	0.111100
H1631	H163	0.044300	0.522900	0.841400
H1641	H164	0.009500	0.488100	0.845300
H1651	H165	0.997000	0.539400	0.823300
H1661	H166	0.022200	0.611500	0.981300
H1671	H167	0.000200	0.643100	0.940800
H1681	H168	0.969800	0.631400	0.988300
H1691	H169	0.933600	0.456100	0.008400
H1701	H170	0.898600	0.499000	0.021200
H1711	H171	0.893200	0.475100	0.980000
H1721	H172	0.923200	0.368100	0.744700
H1731	H173	0.047400	0.326900	0.780200
H1741	H174	0.051000	0.398000	0.792800
H1751	H175	0.991600	0.457000	0.780600
H1761	H176	0.922700	0.283900	0.760100
H1771	H177	0.939700	0.309500	0.711200
H1781	H178	0.946400	0.117400	0.785000
H1791	H179	0.974600	0.091600	0.744800
H1801	H180	0.840900	0.086400	0.719900
H1811	H181	0.871500	0.950300	0.742000
H1821	H182	0.937500	0.958200	0.768000
H1831	H183	0.957000	0.028100	0.768300
H1841	H184	0.059100	0.168200	0.620900
H1851	H185	0.059200	0.221400	0.616500
H1861	H186	0.106400	0.195000	0.556100
H1871	H187	0.107000	0.176800	0.427000
H1881	H188	0.028200	0.187700	0.440300
H1891	H189	0.989700	0.200600	0.509400
H1901	H190	0.935300	0.178600	0.811100
H1911	H191	0.919500	0.231400	0.798700
H1921	H192	0.891200	0.196000	0.787400
H1931	H193	0.972800	0.108400	0.656900
H1941	H194	0.019300	0.124000	0.632000
H1951	H195	0.016900	0.094800	0.681000
H1961	H196	0.981300	0.308900	0.654000
H1971	H197	0.032700	0.289100	0.658700
H1981	H198	0.011000	0.280200	0.617300
H1991	H199	0.787600	0.282900	0.907900
H2001	H200	0.768300	0.247300	0.948400
H2011	H201	0.818100	0.259000	0.945700
H2021	H202	0.762500	0.177300	0.970800
H2031	H203	0.795100	0.130100	0.971300
H2041	H204	0.811100	0.172300	0.986000
H2051	H205	0.866900	0.135100	0.894800
H2061	H206	0.821200	0.113500	0.904500
H2071	H207	0.830100	0.150500	0.861300
H2081	H208	0.787500	0.188500	0.737800
H2091	H209	0.820600	0.217700	0.751700
H2101	H210	0.820200	0.166200	0.773900
H2111	H211	0.769500	0.134600	0.781200
H2121	H212	0.759300	0.112000	0.832600
H2131	H213	0.718900	0.129500	0.803600
H2141	H214	0.683600	0.213400	0.850700
H2151	H215	0.700900	0.168700	0.882600
H2161	H216	0.724200	0.213000	0.878000
H2171	H217	0.593300	0.627400	0.084000
H2181	H218	0.484100	0.572300	0.148700
H2191	H219	0.497700	0.587900	0.216700
H2201	H220	0.559500	0.624100	0.219200
H2211	H221	0.555600	0.630700	0.022700
H2221	H222	0.587300	0.583800	0.034000
H2231	H223	0.475200	0.622900	0.871500
H2241	H224	0.456800	0.651200	0.912600
H2251	H225	0.402700	0.680400	0.868800
H2261	H226	0.274500	0.664400	0.862700
H2271	H227	0.289400	0.588700	0.894700
H2281	H228	0.358400	0.560700	0.917300
H2291	H229	0.535900	0.461700	0.927300
H2301	H230	0.558800	0.452300	0.972300
H2311	H231	0.679300	0.447500	0.873400
H2321	H232	0.685300	0.312400	0.889400
H2331	H233	0.612800	0.318100	0.930400
H2341	H234	0.572700	0.388900	0.942300
H2351	H235	0.455700	0.658600	0.977100
H2361	H236	0.490500	0.654700	0.011900
H2371	H237	0.503000	0.676700	0.960600
H2381	H238	0.477800	0.518700	0.888500
H2391	H239	0.499800	0.559200	0.856900
H2401	H240	0.530200	0.511700	0.868600
H2411	H241	0.566400	0.491600	0.043900
H2421	H242	0.601400	0.478800	0.001000
H2431	H243	0.606800	0.520000	0.024900
H2441	H244	0.576800	0.755300	0.131900
H2451	H245	0.452600	0.719800	0.173100
H2461	H246	0.449000	0.707200	0.102000
H2471	H247	0.508400	0.719400	0.043000
H2481	H248	0.577300	0.739900	0.216100
H2491	H249	0.560300	0.788800	0.190500
H2501	H250	0.553600	0.715000	0.382600
H2511	H251	0.525400	0.755200	0.408400
H2521	H252	0.659100	0.780100	0.413600
H2531	H253	0.628500	0.758000	0.549700
H2541	H254	0.562500	0.732000	0.541800
H2551	H255	0.543000	0.731700	0.471900
H2561	H256	0.440900	0.879100	0.331800
H2571	H257	0.440800	0.883500	0.278600
H2581	H258	0.393600	0.943900	0.305000
H2591	H259	0.393000	0.073000	0.323200
H2601	H260	0.471800	0.059700	0.312300
H2611	H261	0.510300	0.990600	0.299400
H2621	H262	0.564700	0.688900	0.321400
H2631	H263	0.580500	0.701300	0.268600
H2641	H264	0.608800	0.712600	0.304000
H2651	H265	0.527200	0.843100	0.391600
H2661	H266	0.480700	0.868000	0.376000
H2671	H267	0.483100	0.819000	0.405200
H2681	H268	0.518700	0.846000	0.191100
H2691	H269	0.467300	0.841300	0.210900
H2701	H270	0.489000	0.882700	0.219800
H2711	H271	0.712400	0.592100	0.217100
H2721	H272	0.731700	0.551600	0.252700
H2731	H273	0.681900	0.554300	0.241000
H2741	H274	0.737500	0.529200	0.322700
H2751	H275	0.704900	0.528700	0.369900
H2761	H276	0.688900	0.514000	0.327700
H2771	H277	0.633100	0.605200	0.364900
H2781	H278	0.678800	0.595500	0.386500
H2791	H279	0.669900	0.638700	0.349500
H2801	H280	0.712500	0.762200	0.311500
H2811	H281	0.679400	0.748300	0.282300
H2821	H282	0.679800	0.726100	0.333800
H2831	H283	0.730500	0.718800	0.365400
H2841	H284	0.740700	0.667400	0.388000
H2851	H285	0.781100	0.696400	0.370500
H2861	H286	0.816400	0.649300	0.286600
H2871	H287	0.799100	0.617400	0.331300
H2881	H288	0.775800	0.622000	0.287000
H2891	H289	0.627400	0.084000	0.593300
H2901	H290	0.572300	0.148700	0.484100
H2911	H291	0.587900	0.216700	0.497700
H2921	H292	0.624100	0.219200	0.559500
H2931	H293	0.630700	0.022700	0.555600
H2941	H294	0.583800	0.034000	0.587300
H2951	H295	0.622900	0.871500	0.475200
H2961	H296	0.651200	0.912600	0.456800
H2971	H297	0.680400	0.868800	0.402700
H2981	H298	0.664400	0.862700	0.274500
H2991	H299	0.588700	0.894700	0.289400
H3001	H300	0.560700	0.917300	0.358400
H3011	H301	0.461700	0.927300	0.535900
H3021	H302	0.452300	0.972300	0.558800
H3031	H303	0.447500	0.873400	0.679300
H3041	H304	0.312400	0.889400	0.685300
H3051	H305	0.318100	0.930400	0.612800
H3061	H306	0.388900	0.942300	0.572700
H3071	H307	0.658600	0.977100	0.455700
H3081	H308	0.654700	0.011900	0.490500
H3091	H309	0.676700	0.960600	0.503000
H3101	H310	0.518700	0.888500	0.477800
H3111	H311	0.559200	0.856900	0.499800
H3121	H312	0.511700	0.868600	0.530200
H3131	H313	0.491600	0.043900	0.566400
H3141	H314	0.478800	0.001000	0.601400
H3151	H315	0.520000	0.024900	0.606800
H3161	H316	0.755300	0.131900	0.576800
H3171	H317	0.719800	0.173100	0.452600
H3181	H318	0.707200	0.102000	0.449000
H3191	H319	0.719400	0.043000	0.508400
H3201	H320	0.739900	0.216100	0.577300
H3211	H321	0.788800	0.190500	0.560300
H3221	H322	0.715000	0.382600	0.553600
H3231	H323	0.755200	0.408400	0.525400
H3241	H324	0.780100	0.413600	0.659100
H3251	H325	0.758000	0.549700	0.628500
H3261	H326	0.732000	0.541800	0.562500
H3271	H327	0.731700	0.471900	0.543000
H3281	H328	0.879100	0.331800	0.440900
H3291	H329	0.883500	0.278600	0.440800
H3301	H330	0.943900	0.305000	0.393600
H3311	H331	0.073000	0.323200	0.393000
H3321	H332	0.059700	0.312300	0.471800
H3331	H333	0.990600	0.299400	0.510300
H3341	H334	0.688900	0.321400	0.564700
H3351	H335	0.701300	0.268600	0.580500
H3361	H336	0.712600	0.304000	0.608800
H3371	H337	0.843100	0.391600	0.527200
H3381	H338	0.868000	0.376000	0.480700
H3391	H339	0.819000	0.405200	0.483100
H3401	H340	0.846000	0.191100	0.518700
H3411	H341	0.841300	0.210900	0.467300
H3421	H342	0.882700	0.219800	0.489000
H3431	H343	0.592100	0.217100	0.712400
H3441	H344	0.551600	0.252700	0.731700
H3451	H345	0.554300	0.241000	0.681900
H3461	H346	0.529200	0.322700	0.737500
H3471	H347	0.528700	0.369900	0.704900
H3481	H348	0.514000	0.327700	0.688900
H3491	H349	0.605200	0.364900	0.633100
H3501	H350	0.595500	0.386500	0.678800
H3511	H351	0.638700	0.349500	0.669900
H3521	H352	0.762200	0.311500	0.712500
H3531	H353	0.748300	0.282300	0.679400
H3541	H354	0.726100	0.333800	0.679800
H3551	H355	0.718800	0.365400	0.730500
H3561	H356	0.667400	0.388000	0.740700
H3571	H357	0.696400	0.370500	0.781100
H3581	H358	0.649300	0.286600	0.816400
H3591	H359	0.617400	0.331300	0.799100
H3601	H360	0.622000	0.287000	0.775800
H3611	H361	0.084000	0.593300	0.627400
H3621	H362	0.148700	0.484100	0.572300
H3631	H363	0.216700	0.497700	0.587900
H3641	H364	0.219200	0.559500	0.624100
H3651	H365	0.022700	0.555600	0.630700
H3661	H366	0.034000	0.587300	0.583800
H3671	H367	0.871500	0.475200	0.622900
H3681	H368	0.912600	0.456800	0.651200
H3691	H369	0.868800	0.402700	0.680400
H3701	H370	0.862700	0.274500	0.664400
H3711	H371	0.894700	0.289400	0.588700
H3721	H372	0.917300	0.358400	0.560700
H3731	H373	0.927300	0.535900	0.461700
H3741	H374	0.972300	0.558800	0.452300
H3751	H375	0.873400	0.679300	0.447500
H3761	H376	0.889400	0.685300	0.312400
H3771	H377	0.930400	0.612800	0.318100
H3781	H378	0.942300	0.572700	0.388900
H3791	H379	0.977100	0.455700	0.658600
H3801	H380	0.011900	0.490500	0.654700
H3811	H381	0.960600	0.503000	0.676700
H3821	H382	0.888500	0.477800	0.518700
H3831	H383	0.856900	0.499800	0.559200
H3841	H384	0.868600	0.530200	0.511700
H3851	H385	0.043900	0.566400	0.491600
H3861	H386	0.001000	0.601400	0.478800
H3871	H387	0.024900	0.606800	0.520000
H3881	H388	0.131900	0.576800	0.755300
H3891	H389	0.173100	0.452600	0.719800
H3901	H390	0.102000	0.449000	0.707200
H3911	H391	0.043000	0.508400	0.719400
H3921	H392	0.216100	0.577300	0.739900
H3931	H393	0.190500	0.560300	0.788800
H3941	H394	0.382600	0.553600	0.715000
H3951	H395	0.408400	0.525400	0.755200
H3961	H396	0.413600	0.659100	0.780100
H3971	H397	0.549700	0.628500	0.758000
H3981	H398	0.541800	0.562500	0.732000
H3991	H399	0.471900	0.543000	0.731700
H4001	H400	0.331800	0.440900	0.879100
H4011	H401	0.278600	0.440800	0.883500
H4021	H402	0.305000	0.393600	0.943900
H4031	H403	0.323200	0.393000	0.073000
H4041	H404	0.312300	0.471800	0.059700
H4051	H405	0.299400	0.510300	0.990600
H4061	H406	0.321400	0.564700	0.688900
H4071	H407	0.268600	0.580500	0.701300
H4081	H408	0.304000	0.608800	0.712600
H4091	H409	0.391600	0.527200	0.843100
H4101	H410	0.376000	0.480700	0.868000
H4111	H411	0.405200	0.483100	0.819000
H4121	H412	0.191100	0.518700	0.846000
H4131	H413	0.210900	0.467300	0.841300
H4141	H414	0.219800	0.489000	0.882700
H4151	H415	0.217100	0.712400	0.592100
H4161	H416	0.252700	0.731700	0.551600
H4171	H417	0.241000	0.681900	0.554300
H4181	H418	0.322700	0.737500	0.529200
H4191	H419	0.369900	0.704900	0.528700
H4201	H420	0.327700	0.688900	0.514000
H4211	H421	0.364900	0.633100	0.605200
H4221	H422	0.386500	0.678800	0.595500
H4231	H423	0.349500	0.669900	0.638700
H4241	H424	0.311500	0.712500	0.762200
H4251	H425	0.282300	0.679400	0.748300
H4261	H426	0.333800	0.679800	0.726100
H4271	H427	0.365400	0.730500	0.718800
H4281	H428	0.388000	0.740700	0.667400
H4291	H429	0.370500	0.781100	0.696400
H4301	H430	0.286600	0.816400	0.649300
H4311	H431	0.331300	0.799100	0.617400
H4321	H432	0.287000	0.775800	0.622000
H4331	H433	0.127400	0.093300	0.584000
H4341	H434	0.072300	0.984100	0.648700
H4351	H435	0.087900	0.997700	0.716700
H4361	H436	0.124100	0.059500	0.719200
H4371	H437	0.130700	0.055600	0.522700
H4381	H438	0.083800	0.087300	0.534000
H4391	H439	0.122900	0.975200	0.371500
H4401	H440	0.151200	0.956800	0.412600
H4411	H441	0.180400	0.902700	0.368800
H4421	H442	0.164400	0.774500	0.362700
H4431	H443	0.088700	0.789400	0.394700
H4441	H444	0.060700	0.858400	0.417300
H4451	H445	0.961700	0.035900	0.427300
H4461	H446	0.952300	0.058800	0.472300
H4471	H447	0.947500	0.179300	0.373400
H4481	H448	0.812400	0.185300	0.389400
H4491	H449	0.818100	0.112800	0.430400
H4501	H450	0.888900	0.072700	0.442300
H4511	H451	0.158600	0.955700	0.477100
H4521	H452	0.154700	0.990500	0.511900
H4531	H453	0.176700	0.003000	0.460600
H4541	H454	0.018700	0.977800	0.388500
H4551	H455	0.059200	0.999800	0.356900
H4561	H456	0.011700	0.030200	0.368600
H4571	H457	0.991600	0.066400	0.543900
H4581	H458	0.978800	0.101400	0.501000
H4591	H459	0.020000	0.106800	0.524900
H4601	H460	0.255300	0.076800	0.631900
H4611	H461	0.219800	0.952600	0.673100
H4621	H462	0.207200	0.949000	0.602000
H4631	H463	0.219400	0.008400	0.543000
H4641	H464	0.239900	0.077300	0.716100
H4651	H465	0.288800	0.060300	0.690500
H4661	H466	0.215000	0.053600	0.882600
H4671	H467	0.255200	0.025400	0.908400
H4681	H468	0.280100	0.159100	0.913600
H4691	H469	0.258000	0.128500	0.049700
H4701	H470	0.232000	0.062500	0.041800
H4711	H471	0.231700	0.043000	0.971900
H4721	H472	0.379100	0.940900	0.831800
H4731	H473	0.383500	0.940800	0.778600
H4741	H474	0.443900	0.893600	0.805000
H4751	H475	0.573000	0.893000	0.823200
H4761	H476	0.559700	0.971800	0.812300
H4771	H477	0.490600	0.010300	0.799400
H4781	H478	0.188900	0.064700	0.821400
H4791	H479	0.201300	0.080500	0.768600
H4801	H480	0.212600	0.108800	0.804000
H4811	H481	0.343100	0.027200	0.891600
H4821	H482	0.368000	0.980700	0.876000
H4831	H483	0.319000	0.983100	0.905200
H4841	H484	0.346000	0.018700	0.691100
H4851	H485	0.341300	0.967300	0.710900
H4861	H486	0.382700	0.989000	0.719800
H4871	H487	0.092100	0.212400	0.717100
H4881	H488	0.051600	0.231700	0.752700
H4891	H489	0.054300	0.181900	0.741000
H4901	H490	0.029200	0.237500	0.822700
H4911	H491	0.028700	0.204900	0.869900
H4921	H492	0.014000	0.188900	0.827700
H4931	H493	0.105200	0.133100	0.864900
H4941	H494	0.095500	0.178800	0.886500
H4951	H495	0.138700	0.169900	0.849500
H4961	H496	0.262200	0.212500	0.811500
H4971	H497	0.248300	0.179400	0.782300
H4981	H498	0.226100	0.179800	0.833800
H4991	H499	0.218800	0.230500	0.865400
H5001	H500	0.167400	0.240700	0.888000
H5011	H501	0.196400	0.281100	0.870500
H5021	H502	0.149300	0.316400	0.786600
H5031	H503	0.117400	0.299100	0.831300
H5041	H504	0.122000	0.275800	0.787000
H5051	H505	0.584000	0.127400	0.093300
H5061	H506	0.648700	0.072300	0.984100
H5071	H507	0.716700	0.087900	0.997700
H5081	H508	0.719200	0.124100	0.059500
H5091	H509	0.522700	0.130700	0.055600
H5101	H510	0.534000	0.083800	0.087300
H5111	H511	0.371500	0.122900	0.975200
H5121	H512	0.412600	0.151200	0.956800
H5131	H513	0.368800	0.180400	0.902700
H5141	H514	0.362700	0.164400	0.774500
H5151	H515	0.394700	0.088700	0.789400
H5161	H516	0.417300	0.060700	0.858400
H5171	H517	0.427300	0.961700	0.035900
H5181	H518	0.472300	0.952300	0.058800
H5191	H519	0.373400	0.947500	0.179300
H5201	H520	0.389400	0.812400	0.185300
H5211	H521	0.430400	0.818100	0.112800
H5221	H522	0.442300	0.888900	0.072700
H5231	H523	0.477100	0.158600	0.955700
H5241	H524	0.511900	0.154700	0.990500
H5251	H525	0.460600	0.176700	0.003000
H5261	H526	0.388500	0.018700	0.977800
H5271	H527	0.356900	0.059200	0.999800
H5281	H528	0.368600	0.011700	0.030200
H5291	H529	0.543900	0.991600	0.066400
H5301	H530	0.501000	0.978800	0.101400
H5311	H531	0.524900	0.020000	0.106800
H5321	H532	0.631900	0.255300	0.076800
H5331	H533	0.673100	0.219800	0.952600
H5341	H534	0.602000	0.207200	0.949000
H5351	H535	0.543000	0.219400	0.008400
H5361	H536	0.716100	0.239900	0.077300
H5371	H537	0.690500	0.288800	0.060300
H5381	H538	0.882600	0.215000	0.053600
H5391	H539	0.908400	0.255200	0.025400
H5401	H540	0.913600	0.280100	0.159100
H5411	H541	0.049700	0.258000	0.128500
H5421	H542	0.041800	0.232000	0.062500
H5431	H543	0.971900	0.231700	0.043000
H5441	H544	0.831800	0.379100	0.940900
H5451	H545	0.778600	0.383500	0.940800
H5461	H546	0.805000	0.443900	0.893600
H5471	H547	0.823200	0.573000	0.893000
H5481	H548	0.812300	0.559700	0.971800
H5491	H549	0.799400	0.490600	0.010300
H5501	H550	0.821400	0.188900	0.064700
H5511	H551	0.768600	0.201300	0.080500
H5521	H552	0.804000	0.212600	0.108800
H5531	H553	0.891600	0.343100	0.027200
H5541	H554	0.876000	0.368000	0.980700
H5551	H555	0.905200	0.319000	0.983100
H5561	H556	0.691100	0.346000	0.018700
H5571	H557	0.710900	0.341300	0.967300
H5581	H558	0.719800	0.382700	0.989000
H5591	H559	0.717100	0.092100	0.212400
H5601	H560	0.752700	0.051600	0.231700
H5611	H561	0.741000	0.054300	0.181900
H5621	H562	0.822700	0.029200	0.237500
H5631	H563	0.869900	0.028700	0.204900
H5641	H564	0.827700	0.014000	0.188900
H5651	H565	0.864900	0.105200	0.133100
H5661	H566	0.886500	0.095500	0.178800
H5671	H567	0.849500	0.138700	0.169900
H5681	H568	0.811500	0.262200	0.212500
H5691	H569	0.782300	0.248300	0.179400
H5701	H570	0.833800	0.226100	0.179800
H5711	H571	0.865400	0.218800	0.230500
H5721	H572	0.888000	0.167400	0.240700
H5731	H573	0.870500	0.196400	0.281100
H5741	H574	0.786600	0.149300	0.316400
H5751	H575	0.831300	0.117400	0.299100
H5761	H576	0.787000	0.122000	0.275800
H5771	H577	0.093300	0.584000	0.127400
H5781	H578	0.984100	0.648700	0.072300
H5791	H579	0.997700	0.716700	0.087900
H5801	H580	0.059500	0.719200	0.124100
H5811	H581	0.055600	0.522700	0.130700
H5821	H582	0.087300	0.534000	0.083800
H5831	H583	0.975200	0.371500	0.122900
H5841	H584	0.956800	0.412600	0.151200
H5851	H585	0.902700	0.368800	0.180400
H5861	H586	0.774500	0.362700	0.164400
H5871	H587	0.789400	0.394700	0.088700
H5881	H588	0.858400	0.417300	0.060700
H5891	H589	0.035900	0.427300	0.961700
H5901	H590	0.058800	0.472300	0.952300
H5911	H591	0.179300	0.373400	0.947500
H5921	H592	0.185300	0.389400	0.812400
H5931	H593	0.112800	0.430400	0.818100
H5941	H594	0.072700	0.442300	0.888900
H5951	H595	0.955700	0.477100	0.158600
H5961	H596	0.990500	0.511900	0.154700
H5971	H597	0.003000	0.460600	0.176700
H5981	H598	0.977800	0.388500	0.018700
H5991	H599	0.999800	0.356900	0.059200
H6001	H600	0.030200	0.368600	0.011700
H6011	H601	0.066400	0.543900	0.991600
H6021	H602	0.101400	0.501000	0.978800
H6031	H603	0.106800	0.524900	0.020000
H6041	H604	0.076800	0.631900	0.255300
H6051	H605	0.952600	0.673100	0.219800
H6061	H606	0.949000	0.602000	0.207200
H6071	H607	0.008400	0.543000	0.219400
H6081	H608	0.077300	0.716100	0.239900
H6091	H609	0.060300	0.690500	0.288800
H6101	H610	0.053600	0.882600	0.215000
H6111	H611	0.025400	0.908400	0.255200
H6121	H612	0.159100	0.913600	0.280100
H6131	H613	0.128500	0.049700	0.258000
H6141	H614	0.062500	0.041800	0.232000
H6151	H615	0.043000	0.971900	0.231700
H6161	H616	0.940900	0.831800	0.379100
H6171	H617	0.940800	0.778600	0.383500
H6181	H618	0.893600	0.805000	0.443900
H6191	H619	0.893000	0.823200	0.573000
H6201	H620	0.971800	0.812300	0.559700
H6211	H621	0.010300	0.799400	0.490600
H6221	H622	0.064700	0.821400	0.188900
H6231	H623	0.080500	0.768600	0.201300
H6241	H624	0.108800	0.804000	0.212600
H6251	H625	0.027200	0.891600	0.343100
H6261	H626	0.980700	0.876000	0.368000
H6271	H627	0.983100	0.905200	0.319000
H6281	H628	0.018700	0.691100	0.346000
H6291	H629	0.967300	0.710900	0.341300
H6301	H630	0.989000	0.719800	0.382700
H6311	H631	0.212400	0.717100	0.092100
H6321	H632	0.231700	0.752700	0.051600
H6331	H633	0.181900	0.741000	0.054300
H6341	H634	0.237500	0.822700	0.029200
H6351	H635	0.204900	0.869900	0.028700
H6361	H636	0.188900	0.827700	0.014000
H6371	H637	0.133100	0.864900	0.105200
H6381	H638	0.178800	0.886500	0.095500
H6391	H639	0.169900	0.849500	0.138700
H6401	H640	0.212500	0.811500	0.262200
H6411	H641	0.179400	0.782300	0.248300
H6421	H642	0.179800	0.833800	0.226100
H6431	H643	0.230500	0.865400	0.218800
H6441	H644	0.240700	0.888000	0.167400
H6451	H645	0.281100	0.870500	0.196400
H6461	H646	0.316400	0.786600	0.149300
H6471	H647	0.299100	0.831300	0.117400
H6481	H648	0.275800	0.787000	0.122000
H6491	H649	0.406700	0.372600	0.916000
H6501	H650	0.515900	0.427700	0.851300
H6511	H651	0.502300	0.412100	0.783300
H6521	H652	0.440500	0.375900	0.780800
H6531	H653	0.444400	0.369300	0.977300
H6541	H654	0.412700	0.416200	0.966000
H6551	H655	0.524800	0.377100	0.128500
H6561	H656	0.543200	0.348800	0.087400
H6571	H657	0.597300	0.319600	0.131200
H6581	H658	0.725500	0.335600	0.137300
H6591	H659	0.710600	0.411300	0.105300
H6601	H660	0.641600	0.439300	0.082700
H6611	H661	0.464100	0.538300	0.072700
H6621	H662	0.441200	0.547700	0.027700
H6631	H663	0.320700	0.552500	0.126600
H6641	H664	0.314700	0.687600	0.110600
H6651	H665	0.387200	0.681900	0.069600
H6661	H666	0.427300	0.611100	0.057700
H6671	H667	0.544300	0.341400	0.022900
H6681	H668	0.509500	0.345300	0.988100
H6691	H669	0.497000	0.323300	0.039400
H6701	H670	0.522200	0.481300	0.111500
H6711	H671	0.500200	0.440800	0.143100
H6721	H672	0.469800	0.488300	0.131400
H6731	H673	0.433600	0.508400	0.956100
H6741	H674	0.398600	0.521200	0.999000
H6751	H675	0.393200	0.480000	0.975100
H6761	H676	0.423200	0.244700	0.868100
H6771	H677	0.547400	0.280200	0.826900
H6781	H678	0.551000	0.292800	0.898000
H6791	H679	0.491600	0.280600	0.957000
H6801	H680	0.422700	0.260100	0.783900
H6811	H681	0.439700	0.211200	0.809500
H6821	H682	0.446400	0.285000	0.617400
H6831	H683	0.474600	0.244800	0.591600
H6841	H684	0.340900	0.219900	0.586400
H6851	H685	0.371500	0.242000	0.450300
H6861	H686	0.437500	0.268000	0.458200
H6871	H687	0.457000	0.268300	0.528100
H6881	H688	0.559100	0.120900	0.668200
H6891	H689	0.559200	0.116500	0.721400
H6901	H690	0.606400	0.056100	0.695000
H6911	H691	0.607000	0.927000	0.676800
H6921	H692	0.528200	0.940300	0.687700
H6931	H693	0.489700	0.009400	0.700600
H6941	H694	0.435300	0.311100	0.678600
H6951	H695	0.419500	0.298700	0.731400
H6961	H696	0.391200	0.287400	0.696000
H6971	H697	0.472800	0.156900	0.608400
H6981	H698	0.519300	0.132000	0.624000
H6991	H699	0.516900	0.181000	0.594800
H7001	H700	0.481300	0.154000	0.808900
H7011	H701	0.532700	0.158700	0.789100
H7021	H702	0.511000	0.117300	0.780200
H7031	H703	0.287600	0.407900	0.782900
H7041	H704	0.268300	0.448400	0.747300
H7051	H705	0.318100	0.445700	0.759000
H7061	H706	0.262500	0.470800	0.677300
H7071	H707	0.295100	0.471300	0.630100
H7081	H708	0.311100	0.486000	0.672300
H7091	H709	0.366900	0.394800	0.635100
H7101	H710	0.321200	0.404500	0.613500
H7111	H711	0.330100	0.361300	0.650500
H7121	H712	0.287500	0.237800	0.688500
H7131	H713	0.320600	0.251700	0.717700
H7141	H714	0.320200	0.273900	0.666200
H7151	H715	0.269500	0.281200	0.634600
H7161	H716	0.259300	0.332600	0.612000
H7171	H717	0.218900	0.303600	0.629500
H7181	H718	0.183600	0.350700	0.713400
H7191	H719	0.200900	0.382600	0.668700
H7201	H720	0.224200	0.378000	0.713000
H7211	H721	0.372600	0.916000	0.406700
H7221	H722	0.427700	0.851300	0.515900
H7231	H723	0.412100	0.783300	0.502300
H7241	H724	0.375900	0.780800	0.440500
H7251	H725	0.369300	0.977300	0.444400
H7261	H726	0.416200	0.966000	0.412700
H7271	H727	0.377100	0.128500	0.524800
H7281	H728	0.348800	0.087400	0.543200
H7291	H729	0.319600	0.131200	0.597300
H7301	H730	0.335600	0.137300	0.725500
H7311	H731	0.411300	0.105300	0.710600
H7321	H732	0.439300	0.082700	0.641600
H7331	H733	0.538300	0.072700	0.464100
H7341	H734	0.547700	0.027700	0.441200
H7351	H735	0.552500	0.126600	0.320700
H7361	H736	0.687600	0.110600	0.314700
H7371	H737	0.681900	0.069600	0.387200
H7381	H738	0.611100	0.057700	0.427300
H7391	H739	0.341400	0.022900	0.544300
H7401	H740	0.345300	0.988100	0.509500
H7411	H741	0.323300	0.039400	0.497000
H7421	H742	0.481300	0.111500	0.522200
H7431	H743	0.440800	0.143100	0.500200
H7441	H744	0.488300	0.131400	0.469800
H7451	H745	0.508400	0.956100	0.433600
H7461	H746	0.521200	0.999000	0.398600
H7471	H747	0.480000	0.975100	0.393200
H7481	H748	0.244700	0.868100	0.423200
H7491	H749	0.280200	0.826900	0.547400
H7501	H750	0.292800	0.898000	0.551000
H7511	H751	0.280600	0.957000	0.491600
H7521	H752	0.260100	0.783900	0.422700
H7531	H753	0.211200	0.809500	0.439700
H7541	H754	0.285000	0.617400	0.446400
H7551	H755	0.244800	0.591600	0.474600
H7561	H756	0.219900	0.586400	0.340900
H7571	H757	0.242000	0.450300	0.371500
H7581	H758	0.268000	0.458200	0.437500
H7591	H759	0.268300	0.528100	0.457000
H7601	H760	0.120900	0.668200	0.559100
H7611	H761	0.116500	0.721400	0.559200
H7621	H762	0.056100	0.695000	0.606400
H7631	H763	0.927000	0.676800	0.607000
H7641	H764	0.940300	0.687700	0.528200
H7651	H765	0.009400	0.700600	0.489700
H7661	H766	0.311100	0.678600	0.435300
H7671	H767	0.298700	0.731400	0.419500
H7681	H768	0.287400	0.696000	0.391200
H7691	H769	0.156900	0.608400	0.472800
H7701	H770	0.132000	0.624000	0.519300
H7711	H771	0.181000	0.594800	0.516900
H7721	H772	0.154000	0.808900	0.481300
H7731	H773	0.158700	0.789100	0.532700
H7741	H774	0.117300	0.780200	0.511000
H7751	H775	0.407900	0.782900	0.287600
H7761	H776	0.448400	0.747300	0.268300
H7771	H777	0.445700	0.759000	0.318100
H7781	H778	0.470800	0.677300	0.262500
H7791	H779	0.471300	0.630100	0.295100
H7801	H780	0.486000	0.672300	0.311100
H7811	H781	0.394800	0.635100	0.366900
H7821	H782	0.404500	0.613500	0.321200
H7831	H783	0.361300	0.650500	0.330100
H7841	H784	0.237800	0.688500	0.287500
H7851	H785	0.251700	0.717700	0.320600
H7861	H786	0.273900	0.666200	0.320200
H7871	H787	0.281200	0.634600	0.269500
H7881	H788	0.332600	0.612000	0.259300
H7891	H789	0.303600	0.629500	0.218900
H7901	H790	0.350700	0.713400	0.183600
H7911	H791	0.382600	0.668700	0.200900
H7921	H792	0.378000	0.713000	0.224200
H7931	H793	0.916000	0.406700	0.372600
H7941	H794	0.851300	0.515900	0.427700
H7951	H795	0.783300	0.502300	0.412100
H7961	H796	0.780800	0.440500	0.375900
H7971	H797	0.977300	0.444400	0.369300
H7981	H798	0.966000	0.412700	0.416200
H7991	H799	0.128500	0.524800	0.377100
H8001	H800	0.087400	0.543200	0.348800
H8011	H801	0.131200	0.597300	0.319600
H8021	H802	0.137300	0.725500	0.335600
H8031	H803	0.105300	0.710600	0.411300
H8041	H804	0.082700	0.641600	0.439300
H8051	H805	0.072700	0.464100	0.538300
H8061	H806	0.027700	0.441200	0.547700
H8071	H807	0.126600	0.320700	0.552500
H8081	H808	0.110600	0.314700	0.687600
H8091	H809	0.069600	0.387200	0.681900
H8101	H810	0.057700	0.427300	0.611100
H8111	H811	0.022900	0.544300	0.341400
H8121	H812	0.988100	0.509500	0.345300
H8131	H813	0.039400	0.497000	0.323300
H8141	H814	0.111500	0.522200	0.481300
H8151	H815	0.143100	0.500200	0.440800
H8161	H816	0.131400	0.469800	0.488300
H8171	H817	0.956100	0.433600	0.508400
H8181	H818	0.999000	0.398600	0.521200
H8191	H819	0.975100	0.393200	0.480000
H8201	H820	0.868100	0.423200	0.244700
H8211	H821	0.826900	0.547400	0.280200
H8221	H822	0.898000	0.551000	0.292800
H8231	H823	0.957000	0.491600	0.280600
H8241	H824	0.783900	0.422700	0.260100
H8251	H825	0.809500	0.439700	0.211200
H8261	H826	0.617400	0.446400	0.285000
H8271	H827	0.591600	0.474600	0.244800
H8281	H828	0.586400	0.340900	0.219900
H8291	H829	0.450300	0.371500	0.242000
H8301	H830	0.458200	0.437500	0.268000
H8311	H831	0.528100	0.457000	0.268300
H8321	H832	0.668200	0.559100	0.120900
H8331	H833	0.721400	0.559200	0.116500
H8341	H834	0.695000	0.606400	0.056100
H8351	H835	0.676800	0.607000	0.927000
H8361	H836	0.687700	0.528200	0.940300
H8371	H837	0.700600	0.489700	0.009400
H8381	H838	0.678600	0.435300	0.311100
H8391	H839	0.731400	0.419500	0.298700
H8401	H840	0.696000	0.391200	0.287400
H8411	H841	0.608400	0.472800	0.156900
H8421	H842	0.624000	0.519300	0.132000
H8431	H843	0.594800	0.516900	0.181000
H8441	H844	0.808900	0.481300	0.154000
H8451	H845	0.789100	0.532700	0.158700
H8461	H846	0.780200	0.511000	0.117300
H8471	H847	0.782900	0.287600	0.407900
H8481	H848	0.747300	0.268300	0.448400
H8491	H849	0.759000	0.318100	0.445700
H8501	H850	0.677300	0.262500	0.470800
H8511	H851	0.630100	0.295100	0.471300
H8521	H852	0.672300	0.311100	0.486000
H8531	H853	0.635100	0.366900	0.394800
H8541	H854	0.613500	0.321200	0.404500
H8551	H855	0.650500	0.330100	0.361300
H8561	H856	0.688500	0.287500	0.237800
H8571	H857	0.717700	0.320600	0.251700
H8581	H858	0.666200	0.320200	0.273900
H8591	H859	0.634600	0.269500	0.281200
H8601	H860	0.612000	0.259300	0.332600
H8611	H861	0.629500	0.218900	0.303600
H8621	H862	0.713400	0.183600	0.350700
H8631	H863	0.668700	0.200900	0.382600
H8641	H864	0.713000	0.224200	0.378000
C11	C1	0.846810	0.878330	0.348300
C21	C2	0.870220	0.918000	0.347980
C31	C3	0.880260	0.926120	0.388950
C41	C4	0.901480	0.962890	0.389790
C51	C5	0.913110	0.990830	0.350490
C61	C6	0.903820	0.982820	0.310220
C71	C7	0.882310	0.946070	0.308750
C81	C8	0.902210	0.943930	0.469490
C91	C9	0.920480	0.959570	0.505960
C101	C10	0.892860	0.991020	0.531680
C111	C11	0.908380	0.002260	0.568940
C121	C12	0.951420	0.984180	0.578930
C131	C13	0.980220	0.956870	0.550290
C141	C14	0.964650	0.944280	0.514220
C151	C15	0.879440	0.036240	0.595940
C161	C16	0.881450	0.113620	0.603040
C171	C17	0.837880	0.120610	0.625040
C181	C18	0.821350	0.162600	0.637860
C191	C19	0.847730	0.196430	0.629580
C201	C20	0.892380	0.187880	0.609680
C211	C21	0.908870	0.147190	0.596530
C221	C22	0.773620	0.171960	0.659160
C231	C23	0.028330	0.942370	0.557120
C241	C24	0.074800	0.877930	0.590450
C251	C25	0.078720	0.834460	0.615210
C261	C26	0.120330	0.811860	0.622840
C271	C27	0.158940	0.830940	0.605740
C281	C28	0.155600	0.873800	0.581400
C291	C29	0.113390	0.897590	0.573990
C301	C30	0.124130	0.765390	0.650510
C311	C31	0.846550	0.012330	0.519390
C321	C32	0.966790	0.995090	0.619790
C331	C33	0.996400	0.914860	0.483330
C341	C34	0.754950	0.913170	0.454310
C351	C35	0.761670	0.951770	0.417270
C361	C36	0.754110	0.949410	0.374210
C371	C37	0.759890	0.984190	0.340490
C381	C38	0.775240	0.022940	0.350140
C391	C39	0.782560	0.024960	0.392160
C401	C40	0.775800	0.989700	0.427400
C411	C41	0.735880	0.948880	0.285780
C421	C42	0.718400	0.962600	0.241000
C431	C43	0.743580	0.949880	0.201480
C441	C44	0.725320	0.962020	0.162120
C451	C45	0.682690	0.988890	0.161590
C461	C46	0.659990	0.004790	0.199890
C471	C47	0.676890	0.990390	0.240590
C481	C48	0.752160	0.950360	0.116460
C491	C49	0.743550	0.901450	0.064750
C501	C50	0.729390	0.860750	0.060330
C511	C51	0.729240	0.849640	0.018340
C521	C52	0.742830	0.878630	0.979330
C531	C53	0.757700	0.918100	0.984300
C541	C54	0.758130	0.929730	0.025730
C551	C55	0.713250	0.806050	0.014950
C561	C56	0.618760	0.039760	0.197960
C571	C57	0.539460	0.044660	0.197660
C581	C58	0.532440	0.090740	0.192440
C591	C59	0.491000	0.115400	0.183300
C601	C60	0.455820	0.091620	0.182020
C611	C61	0.463940	0.044540	0.188640
C621	C62	0.504880	0.021580	0.196280
C631	C63	0.483550	0.164750	0.179050
C641	C64	0.789200	0.921600	0.201900
C651	C65	0.661190	0.000590	0.118290
C661	C66	0.649310	0.005110	0.283510
C671	C67	0.901490	0.813090	0.219090
C681	C68	0.927960	0.795360	0.254960
C691	C69	0.965680	0.793880	0.162980
C701	C70	0.892820	0.834520	0.141020
C711	C71	0.803040	0.762740	0.209640
C721	C72	0.762570	0.801670	0.193870
C731	C73	0.809060	0.748060	0.135260
C741	C74	0.861980	0.710080	0.195080
C751	C75	0.348300	0.846810	0.878330
C761	C76	0.347980	0.870220	0.918000
C771	C77	0.388950	0.880260	0.926120
C781	C78	0.389790	0.901480	0.962890
C791	C79	0.350490	0.913110	0.990830
C801	C80	0.310220	0.903820	0.982820
C811	C81	0.308750	0.882310	0.946070
C821	C82	0.469490	0.902210	0.943930
C831	C83	0.505960	0.920480	0.959570
C841	C84	0.531680	0.892860	0.991020
C851	C85	0.568940	0.908380	0.002260
C861	C86	0.578930	0.951420	0.984180
C871	C87	0.550290	0.980220	0.956870
C881	C88	0.514220	0.964650	0.944280
C891	C89	0.595940	0.879440	0.036240
C901	C90	0.603040	0.881450	0.113620
C911	C91	0.625040	0.837880	0.120610
C921	C92	0.637860	0.821350	0.162600
C931	C93	0.629580	0.847730	0.196430
C941	C94	0.609680	0.892380	0.187880
C951	C95	0.596530	0.908870	0.147190
C961	C96	0.659160	0.773620	0.171960
C971	C97	0.557120	0.028330	0.942370
C981	C98	0.590450	0.074800	0.877930
C991	C99	0.615210	0.078720	0.834460
C1001	C100	0.622840	0.120330	0.811860
C1011	C101	0.605740	0.158940	0.830940
C1021	C102	0.581400	0.155600	0.873800
C1031	C103	0.573990	0.113390	0.897590
C1041	C104	0.650510	0.124130	0.765390
C1051	C105	0.519390	0.846550	0.012330
C1061	C106	0.619790	0.966790	0.995090
C1071	C107	0.483330	0.996400	0.914860
C1081	C108	0.454310	0.754950	0.913170
C1091	C109	0.417270	0.761670	0.951770
C1101	C110	0.374210	0.754110	0.949410
C1111	C111	0.340490	0.759890	0.984190
C1121	C112	0.350140	0.775240	0.022940
C1131	C113	0.392160	0.782560	0.024960
C1141	C114	0.427400	0.775800	0.989700
C1151	C115	0.285780	0.735880	0.948880
C1161	C116	0.241000	0.718400	0.962600
C1171	C117	0.201480	0.743580	0.949880
C1181	C118	0.162120	0.725320	0.962020
C1191	C119	0.161590	0.682690	0.988890
C1201	C120	0.199890	0.659990	0.004790
C1211	C121	0.240590	0.676890	0.990390
C1221	C122	0.116460	0.752160	0.950360
C1231	C123	0.064750	0.743550	0.901450
C1241	C124	0.060330	0.729390	0.860750
C1251	C125	0.018340	0.729240	0.849640
C1261	C126	0.979330	0.742830	0.878630
C1271	C127	0.984300	0.757700	0.918100
C1281	C128	0.025730	0.758130	0.929730
C1291	C129	0.014950	0.713250	0.806050
C1301	C130	0.197960	0.618760	0.039760
C1311	C131	0.197660	0.539460	0.044660
C1321	C132	0.192440	0.532440	0.090740
C1331	C133	0.183300	0.491000	0.115400
C1341	C134	0.182020	0.455820	0.091620
C1351	C135	0.188640	0.463940	0.044540
C1361	C136	0.196280	0.504880	0.021580
C1371	C137	0.179050	0.483550	0.164750
C1381	C138	0.201900	0.789200	0.921600
C1391	C139	0.118290	0.661190	0.000590
C1401	C140	0.283510	0.649310	0.005110
C1411	C141	0.219090	0.901490	0.813090
C1421	C142	0.254960	0.927960	0.795360
C1431	C143	0.162980	0.965680	0.793880
C1441	C144	0.141020	0.892820	0.834520
C1451	C145	0.209640	0.803040	0.762740
C1461	C146	0.193870	0.762570	0.801670
C1471	C147	0.135260	0.809060	0.748060
C1481	C148	0.195080	0.861980	0.710080
C1491	C149	0.878330	0.348300	0.846810
C1501	C150	0.918000	0.347980	0.870220
C1511	C151	0.926120	0.388950	0.880260
C1521	C152	0.962890	0.389790	0.901480
C1531	C153	0.990830	0.350490	0.913110
C1541	C154	0.982820	0.310220	0.903820
C1551	C155	0.946070	0.308750	0.882310
C1561	C156	0.943930	0.469490	0.902210
C1571	C157	0.959570	0.505960	0.920480
C1581	C158	0.991020	0.531680	0.892860
C1591	C159	0.002260	0.568940	0.908380
C1601	C160	0.984180	0.578930	0.951420
C1611	C161	0.956870	0.550290	0.980220
C1621	C162	0.944280	0.514220	0.964650
C1631	C163	0.036240	0.595940	0.879440
C1641	C164	0.113620	0.603040	0.881450
C1651	C165	0.120610	0.625040	0.837880
C1661	C166	0.162600	0.637860	0.821350
C1671	C167	0.196430	0.629580	0.847730
C1681	C168	0.187880	0.609680	0.892380
C1691	C169	0.147190	0.596530	0.908870
C1701	C170	0.171960	0.659160	0.773620
C1711	C171	0.942370	0.557120	0.028330
C1721	C172	0.877930	0.590450	0.074800
C1731	C173	0.834460	0.615210	0.078720
C1741	C174	0.811860	0.622840	0.120330
C1751	C175	0.830940	0.605740	0.158940
C1761	C176	0.873800	0.581400	0.155600
C1771	C177	0.897590	0.573990	0.113390
C1781	C178	0.765390	0.650510	0.124130
C1791	C179	0.012330	0.519390	0.846550
C1801	C180	0.995090	0.619790	0.966790
C1811	C181	0.914860	0.483330	0.996400
C1821	C182	0.913170	0.454310	0.754950
C1831	C183	0.951770	0.417270	0.761670
C1841	C184	0.949410	0.374210	0.754110
C1851	C185	0.984190	0.340490	0.759890
C1861	C186	0.022940	0.350140	0.775240
C1871	C187	0.024960	0.392160	0.782560
C1881	C188	0.989700	0.427400	0.775800
C1891	C189	0.948880	0.285780	0.735880
C1901	C190	0.962600	0.241000	0.718400
C1911	C191	0.949880	0.201480	0.743580
C1921	C192	0.962020	0.162120	0.725320
C1931	C193	0.988890	0.161590	0.682690
C1941	C194	0.004790	0.199890	0.659990
C1951	C195	0.990390	0.240590	0.676890
C1961	C196	0.950360	0.116460	0.752160
C1971	C197	0.901450	0.064750	0.743550
C1981	C198	0.860750	0.060330	0.729390
C1991	C199	0.849640	0.018340	0.729240
C2001	C200	0.878630	0.979330	0.742830
C2011	C201	0.918100	0.984300	0.757700
C2021	C202	0.929730	0.025730	0.758130
C2031	C203	0.806050	0.014950	0.713250
C2041	C204	0.039760	0.197960	0.618760
C2051	C205	0.044660	0.197660	0.539460
C2061	C206	0.090740	0.192440	0.532440
C2071	C207	0.115400	0.183300	0.491000
C2081	C208	0.091620	0.182020	0.455820
C2091	C209	0.044540	0.188640	0.463940
C2101	C210	0.021580	0.196280	0.504880
C2111	C211	0.164750	0.179050	0.483550
C2121	C212	0.921600	0.201900	0.789200
C2131	C213	0.000590	0.118290	0.661190
C2141	C214	0.005110	0.283510	0.649310
C2151	C215	0.813090	0.219090	0.901490
C2161	C216	0.795360	0.254960	0.927960
C2171	C217	0.793880	0.162980	0.965680
C2181	C218	0.834520	0.141020	0.892820
C2191	C219	0.762740	0.209640	0.803040
C2201	C220	0.801670	0.193870	0.762570
C2211	C221	0.748060	0.135260	0.809060
C2221	C222	0.710080	0.195080	0.861980
C2231	C223	0.621670	0.653190	0.151700
C2241	C224	0.582000	0.629780	0.152020
C2251	C225	0.573880	0.619740	0.111050
C2261	C226	0.537110	0.598520	0.110210
C2271	C227	0.509170	0.586890	0.149510
C2281	C228	0.517180	0.596180	0.189780
C2291	C229	0.553930	0.617690	0.191250
C2301	C230	0.556070	0.597790	0.030510
C2311	C231	0.540430	0.579520	0.994040
C2321	C232	0.508980	0.607140	0.968320
C2331	C233	0.497740	0.591620	0.931060
C2341	C234	0.515820	0.548580	0.921070
C2351	C235	0.543130	0.519780	0.949710
C2361	C236	0.555720	0.535350	0.985780
C2371	C237	0.463760	0.620560	0.904060
C2381	C238	0.386380	0.618550	0.896960
C2391	C239	0.379390	0.662120	0.874960
C2401	C240	0.337400	0.678650	0.862140
C2411	C241	0.303570	0.652270	0.870420
C2421	C242	0.312120	0.607620	0.890320
C2431	C243	0.352810	0.591130	0.903470
C2441	C244	0.328040	0.726380	0.840840
C2451	C245	0.557630	0.471670	0.942880
C2461	C246	0.622070	0.425200	0.909550
C2471	C247	0.665540	0.421280	0.884790
C2481	C248	0.688140	0.379670	0.877160
C2491	C249	0.669060	0.341060	0.894260
C2501	C250	0.626200	0.344400	0.918600
C2511	C251	0.602410	0.386610	0.926010
C2521	C252	0.734610	0.375870	0.849490
C2531	C253	0.487670	0.653450	0.980610
C2541	C254	0.504910	0.533210	0.880210
C2551	C255	0.585140	0.503600	0.016670
C2561	C256	0.586830	0.745050	0.045690
C2571	C257	0.548230	0.738330	0.082730
C2581	C258	0.550590	0.745890	0.125790
C2591	C259	0.515810	0.740110	0.159510
C2601	C260	0.477060	0.724760	0.149860
C2611	C261	0.475040	0.717440	0.107840
C2621	C262	0.510300	0.724200	0.072600
C2631	C263	0.551120	0.764120	0.214220
C2641	C264	0.537400	0.781600	0.259000
C2651	C265	0.550120	0.756420	0.298520
C2661	C266	0.537980	0.774680	0.337880
C2671	C267	0.511110	0.817310	0.338410
C2681	C268	0.495210	0.840010	0.300110
C2691	C269	0.509610	0.823110	0.259410
C2701	C270	0.549640	0.747840	0.383540
C2711	C271	0.598550	0.756450	0.435250
C2721	C272	0.639250	0.770610	0.439670
C2731	C273	0.650360	0.770760	0.481660
C2741	C274	0.621370	0.757170	0.520670
C2751	C275	0.581900	0.742300	0.515700
C2761	C276	0.570270	0.741870	0.474270
C2771	C277	0.693950	0.786750	0.485050
C2781	C278	0.460240	0.881240	0.302040
C2791	C279	0.455340	0.960540	0.302340
C2801	C280	0.409260	0.967560	0.307560
C2811	C281	0.384600	0.009000	0.316700
C2821	C282	0.408380	0.044180	0.317980
C2831	C283	0.455460	0.036060	0.311360
C2841	C284	0.478420	0.995120	0.303720
C2851	C285	0.335250	0.016450	0.320950
C2861	C286	0.578400	0.710800	0.298100
C2871	C287	0.499410	0.838810	0.381710
C2881	C288	0.494890	0.850690	0.216490
C2891	C289	0.686910	0.598510	0.280910
C2901	C290	0.704640	0.572040	0.245040
C2911	C291	0.706120	0.534320	0.337020
C2921	C292	0.665480	0.607180	0.358980
C2931	C293	0.737260	0.696960	0.290360
C2941	C294	0.698330	0.737430	0.306130
C2951	C295	0.751940	0.690940	0.364740
C2961	C296	0.789920	0.638020	0.304920
C2971	C297	0.653190	0.151700	0.621670
C2981	C298	0.629780	0.152020	0.582000
C2991	C299	0.619740	0.111050	0.573880
C3001	C300	0.598520	0.110210	0.537110
C3011	C301	0.586890	0.149510	0.509170
C3021	C302	0.596180	0.189780	0.517180
C3031	C303	0.617690	0.191250	0.553930
C3041	C304	0.597790	0.030510	0.556070
C3051	C305	0.579520	0.994040	0.540430
C3061	C306	0.607140	0.968320	0.508980
C3071	C307	0.591620	0.931060	0.497740
C3081	C308	0.548580	0.921070	0.515820
C3091	C309	0.519780	0.949710	0.543130
C3101	C310	0.535350	0.985780	0.555720
C3111	C311	0.620560	0.904060	0.463760
C3121	C312	0.618550	0.896960	0.386380
C3131	C313	0.662120	0.874960	0.379390
C3141	C314	0.678650	0.862140	0.337400
C3151	C315	0.652270	0.870420	0.303570
C3161	C316	0.607620	0.890320	0.312120
C3171	C317	0.591130	0.903470	0.352810
C3181	C318	0.726380	0.840840	0.328040
C3191	C319	0.471670	0.942880	0.557630
C3201	C320	0.425200	0.909550	0.622070
C3211	C321	0.421280	0.884790	0.665540
C3221	C322	0.379670	0.877160	0.688140
C3231	C323	0.341060	0.894260	0.669060
C3241	C324	0.344400	0.918600	0.626200
C3251	C325	0.386610	0.926010	0.602410
C3261	C326	0.375870	0.849490	0.734610
C3271	C327	0.653450	0.980610	0.487670
C3281	C328	0.533210	0.880210	0.504910
C3291	C329	0.503600	0.016670	0.585140
C3301	C330	0.745050	0.045690	0.586830
C3311	C331	0.738330	0.082730	0.548230
C3321	C332	0.745890	0.125790	0.550590
C3331	C333	0.740110	0.159510	0.515810
C3341	C334	0.724760	0.149860	0.477060
C3351	C335	0.717440	0.107840	0.475040
C3361	C336	0.724200	0.072600	0.510300
C3371	C337	0.764120	0.214220	0.551120
C3381	C338	0.781600	0.259000	0.537400
C3391	C339	0.756420	0.298520	0.550120
C3401	C340	0.774680	0.337880	0.537980
C3411	C341	0.817310	0.338410	0.511110
C3421	C342	0.840010	0.300110	0.495210
C3431	C343	0.823110	0.259410	0.509610
C3441	C344	0.747840	0.383540	0.549640
C3451	C345	0.756450	0.435250	0.598550
C3461	C346	0.770610	0.439670	0.639250
C3471	C347	0.770760	0.481660	0.650360
C3481	C348	0.757170	0.520670	0.621370
C3491	C349	0.742300	0.515700	0.581900
C3501	C350	0.741870	0.474270	0.570270
C3511	C351	0.786750	0.485050	0.693950
C3521	C352	0.881240	0.302040	0.460240
C3531	C353	0.960540	0.302340	0.455340
C3541	C354	0.967560	0.307560	0.409260
C3551	C355	0.009000	0.316700	0.384600
C3561	C356	0.044180	0.317980	0.408380
C3571	C357	0.036060	0.311360	0.455460
C3581	C358	0.995120	0.303720	0.478420
C3591	C359	0.016450	0.320950	0.335250
C3601	C360	0.710800	0.298100	0.578400
C3611	C361	0.838810	0.381710	0.499410
C3621	C362	0.850690	0.216490	0.494890
C3631	C363	0.598510	0.280910	0.686910
C3641	C364	0.572040	0.245040	0.704640
C3651	C365	0.534320	0.337020	0.706120
C3661	C366	0.607180	0.358980	0.665480
C3671	C367	0.696960	0.290360	0.737260
C3681	C368	0.737430	0.306130	0.698330
C3691	C369	0.690940	0.364740	0.751940
C3701	C370	0.638020	0.304920	0.789920
C3711	C371	0.151700	0.621670	0.653190
C3721	C372	0.152020	0.582000	0.629780
C3731	C373	0.111050	0.573880	0.619740
C3741	C374	0.110210	0.537110	0.598520
C3751	C375	0.149510	0.509170	0.586890
C3761	C376	0.189780	0.517180	0.596180
C3771	C377	0.191250	0.553930	0.617690
C3781	C378	0.030510	0.556070	0.597790
C3791	C379	0.994040	0.540430	0.579520
C3801	C380	0.968320	0.508980	0.607140
C3811	C381	0.931060	0.497740	0.591620
C3821	C382	0.921070	0.515820	0.548580
C3831	C383	0.949710	0.543130	0.519780
C3841	C384	0.985780	0.555720	0.535350
C3851	C385	0.904060	0.463760	0.620560
C3861	C386	0.896960	0.386380	0.618550
C3871	C387	0.874960	0.379390	0.662120
C3881	C388	0.862140	0.337400	0.678650
C3891	C389	0.870420	0.303570	0.652270
C3901	C390	0.890320	0.312120	0.607620
C3911	C391	0.903470	0.352810	0.591130
C3921	C392	0.840840	0.328040	0.726380
C3931	C393	0.942880	0.557630	0.471670
C3941	C394	0.909550	0.622070	0.425200
C3951	C395	0.884790	0.665540	0.421280
C3961	C396	0.877160	0.688140	0.379670
C3971	C397	0.894260	0.669060	0.341060
C3981	C398	0.918600	0.626200	0.344400
C3991	C399	0.926010	0.602410	0.386610
C4001	C400	0.849490	0.734610	0.375870
C4011	C401	0.980610	0.487670	0.653450
C4021	C402	0.880210	0.504910	0.533210
C4031	C403	0.016670	0.585140	0.503600
C4041	C404	0.045690	0.586830	0.745050
C4051	C405	0.082730	0.548230	0.738330
C4061	C406	0.125790	0.550590	0.745890
C4071	C407	0.159510	0.515810	0.740110
C4081	C408	0.149860	0.477060	0.724760
C4091	C409	0.107840	0.475040	0.717440
C4101	C410	0.072600	0.510300	0.724200
C4111	C411	0.214220	0.551120	0.764120
C4121	C412	0.259000	0.537400	0.781600
C4131	C413	0.298520	0.550120	0.756420
C4141	C414	0.337880	0.537980	0.774680
C4151	C415	0.338410	0.511110	0.817310
C4161	C416	0.300110	0.495210	0.840010
C4171	C417	0.259410	0.509610	0.823110
C4181	C418	0.383540	0.549640	0.747840
C4191	C419	0.435250	0.598550	0.756450
C4201	C420	0.439670	0.639250	0.770610
C4211	C421	0.481660	0.650360	0.770760
C4221	C422	0.520670	0.621370	0.757170
C4231	C423	0.515700	0.581900	0.742300
C4241	C424	0.474270	0.570270	0.741870
C4251	C425	0.485050	0.693950	0.786750
C4261	C426	0.302040	0.460240	0.881240
C4271	C427	0.302340	0.455340	0.960540
C4281	C428	0.307560	0.409260	0.967560
C4291	C429	0.316700	0.384600	0.009000
C4301	C430	0.317980	0.408380	0.044180
C4311	C431	0.311360	0.455460	0.036060
C4321	C432	0.303720	0.478420	0.995120
C4331	C433	0.320950	0.335250	0.016450
C4341	C434	0.298100	0.578400	0.710800
C4351	C435	0.381710	0.499410	0.838810
C4361	C436	0.216490	0.494890	0.850690
C4371	C437	0.280910	0.686910	0.598510
C4381	C438	0.245040	0.704640	0.572040
C4391	C439	0.337020	0.706120	0.534320
C4401	C440	0.358980	0.665480	0.607180
C4411	C441	0.290360	0.737260	0.696960
C4421	C442	0.306130	0.698330	0.737430
C4431	C443	0.364740	0.751940	0.690940
C4441	C444	0.304920	0.789920	0.638020
C4451	C445	0.153190	0.121670	0.651700
C4461	C446	0.129780	0.082000	0.652020
C4471	C447	0.119740	0.073880	0.611050
C4481	C448	0.098520	0.037110	0.610210
C4491	C449	0.086890	0.009170	0.649510
C4501	C450	0.096180	0.017180	0.689780
C4511	C451	0.117690	0.053930	0.691250
C4521	C452	0.097790	0.056070	0.530510
C4531	C453	0.079520	0.040430	0.494040
C4541	C454	0.107140	0.008980	0.468320
C4551	C455	0.091620	0.997740	0.431060
C4561	C456	0.048580	0.015820	0.421070
C4571	C457	0.019780	0.043130	0.449710
C4581	C458	0.035350	0.055720	0.485780
C4591	C459	0.120560	0.963760	0.404060
C4601	C460	0.118550	0.886380	0.396960
C4611	C461	0.162120	0.879390	0.374960
C4621	C462	0.178650	0.837400	0.362140
C4631	C463	0.152270	0.803570	0.370420
C4641	C464	0.107620	0.812120	0.390320
C4651	C465	0.091130	0.852810	0.403470
C4661	C466	0.226380	0.828040	0.340840
C4671	C467	0.971670	0.057630	0.442880
C4681	C468	0.925200	0.122070	0.409550
C4691	C469	0.921280	0.165540	0.384790
C4701	C470	0.879670	0.188140	0.377160
C4711	C471	0.841060	0.169060	0.394260
C4721	C472	0.844400	0.126200	0.418600
C4731	C473	0.886610	0.102410	0.426010
C4741	C474	0.875870	0.234610	0.349490
C4751	C475	0.153450	0.987670	0.480610
C4761	C476	0.033210	0.004910	0.380210
C4771	C477	0.003600	0.085140	0.516670
C4781	C478	0.245050	0.086830	0.545690
C4791	C479	0.238330	0.048230	0.582730
C4801	C480	0.245890	0.050590	0.625790
C4811	C481	0.240110	0.015810	0.659510
C4821	C482	0.224760	0.977060	0.649860
C4831	C483	0.217440	0.975040	0.607840
C4841	C484	0.224200	0.010300	0.572600
C4851	C485	0.264120	0.051120	0.714220
C4861	C486	0.281600	0.037400	0.759000
C4871	C487	0.256420	0.050120	0.798520
C4881	C488	0.274680	0.037980	0.837880
C4891	C489	0.317310	0.011110	0.838410
C4901	C490	0.340010	0.995210	0.800110
C4911	C491	0.323110	0.009610	0.759410
C4921	C492	0.247840	0.049640	0.883540
C4931	C493	0.256450	0.098550	0.935250
C4941	C494	0.270610	0.139250	0.939670
C4951	C495	0.270760	0.150360	0.981660
C4961	C496	0.257170	0.121370	0.020670
C4971	C497	0.242300	0.081900	0.015700
C4981	C498	0.241870	0.070270	0.974270
C4991	C499	0.286750	0.193950	0.985050
C5001	C500	0.381240	0.960240	0.802040
C5011	C501	0.460540	0.955340	0.802340
C5021	C502	0.467560	0.909260	0.807560
C5031	C503	0.509000	0.884600	0.816700
C5041	C504	0.544180	0.908380	0.817980
C5051	C505	0.536060	0.955460	0.811360
C5061	C506	0.495120	0.978420	0.803720
C5071	C507	0.516450	0.835250	0.820950
C5081	C508	0.210800	0.078400	0.798100
C5091	C509	0.338810	0.999410	0.881710
C5101	C510	0.350690	0.994890	0.716490
C5111	C511	0.098510	0.186910	0.780910
C5121	C512	0.072040	0.204640	0.745040
C5131	C513	0.034320	0.206120	0.837020
C5141	C514	0.107180	0.165480	0.858980
C5151	C515	0.196960	0.237260	0.790360
C5161	C516	0.237430	0.198330	0.806130
C5171	C517	0.190940	0.251940	0.864740
C5181	C518	0.138020	0.289920	0.804920
C5191	C519	0.651700	0.153190	0.121670
C5201	C520	0.652020	0.129780	0.082000
C5211	C521	0.611050	0.119740	0.073880
C5221	C522	0.610210	0.098520	0.037110
C5231	C523	0.649510	0.086890	0.009170
C5241	C524	0.689780	0.096180	0.017180
C5251	C525	0.691250	0.117690	0.053930
C5261	C526	0.530510	0.097790	0.056070
C5271	C527	0.494040	0.079520	0.040430
C5281	C528	0.468320	0.107140	0.008980
C5291	C529	0.431060	0.091620	0.997740
C5301	C530	0.421070	0.048580	0.015820
C5311	C531	0.449710	0.019780	0.043130
C5321	C532	0.485780	0.035350	0.055720
C5331	C533	0.404060	0.120560	0.963760
C5341	C534	0.396960	0.118550	0.886380
C5351	C535	0.374960	0.162120	0.879390
C5361	C536	0.362140	0.178650	0.837400
C5371	C537	0.370420	0.152270	0.803570
C5381	C538	0.390320	0.107620	0.812120
C5391	C539	0.403470	0.091130	0.852810
C5401	C540	0.340840	0.226380	0.828040
C5411	C541	0.442880	0.971670	0.057630
C5421	C542	0.409550	0.925200	0.122070
C5431	C543	0.384790	0.921280	0.165540
C5441	C544	0.377160	0.879670	0.188140
C5451	C545	0.394260	0.841060	0.169060
C5461	C546	0.418600	0.844400	0.126200
C5471	C547	0.426010	0.886610	0.102410
C5481	C548	0.349490	0.875870	0.234610
C5491	C549	0.480610	0.153450	0.987670
C5501	C550	0.380210	0.033210	0.004910
C5511	C551	0.516670	0.003600	0.085140
C5521	C552	0.545690	0.245050	0.086830
C5531	C553	0.582730	0.238330	0.048230
C5541	C554	0.625790	0.245890	0.050590
C5551	C555	0.659510	0.240110	0.015810
C5561	C556	0.649860	0.224760	0.977060
C5571	C557	0.607840	0.217440	0.975040
C5581	C558	0.572600	0.224200	0.010300
C5591	C559	0.714220	0.264120	0.051120
C5601	C560	0.759000	0.281600	0.037400
C5611	C561	0.798520	0.256420	0.050120
C5621	C562	0.837880	0.274680	0.037980
C5631	C563	0.838410	0.317310	0.011110
C5641	C564	0.800110	0.340010	0.995210
C5651	C565	0.759410	0.323110	0.009610
C5661	C566	0.883540	0.247840	0.049640
C5671	C567	0.935250	0.256450	0.098550
C5681	C568	0.939670	0.270610	0.139250
C5691	C569	0.981660	0.270760	0.150360
C5701	C570	0.020670	0.257170	0.121370
C5711	C571	0.015700	0.242300	0.081900
C5721	C572	0.974270	0.241870	0.070270
C5731	C573	0.985050	0.286750	0.193950
C5741	C574	0.802040	0.381240	0.960240
C5751	C575	0.802340	0.460540	0.955340
C5761	C576	0.807560	0.467560	0.909260
C5771	C577	0.816700	0.509000	0.884600
C5781	C578	0.817980	0.544180	0.908380
C5791	C579	0.811360	0.536060	0.955460
C5801	C580	0.803720	0.495120	0.978420
C5811	C581	0.820950	0.516450	0.835250
C5821	C582	0.798100	0.210800	0.078400
C5831	C583	0.881710	0.338810	0.999410
C5841	C584	0.716490	0.350690	0.994890
C5851	C585	0.780910	0.098510	0.186910
C5861	C586	0.745040	0.072040	0.204640
C5871	C587	0.837020	0.034320	0.206120
C5881	C588	0.858980	0.107180	0.165480
C5891	C589	0.790360	0.196960	0.237260
C5901	C590	0.806130	0.237430	0.198330
C5911	C591	0.864740	0.190940	0.251940
C5921	C592	0.804920	0.138020	0.289920
C5931	C593	0.121670	0.651700	0.153190
C5941	C594	0.082000	0.652020	0.129780
C5951	C595	0.073880	0.611050	0.119740
C5961	C596	0.037110	0.610210	0.098520
C5971	C597	0.009170	0.649510	0.086890
C5981	C598	0.017180	0.689780	0.096180
C5991	C599	0.053930	0.691250	0.117690
C6001	C600	0.056070	0.530510	0.097790
C6011	C601	0.040430	0.494040	0.079520
C6021	C602	0.008980	0.468320	0.107140
C6031	C603	0.997740	0.431060	0.091620
C6041	C604	0.015820	0.421070	0.048580
C6051	C605	0.043130	0.449710	0.019780
C6061	C606	0.055720	0.485780	0.035350
C6071	C607	0.963760	0.404060	0.120560
C6081	C608	0.886380	0.396960	0.118550
C6091	C609	0.879390	0.374960	0.162120
C6101	C610	0.837400	0.362140	0.178650
C6111	C611	0.803570	0.370420	0.152270
C6121	C612	0.812120	0.390320	0.107620
C6131	C613	0.852810	0.403470	0.091130
C6141	C614	0.828040	0.340840	0.226380
C6151	C615	0.057630	0.442880	0.971670
C6161	C616	0.122070	0.409550	0.925200
C6171	C617	0.165540	0.384790	0.921280
C6181	C618	0.188140	0.377160	0.879670
C6191	C619	0.169060	0.394260	0.841060
C6201	C620	0.126200	0.418600	0.844400
C6211	C621	0.102410	0.426010	0.886610
C6221	C622	0.234610	0.349490	0.875870
C6231	C623	0.987670	0.480610	0.153450
C6241	C624	0.004910	0.380210	0.033210
C6251	C625	0.085140	0.516670	0.003600
C6261	C626	0.086830	0.545690	0.245050
C6271	C627	0.048230	0.582730	0.238330
C6281	C628	0.050590	0.625790	0.245890
C6291	C629	0.015810	0.659510	0.240110
C6301	C630	0.977060	0.649860	0.224760
C6311	C631	0.975040	0.607840	0.217440
C6321	C632	0.010300	0.572600	0.224200
C6331	C633	0.051120	0.714220	0.264120
C6341	C634	0.037400	0.759000	0.281600
C6351	C635	0.050120	0.798520	0.256420
C6361	C636	0.037980	0.837880	0.274680
C6371	C637	0.011110	0.838410	0.317310
C6381	C638	0.995210	0.800110	0.340010
C6391	C639	0.009610	0.759410	0.323110
C6401	C640	0.049640	0.883540	0.247840
C6411	C641	0.098550	0.935250	0.256450
C6421	C642	0.139250	0.939670	0.270610
C6431	C643	0.150360	0.981660	0.270760
C6441	C644	0.121370	0.020670	0.257170
C6451	C645	0.081900	0.015700	0.242300
C6461	C646	0.070270	0.974270	0.241870
C6471	C647	0.193950	0.985050	0.286750
C6481	C648	0.960240	0.802040	0.381240
C6491	C649	0.955340	0.802340	0.460540
C6501	C650	0.909260	0.807560	0.467560
C6511	C651	0.884600	0.816700	0.509000
C6521	C652	0.908380	0.817980	0.544180
C6531	C653	0.955460	0.811360	0.536060
C6541	C654	0.978420	0.803720	0.495120
C6551	C655	0.835250	0.820950	0.516450
C6561	C656	0.078400	0.798100	0.210800
C6571	C657	0.999410	0.881710	0.338810
C6581	C658	0.994890	0.716490	0.350690
C6591	C659	0.186910	0.780910	0.098510
C6601	C660	0.204640	0.745040	0.072040
C6611	C661	0.206120	0.837020	0.034320
C6621	C662	0.165480	0.858980	0.107180
C6631	C663	0.237260	0.790360	0.196960
C6641	C664	0.198330	0.806130	0.237430
C6651	C665	0.251940	0.864740	0.190940
C6661	C666	0.289920	0.804920	0.138020
C6671	C667	0.378330	0.346810	0.848300
C6681	C668	0.418000	0.370220	0.847980
C6691	C669	0.426120	0.380260	0.888950
C6701	C670	0.462890	0.401480	0.889790
C6711	C671	0.490830	0.413110	0.850490
C6721	C672	0.482820	0.403820	0.810220
C6731	C673	0.446070	0.382310	0.808750
C6741	C674	0.443930	0.402210	0.969490
C6751	C675	0.459570	0.420480	0.005960
C6761	C676	0.491020	0.392860	0.031680
C6771	C677	0.502260	0.408380	0.068940
C6781	C678	0.484180	0.451420	0.078930
C6791	C679	0.456870	0.480220	0.050290
C6801	C680	0.444280	0.464650	0.014220
C6811	C681	0.536240	0.379440	0.095940
C6821	C682	0.613620	0.381450	0.103040
C6831	C683	0.620610	0.337880	0.125040
C6841	C684	0.662600	0.321350	0.137860
C6851	C685	0.696430	0.347730	0.129580
C6861	C686	0.687880	0.392380	0.109680
C6871	C687	0.647190	0.408870	0.096530
C6881	C688	0.671960	0.273620	0.159160
C6891	C689	0.442370	0.528330	0.057120
C6901	C690	0.377930	0.574800	0.090450
C6911	C691	0.334460	0.578720	0.115210
C6921	C692	0.311860	0.620330	0.122840
C6931	C693	0.330940	0.658940	0.105740
C6941	C694	0.373800	0.655600	0.081400
C6951	C695	0.397590	0.613390	0.073990
C6961	C696	0.265390	0.624130	0.150510
C6971	C697	0.512330	0.346550	0.019390
C6981	C698	0.495090	0.466790	0.119790
C6991	C699	0.414860	0.496400	0.983330
C7001	C700	0.413170	0.254950	0.954310
C7011	C701	0.451770	0.261670	0.917270
C7021	C702	0.449410	0.254110	0.874210
C7031	C703	0.484190	0.259890	0.840490
C7041	C704	0.522940	0.275240	0.850140
C7051	C705	0.524960	0.282560	0.892160
C7061	C706	0.489700	0.275800	0.927400
C7071	C707	0.448880	0.235880	0.785780
C7081	C708	0.462600	0.218400	0.741000
C7091	C709	0.449880	0.243580	0.701480
C7101	C710	0.462020	0.225320	0.662120
C7111	C711	0.488890	0.182690	0.661590
C7121	C712	0.504790	0.159990	0.699890
C7131	C713	0.490390	0.176890	0.740590
C7141	C714	0.450360	0.252160	0.616460
C7151	C715	0.401450	0.243550	0.564750
C7161	C716	0.360750	0.229390	0.560330
C7171	C717	0.349640	0.229240	0.518340
C7181	C718	0.378630	0.242830	0.479330
C7191	C719	0.418100	0.257700	0.484300
C7201	C720	0.429730	0.258130	0.525730
C7211	C721	0.306050	0.213250	0.514950
C7221	C722	0.539760	0.118760	0.697960
C7231	C723	0.544660	0.039460	0.697660
C7241	C724	0.590740	0.032440	0.692440
C7251	C725	0.615400	0.991000	0.683300
C7261	C726	0.591620	0.955820	0.682020
C7271	C727	0.544540	0.963940	0.688640
C7281	C728	0.521580	0.004880	0.696280
C7291	C729	0.664750	0.983550	0.679050
C7301	C730	0.421600	0.289200	0.701900
C7311	C731	0.500590	0.161190	0.618290
C7321	C732	0.505110	0.149310	0.783510
C7331	C733	0.313090	0.401490	0.719090
C7341	C734	0.295360	0.427960	0.754960
C7351	C735	0.293880	0.465680	0.662980
C7361	C736	0.334520	0.392820	0.641020
C7371	C737	0.262740	0.303040	0.709640
C7381	C738	0.301670	0.262570	0.693870
C7391	C739	0.248060	0.309060	0.635260
C7401	C740	0.210080	0.361980	0.695080
C7411	C741	0.346810	0.848300	0.378330
C7421	C742	0.370220	0.847980	0.418000
C7431	C743	0.380260	0.888950	0.426120
C7441	C744	0.401480	0.889790	0.462890
C7451	C745	0.413110	0.850490	0.490830
C7461	C746	0.403820	0.810220	0.482820
C7471	C747	0.382310	0.808750	0.446070
C7481	C748	0.402210	0.969490	0.443930
C7491	C749	0.420480	0.005960	0.459570
C7501	C750	0.392860	0.031680	0.491020
C7511	C751	0.408380	0.068940	0.502260
C7521	C752	0.451420	0.078930	0.484180
C7531	C753	0.480220	0.050290	0.456870
C7541	C754	0.464650	0.014220	0.444280
C7551	C755	0.379440	0.095940	0.536240
C7561	C756	0.381450	0.103040	0.613620
C7571	C757	0.337880	0.125040	0.620610
C7581	C758	0.321350	0.137860	0.662600
C7591	C759	0.347730	0.129580	0.696430
C7601	C760	0.392380	0.109680	0.687880
C7611	C761	0.408870	0.096530	0.647190
C7621	C762	0.273620	0.159160	0.671960
C7631	C763	0.528330	0.057120	0.442370
C7641	C764	0.574800	0.090450	0.377930
C7651	C765	0.578720	0.115210	0.334460
C7661	C766	0.620330	0.122840	0.311860
C7671	C767	0.658940	0.105740	0.330940
C7681	C768	0.655600	0.081400	0.373800
C7691	C769	0.613390	0.073990	0.397590
C7701	C770	0.624130	0.150510	0.265390
C7711	C771	0.346550	0.019390	0.512330
C7721	C772	0.466790	0.119790	0.495090
C7731	C773	0.496400	0.983330	0.414860
C7741	C774	0.254950	0.954310	0.413170
C7751	C775	0.261670	0.917270	0.451770
C7761	C776	0.254110	0.874210	0.449410
C7771	C777	0.259890	0.840490	0.484190
C7781	C778	0.275240	0.850140	0.522940
C7791	C779	0.282560	0.892160	0.524960
C7801	C780	0.275800	0.927400	0.489700
C7811	C781	0.235880	0.785780	0.448880
C7821	C782	0.218400	0.741000	0.462600
C7831	C783	0.243580	0.701480	0.449880
C7841	C784	0.225320	0.662120	0.462020
C7851	C785	0.182690	0.661590	0.488890
C7861	C786	0.159990	0.699890	0.504790
C7871	C787	0.176890	0.740590	0.490390
C7881	C788	0.252160	0.616460	0.450360
C7891	C789	0.243550	0.564750	0.401450
C7901	C790	0.229390	0.560330	0.360750
C7911	C791	0.229240	0.518340	0.349640
C7921	C792	0.242830	0.479330	0.378630
C7931	C793	0.257700	0.484300	0.418100
C7941	C794	0.258130	0.525730	0.429730
C7951	C795	0.213250	0.514950	0.306050
C7961	C796	0.118760	0.697960	0.539760
C7971	C797	0.039460	0.697660	0.544660
C7981	C798	0.032440	0.692440	0.590740
C7991	C799	0.991000	0.683300	0.615400
C8001	C800	0.955820	0.682020	0.591620
C8011	C801	0.963940	0.688640	0.544540
C8021	C802	0.004880	0.696280	0.521580
C8031	C803	0.983550	0.679050	0.664750
C8041	C804	0.289200	0.701900	0.421600
C8051	C805	0.161190	0.618290	0.500590
C8061	C806	0.149310	0.783510	0.505110
C8071	C807	0.401490	0.719090	0.313090
C8081	C808	0.427960	0.754960	0.295360
C8091	C809	0.465680	0.662980	0.293880
C8101	C810	0.392820	0.641020	0.334520
C8111	C811	0.303040	0.709640	0.262740
C8121	C812	0.262570	0.693870	0.301670
C8131	C813	0.309060	0.635260	0.248060
C8141	C814	0.361980	0.695080	0.210080
C8151	C815	0.848300	0.378330	0.346810
C8161	C816	0.847980	0.418000	0.370220
C8171	C817	0.888950	0.426120	0.380260
C8181	C818	0.889790	0.462890	0.401480
C8191	C819	0.850490	0.490830	0.413110
C8201	C820	0.810220	0.482820	0.403820
C8211	C821	0.808750	0.446070	0.382310
C8221	C822	0.969490	0.443930	0.402210
C8231	C823	0.005960	0.459570	0.420480
C8241	C824	0.031680	0.491020	0.392860
C8251	C825	0.068940	0.502260	0.408380
C8261	C826	0.078930	0.484180	0.451420
C8271	C827	0.050290	0.456870	0.480220
C8281	C828	0.014220	0.444280	0.464650
C8291	C829	0.095940	0.536240	0.379440
C8301	C830	0.103040	0.613620	0.381450
C8311	C831	0.125040	0.620610	0.337880
C8321	C832	0.137860	0.662600	0.321350
C8331	C833	0.129580	0.696430	0.347730
C8341	C834	0.109680	0.687880	0.392380
C8351	C835	0.096530	0.647190	0.408870
C8361	C836	0.159160	0.671960	0.273620
C8371	C837	0.057120	0.442370	0.528330
C8381	C838	0.090450	0.377930	0.574800
C8391	C839	0.115210	0.334460	0.578720
C8401	C840	0.122840	0.311860	0.620330
C8411	C841	0.105740	0.330940	0.658940
C8421	C842	0.081400	0.373800	0.655600
C8431	C843	0.073990	0.397590	0.613390
C8441	C844	0.150510	0.265390	0.624130
C8451	C845	0.019390	0.512330	0.346550
C8461	C846	0.119790	0.495090	0.466790
C8471	C847	0.983330	0.414860	0.496400
C8481	C848	0.954310	0.413170	0.254950
C8491	C849	0.917270	0.451770	0.261670
C8501	C850	0.874210	0.449410	0.254110
C8511	C851	0.840490	0.484190	0.259890
C8521	C852	0.850140	0.522940	0.275240
C8531	C853	0.892160	0.524960	0.282560
C8541	C854	0.927400	0.489700	0.275800
C8551	C855	0.785780	0.448880	0.235880
C8561	C856	0.741000	0.462600	0.218400
C8571	C857	0.701480	0.449880	0.243580
C8581	C858	0.662120	0.462020	0.225320
C8591	C859	0.661590	0.488890	0.182690
C8601	C860	0.699890	0.504790	0.159990
C8611	C861	0.740590	0.490390	0.176890
C8621	C862	0.616460	0.450360	0.252160
C8631	C863	0.564750	0.401450	0.243550
C8641	C864	0.560330	0.360750	0.229390
C8651	C865	0.518340	0.349640	0.229240
C8661	C866	0.479330	0.378630	0.242830
C8671	C867	0.484300	0.418100	0.257700
C8681	C868	0.525730	0.429730	0.258130
C8691	C869	0.514950	0.306050	0.213250
C8701	C870	0.697960	0.539760	0.118760
C8711	C871	0.697660	0.544660	0.039460
C8721	C872	0.692440	0.590740	0.032440
C8731	C873	0.683300	0.615400	0.991000
C8741	C874	0.682020	0.591620	0.955820
C8751	C875	0.688640	0.544540	0.963940
C8761	C876	0.696280	0.521580	0.004880
C8771	C877	0.679050	0.664750	0.983550
C8781	C878	0.701900	0.421600	0.289200
C8791	C879	0.618290	0.500590	0.161190
C8801	C880	0.783510	0.505110	0.149310
C8811	C881	0.719090	0.313090	0.401490
C8821	C882	0.754960	0.295360	0.427960
C8831	C883	0.662980	0.293880	0.465680
C8841	C884	0.641020	0.334520	0.392820
C8851	C885	0.709640	0.262740	0.303040
C8861	C886	0.693870	0.301670	0.262570
C8871	C887	0.635260	0.248060	0.309060
C8881	C888	0.695080	0.210080	0.361980
N11	N1	0.919240	0.813140	0.176540
N21	N2	0.823650	0.742850	0.179850
N31	N3	0.176540	0.919240	0.813140
N41	N4	0.179850	0.823650	0.742850
N51	N5	0.813140	0.176540	0.919240
N61	N6	0.742850	0.179850	0.823650
N71	N7	0.686860	0.580760	0.323460
N81	N8	0.757150	0.676350	0.320150
N91	N9	0.580760	0.323460	0.686860
N101	N10	0.676350	0.320150	0.757150
N111	N11	0.323460	0.686860	0.580760
N121	N12	0.320150	0.757150	0.676350
N131	N13	0.080760	0.186860	0.823460
N141	N14	0.176350	0.257150	0.820150
N151	N15	0.823460	0.080760	0.186860
N161	N16	0.820150	0.176350	0.257150
N171	N17	0.186860	0.823460	0.080760
N181	N18	0.257150	0.820150	0.176350
N191	N19	0.313140	0.419240	0.676540
N201	N20	0.242850	0.323650	0.679850
N211	N21	0.419240	0.676540	0.313140
N221	N22	0.323650	0.679850	0.242850
N231	N23	0.676540	0.313140	0.419240
N241	N24	0.679850	0.242850	0.323650
O11	O1	0.838040	0.872480	0.310750
O21	O2	0.838150	0.854230	0.385260
O31	O3	0.912300	0.973310	0.428370
O41	O4	0.901570	0.075310	0.585470
O51	O5	0.751180	0.141600	0.675870
O61	O6	0.755970	0.212820	0.658300
O71	O7	0.032030	0.897900	0.584180
O81	O8	0.088780	0.752390	0.672280
O91	O9	0.163430	0.744030	0.649850
O101	O10	0.760990	0.916670	0.492980
O111	O11	0.742670	0.878840	0.444910
O121	O12	0.753250	0.986250	0.297340
O131	O13	0.739190	0.909360	0.110220
O141	O14	0.693180	0.806380	0.980780
O151	O15	0.719110	0.774040	0.045510
O161	O16	0.579490	0.017790	0.204990
O171	O17	0.448210	0.185610	0.162810
O181	O18	0.512130	0.186290	0.187400
O191	O19	0.860530	0.829840	0.227970
O201	O20	0.808970	0.759270	0.250770
O211	O21	0.722900	0.818300	0.599200
O221	O22	0.699000	0.899800	0.577600
O231	O23	0.310750	0.838040	0.872480
O241	O24	0.385260	0.838150	0.854230
O251	O25	0.428370	0.912300	0.973310
O261	O26	0.585470	0.901570	0.075310
O271	O27	0.675870	0.751180	0.141600
O281	O28	0.658300	0.755970	0.212820
O291	O29	0.584180	0.032030	0.897900
O301	O30	0.672280	0.088780	0.752390
O311	O31	0.649850	0.163430	0.744030
O321	O32	0.492980	0.760990	0.916670
O331	O33	0.444910	0.742670	0.878840
O341	O34	0.297340	0.753250	0.986250
O351	O35	0.110220	0.739190	0.909360
O361	O36	0.980780	0.693180	0.806380
O371	O37	0.045510	0.719110	0.774040
O381	O38	0.204990	0.579490	0.017790
O391	O39	0.162810	0.448210	0.185610
O401	O40	0.187400	0.512130	0.186290
O411	O41	0.227970	0.860530	0.829840
O421	O42	0.250770	0.808970	0.759270
O431	O43	0.599200	0.722900	0.818300
O441	O44	0.577600	0.699000	0.899800
O451	O45	0.872480	0.310750	0.838040
O461	O46	0.854230	0.385260	0.838150
O471	O47	0.973310	0.428370	0.912300
O481	O48	0.075310	0.585470	0.901570
O491	O49	0.141600	0.675870	0.751180
O501	O50	0.212820	0.658300	0.755970
O511	O51	0.897900	0.584180	0.032030
O521	O52	0.752390	0.672280	0.088780
O531	O53	0.744030	0.649850	0.163430
O541	O54	0.916670	0.492980	0.760990
O551	O55	0.878840	0.444910	0.742670
O561	O56	0.986250	0.297340	0.753250
O571	O57	0.909360	0.110220	0.739190
O581	O58	0.806380	0.980780	0.693180
O591	O59	0.774040	0.045510	0.719110
O601	O60	0.017790	0.204990	0.579490
O611	O61	0.185610	0.162810	0.448210
O621	O62	0.186290	0.187400	0.512130
O631	O63	0.829840	0.227970	0.860530
O641	O64	0.759270	0.250770	0.808970
O651	O65	0.818300	0.599200	0.722900
O661	O66	0.899800	0.577600	0.699000
O671	O67	0.627520	0.661960	0.189250
O681	O68	0.645770	0.661850	0.114740
O691	O69	0.526690	0.587700	0.071630
O701	O70	0.424690	0.598430	0.914530
O711	O71	0.358400	0.748820	0.824130
O721	O72	0.287180	0.744030	0.841700
O731	O73	0.602100	0.467970	0.915820
O741	O74	0.747610	0.411220	0.827720
O751	O75	0.755970	0.336570	0.850150
O761	O76	0.583330	0.739010	0.007020
O771	O77	0.621160	0.757330	0.055090
O781	O78	0.513750	0.746750	0.202660
O791	O79	0.590640	0.760810	0.389780
O801	O80	0.693620	0.806820	0.519220
O811	O81	0.725960	0.780890	0.454490
O821	O82	0.482210	0.920510	0.295010
O831	O83	0.314390	0.051790	0.337190
O841	O84	0.313710	0.987870	0.312600
O851	O85	0.670160	0.639470	0.272030
O861	O86	0.740730	0.691030	0.249230
O871	O87	0.681700	0.777100	0.900800
O881	O88	0.600200	0.801000	0.922400
O891	O89	0.661960	0.189250	0.627520
O901	O90	0.661850	0.114740	0.645770
O911	O91	0.587700	0.071630	0.526690
O921	O92	0.598430	0.914530	0.424690
O931	O93	0.748820	0.824130	0.358400
O941	O94	0.744030	0.841700	0.287180
O951	O95	0.467970	0.915820	0.602100
O961	O96	0.411220	0.827720	0.747610
O971	O97	0.336570	0.850150	0.755970
O981	O98	0.739010	0.007020	0.583330
O991	O99	0.757330	0.055090	0.621160
O1001	O100	0.746750	0.202660	0.513750
O1011	O101	0.760810	0.389780	0.590640
O1021	O102	0.806820	0.519220	0.693620
O1031	O103	0.780890	0.454490	0.725960
O1041	O104	0.920510	0.295010	0.482210
O1051	O105	0.051790	0.337190	0.314390
O1061	O106	0.987870	0.312600	0.313710
O1071	O107	0.639470	0.272030	0.670160
O1081	O108	0.691030	0.249230	0.740730
O1091	O109	0.777100	0.900800	0.681700
O1101	O110	0.801000	0.922400	0.600200
O1111	O111	0.189250	0.627520	0.661960
O1121	O112	0.114740	0.645770	0.661850
O1131	O113	0.071630	0.526690	0.587700
O1141	O114	0.914530	0.424690	0.598430
O1151	O115	0.824130	0.358400	0.748820
O1161	O116	0.841700	0.287180	0.744030
O1171	O117	0.915820	0.602100	0.467970
O1181	O118	0.827720	0.747610	0.411220
O1191	O119	0.850150	0.755970	0.336570
O1201	O120	0.007020	0.583330	0.739010
O1211	O121	0.055090	0.621160	0.757330
O1221	O122	0.202660	0.513750	0.746750
O1231	O123	0.389780	0.590640	0.760810
O1241	O124	0.519220	0.693620	0.806820
O1251	O125	0.454490	0.725960	0.780890
O1261	O126	0.295010	0.482210	0.920510
O1271	O127	0.337190	0.314390	0.051790
O1281	O128	0.312600	0.313710	0.987870
O1291	O129	0.272030	0.670160	0.639470
O1301	O130	0.249230	0.740730	0.691030
O1311	O131	0.900800	0.681700	0.777100
O1321	O132	0.922400	0.600200	0.801000
O1331	O133	0.161960	0.127520	0.689250
O1341	O134	0.161850	0.145770	0.614740
O1351	O135	0.087700	0.026690	0.571630
O1361	O136	0.098430	0.924690	0.414530
O1371	O137	0.248820	0.858400	0.324130
O1381	O138	0.244030	0.787180	0.341700
O1391	O139	0.967970	0.102100	0.415820
O1401	O140	0.911220	0.247610	0.327720
O1411	O141	0.836570	0.255970	0.350150
O1421	O142	0.239010	0.083330	0.507020
O1431	O143	0.257330	0.121160	0.555090
O1441	O144	0.246750	0.013750	0.702660
O1451	O145	0.260810	0.090640	0.889780
O1461	O146	0.306820	0.193620	0.019220
O1471	O147	0.280890	0.225960	0.954490
O1481	O148	0.420510	0.982210	0.795010
O1491	O149	0.551790	0.814390	0.837190
O1501	O150	0.487870	0.813710	0.812600
O1511	O151	0.139470	0.170160	0.772030
O1521	O152	0.191030	0.240730	0.749230
O1531	O153	0.277100	0.181700	0.400800
O1541	O154	0.301000	0.100200	0.422400
O1551	O155	0.689250	0.161960	0.127520
O1561	O156	0.614740	0.161850	0.145770
O1571	O157	0.571630	0.087700	0.026690
O1581	O158	0.414530	0.098430	0.924690
O1591	O159	0.324130	0.248820	0.858400
O1601	O160	0.341700	0.244030	0.787180
O1611	O161	0.415820	0.967970	0.102100
O1621	O162	0.327720	0.911220	0.247610
O1631	O163	0.350150	0.836570	0.255970
O1641	O164	0.507020	0.239010	0.083330
O1651	O165	0.555090	0.257330	0.121160
O1661	O166	0.702660	0.246750	0.013750
O1671	O167	0.889780	0.260810	0.090640
O1681	O168	0.019220	0.306820	0.193620
O1691	O169	0.954490	0.280890	0.225960
O1701	O170	0.795010	0.420510	0.982210
O1711	O171	0.837190	0.551790	0.814390
O1721	O172	0.812600	0.487870	0.813710
O1731	O173	0.772030	0.139470	0.170160
O1741	O174	0.749230	0.191030	0.240730
O1751	O175	0.400800	0.277100	0.181700
O1761	O176	0.422400	0.301000	0.100200
O1771	O177	0.127520	0.689250	0.161960
O1781	O178	0.145770	0.614740	0.161850
O1791	O179	0.026690	0.571630	0.087700
O1801	O180	0.924690	0.414530	0.098430
O1811	O181	0.858400	0.324130	0.248820
O1821	O182	0.787180	0.341700	0.244030
O1831	O183	0.102100	0.415820	0.967970
O1841	O184	0.247610	0.327720	0.911220
O1851	O185	0.255970	0.350150	0.836570
O1861	O186	0.083330	0.507020	0.239010
O1871	O187	0.121160	0.555090	0.257330
O1881	O188	0.013750	0.702660	0.246750
O1891	O189	0.090640	0.889780	0.260810
O1901	O190	0.193620	0.019220	0.306820
O1911	O191	0.225960	0.954490	0.280890
O1921	O192	0.982210	0.795010	0.420510
O1931	O193	0.814390	0.837190	0.551790
O1941	O194	0.813710	0.812600	0.487870
O1951	O195	0.170160	0.772030	0.139470
O1961	O196	0.240730	0.749230	0.191030
O1971	O197	0.181700	0.400800	0.277100
O1981	O198	0.100200	0.422400	0.301000
O1991	O199	0.372480	0.338040	0.810750
O2001	O200	0.354230	0.338150	0.885260
O2011	O201	0.473310	0.412300	0.928370
O2021	O202	0.575310	0.401570	0.085470
O2031	O203	0.641600	0.251180	0.175870
O2041	O204	0.712820	0.255970	0.158300
O2051	O205	0.397900	0.532030	0.084180
O2061	O206	0.252390	0.588780	0.172280
O2071	O207	0.244030	0.663430	0.149850
O2081	O208	0.416670	0.260990	0.992980
O2091	O209	0.378840	0.242670	0.944910
O2101	O210	0.486250	0.253250	0.797340
O2111	O211	0.409360	0.239190	0.610220
O2121	O212	0.306380	0.193180	0.480780
O2131	O213	0.274040	0.219110	0.545510
O2141	O214	0.517790	0.079490	0.704990
O2151	O215	0.685610	0.948210	0.662810
O2161	O216	0.686290	0.012130	0.687400
O2171	O217	0.329840	0.360530	0.727970
O2181	O218	0.259270	0.308970	0.750770
O2191	O219	0.318300	0.222900	0.099200
O2201	O220	0.399800	0.199000	0.077600
O2211	O221	0.338040	0.810750	0.372480
O2221	O222	0.338150	0.885260	0.354230
O2231	O223	0.412300	0.928370	0.473310
O2241	O224	0.401570	0.085470	0.575310
O2251	O225	0.251180	0.175870	0.641600
O2261	O226	0.255970	0.158300	0.712820
O2271	O227	0.532030	0.084180	0.397900
O2281	O228	0.588780	0.172280	0.252390
O2291	O229	0.663430	0.149850	0.244030
O2301	O230	0.260990	0.992980	0.416670
O2311	O231	0.242670	0.944910	0.378840
O2321	O232	0.253250	0.797340	0.486250
O2331	O233	0.239190	0.610220	0.409360
O2341	O234	0.193180	0.480780	0.306380
O2351	O235	0.219110	0.545510	0.274040
O2361	O236	0.079490	0.704990	0.517790
O2371	O237	0.948210	0.662810	0.685610
O2381	O238	0.012130	0.687400	0.686290
O2391	O239	0.360530	0.727970	0.329840
O2401	O240	0.308970	0.750770	0.259270
O2411	O241	0.222900	0.099200	0.318300
O2421	O242	0.199000	0.077600	0.399800
O2431	O243	0.810750	0.372480	0.338040
O2441	O244	0.885260	0.354230	0.338150
O2451	O245	0.928370	0.473310	0.412300
O2461	O246	0.085470	0.575310	0.401570
O2471	O247	0.175870	0.641600	0.251180
O2481	O248	0.158300	0.712820	0.255970
O2491	O249	0.084180	0.397900	0.532030
O2501	O250	0.172280	0.252390	0.588780
O2511	O251	0.149850	0.244030	0.663430
O2521	O252	0.992980	0.416670	0.260990
O2531	O253	0.944910	0.378840	0.242670
O2541	O254	0.797340	0.486250	0.253250
O2551	O255	0.610220	0.409360	0.239190
O2561	O256	0.480780	0.306380	0.193180
O2571	O257	0.545510	0.274040	0.219110
O2581	O258	0.704990	0.517790	0.079490
O2591	O259	0.662810	0.685610	0.948210
O2601	O260	0.687400	0.686290	0.012130
O2611	O261	0.727970	0.329840	0.360530
O2621	O262	0.750770	0.259270	0.308970
O2631	O263	0.099200	0.318300	0.222900
O2641	O264	0.077600	0.399800	0.199000
