data_NERVAJ_freeONLY_PM
_symmetry_space_group_name_H-M	'P1'
_cell_length_a	30.091300
_cell_length_b	30.091300
_cell_length_c	30.091300
_cell_angle_alpha	80.284400
_cell_angle_beta	80.284400
_cell_angle_gamma	80.284400
_symmetry_Int_Tables_number 1

loop_
_symmetry_equiv_pos_as_xyz
'x,y,z'

loop_
_atom_site_label
_atom_site_type_symbol
_atom_site_fract_x
_atom_site_fract_y
_atom_site_fract_z
Zn11	Zn1	0.805360	0.302500	0.814720
Zn21	Zn2	0.805690	0.419250	0.785910
Zn31	Zn3	0.251030	0.157970	0.481290
Zn41	Zn4	0.814720	0.805360	0.302500
Zn51	Zn5	0.785910	0.805690	0.419250
Zn61	Zn6	0.481290	0.251030	0.157970
Zn71	Zn7	0.302500	0.814720	0.805360
Zn81	Zn8	0.419250	0.785900	0.805690
Zn91	Zn9	0.157970	0.481290	0.251030
Zn101	Zn10	0.197500	0.694640	0.685280
Zn111	Zn11	0.080750	0.694310	0.714090
Zn121	Zn12	0.342030	0.248970	0.018710
Zn131	Zn13	0.694640	0.685280	0.197500
Zn141	Zn14	0.694310	0.714090	0.080750
Zn151	Zn15	0.248970	0.018710	0.342030
Zn161	Zn16	0.685280	0.197500	0.694640
Zn171	Zn17	0.714100	0.080750	0.694310
Zn181	Zn18	0.018710	0.342030	0.248970
Zn191	Zn19	0.194640	0.697500	0.185280
Zn201	Zn20	0.194310	0.580750	0.214090
Zn211	Zn21	0.748970	0.842030	0.518710
Zn221	Zn22	0.185280	0.194640	0.697500
Zn231	Zn23	0.214090	0.194310	0.580750
Zn241	Zn24	0.518710	0.748970	0.842030
Zn251	Zn25	0.697500	0.185280	0.194640
Zn261	Zn26	0.580750	0.214090	0.194310
Zn271	Zn27	0.842030	0.518710	0.748970
Zn281	Zn28	0.802500	0.305360	0.314720
Zn291	Zn29	0.919250	0.305690	0.285910
Zn301	Zn30	0.657970	0.751030	0.981290
Zn311	Zn31	0.305360	0.314720	0.802500
Zn321	Zn32	0.305690	0.285910	0.919250
Zn331	Zn33	0.751030	0.981290	0.657970
Zn341	Zn34	0.314720	0.802500	0.305360
Zn351	Zn35	0.285910	0.919250	0.305690
Zn361	Zn36	0.981290	0.657970	0.751030
H11	H1	0.924300	0.280100	0.882000
H21	H2	0.984900	0.280400	0.919800
H31	H3	0.003800	0.348600	0.930800
H41	H4	0.898700	0.416600	0.870100
H51	H5	0.941900	0.477500	0.865900
H61	H6	0.908100	0.469400	0.911400
H71	H7	0.924700	0.468900	0.018600
H81	H8	0.883000	0.504400	0.004700
H91	H9	0.901700	0.463800	0.977100
H101	H10	0.995600	0.539300	0.820000
H111	H11	0.042300	0.520300	0.837600
H121	H12	0.005700	0.488000	0.841400
H131	H13	0.025300	0.605100	0.984300
H141	H14	0.009200	0.638000	0.942000
H151	H15	0.974900	0.629800	0.986900
H161	H16	0.029300	0.626100	0.878300
H171	H17	0.041500	0.588900	0.845400
H181	H18	0.096800	0.635400	0.818900
H191	H19	0.154400	0.559700	0.922800
H201	H20	0.965700	0.568700	0.038300
H211	H21	0.940900	0.525400	0.046400
H221	H22	0.824400	0.630100	0.054300
H231	H23	0.823400	0.615900	0.189500
H241	H24	0.891300	0.568700	0.182600
H251	H25	0.929100	0.554500	0.111600
H261	H26	0.845100	0.083200	0.723100
H271	H27	0.960000	0.011200	0.762400
H281	H28	0.933200	0.944600	0.761300
H291	H29	0.862600	0.947100	0.739400
H301	H30	0.878900	0.144200	0.735100
H311	H31	0.900400	0.126100	0.689100
H321	H32	0.910900	0.213000	0.801100
H331	H33	0.893300	0.171200	0.788500
H341	H34	0.871500	0.220900	0.771400
H351	H35	0.999400	0.306300	0.677500
H361	H36	0.017800	0.286500	0.631800
H371	H37	0.046200	0.274100	0.672500
H381	H38	0.992200	0.133900	0.615000
H391	H39	0.960200	0.107800	0.653600
H401	H40	0.012200	0.103900	0.656800
H411	H41	0.007100	0.295900	0.521200
H421	H42	0.052000	0.320200	0.457100
H431	H43	0.128200	0.290300	0.444100
H441	H44	0.111100	0.201800	0.559000
H451	H45	0.938500	0.308900	0.717200
H461	H46	0.918100	0.281900	0.763400
H471	H47	0.918700	0.364300	0.751800
H481	H48	0.988000	0.456100	0.776700
H491	H49	0.048100	0.399800	0.789700
H501	H50	0.045700	0.323800	0.782600
H511	H51	0.066100	0.209700	0.626700
H521	H52	0.047800	0.169800	0.611100
H531	H53	0.227700	0.638300	0.827900
H541	H54	0.222800	0.584700	0.892400
H551	H55	0.371100	0.070700	0.383300
H561	H56	0.338700	0.053000	0.356600
H571	H57	0.321100	0.064900	0.405800
H581	H58	0.308600	0.151300	0.297400
H591	H59	0.349800	0.111700	0.294600
H601	H60	0.356500	0.158900	0.306100
H611	H61	0.248900	0.186700	0.353200
H621	H62	0.295400	0.205700	0.346500
H631	H63	0.262700	0.207000	0.392900
H641	H64	0.882000	0.924300	0.280100
H651	H65	0.919800	0.984900	0.280400
H661	H66	0.930800	0.003800	0.348600
H671	H67	0.870100	0.898700	0.416600
H681	H68	0.865900	0.941900	0.477500
H691	H69	0.911400	0.908100	0.469400
H701	H70	0.018600	0.924700	0.468900
H711	H71	0.004700	0.883000	0.504400
H721	H72	0.977100	0.901700	0.463800
H731	H73	0.820000	0.995600	0.539300
H741	H74	0.837600	0.042300	0.520300
H751	H75	0.841400	0.005700	0.488000
H761	H76	0.984300	0.025300	0.605100
H771	H77	0.942000	0.009200	0.638000
H781	H78	0.986900	0.974900	0.629800
H791	H79	0.878300	0.029300	0.626100
H801	H80	0.845400	0.041500	0.588900
H811	H81	0.818900	0.096800	0.635400
H821	H82	0.922800	0.154400	0.559700
H831	H83	0.038300	0.965700	0.568700
H841	H84	0.046400	0.940900	0.525400
H851	H85	0.054300	0.824400	0.630100
H861	H86	0.189500	0.823400	0.615900
H871	H87	0.182600	0.891300	0.568700
H881	H88	0.111600	0.929100	0.554500
H891	H89	0.723100	0.845100	0.083200
H901	H90	0.762400	0.960000	0.011200
H911	H91	0.761300	0.933200	0.944600
H921	H92	0.739400	0.862600	0.947100
H931	H93	0.735100	0.878900	0.144200
H941	H94	0.689100	0.900400	0.126100
H951	H95	0.801100	0.910900	0.213000
H961	H96	0.788500	0.893300	0.171200
H971	H97	0.771400	0.871500	0.220900
H981	H98	0.677500	0.999400	0.306300
H991	H99	0.631800	0.017800	0.286500
H1001	H100	0.672500	0.046200	0.274100
H1011	H101	0.615000	0.992200	0.133900
H1021	H102	0.653600	0.960200	0.107800
H1031	H103	0.656800	0.012200	0.103900
H1041	H104	0.521200	0.007100	0.295900
H1051	H105	0.457100	0.052000	0.320200
H1061	H106	0.444100	0.128200	0.290300
H1071	H107	0.559000	0.111100	0.201800
H1081	H108	0.717200	0.938500	0.308900
H1091	H109	0.763400	0.918100	0.281900
H1101	H110	0.751800	0.918700	0.364300
H1111	H111	0.776700	0.988000	0.456100
H1121	H112	0.789700	0.048100	0.399800
H1131	H113	0.782600	0.045700	0.323800
H1141	H114	0.626700	0.066100	0.209700
H1151	H115	0.611100	0.047800	0.169800
H1161	H116	0.827900	0.227700	0.638300
H1171	H117	0.892400	0.222800	0.584700
H1181	H118	0.383300	0.371100	0.070700
H1191	H119	0.356600	0.338700	0.053000
H1201	H120	0.405800	0.321100	0.064900
H1211	H121	0.297400	0.308600	0.151300
H1221	H122	0.294600	0.349800	0.111700
H1231	H123	0.306100	0.356500	0.158900
H1241	H124	0.353200	0.248900	0.186700
H1251	H125	0.346500	0.295400	0.205700
H1261	H126	0.392900	0.262700	0.207000
H1271	H127	0.280100	0.882000	0.924300
H1281	H128	0.280400	0.919800	0.984900
H1291	H129	0.348600	0.930800	0.003800
H1301	H130	0.416600	0.870100	0.898700
H1311	H131	0.477500	0.865900	0.941900
H1321	H132	0.469400	0.911400	0.908100
H1331	H133	0.468900	0.018600	0.924700
H1341	H134	0.504400	0.004700	0.883000
H1351	H135	0.463800	0.977100	0.901700
H1361	H136	0.539300	0.820000	0.995600
H1371	H137	0.520300	0.837600	0.042300
H1381	H138	0.488000	0.841400	0.005700
H1391	H139	0.605100	0.984300	0.025300
H1401	H140	0.638000	0.942000	0.009200
H1411	H141	0.629800	0.986900	0.974900
H1421	H142	0.626100	0.878300	0.029300
H1431	H143	0.588900	0.845400	0.041500
H1441	H144	0.635400	0.818900	0.096800
H1451	H145	0.559700	0.922800	0.154400
H1461	H146	0.568700	0.038300	0.965700
H1471	H147	0.525400	0.046400	0.940900
H1481	H148	0.630100	0.054300	0.824400
H1491	H149	0.615900	0.189500	0.823400
H1501	H150	0.568700	0.182600	0.891300
H1511	H151	0.554500	0.111600	0.929100
H1521	H152	0.083200	0.723100	0.845100
H1531	H153	0.011200	0.762400	0.960000
H1541	H154	0.944600	0.761300	0.933200
H1551	H155	0.947100	0.739400	0.862600
H1561	H156	0.144200	0.735100	0.878900
H1571	H157	0.126100	0.689100	0.900400
H1581	H158	0.213000	0.801100	0.910900
H1591	H159	0.171200	0.788500	0.893300
H1601	H160	0.220900	0.771400	0.871500
H1611	H161	0.306300	0.677500	0.999400
H1621	H162	0.286500	0.631800	0.017800
H1631	H163	0.274100	0.672500	0.046200
H1641	H164	0.133900	0.615000	0.992200
H1651	H165	0.107800	0.653600	0.960200
H1661	H166	0.103900	0.656800	0.012200
H1671	H167	0.295900	0.521200	0.007100
H1681	H168	0.320200	0.457100	0.052000
H1691	H169	0.290300	0.444100	0.128200
H1701	H170	0.201800	0.559000	0.111100
H1711	H171	0.308900	0.717200	0.938500
H1721	H172	0.281900	0.763400	0.918100
H1731	H173	0.364300	0.751800	0.918700
H1741	H174	0.456100	0.776700	0.988000
H1751	H175	0.399800	0.789700	0.048100
H1761	H176	0.323800	0.782600	0.045700
H1771	H177	0.209700	0.626700	0.066100
H1781	H178	0.169800	0.611100	0.047800
H1791	H179	0.638300	0.827900	0.227700
H1801	H180	0.584700	0.892400	0.222800
H1811	H181	0.070700	0.383300	0.371100
H1821	H182	0.053000	0.356600	0.338700
H1831	H183	0.064900	0.405800	0.321100
H1841	H184	0.151300	0.297400	0.308600
H1851	H185	0.111700	0.294600	0.349800
H1861	H186	0.158900	0.306100	0.356500
H1871	H187	0.186700	0.353200	0.248900
H1881	H188	0.205700	0.346500	0.295400
H1891	H189	0.207000	0.392900	0.262700
H1901	H190	0.219900	0.575700	0.618000
H1911	H191	0.219600	0.515100	0.580200
H1921	H192	0.151400	0.496200	0.569200
H1931	H193	0.083400	0.601300	0.629900
H1941	H194	0.022500	0.558100	0.634100
H1951	H195	0.030600	0.591900	0.588600
H1961	H196	0.031100	0.575300	0.481400
H1971	H197	0.995600	0.617000	0.495300
H1981	H198	0.036200	0.598300	0.522900
H1991	H199	0.960700	0.504400	0.680000
H2001	H200	0.979700	0.457700	0.662400
H2011	H201	0.012000	0.494300	0.658600
H2021	H202	0.894900	0.474700	0.515700
H2031	H203	0.862000	0.490800	0.558000
H2041	H204	0.870200	0.525100	0.513100
H2051	H205	0.873900	0.470700	0.621700
H2061	H206	0.911100	0.458500	0.654600
H2071	H207	0.864600	0.403200	0.681100
H2081	H208	0.940300	0.345600	0.577200
H2091	H209	0.931300	0.534300	0.461700
H2101	H210	0.974600	0.559100	0.453600
H2111	H211	0.869900	0.675600	0.445700
H2121	H212	0.884100	0.676600	0.310500
H2131	H213	0.931300	0.608700	0.317400
H2141	H214	0.945500	0.570900	0.388400
H2151	H215	0.416800	0.654900	0.776900
H2161	H216	0.488800	0.540000	0.737600
H2171	H217	0.555400	0.566800	0.738700
H2181	H218	0.552900	0.637400	0.760600
H2191	H219	0.355800	0.621100	0.764900
H2201	H220	0.373900	0.599600	0.810900
H2211	H221	0.287000	0.589100	0.698900
H2221	H222	0.328800	0.606700	0.711500
H2231	H223	0.279100	0.628500	0.728600
H2241	H224	0.193700	0.500600	0.822500
H2251	H225	0.213500	0.482200	0.868200
H2261	H226	0.225900	0.453800	0.827500
H2271	H227	0.366100	0.507800	0.885000
H2281	H228	0.392200	0.539800	0.846400
H2291	H229	0.396100	0.487800	0.843200
H2301	H230	0.204100	0.492900	0.978800
H2311	H231	0.179800	0.448000	0.042900
H2321	H232	0.209700	0.371800	0.055900
H2331	H233	0.298200	0.388900	0.941000
H2341	H234	0.191100	0.561500	0.782800
H2351	H235	0.218100	0.581900	0.736600
H2361	H236	0.135700	0.581300	0.748200
H2371	H237	0.043900	0.512000	0.723300
H2381	H238	0.100200	0.451900	0.710300
H2391	H239	0.176200	0.454300	0.717400
H2401	H240	0.290300	0.433900	0.873300
H2411	H241	0.330200	0.452200	0.888900
H2421	H242	0.861700	0.272300	0.672100
H2431	H243	0.915300	0.277200	0.607600
H2441	H244	0.429300	0.128900	0.116700
H2451	H245	0.447000	0.161300	0.143400
H2461	H246	0.435100	0.178900	0.094200
H2471	H247	0.348700	0.191400	0.202600
H2481	H248	0.388300	0.150200	0.205400
H2491	H249	0.341100	0.143500	0.193900
H2501	H250	0.313300	0.251100	0.146800
H2511	H251	0.294300	0.204600	0.153500
H2521	H252	0.293000	0.237300	0.107100
H2531	H253	0.575700	0.618000	0.219900
H2541	H254	0.515100	0.580200	0.219600
H2551	H255	0.496200	0.569200	0.151400
H2561	H256	0.601300	0.629900	0.083400
H2571	H257	0.558100	0.634100	0.022500
H2581	H258	0.591900	0.588600	0.030600
H2591	H259	0.575300	0.481400	0.031100
H2601	H260	0.617000	0.495300	0.995600
H2611	H261	0.598300	0.522900	0.036200
H2621	H262	0.504400	0.680000	0.960700
H2631	H263	0.457700	0.662400	0.979700
H2641	H264	0.494300	0.658600	0.012000
H2651	H265	0.474700	0.515700	0.894900
H2661	H266	0.490800	0.558000	0.862000
H2671	H267	0.525100	0.513100	0.870200
H2681	H268	0.470700	0.621700	0.873900
H2691	H269	0.458500	0.654600	0.911100
H2701	H270	0.403200	0.681100	0.864600
H2711	H271	0.345600	0.577200	0.940300
H2721	H272	0.534300	0.461700	0.931300
H2731	H273	0.559100	0.453600	0.974600
H2741	H274	0.675600	0.445700	0.869900
H2751	H275	0.676600	0.310500	0.884100
H2761	H276	0.608700	0.317400	0.931300
H2771	H277	0.570900	0.388400	0.945500
H2781	H278	0.654900	0.776900	0.416800
H2791	H279	0.540000	0.737600	0.488800
H2801	H280	0.566800	0.738700	0.555400
H2811	H281	0.637400	0.760600	0.552900
H2821	H282	0.621100	0.764900	0.355800
H2831	H283	0.599600	0.810900	0.373900
H2841	H284	0.589100	0.698900	0.287000
H2851	H285	0.606700	0.711500	0.328800
H2861	H286	0.628500	0.728600	0.279100
H2871	H287	0.500600	0.822500	0.193700
H2881	H288	0.482200	0.868200	0.213500
H2891	H289	0.453800	0.827500	0.225900
H2901	H290	0.507800	0.885000	0.366100
H2911	H291	0.539800	0.846400	0.392200
H2921	H292	0.487800	0.843200	0.396100
H2931	H293	0.492900	0.978800	0.204100
H2941	H294	0.448000	0.042900	0.179800
H2951	H295	0.371800	0.055900	0.209700
H2961	H296	0.388900	0.941000	0.298200
H2971	H297	0.561500	0.782800	0.191100
H2981	H298	0.581900	0.736600	0.218100
H2991	H299	0.581300	0.748200	0.135700
H3001	H300	0.512000	0.723300	0.043900
H3011	H301	0.451900	0.710300	0.100200
H3021	H302	0.454300	0.717400	0.176200
H3031	H303	0.433900	0.873300	0.290300
H3041	H304	0.452200	0.888900	0.330200
H3051	H305	0.272300	0.672100	0.861700
H3061	H306	0.277200	0.607600	0.915300
H3071	H307	0.128900	0.116700	0.429300
H3081	H308	0.161300	0.143400	0.447000
H3091	H309	0.178900	0.094200	0.435100
H3101	H310	0.191400	0.202600	0.348700
H3111	H311	0.150200	0.205400	0.388300
H3121	H312	0.143500	0.193900	0.341100
H3131	H313	0.251100	0.146800	0.313300
H3141	H314	0.204600	0.153500	0.294300
H3151	H315	0.237300	0.107100	0.293000
H3161	H316	0.618000	0.219900	0.575700
H3171	H317	0.580200	0.219600	0.515100
H3181	H318	0.569200	0.151400	0.496200
H3191	H319	0.629900	0.083400	0.601300
H3201	H320	0.634100	0.022500	0.558100
H3211	H321	0.588600	0.030600	0.591900
H3221	H322	0.481400	0.031100	0.575300
H3231	H323	0.495300	0.995600	0.617000
H3241	H324	0.522900	0.036200	0.598300
H3251	H325	0.680000	0.960700	0.504400
H3261	H326	0.662400	0.979700	0.457700
H3271	H327	0.658600	0.012000	0.494300
H3281	H328	0.515700	0.894900	0.474700
H3291	H329	0.558000	0.862000	0.490800
H3301	H330	0.513100	0.870200	0.525100
H3311	H331	0.621700	0.873900	0.470700
H3321	H332	0.654600	0.911100	0.458500
H3331	H333	0.681100	0.864600	0.403200
H3341	H334	0.577200	0.940300	0.345600
H3351	H335	0.461700	0.931300	0.534300
H3361	H336	0.453600	0.974600	0.559100
H3371	H337	0.445700	0.869900	0.675600
H3381	H338	0.310500	0.884100	0.676600
H3391	H339	0.317400	0.931300	0.608700
H3401	H340	0.388400	0.945500	0.570900
H3411	H341	0.776900	0.416800	0.654900
H3421	H342	0.737600	0.488800	0.540000
H3431	H343	0.738700	0.555400	0.566800
H3441	H344	0.760600	0.552900	0.637400
H3451	H345	0.764900	0.355800	0.621100
H3461	H346	0.810900	0.373900	0.599600
H3471	H347	0.698900	0.287000	0.589100
H3481	H348	0.711500	0.328800	0.606700
H3491	H349	0.728600	0.279100	0.628500
H3501	H350	0.822500	0.193700	0.500600
H3511	H351	0.868200	0.213500	0.482200
H3521	H352	0.827500	0.225900	0.453800
H3531	H353	0.885000	0.366100	0.507800
H3541	H354	0.846400	0.392200	0.539800
H3551	H355	0.843200	0.396100	0.487800
H3561	H356	0.978800	0.204100	0.492900
H3571	H357	0.042900	0.179800	0.448000
H3581	H358	0.055900	0.209700	0.371800
H3591	H359	0.941000	0.298200	0.388900
H3601	H360	0.782800	0.191100	0.561500
H3611	H361	0.736600	0.218100	0.581900
H3621	H362	0.748200	0.135700	0.581300
H3631	H363	0.723300	0.043900	0.512000
H3641	H364	0.710300	0.100200	0.451900
H3651	H365	0.717400	0.176200	0.454300
H3661	H366	0.873300	0.290300	0.433900
H3671	H367	0.888900	0.330200	0.452200
H3681	H368	0.672100	0.861700	0.272300
H3691	H369	0.607600	0.915300	0.277200
H3701	H370	0.116700	0.429300	0.128900
H3711	H371	0.143400	0.447000	0.161300
H3721	H372	0.094200	0.435100	0.178900
H3731	H373	0.202600	0.348700	0.191400
H3741	H374	0.205400	0.388300	0.150200
H3751	H375	0.193900	0.341100	0.143500
H3761	H376	0.146800	0.313300	0.251100
H3771	H377	0.153500	0.294300	0.204600
H3781	H378	0.107100	0.293000	0.237300
H3791	H379	0.075700	0.719900	0.118000
H3801	H380	0.015100	0.719600	0.080200
H3811	H381	0.996200	0.651400	0.069200
H3821	H382	0.101300	0.583400	0.129900
H3831	H383	0.058100	0.522500	0.134100
H3841	H384	0.091900	0.530600	0.088600
H3851	H385	0.075300	0.531100	0.981400
H3861	H386	0.117000	0.495600	0.995300
H3871	H387	0.098300	0.536200	0.022900
H3881	H388	0.004400	0.460700	0.180000
H3891	H389	0.957700	0.479700	0.162400
H3901	H390	0.994300	0.512000	0.158600
H3911	H391	0.974700	0.394900	0.015700
H3921	H392	0.990800	0.362000	0.058000
H3931	H393	0.025100	0.370200	0.013100
H3941	H394	0.970700	0.373900	0.121700
H3951	H395	0.958500	0.411100	0.154600
H3961	H396	0.903200	0.364600	0.181100
H3971	H397	0.845600	0.440300	0.077200
H3981	H398	0.034300	0.431300	0.961700
H3991	H399	0.059100	0.474600	0.953600
H4001	H400	0.175600	0.369900	0.945700
H4011	H401	0.176600	0.384100	0.810500
H4021	H402	0.108700	0.431300	0.817400
H4031	H403	0.070900	0.445500	0.888400
H4041	H404	0.154900	0.916800	0.276900
H4051	H405	0.040000	0.988800	0.237600
H4061	H406	0.066800	0.055400	0.238700
H4071	H407	0.137400	0.052900	0.260600
H4081	H408	0.121100	0.855800	0.264900
H4091	H409	0.099600	0.873900	0.310900
H4101	H410	0.089100	0.787000	0.198900
H4111	H411	0.106700	0.828800	0.211500
H4121	H412	0.128500	0.779100	0.228600
H4131	H413	0.000600	0.693700	0.322500
H4141	H414	0.982200	0.713500	0.368200
H4151	H415	0.953800	0.725900	0.327500
H4161	H416	0.007800	0.866100	0.385000
H4171	H417	0.039800	0.892200	0.346400
H4181	H418	0.987800	0.896100	0.343200
H4191	H419	0.992900	0.704100	0.478800
H4201	H420	0.948000	0.679800	0.542900
H4211	H421	0.871800	0.709700	0.555900
H4221	H422	0.888900	0.798200	0.441000
H4231	H423	0.061500	0.691100	0.282800
H4241	H424	0.081900	0.718100	0.236600
H4251	H425	0.081300	0.635700	0.248200
H4261	H426	0.012000	0.543900	0.223300
H4271	H427	0.951900	0.600200	0.210300
H4281	H428	0.954300	0.676200	0.217400
H4291	H429	0.933900	0.790300	0.373300
H4301	H430	0.952200	0.830200	0.388900
H4311	H431	0.772300	0.361700	0.172100
H4321	H432	0.777200	0.415300	0.107600
H4331	H433	0.628900	0.929300	0.616700
H4341	H434	0.661300	0.947000	0.643400
H4351	H435	0.678900	0.935100	0.594200
H4361	H436	0.691400	0.848700	0.702600
H4371	H437	0.650200	0.888300	0.705400
H4381	H438	0.643500	0.841100	0.693900
H4391	H439	0.751100	0.813300	0.646800
H4401	H440	0.704600	0.794300	0.653500
H4411	H441	0.737300	0.793000	0.607100
H4421	H442	0.118000	0.075700	0.719900
H4431	H443	0.080200	0.015100	0.719600
H4441	H444	0.069200	0.996200	0.651400
H4451	H445	0.129900	0.101300	0.583400
H4461	H446	0.134100	0.058100	0.522500
H4471	H447	0.088600	0.091900	0.530600
H4481	H448	0.981400	0.075300	0.531100
H4491	H449	0.995300	0.117000	0.495600
H4501	H450	0.022900	0.098300	0.536200
H4511	H451	0.180000	0.004400	0.460700
H4521	H452	0.162400	0.957700	0.479700
H4531	H453	0.158600	0.994300	0.512000
H4541	H454	0.015700	0.974700	0.394900
H4551	H455	0.058000	0.990800	0.362000
H4561	H456	0.013100	0.025100	0.370200
H4571	H457	0.121700	0.970700	0.373900
H4581	H458	0.154600	0.958500	0.411100
H4591	H459	0.181100	0.903200	0.364600
H4601	H460	0.077200	0.845600	0.440300
H4611	H461	0.961700	0.034300	0.431300
H4621	H462	0.953600	0.059100	0.474600
H4631	H463	0.945700	0.175600	0.369900
H4641	H464	0.810500	0.176600	0.384100
H4651	H465	0.817400	0.108700	0.431300
H4661	H466	0.888400	0.070900	0.445500
H4671	H467	0.276900	0.154900	0.916800
H4681	H468	0.237600	0.040000	0.988800
H4691	H469	0.238700	0.066800	0.055400
H4701	H470	0.260600	0.137400	0.052900
H4711	H471	0.264900	0.121100	0.855800
H4721	H472	0.310900	0.099600	0.873900
H4731	H473	0.198900	0.089100	0.787000
H4741	H474	0.211500	0.106700	0.828800
H4751	H475	0.228600	0.128500	0.779100
H4761	H476	0.322500	0.000600	0.693700
H4771	H477	0.368200	0.982200	0.713500
H4781	H478	0.327500	0.953800	0.725900
H4791	H479	0.385000	0.007800	0.866100
H4801	H480	0.346400	0.039800	0.892200
H4811	H481	0.343200	0.987800	0.896100
H4821	H482	0.478800	0.992900	0.704100
H4831	H483	0.542900	0.948000	0.679800
H4841	H484	0.555900	0.871800	0.709700
H4851	H485	0.441000	0.888900	0.798200
H4861	H486	0.282800	0.061500	0.691100
H4871	H487	0.236600	0.081900	0.718100
H4881	H488	0.248200	0.081300	0.635700
H4891	H489	0.223300	0.012000	0.543900
H4901	H490	0.210300	0.951900	0.600200
H4911	H491	0.217400	0.954300	0.676200
H4921	H492	0.373300	0.933900	0.790300
H4931	H493	0.388900	0.952200	0.830200
H4941	H494	0.172100	0.772300	0.361700
H4951	H495	0.107600	0.777200	0.415300
H4961	H496	0.616700	0.628900	0.929300
H4971	H497	0.643400	0.661300	0.947000
H4981	H498	0.594200	0.678900	0.935100
H4991	H499	0.702600	0.691400	0.848700
H5001	H500	0.705400	0.650200	0.888300
H5011	H501	0.693900	0.643500	0.841100
H5021	H502	0.646800	0.751100	0.813300
H5031	H503	0.653500	0.704600	0.794300
H5041	H504	0.607100	0.737300	0.793000
H5051	H505	0.719900	0.118000	0.075700
H5061	H506	0.719600	0.080200	0.015100
H5071	H507	0.651400	0.069200	0.996200
H5081	H508	0.583400	0.129900	0.101300
H5091	H509	0.522500	0.134100	0.058100
H5101	H510	0.530600	0.088600	0.091900
H5111	H511	0.531100	0.981400	0.075300
H5121	H512	0.495600	0.995300	0.117000
H5131	H513	0.536200	0.022900	0.098300
H5141	H514	0.460700	0.180000	0.004400
H5151	H515	0.479700	0.162400	0.957700
H5161	H516	0.512000	0.158600	0.994300
H5171	H517	0.394900	0.015700	0.974700
H5181	H518	0.362000	0.058000	0.990800
H5191	H519	0.370200	0.013100	0.025100
H5201	H520	0.373900	0.121700	0.970700
H5211	H521	0.411100	0.154600	0.958500
H5221	H522	0.364600	0.181100	0.903200
H5231	H523	0.440300	0.077200	0.845600
H5241	H524	0.431300	0.961700	0.034300
H5251	H525	0.474600	0.953600	0.059100
H5261	H526	0.369900	0.945700	0.175600
H5271	H527	0.384100	0.810500	0.176600
H5281	H528	0.431300	0.817400	0.108700
H5291	H529	0.445500	0.888400	0.070900
H5301	H530	0.916800	0.276900	0.154900
H5311	H531	0.988800	0.237600	0.040000
H5321	H532	0.055400	0.238700	0.066800
H5331	H533	0.052900	0.260600	0.137400
H5341	H534	0.855800	0.264900	0.121100
H5351	H535	0.873900	0.310900	0.099600
H5361	H536	0.787000	0.198900	0.089100
H5371	H537	0.828800	0.211500	0.106700
H5381	H538	0.779100	0.228600	0.128500
H5391	H539	0.693700	0.322500	0.000600
H5401	H540	0.713500	0.368200	0.982200
H5411	H541	0.725900	0.327500	0.953800
H5421	H542	0.866100	0.385000	0.007800
H5431	H543	0.892200	0.346400	0.039800
H5441	H544	0.896100	0.343200	0.987800
H5451	H545	0.704100	0.478800	0.992900
H5461	H546	0.679800	0.542900	0.948000
H5471	H547	0.709700	0.555900	0.871800
H5481	H548	0.798200	0.441000	0.888900
H5491	H549	0.691100	0.282800	0.061500
H5501	H550	0.718100	0.236600	0.081900
H5511	H551	0.635700	0.248200	0.081300
H5521	H552	0.543900	0.223300	0.012000
H5531	H553	0.600200	0.210300	0.951900
H5541	H554	0.676200	0.217400	0.954300
H5551	H555	0.790300	0.373300	0.933900
H5561	H556	0.830200	0.388900	0.952200
H5571	H557	0.361700	0.172100	0.772300
H5581	H558	0.415300	0.107600	0.777200
H5591	H559	0.929300	0.616700	0.628900
H5601	H560	0.947000	0.643400	0.661300
H5611	H561	0.935100	0.594200	0.678900
H5621	H562	0.848700	0.702600	0.691400
H5631	H563	0.888300	0.705400	0.650200
H5641	H564	0.841100	0.693900	0.643500
H5651	H565	0.813300	0.646800	0.751100
H5661	H566	0.794300	0.653500	0.704600
H5671	H567	0.793000	0.607100	0.737300
H5681	H568	0.780100	0.424300	0.382000
H5691	H569	0.780400	0.484900	0.419800
H5701	H570	0.848600	0.503800	0.430800
H5711	H571	0.916600	0.398700	0.370100
H5721	H572	0.977500	0.441900	0.365900
H5731	H573	0.969400	0.408100	0.411400
H5741	H574	0.968900	0.424700	0.518600
H5751	H575	0.004400	0.383000	0.504700
H5761	H576	0.963800	0.401700	0.477100
H5771	H577	0.039300	0.495600	0.320000
H5781	H578	0.020300	0.542300	0.337600
H5791	H579	0.988000	0.505700	0.341400
H5801	H580	0.105100	0.525300	0.484300
H5811	H581	0.138000	0.509200	0.442000
H5821	H582	0.129800	0.474900	0.486900
H5831	H583	0.126100	0.529300	0.378300
H5841	H584	0.088900	0.541500	0.345400
H5851	H585	0.135400	0.596800	0.318900
H5861	H586	0.059700	0.654400	0.422800
H5871	H587	0.068700	0.465700	0.538300
H5881	H588	0.025400	0.440900	0.546400
H5891	H589	0.130100	0.324400	0.554300
H5901	H590	0.115900	0.323400	0.689500
H5911	H591	0.068700	0.391300	0.682600
H5921	H592	0.054500	0.429100	0.611600
H5931	H593	0.583200	0.345100	0.223100
H5941	H594	0.511200	0.460000	0.262400
H5951	H595	0.444600	0.433200	0.261300
H5961	H596	0.447100	0.362600	0.239400
H5971	H597	0.644200	0.378900	0.235100
H5981	H598	0.626100	0.400400	0.189100
H5991	H599	0.713000	0.410900	0.301100
H6001	H600	0.671200	0.393300	0.288500
H6011	H601	0.720900	0.371500	0.271400
H6021	H602	0.806300	0.499400	0.177500
H6031	H603	0.786500	0.517800	0.131800
H6041	H604	0.774100	0.546200	0.172500
H6051	H605	0.633900	0.492200	0.115000
H6061	H606	0.607800	0.460200	0.153600
H6071	H607	0.603900	0.512200	0.156800
H6081	H608	0.795900	0.507100	0.021200
H6091	H609	0.820200	0.552000	0.957100
H6101	H610	0.790300	0.628200	0.944100
H6111	H611	0.701800	0.611100	0.059000
H6121	H612	0.808900	0.438500	0.217200
H6131	H613	0.781900	0.418100	0.263400
H6141	H614	0.864300	0.418700	0.251800
H6151	H615	0.956100	0.488000	0.276700
H6161	H616	0.899800	0.548100	0.289700
H6171	H617	0.823800	0.545700	0.282600
H6181	H618	0.709700	0.566100	0.126700
H6191	H619	0.669800	0.547800	0.111100
H6201	H620	0.138300	0.727700	0.327900
H6211	H621	0.084700	0.722800	0.392400
H6221	H622	0.570700	0.871100	0.883300
H6231	H623	0.553000	0.838700	0.856600
H6241	H624	0.564900	0.821100	0.905800
H6251	H625	0.651300	0.808600	0.797400
H6261	H626	0.611700	0.849800	0.794600
H6271	H627	0.658900	0.856500	0.806100
H6281	H628	0.686700	0.748900	0.853200
H6291	H629	0.705700	0.795400	0.846500
H6301	H630	0.707000	0.762700	0.892900
H6311	H631	0.424300	0.382000	0.780100
H6321	H632	0.484900	0.419800	0.780400
H6331	H633	0.503800	0.430800	0.848600
H6341	H634	0.398700	0.370100	0.916600
H6351	H635	0.441900	0.365900	0.977500
H6361	H636	0.408100	0.411400	0.969400
H6371	H637	0.424700	0.518600	0.968900
H6381	H638	0.383000	0.504700	0.004400
H6391	H639	0.401700	0.477100	0.963800
H6401	H640	0.495600	0.320000	0.039300
H6411	H641	0.542300	0.337600	0.020300
H6421	H642	0.505700	0.341400	0.988000
H6431	H643	0.525300	0.484300	0.105100
H6441	H644	0.509200	0.442000	0.138000
H6451	H645	0.474900	0.486900	0.129800
H6461	H646	0.529300	0.378300	0.126100
H6471	H647	0.541500	0.345400	0.088900
H6481	H648	0.596800	0.318900	0.135400
H6491	H649	0.654400	0.422800	0.059700
H6501	H650	0.465700	0.538300	0.068700
H6511	H651	0.440900	0.546400	0.025400
H6521	H652	0.324400	0.554300	0.130100
H6531	H653	0.323400	0.689500	0.115900
H6541	H654	0.391300	0.682600	0.068700
H6551	H655	0.429100	0.611600	0.054500
H6561	H656	0.345100	0.223100	0.583200
H6571	H657	0.460000	0.262400	0.511200
H6581	H658	0.433200	0.261300	0.444600
H6591	H659	0.362600	0.239400	0.447100
H6601	H660	0.378900	0.235100	0.644200
H6611	H661	0.400400	0.189100	0.626100
H6621	H662	0.410900	0.301100	0.713000
H6631	H663	0.393300	0.288500	0.671200
H6641	H664	0.371500	0.271400	0.720900
H6651	H665	0.499400	0.177500	0.806300
H6661	H666	0.517800	0.131800	0.786500
H6671	H667	0.546200	0.172500	0.774100
H6681	H668	0.492200	0.115000	0.633900
H6691	H669	0.460200	0.153600	0.607800
H6701	H670	0.512200	0.156800	0.603900
H6711	H671	0.507100	0.021200	0.795900
H6721	H672	0.552000	0.957100	0.820200
H6731	H673	0.628200	0.944100	0.790300
H6741	H674	0.611100	0.059000	0.701800
H6751	H675	0.438500	0.217200	0.808900
H6761	H676	0.418100	0.263400	0.781900
H6771	H677	0.418700	0.251800	0.864300
H6781	H678	0.488000	0.276700	0.956100
H6791	H679	0.548100	0.289700	0.899800
H6801	H680	0.545700	0.282600	0.823800
H6811	H681	0.566100	0.126700	0.709700
H6821	H682	0.547800	0.111100	0.669800
H6831	H683	0.727700	0.327900	0.138300
H6841	H684	0.722800	0.392400	0.084700
H6851	H685	0.871100	0.883300	0.570700
H6861	H686	0.838700	0.856600	0.553000
H6871	H687	0.821100	0.905800	0.564900
H6881	H688	0.808600	0.797400	0.651300
H6891	H689	0.849800	0.794600	0.611700
H6901	H690	0.856500	0.806100	0.658900
H6911	H691	0.748900	0.853200	0.686700
H6921	H692	0.795400	0.846500	0.705700
H6931	H693	0.762700	0.892900	0.707000
H6941	H694	0.382000	0.780100	0.424300
H6951	H695	0.419800	0.780400	0.484900
H6961	H696	0.430800	0.848600	0.503800
H6971	H697	0.370100	0.916600	0.398700
H6981	H698	0.365900	0.977500	0.441900
H6991	H699	0.411400	0.969400	0.408100
H7001	H700	0.518600	0.968900	0.424700
H7011	H701	0.504700	0.004400	0.383000
H7021	H702	0.477100	0.963800	0.401700
H7031	H703	0.320000	0.039300	0.495600
H7041	H704	0.337600	0.020300	0.542300
H7051	H705	0.341400	0.988000	0.505700
H7061	H706	0.484300	0.105100	0.525300
H7071	H707	0.442000	0.138000	0.509200
H7081	H708	0.486900	0.129800	0.474900
H7091	H709	0.378300	0.126100	0.529300
H7101	H710	0.345400	0.088900	0.541500
H7111	H711	0.318900	0.135400	0.596800
H7121	H712	0.422800	0.059700	0.654400
H7131	H713	0.538300	0.068700	0.465700
H7141	H714	0.546400	0.025400	0.440900
H7151	H715	0.554300	0.130100	0.324400
H7161	H716	0.689500	0.115900	0.323400
H7171	H717	0.682600	0.068700	0.391300
H7181	H718	0.611600	0.054500	0.429100
H7191	H719	0.223100	0.583200	0.345100
H7201	H720	0.262400	0.511200	0.460000
H7211	H721	0.261300	0.444600	0.433200
H7221	H722	0.239400	0.447100	0.362600
H7231	H723	0.235100	0.644200	0.378900
H7241	H724	0.189100	0.626100	0.400400
H7251	H725	0.301100	0.713000	0.410900
H7261	H726	0.288500	0.671200	0.393300
H7271	H727	0.271400	0.720900	0.371500
H7281	H728	0.177500	0.806300	0.499400
H7291	H729	0.131800	0.786500	0.517800
H7301	H730	0.172500	0.774100	0.546200
H7311	H731	0.115000	0.633900	0.492200
H7321	H732	0.153600	0.607800	0.460200
H7331	H733	0.156800	0.603900	0.512200
H7341	H734	0.021200	0.795900	0.507100
H7351	H735	0.957100	0.820200	0.552000
H7361	H736	0.944100	0.790300	0.628200
H7371	H737	0.059000	0.701800	0.611100
H7381	H738	0.217200	0.808900	0.438500
H7391	H739	0.263400	0.781900	0.418100
H7401	H740	0.251800	0.864300	0.418700
H7411	H741	0.276700	0.956100	0.488000
H7421	H742	0.289700	0.899800	0.548100
H7431	H743	0.282600	0.823800	0.545700
H7441	H744	0.126700	0.709700	0.566100
H7451	H745	0.111100	0.669800	0.547800
H7461	H746	0.327900	0.138300	0.727700
H7471	H747	0.392400	0.084700	0.722800
H7481	H748	0.883300	0.570700	0.871100
H7491	H749	0.856600	0.553000	0.838700
H7501	H750	0.905800	0.564900	0.821100
H7511	H751	0.797400	0.651300	0.808600
H7521	H752	0.794600	0.611700	0.849800
H7531	H753	0.806100	0.658900	0.856500
H7541	H754	0.853200	0.686700	0.748900
H7551	H755	0.846500	0.705700	0.795400
H7561	H756	0.892900	0.707000	0.762700
C11	C1	0.905050	0.347680	0.873150
C21	C2	0.931210	0.307490	0.887360
C31	C3	0.967740	0.307610	0.909480
C41	C4	0.978830	0.348410	0.916330
C51	C5	0.953030	0.388930	0.901790
C61	C6	0.916020	0.389150	0.879990
C71	C7	0.865010	0.348510	0.848820
C81	C8	0.989920	0.530850	0.889810
C91	C9	0.004120	0.566610	0.906240
C101	C10	0.986550	0.576330	0.950540
C111	C11	0.957420	0.548900	0.978450
C121	C12	0.939800	0.470390	0.898810
C131	C13	0.909890	0.485070	0.993480
C141	C14	0.010260	0.518400	0.842890
C151	C15	0.000230	0.615800	0.967470
C161	C16	0.038390	0.593770	0.876880
C171	C17	0.942200	0.514020	0.961950
C181	C18	0.163370	0.640860	0.815840
C191	C19	0.122050	0.625540	0.833930
C201	C20	0.156540	0.580310	0.896090
C211	C21	0.168490	0.667610	0.769780
C221	C22	0.943190	0.554740	0.027910
C231	C23	0.880270	0.590910	0.075720
C241	C24	0.838350	0.618250	0.080010
C251	C25	0.817150	0.628150	0.122450
C261	C26	0.837550	0.609420	0.160920
C271	C27	0.878250	0.581690	0.156620
C281	C28	0.900780	0.572560	0.114270
C291	C29	0.771610	0.658250	0.126940
C301	C30	0.801730	0.016180	0.714540
C311	C31	0.846860	0.014710	0.729980
C321	C32	0.862930	0.055340	0.730340
C331	C33	0.905980	0.053490	0.741610
C341	C34	0.931590	0.012120	0.753710
C351	C35	0.915660	0.972460	0.753260
C361	C36	0.873220	0.974040	0.740600
C371	C37	0.118600	0.595910	0.874270
C381	C38	0.907200	0.131950	0.717760
C391	C39	0.940540	0.166900	0.708420
C401	C40	0.934260	0.202620	0.734990
C411	C41	0.899290	0.201860	0.777920
C421	C42	0.958680	0.239550	0.720920
C431	C43	0.991840	0.240010	0.682110
C441	C44	0.015980	0.280280	0.664380
C451	C45	0.976500	0.164500	0.672190
C461	C46	0.986150	0.123890	0.647110
C471	C47	0.054050	0.244510	0.545890
C481	C48	0.037010	0.281810	0.515310
C491	C49	0.064000	0.296700	0.477900
C501	C50	0.109390	0.278090	0.469390
C511	C51	0.126100	0.241580	0.498820
C521	C52	0.099050	0.225340	0.538060
C531	C53	0.945190	0.283780	0.741060
C541	C54	0.981380	0.335680	0.766190
C551	C55	0.945170	0.371020	0.759710
C561	C56	0.985790	0.426090	0.774690
C571	C57	0.022090	0.392190	0.781890
C581	C58	0.947320	0.415820	0.764690
C591	C59	0.020910	0.346210	0.777810
C601	C60	0.001990	0.200350	0.659480
C611	C61	0.906050	0.451250	0.757450
C621	C62	0.039380	0.200250	0.619160
C631	C63	0.957470	0.506280	0.917160
C641	C64	0.200490	0.626710	0.838860
C651	C65	0.197270	0.595380	0.878060
C661	C66	0.296940	0.143340	0.385840
C671	C67	0.340100	0.073100	0.377700
C681	C68	0.335700	0.137100	0.310000
C691	C69	0.273900	0.189900	0.367900
C701	C70	0.173100	0.218100	0.488500
C711	C71	0.873150	0.905050	0.347680
C721	C72	0.887360	0.931210	0.307490
C731	C73	0.909480	0.967740	0.307610
C741	C74	0.916330	0.978830	0.348410
C751	C75	0.901790	0.953030	0.388930
C761	C76	0.879990	0.916020	0.389150
C771	C77	0.848820	0.865010	0.348510
C781	C78	0.889810	0.989920	0.530850
C791	C79	0.906240	0.004120	0.566610
C801	C80	0.950540	0.986550	0.576330
C811	C81	0.978450	0.957420	0.548900
C821	C82	0.898810	0.939800	0.470390
C831	C83	0.993480	0.909890	0.485070
C841	C84	0.842890	0.010260	0.518400
C851	C85	0.967470	0.000230	0.615800
C861	C86	0.876880	0.038390	0.593770
C871	C87	0.961950	0.942200	0.514020
C881	C88	0.815840	0.163370	0.640860
C891	C89	0.833930	0.122050	0.625540
C901	C90	0.896090	0.156540	0.580310
C911	C91	0.769780	0.168490	0.667610
C921	C92	0.027910	0.943190	0.554740
C931	C93	0.075720	0.880270	0.590910
C941	C94	0.080010	0.838350	0.618250
C951	C95	0.122450	0.817150	0.628150
C961	C96	0.160920	0.837550	0.609420
C971	C97	0.156620	0.878250	0.581690
C981	C98	0.114270	0.900780	0.572560
C991	C99	0.126940	0.771610	0.658250
C1001	C100	0.714540	0.801730	0.016180
C1011	C101	0.729980	0.846860	0.014710
C1021	C102	0.730340	0.862930	0.055340
C1031	C103	0.741610	0.905980	0.053490
C1041	C104	0.753710	0.931590	0.012120
C1051	C105	0.753260	0.915660	0.972460
C1061	C106	0.740600	0.873220	0.974040
C1071	C107	0.874270	0.118600	0.595910
C1081	C108	0.717760	0.907200	0.131950
C1091	C109	0.708420	0.940540	0.166900
C1101	C110	0.734990	0.934260	0.202620
C1111	C111	0.777920	0.899290	0.201860
C1121	C112	0.720920	0.958680	0.239550
C1131	C113	0.682110	0.991840	0.240010
C1141	C114	0.664380	0.015980	0.280280
C1151	C115	0.672190	0.976500	0.164500
C1161	C116	0.647110	0.986150	0.123890
C1171	C117	0.545890	0.054050	0.244510
C1181	C118	0.515310	0.037010	0.281810
C1191	C119	0.477900	0.064000	0.296700
C1201	C120	0.469390	0.109390	0.278090
C1211	C121	0.498820	0.126100	0.241580
C1221	C122	0.538060	0.099050	0.225340
C1231	C123	0.741060	0.945190	0.283780
C1241	C124	0.766190	0.981380	0.335680
C1251	C125	0.759710	0.945170	0.371020
C1261	C126	0.774690	0.985790	0.426090
C1271	C127	0.781890	0.022090	0.392190
C1281	C128	0.764690	0.947320	0.415820
C1291	C129	0.777810	0.020910	0.346210
C1301	C130	0.659480	0.001990	0.200350
C1311	C131	0.757450	0.906050	0.451250
C1321	C132	0.619160	0.039380	0.200250
C1331	C133	0.917160	0.957470	0.506280
C1341	C134	0.838860	0.200490	0.626710
C1351	C135	0.878060	0.197270	0.595380
C1361	C136	0.385840	0.296940	0.143340
C1371	C137	0.377700	0.340100	0.073100
C1381	C138	0.310000	0.335700	0.137100
C1391	C139	0.367900	0.273900	0.189900
C1401	C140	0.488500	0.173100	0.218100
C1411	C141	0.347680	0.873150	0.905050
C1421	C142	0.307490	0.887360	0.931210
C1431	C143	0.307610	0.909480	0.967740
C1441	C144	0.348410	0.916330	0.978830
C1451	C145	0.388930	0.901790	0.953030
C1461	C146	0.389150	0.879990	0.916020
C1471	C147	0.348510	0.848820	0.865010
C1481	C148	0.530850	0.889810	0.989920
C1491	C149	0.566610	0.906240	0.004120
C1501	C150	0.576330	0.950540	0.986550
C1511	C151	0.548900	0.978450	0.957420
C1521	C152	0.470390	0.898810	0.939800
C1531	C153	0.485070	0.993480	0.909890
C1541	C154	0.518400	0.842890	0.010260
C1551	C155	0.615800	0.967470	0.000230
C1561	C156	0.593770	0.876880	0.038390
C1571	C157	0.514020	0.961950	0.942200
C1581	C158	0.640860	0.815840	0.163370
C1591	C159	0.625540	0.833930	0.122050
C1601	C160	0.580310	0.896090	0.156540
C1611	C161	0.667610	0.769780	0.168490
C1621	C162	0.554740	0.027910	0.943190
C1631	C163	0.590910	0.075720	0.880270
C1641	C164	0.618250	0.080010	0.838350
C1651	C165	0.628150	0.122450	0.817150
C1661	C166	0.609420	0.160920	0.837550
C1671	C167	0.581690	0.156620	0.878250
C1681	C168	0.572560	0.114270	0.900780
C1691	C169	0.658250	0.126940	0.771610
C1701	C170	0.016180	0.714540	0.801730
C1711	C171	0.014710	0.729980	0.846860
C1721	C172	0.055340	0.730340	0.862930
C1731	C173	0.053490	0.741610	0.905980
C1741	C174	0.012120	0.753710	0.931590
C1751	C175	0.972460	0.753260	0.915660
C1761	C176	0.974040	0.740600	0.873220
C1771	C177	0.595910	0.874270	0.118600
C1781	C178	0.131950	0.717760	0.907200
C1791	C179	0.166900	0.708420	0.940540
C1801	C180	0.202620	0.734990	0.934260
C1811	C181	0.201860	0.777920	0.899290
C1821	C182	0.239550	0.720920	0.958680
C1831	C183	0.240010	0.682110	0.991840
C1841	C184	0.280280	0.664380	0.015980
C1851	C185	0.164500	0.672190	0.976500
C1861	C186	0.123890	0.647110	0.986150
C1871	C187	0.244510	0.545890	0.054050
C1881	C188	0.281810	0.515310	0.037010
C1891	C189	0.296700	0.477900	0.064000
C1901	C190	0.278090	0.469390	0.109390
C1911	C191	0.241580	0.498820	0.126100
C1921	C192	0.225340	0.538060	0.099050
C1931	C193	0.283780	0.741060	0.945190
C1941	C194	0.335680	0.766190	0.981380
C1951	C195	0.371020	0.759710	0.945170
C1961	C196	0.426090	0.774690	0.985790
C1971	C197	0.392190	0.781890	0.022090
C1981	C198	0.415820	0.764690	0.947320
C1991	C199	0.346210	0.777810	0.020910
C2001	C200	0.200350	0.659480	0.001990
C2011	C201	0.451250	0.757450	0.906050
C2021	C202	0.200250	0.619160	0.039380
C2031	C203	0.506280	0.917160	0.957470
C2041	C204	0.626710	0.838860	0.200490
C2051	C205	0.595380	0.878060	0.197270
C2061	C206	0.143340	0.385840	0.296940
C2071	C207	0.073100	0.377700	0.340100
C2081	C208	0.137100	0.310000	0.335700
C2091	C209	0.189900	0.367900	0.273900
C2101	C210	0.218100	0.488500	0.173100
C2111	C211	0.152320	0.594950	0.626850
C2121	C212	0.192510	0.568790	0.612640
C2131	C213	0.192390	0.532260	0.590520
C2141	C214	0.151590	0.521170	0.583670
C2151	C215	0.111070	0.546970	0.598210
C2161	C216	0.110850	0.583980	0.620010
C2171	C217	0.151490	0.634990	0.651180
C2181	C218	0.969150	0.510080	0.610190
C2191	C219	0.933390	0.495880	0.593760
C2201	C220	0.923670	0.513450	0.549460
C2211	C221	0.951100	0.542580	0.521550
C2221	C222	0.029610	0.560200	0.601190
C2231	C223	0.014930	0.590110	0.506520
C2241	C224	0.981600	0.489740	0.657110
C2251	C225	0.884200	0.499770	0.532530
C2261	C226	0.906230	0.461610	0.623120
C2271	C227	0.985980	0.557800	0.538050
C2281	C228	0.859140	0.336630	0.684160
C2291	C229	0.874460	0.377950	0.666070
C2301	C230	0.919690	0.343460	0.603910
C2311	C231	0.832390	0.331510	0.730220
C2321	C232	0.945260	0.556810	0.472090
C2331	C233	0.909090	0.619730	0.424280
C2341	C234	0.881750	0.661650	0.419990
C2351	C235	0.871850	0.682850	0.377550
C2361	C236	0.890580	0.662450	0.339080
C2371	C237	0.918310	0.621750	0.343380
C2381	C238	0.927440	0.599220	0.385730
C2391	C239	0.841750	0.728390	0.373060
C2401	C240	0.483820	0.698270	0.785460
C2411	C241	0.485290	0.653140	0.770020
C2421	C242	0.444660	0.637070	0.769660
C2431	C243	0.446510	0.594020	0.758390
C2441	C244	0.487880	0.568410	0.746290
C2451	C245	0.527540	0.584340	0.746740
C2461	C246	0.525960	0.626780	0.759400
C2471	C247	0.904090	0.381400	0.625730
C2481	C248	0.368050	0.592800	0.782240
C2491	C249	0.333100	0.559460	0.791580
C2501	C250	0.297380	0.565740	0.765010
C2511	C251	0.298140	0.600710	0.722080
C2521	C252	0.260450	0.541320	0.779080
C2531	C253	0.259990	0.508160	0.817890
C2541	C254	0.219720	0.484020	0.835620
C2551	C255	0.335500	0.523500	0.827810
C2561	C256	0.376110	0.513850	0.852890
C2571	C257	0.255490	0.445950	0.954110
C2581	C258	0.218190	0.462990	0.984690
C2591	C259	0.203300	0.436000	0.022100
C2601	C260	0.221910	0.390610	0.030610
C2611	C261	0.258420	0.373900	0.001180
C2621	C262	0.274660	0.400950	0.961940
C2631	C263	0.216220	0.554810	0.758940
C2641	C264	0.164320	0.518620	0.733810
C2651	C265	0.128980	0.554830	0.740290
C2661	C266	0.073910	0.514210	0.725310
C2671	C267	0.107810	0.477910	0.718110
C2681	C268	0.084180	0.552680	0.735310
C2691	C269	0.153790	0.479090	0.722190
C2701	C270	0.299650	0.498010	0.840520
C2711	C271	0.048750	0.593950	0.742550
C2721	C272	0.299750	0.460620	0.880840
C2731	C273	0.993720	0.542530	0.582840
C2741	C274	0.873290	0.299510	0.661140
C2751	C275	0.904620	0.302730	0.621940
C2761	C276	0.356660	0.203060	0.114160
C2771	C277	0.426900	0.159900	0.122300
C2781	C278	0.362900	0.164300	0.190000
C2791	C279	0.310100	0.226100	0.132100
C2801	C280	0.281900	0.326900	0.011500
C2811	C281	0.594950	0.626850	0.152320
C2821	C282	0.568790	0.612640	0.192510
C2831	C283	0.532260	0.590520	0.192390
C2841	C284	0.521170	0.583670	0.151590
C2851	C285	0.546970	0.598210	0.111070
C2861	C286	0.583980	0.620010	0.110850
C2871	C287	0.634990	0.651180	0.151490
C2881	C288	0.510080	0.610190	0.969150
C2891	C289	0.495880	0.593760	0.933390
C2901	C290	0.513450	0.549460	0.923670
C2911	C291	0.542580	0.521550	0.951100
C2921	C292	0.560200	0.601190	0.029610
C2931	C293	0.590110	0.506520	0.014930
C2941	C294	0.489740	0.657110	0.981600
C2951	C295	0.499770	0.532530	0.884200
C2961	C296	0.461610	0.623120	0.906230
C2971	C297	0.557800	0.538050	0.985980
C2981	C298	0.336630	0.684160	0.859140
C2991	C299	0.377950	0.666070	0.874460
C3001	C300	0.343460	0.603910	0.919690
C3011	C301	0.331510	0.730220	0.832390
C3021	C302	0.556810	0.472090	0.945260
C3031	C303	0.619730	0.424280	0.909090
C3041	C304	0.661650	0.419990	0.881750
C3051	C305	0.682850	0.377550	0.871850
C3061	C306	0.662450	0.339080	0.890580
C3071	C307	0.621750	0.343380	0.918310
C3081	C308	0.599220	0.385730	0.927440
C3091	C309	0.728390	0.373060	0.841750
C3101	C310	0.698270	0.785460	0.483820
C3111	C311	0.653140	0.770020	0.485290
C3121	C312	0.637070	0.769660	0.444660
C3131	C313	0.594020	0.758390	0.446510
C3141	C314	0.568410	0.746290	0.487880
C3151	C315	0.584340	0.746740	0.527540
C3161	C316	0.626780	0.759400	0.525960
C3171	C317	0.381400	0.625730	0.904090
C3181	C318	0.592800	0.782240	0.368050
C3191	C319	0.559460	0.791580	0.333100
C3201	C320	0.565740	0.765010	0.297380
C3211	C321	0.600710	0.722080	0.298140
C3221	C322	0.541320	0.779080	0.260450
C3231	C323	0.508160	0.817890	0.259990
C3241	C324	0.484020	0.835620	0.219720
C3251	C325	0.523500	0.827810	0.335500
C3261	C326	0.513850	0.852890	0.376110
C3271	C327	0.445950	0.954110	0.255490
C3281	C328	0.462990	0.984690	0.218190
C3291	C329	0.436000	0.022100	0.203300
C3301	C330	0.390610	0.030610	0.221910
C3311	C331	0.373900	0.001180	0.258420
C3321	C332	0.400950	0.961940	0.274660
C3331	C333	0.554810	0.758940	0.216220
C3341	C334	0.518620	0.733810	0.164320
C3351	C335	0.554830	0.740290	0.128980
C3361	C336	0.514210	0.725310	0.073910
C3371	C337	0.477910	0.718110	0.107810
C3381	C338	0.552680	0.735310	0.084180
C3391	C339	0.479090	0.722190	0.153790
C3401	C340	0.498010	0.840520	0.299650
C3411	C341	0.593950	0.742550	0.048750
C3421	C342	0.460620	0.880840	0.299750
C3431	C343	0.542530	0.582840	0.993720
C3441	C344	0.299510	0.661140	0.873290
C3451	C345	0.302730	0.621940	0.904620
C3461	C346	0.203060	0.114160	0.356660
C3471	C347	0.159900	0.122300	0.426900
C3481	C348	0.164300	0.190000	0.362900
C3491	C349	0.226100	0.132100	0.310100
C3501	C350	0.326900	0.011500	0.281900
C3511	C351	0.626850	0.152320	0.594950
C3521	C352	0.612640	0.192510	0.568790
C3531	C353	0.590520	0.192390	0.532260
C3541	C354	0.583670	0.151590	0.521170
C3551	C355	0.598210	0.111070	0.546970
C3561	C356	0.620010	0.110850	0.583980
C3571	C357	0.651180	0.151490	0.634990
C3581	C358	0.610190	0.969150	0.510080
C3591	C359	0.593760	0.933390	0.495880
C3601	C360	0.549460	0.923670	0.513450
C3611	C361	0.521550	0.951100	0.542580
C3621	C362	0.601190	0.029610	0.560200
C3631	C363	0.506520	0.014930	0.590110
C3641	C364	0.657110	0.981600	0.489740
C3651	C365	0.532530	0.884200	0.499770
C3661	C366	0.623120	0.906230	0.461610
C3671	C367	0.538050	0.985980	0.557800
C3681	C368	0.684160	0.859140	0.336630
C3691	C369	0.666070	0.874460	0.377950
C3701	C370	0.603910	0.919690	0.343460
C3711	C371	0.730220	0.832390	0.331510
C3721	C372	0.472090	0.945260	0.556810
C3731	C373	0.424280	0.909090	0.619730
C3741	C374	0.419990	0.881750	0.661650
C3751	C375	0.377550	0.871850	0.682850
C3761	C376	0.339080	0.890580	0.662450
C3771	C377	0.343380	0.918310	0.621750
C3781	C378	0.385730	0.927440	0.599220
C3791	C379	0.373060	0.841750	0.728390
C3801	C380	0.785460	0.483820	0.698270
C3811	C381	0.770020	0.485290	0.653140
C3821	C382	0.769660	0.444660	0.637070
C3831	C383	0.758390	0.446510	0.594020
C3841	C384	0.746290	0.487880	0.568410
C3851	C385	0.746740	0.527540	0.584340
C3861	C386	0.759400	0.525960	0.626780
C3871	C387	0.625730	0.904090	0.381400
C3881	C388	0.782240	0.368050	0.592800
C3891	C389	0.791580	0.333100	0.559460
C3901	C390	0.765010	0.297380	0.565740
C3911	C391	0.722080	0.298140	0.600710
C3921	C392	0.779080	0.260450	0.541320
C3931	C393	0.817890	0.259990	0.508160
C3941	C394	0.835620	0.219720	0.484020
C3951	C395	0.827810	0.335500	0.523500
C3961	C396	0.852890	0.376110	0.513850
C3971	C397	0.954110	0.255490	0.445950
C3981	C398	0.984690	0.218190	0.462990
C3991	C399	0.022100	0.203300	0.436000
C4001	C400	0.030610	0.221910	0.390610
C4011	C401	0.001180	0.258420	0.373900
C4021	C402	0.961940	0.274660	0.400950
C4031	C403	0.758940	0.216220	0.554810
C4041	C404	0.733810	0.164320	0.518620
C4051	C405	0.740290	0.128980	0.554830
C4061	C406	0.725310	0.073910	0.514210
C4071	C407	0.718110	0.107810	0.477910
C4081	C408	0.735310	0.084180	0.552680
C4091	C409	0.722190	0.153790	0.479090
C4101	C410	0.840520	0.299650	0.498010
C4111	C411	0.742550	0.048750	0.593950
C4121	C412	0.880840	0.299750	0.460620
C4131	C413	0.582840	0.993720	0.542530
C4141	C414	0.661140	0.873290	0.299510
C4151	C415	0.621940	0.904620	0.302730
C4161	C416	0.114160	0.356660	0.203060
C4171	C417	0.122300	0.426900	0.159900
C4181	C418	0.190000	0.362900	0.164300
C4191	C419	0.132100	0.310100	0.226100
C4201	C420	0.011500	0.281900	0.326900
C4211	C421	0.094950	0.652320	0.126850
C4221	C422	0.068790	0.692510	0.112640
C4231	C423	0.032260	0.692390	0.090520
C4241	C424	0.021170	0.651590	0.083670
C4251	C425	0.046970	0.611070	0.098210
C4261	C426	0.083980	0.610850	0.120010
C4271	C427	0.134990	0.651490	0.151180
C4281	C428	0.010080	0.469150	0.110190
C4291	C429	0.995880	0.433390	0.093760
C4301	C430	0.013450	0.423670	0.049460
C4311	C431	0.042580	0.451100	0.021550
C4321	C432	0.060200	0.529610	0.101190
C4331	C433	0.090110	0.514930	0.006520
C4341	C434	0.989740	0.481600	0.157110
C4351	C435	0.999770	0.384200	0.032530
C4361	C436	0.961610	0.406230	0.123120
C4371	C437	0.057800	0.485980	0.038050
C4381	C438	0.836630	0.359140	0.184160
C4391	C439	0.877950	0.374460	0.166070
C4401	C440	0.843460	0.419690	0.103910
C4411	C441	0.831510	0.332390	0.230220
C4421	C442	0.056810	0.445260	0.972090
C4431	C443	0.119730	0.409090	0.924280
C4441	C444	0.161650	0.381750	0.919990
C4451	C445	0.182850	0.371850	0.877550
C4461	C446	0.162450	0.390580	0.839080
C4471	C447	0.121750	0.418310	0.843380
C4481	C448	0.099220	0.427440	0.885730
C4491	C449	0.228390	0.341750	0.873060
C4501	C450	0.198270	0.983820	0.285460
C4511	C451	0.153140	0.985290	0.270020
C4521	C452	0.137070	0.944660	0.269660
C4531	C453	0.094020	0.946510	0.258390
C4541	C454	0.068410	0.987880	0.246290
C4551	C455	0.084340	0.027540	0.246740
C4561	C456	0.126780	0.025960	0.259400
C4571	C457	0.881400	0.404090	0.125730
C4581	C458	0.092800	0.868050	0.282240
C4591	C459	0.059460	0.833100	0.291580
C4601	C460	0.065740	0.797380	0.265010
C4611	C461	0.100710	0.798140	0.222080
C4621	C462	0.041320	0.760450	0.279080
C4631	C463	0.008160	0.759990	0.317890
C4641	C464	0.984020	0.719720	0.335620
C4651	C465	0.023500	0.835500	0.327810
C4661	C466	0.013850	0.876110	0.352890
C4671	C467	0.945950	0.755490	0.454110
C4681	C468	0.962990	0.718190	0.484690
C4691	C469	0.936000	0.703300	0.522100
C4701	C470	0.890610	0.721910	0.530610
C4711	C471	0.873900	0.758420	0.501180
C4721	C472	0.900950	0.774660	0.461940
C4731	C473	0.054810	0.716220	0.258940
C4741	C474	0.018620	0.664320	0.233810
C4751	C475	0.054830	0.628980	0.240290
C4761	C476	0.014210	0.573910	0.225310
C4771	C477	0.977910	0.607810	0.218110
C4781	C478	0.052680	0.584180	0.235310
C4791	C479	0.979090	0.653790	0.222190
C4801	C480	0.998010	0.799650	0.340520
C4811	C481	0.093950	0.548750	0.242550
C4821	C482	0.960620	0.799750	0.380840
C4831	C483	0.042530	0.493720	0.082840
C4841	C484	0.799510	0.373290	0.161140
C4851	C485	0.802730	0.404620	0.121940
C4861	C486	0.703060	0.856660	0.614160
C4871	C487	0.659900	0.926900	0.622300
C4881	C488	0.664300	0.862900	0.690000
C4891	C489	0.726100	0.810100	0.632100
C4901	C490	0.826900	0.781900	0.511500
C4911	C491	0.126850	0.094950	0.652320
C4921	C492	0.112640	0.068790	0.692510
C4931	C493	0.090520	0.032260	0.692390
C4941	C494	0.083670	0.021170	0.651590
C4951	C495	0.098210	0.046970	0.611070
C4961	C496	0.120010	0.083980	0.610850
C4971	C497	0.151180	0.134990	0.651490
C4981	C498	0.110190	0.010080	0.469150
C4991	C499	0.093760	0.995880	0.433390
C5001	C500	0.049460	0.013450	0.423670
C5011	C501	0.021550	0.042580	0.451100
C5021	C502	0.101190	0.060200	0.529610
C5031	C503	0.006520	0.090110	0.514930
C5041	C504	0.157110	0.989740	0.481600
C5051	C505	0.032530	0.999770	0.384200
C5061	C506	0.123120	0.961610	0.406230
C5071	C507	0.038050	0.057800	0.485980
C5081	C508	0.184160	0.836630	0.359140
C5091	C509	0.166070	0.877950	0.374460
C5101	C510	0.103910	0.843460	0.419690
C5111	C511	0.230220	0.831510	0.332390
C5121	C512	0.972090	0.056810	0.445260
C5131	C513	0.924280	0.119730	0.409090
C5141	C514	0.919990	0.161650	0.381750
C5151	C515	0.877550	0.182850	0.371850
C5161	C516	0.839080	0.162450	0.390580
C5171	C517	0.843380	0.121750	0.418310
C5181	C518	0.885730	0.099220	0.427440
C5191	C519	0.873060	0.228390	0.341750
C5201	C520	0.285460	0.198270	0.983820
C5211	C521	0.270020	0.153140	0.985290
C5221	C522	0.269660	0.137070	0.944660
C5231	C523	0.258390	0.094020	0.946510
C5241	C524	0.246290	0.068410	0.987880
C5251	C525	0.246740	0.084340	0.027540
C5261	C526	0.259400	0.126780	0.025960
C5271	C527	0.125730	0.881400	0.404090
C5281	C528	0.282240	0.092800	0.868050
C5291	C529	0.291580	0.059460	0.833100
C5301	C530	0.265010	0.065740	0.797380
C5311	C531	0.222080	0.100710	0.798140
C5321	C532	0.279080	0.041320	0.760450
C5331	C533	0.317890	0.008160	0.759990
C5341	C534	0.335620	0.984020	0.719720
C5351	C535	0.327810	0.023500	0.835500
C5361	C536	0.352890	0.013850	0.876110
C5371	C537	0.454110	0.945950	0.755490
C5381	C538	0.484690	0.962990	0.718190
C5391	C539	0.522100	0.936000	0.703300
C5401	C540	0.530610	0.890610	0.721910
C5411	C541	0.501180	0.873900	0.758420
C5421	C542	0.461940	0.900950	0.774660
C5431	C543	0.258940	0.054810	0.716220
C5441	C544	0.233810	0.018620	0.664320
C5451	C545	0.240290	0.054830	0.628980
C5461	C546	0.225310	0.014210	0.573910
C5471	C547	0.218110	0.977910	0.607810
C5481	C548	0.235310	0.052680	0.584180
C5491	C549	0.222190	0.979090	0.653790
C5501	C550	0.340520	0.998010	0.799650
C5511	C551	0.242550	0.093950	0.548750
C5521	C552	0.380840	0.960620	0.799750
C5531	C553	0.082840	0.042530	0.493720
C5541	C554	0.161140	0.799510	0.373290
C5551	C555	0.121940	0.802730	0.404620
C5561	C556	0.614160	0.703060	0.856660
C5571	C557	0.622300	0.659900	0.926900
C5581	C558	0.690000	0.664300	0.862900
C5591	C559	0.632100	0.726100	0.810100
C5601	C560	0.511500	0.826900	0.781900
C5611	C561	0.652320	0.126850	0.094950
C5621	C562	0.692510	0.112640	0.068790
C5631	C563	0.692390	0.090520	0.032260
C5641	C564	0.651590	0.083670	0.021170
C5651	C565	0.611070	0.098210	0.046970
C5661	C566	0.610850	0.120010	0.083980
C5671	C567	0.651490	0.151180	0.134990
C5681	C568	0.469150	0.110190	0.010080
C5691	C569	0.433390	0.093760	0.995880
C5701	C570	0.423670	0.049460	0.013450
C5711	C571	0.451100	0.021550	0.042580
C5721	C572	0.529610	0.101190	0.060200
C5731	C573	0.514930	0.006520	0.090110
C5741	C574	0.481600	0.157110	0.989740
C5751	C575	0.384200	0.032530	0.999770
C5761	C576	0.406230	0.123120	0.961610
C5771	C577	0.485980	0.038050	0.057800
C5781	C578	0.359140	0.184160	0.836630
C5791	C579	0.374460	0.166070	0.877950
C5801	C580	0.419690	0.103910	0.843460
C5811	C581	0.332390	0.230220	0.831510
C5821	C582	0.445260	0.972090	0.056810
C5831	C583	0.409090	0.924280	0.119730
C5841	C584	0.381750	0.919990	0.161650
C5851	C585	0.371850	0.877550	0.182850
C5861	C586	0.390580	0.839080	0.162450
C5871	C587	0.418310	0.843380	0.121750
C5881	C588	0.427440	0.885730	0.099220
C5891	C589	0.341750	0.873060	0.228390
C5901	C590	0.983820	0.285460	0.198270
C5911	C591	0.985290	0.270020	0.153140
C5921	C592	0.944660	0.269660	0.137070
C5931	C593	0.946510	0.258390	0.094020
C5941	C594	0.987880	0.246290	0.068410
C5951	C595	0.027540	0.246740	0.084340
C5961	C596	0.025960	0.259400	0.126780
C5971	C597	0.404090	0.125730	0.881400
C5981	C598	0.868050	0.282240	0.092800
C5991	C599	0.833100	0.291580	0.059460
C6001	C600	0.797380	0.265010	0.065740
C6011	C601	0.798140	0.222080	0.100710
C6021	C602	0.760450	0.279080	0.041320
C6031	C603	0.759990	0.317890	0.008160
C6041	C604	0.719720	0.335620	0.984020
C6051	C605	0.835500	0.327810	0.023500
C6061	C606	0.876110	0.352890	0.013850
C6071	C607	0.755490	0.454110	0.945950
C6081	C608	0.718190	0.484690	0.962990
C6091	C609	0.703300	0.522100	0.936000
C6101	C610	0.721910	0.530610	0.890610
C6111	C611	0.758420	0.501180	0.873900
C6121	C612	0.774660	0.461940	0.900950
C6131	C613	0.716220	0.258940	0.054810
C6141	C614	0.664320	0.233810	0.018620
C6151	C615	0.628980	0.240290	0.054830
C6161	C616	0.573910	0.225310	0.014210
C6171	C617	0.607810	0.218110	0.977910
C6181	C618	0.584180	0.235310	0.052680
C6191	C619	0.653790	0.222190	0.979090
C6201	C620	0.799650	0.340520	0.998010
C6211	C621	0.548750	0.242550	0.093950
C6221	C622	0.799750	0.380840	0.960620
C6231	C623	0.493720	0.082840	0.042530
C6241	C624	0.373290	0.161140	0.799510
C6251	C625	0.404620	0.121940	0.802730
C6261	C626	0.856660	0.614160	0.703060
C6271	C627	0.926900	0.622300	0.659900
C6281	C628	0.862900	0.690000	0.664300
C6291	C629	0.810100	0.632100	0.726100
C6301	C630	0.781900	0.511500	0.826900
C6311	C631	0.847680	0.405050	0.373150
C6321	C632	0.807490	0.431210	0.387360
C6331	C633	0.807610	0.467740	0.409480
C6341	C634	0.848410	0.478830	0.416330
C6351	C635	0.888930	0.453030	0.401790
C6361	C636	0.889150	0.416020	0.379990
C6371	C637	0.848510	0.365010	0.348820
C6381	C638	0.030850	0.489920	0.389810
C6391	C639	0.066610	0.504120	0.406240
C6401	C640	0.076330	0.486550	0.450540
C6411	C641	0.048900	0.457420	0.478450
C6421	C642	0.970390	0.439800	0.398810
C6431	C643	0.985070	0.409890	0.493480
C6441	C644	0.018400	0.510260	0.342890
C6451	C645	0.115800	0.500230	0.467470
C6461	C646	0.093770	0.538390	0.376880
C6471	C647	0.014020	0.442200	0.461950
C6481	C648	0.140860	0.663370	0.315840
C6491	C649	0.125540	0.622050	0.333930
C6501	C650	0.080310	0.656540	0.396090
C6511	C651	0.167610	0.668490	0.269780
C6521	C652	0.054740	0.443190	0.527910
C6531	C653	0.090910	0.380270	0.575720
C6541	C654	0.118250	0.338350	0.580010
C6551	C655	0.128150	0.317150	0.622450
C6561	C656	0.109420	0.337550	0.660920
C6571	C657	0.081690	0.378250	0.656620
C6581	C658	0.072560	0.400780	0.614270
C6591	C659	0.158250	0.271610	0.626940
C6601	C660	0.516180	0.301730	0.214540
C6611	C661	0.514710	0.346860	0.229980
C6621	C662	0.555340	0.362930	0.230340
C6631	C663	0.553490	0.405980	0.241610
C6641	C664	0.512120	0.431590	0.253710
C6651	C665	0.472460	0.415660	0.253260
C6661	C666	0.474040	0.373220	0.240600
C6671	C667	0.095910	0.618600	0.374270
C6681	C668	0.631950	0.407200	0.217760
C6691	C669	0.666900	0.440540	0.208420
C6701	C670	0.702620	0.434260	0.234990
C6711	C671	0.701860	0.399290	0.277920
C6721	C672	0.739550	0.458680	0.220920
C6731	C673	0.740010	0.491840	0.182110
C6741	C674	0.780280	0.515980	0.164380
C6751	C675	0.664500	0.476500	0.172190
C6761	C676	0.623890	0.486150	0.147110
C6771	C677	0.744510	0.554050	0.045890
C6781	C678	0.781810	0.537010	0.015310
C6791	C679	0.796700	0.564000	0.977900
C6801	C680	0.778090	0.609390	0.969390
C6811	C681	0.741580	0.626100	0.998820
C6821	C682	0.725340	0.599050	0.038060
C6831	C683	0.783780	0.445190	0.241060
C6841	C684	0.835680	0.481380	0.266190
C6851	C685	0.871020	0.445170	0.259710
C6861	C686	0.926090	0.485790	0.274690
C6871	C687	0.892190	0.522090	0.281890
C6881	C688	0.915820	0.447320	0.264690
C6891	C689	0.846210	0.520910	0.277810
C6901	C690	0.700350	0.501990	0.159480
C6911	C691	0.951250	0.406050	0.257450
C6921	C692	0.700250	0.539380	0.119160
C6931	C693	0.006280	0.457470	0.417160
C6941	C694	0.126710	0.700490	0.338860
C6951	C695	0.095380	0.697270	0.378060
C6961	C696	0.643340	0.796940	0.885840
C6971	C697	0.573100	0.840100	0.877700
C6981	C698	0.637100	0.835700	0.810000
C6991	C699	0.689900	0.773900	0.867900
C7001	C700	0.718100	0.673100	0.988500
C7011	C701	0.405050	0.373150	0.847680
C7021	C702	0.431210	0.387360	0.807490
C7031	C703	0.467740	0.409480	0.807610
C7041	C704	0.478830	0.416330	0.848410
C7051	C705	0.453030	0.401790	0.888930
C7061	C706	0.416020	0.379990	0.889150
C7071	C707	0.365010	0.348820	0.848510
C7081	C708	0.489920	0.389810	0.030850
C7091	C709	0.504120	0.406240	0.066610
C7101	C710	0.486550	0.450540	0.076330
C7111	C711	0.457420	0.478450	0.048900
C7121	C712	0.439800	0.398810	0.970390
C7131	C713	0.409890	0.493480	0.985070
C7141	C714	0.510260	0.342890	0.018400
C7151	C715	0.500230	0.467470	0.115800
C7161	C716	0.538390	0.376880	0.093770
C7171	C717	0.442200	0.461950	0.014020
C7181	C718	0.663370	0.315840	0.140860
C7191	C719	0.622050	0.333930	0.125540
C7201	C720	0.656540	0.396090	0.080310
C7211	C721	0.668490	0.269780	0.167610
C7221	C722	0.443190	0.527910	0.054740
C7231	C723	0.380270	0.575720	0.090910
C7241	C724	0.338350	0.580010	0.118250
C7251	C725	0.317150	0.622450	0.128150
C7261	C726	0.337550	0.660920	0.109420
C7271	C727	0.378250	0.656620	0.081690
C7281	C728	0.400780	0.614270	0.072560
C7291	C729	0.271610	0.626940	0.158250
C7301	C730	0.301730	0.214540	0.516180
C7311	C731	0.346860	0.229980	0.514710
C7321	C732	0.362930	0.230340	0.555340
C7331	C733	0.405980	0.241610	0.553490
C7341	C734	0.431590	0.253710	0.512120
C7351	C735	0.415660	0.253260	0.472460
C7361	C736	0.373220	0.240600	0.474040
C7371	C737	0.618600	0.374270	0.095910
C7381	C738	0.407200	0.217760	0.631950
C7391	C739	0.440540	0.208420	0.666900
C7401	C740	0.434260	0.234990	0.702620
C7411	C741	0.399290	0.277920	0.701860
C7421	C742	0.458680	0.220920	0.739550
C7431	C743	0.491840	0.182110	0.740010
C7441	C744	0.515980	0.164380	0.780280
C7451	C745	0.476500	0.172190	0.664500
C7461	C746	0.486150	0.147110	0.623890
C7471	C747	0.554050	0.045890	0.744510
C7481	C748	0.537010	0.015310	0.781810
C7491	C749	0.564000	0.977900	0.796700
C7501	C750	0.609390	0.969390	0.778090
C7511	C751	0.626100	0.998820	0.741580
C7521	C752	0.599050	0.038060	0.725340
C7531	C753	0.445190	0.241060	0.783780
C7541	C754	0.481380	0.266190	0.835680
C7551	C755	0.445170	0.259710	0.871020
C7561	C756	0.485790	0.274690	0.926090
C7571	C757	0.522090	0.281890	0.892190
C7581	C758	0.447320	0.264690	0.915820
C7591	C759	0.520910	0.277810	0.846210
C7601	C760	0.501990	0.159480	0.700350
C7611	C761	0.406050	0.257450	0.951250
C7621	C762	0.539380	0.119160	0.700250
C7631	C763	0.457470	0.417160	0.006280
C7641	C764	0.700490	0.338860	0.126710
C7651	C765	0.697270	0.378060	0.095380
C7661	C766	0.796940	0.885840	0.643340
C7671	C767	0.840100	0.877700	0.573100
C7681	C768	0.835700	0.810000	0.637100
C7691	C769	0.773900	0.867900	0.689900
C7701	C770	0.673100	0.988500	0.718100
C7711	C771	0.373150	0.847680	0.405050
C7721	C772	0.387360	0.807490	0.431210
C7731	C773	0.409480	0.807610	0.467740
C7741	C774	0.416330	0.848410	0.478830
C7751	C775	0.401790	0.888930	0.453030
C7761	C776	0.379990	0.889150	0.416020
C7771	C777	0.348820	0.848510	0.365010
C7781	C778	0.389810	0.030850	0.489920
C7791	C779	0.406240	0.066610	0.504120
C7801	C780	0.450540	0.076330	0.486550
C7811	C781	0.478450	0.048900	0.457420
C7821	C782	0.398810	0.970390	0.439800
C7831	C783	0.493480	0.985070	0.409890
C7841	C784	0.342890	0.018400	0.510260
C7851	C785	0.467470	0.115800	0.500230
C7861	C786	0.376880	0.093770	0.538390
C7871	C787	0.461950	0.014020	0.442200
C7881	C788	0.315840	0.140860	0.663370
C7891	C789	0.333930	0.125540	0.622050
C7901	C790	0.396090	0.080310	0.656540
C7911	C791	0.269780	0.167610	0.668490
C7921	C792	0.527910	0.054740	0.443190
C7931	C793	0.575720	0.090910	0.380270
C7941	C794	0.580010	0.118250	0.338350
C7951	C795	0.622450	0.128150	0.317150
C7961	C796	0.660920	0.109420	0.337550
C7971	C797	0.656620	0.081690	0.378250
C7981	C798	0.614270	0.072560	0.400780
C7991	C799	0.626940	0.158250	0.271610
C8001	C800	0.214540	0.516180	0.301730
C8011	C801	0.229980	0.514710	0.346860
C8021	C802	0.230340	0.555340	0.362930
C8031	C803	0.241610	0.553490	0.405980
C8041	C804	0.253710	0.512120	0.431590
C8051	C805	0.253260	0.472460	0.415660
C8061	C806	0.240600	0.474040	0.373220
C8071	C807	0.374270	0.095910	0.618600
C8081	C808	0.217760	0.631950	0.407200
C8091	C809	0.208420	0.666900	0.440540
C8101	C810	0.234990	0.702620	0.434260
C8111	C811	0.277920	0.701860	0.399290
C8121	C812	0.220920	0.739550	0.458680
C8131	C813	0.182110	0.740010	0.491840
C8141	C814	0.164380	0.780280	0.515980
C8151	C815	0.172190	0.664500	0.476500
C8161	C816	0.147110	0.623890	0.486150
C8171	C817	0.045890	0.744510	0.554050
C8181	C818	0.015310	0.781810	0.537010
C8191	C819	0.977900	0.796700	0.564000
C8201	C820	0.969390	0.778090	0.609390
C8211	C821	0.998820	0.741580	0.626100
C8221	C822	0.038060	0.725340	0.599050
C8231	C823	0.241060	0.783780	0.445190
C8241	C824	0.266190	0.835680	0.481380
C8251	C825	0.259710	0.871020	0.445170
C8261	C826	0.274690	0.926090	0.485790
C8271	C827	0.281890	0.892190	0.522090
C8281	C828	0.264690	0.915820	0.447320
C8291	C829	0.277810	0.846210	0.520910
C8301	C830	0.159480	0.700350	0.501990
C8311	C831	0.257450	0.951250	0.406050
C8321	C832	0.119160	0.700250	0.539380
C8331	C833	0.417160	0.006280	0.457470
C8341	C834	0.338860	0.126710	0.700490
C8351	C835	0.378060	0.095380	0.697270
C8361	C836	0.885840	0.643340	0.796940
C8371	C837	0.877700	0.573100	0.840100
C8381	C838	0.810000	0.637100	0.835700
C8391	C839	0.867900	0.689900	0.773900
C8401	C840	0.988500	0.718100	0.673100
N11	N1	0.324000	0.121500	0.358000
N21	N2	0.358000	0.324000	0.121500
N31	N3	0.121500	0.358000	0.324000
N41	N4	0.378500	0.176000	0.142000
N51	N5	0.176000	0.142000	0.378500
N61	N6	0.142000	0.378500	0.176000
N71	N7	0.676000	0.878500	0.642000
N81	N8	0.642000	0.676000	0.878500
N91	N9	0.878500	0.642000	0.676000
N101	N10	0.621500	0.824000	0.858000
N111	N11	0.824000	0.858000	0.621500
N121	N12	0.858000	0.621500	0.824000
O11	O1	0.871670	0.440340	0.745620
O21	O2	0.908060	0.489730	0.765140
O31	O3	0.981610	0.291720	0.762040
O41	O4	0.023160	0.230840	0.582080
O51	O5	0.189420	0.194460	0.519790
O61	O6	0.842800	0.386270	0.837020
O71	O7	0.856860	0.310490	0.842520
O81	O8	0.925760	0.091420	0.741950
O91	O9	0.771630	0.049090	0.721810
O101	O10	0.797690	0.984100	0.694680
O111	O11	0.966630	0.427230	0.911120
O121	O12	0.080720	0.577750	0.894940
O131	O13	0.899490	0.583500	0.032380
O141	O14	0.753090	0.661830	0.167680
O151	O15	0.755350	0.677300	0.091870
O161	O16	0.136460	0.677370	0.748280
O171	O17	0.207050	0.677400	0.750740
O181	O18	0.798550	0.239300	0.843170
O191	O19	0.285700	0.125000	0.427000
O201	O20	0.195870	0.223590	0.450850
O211	O21	0.745620	0.871670	0.440340
O221	O22	0.765140	0.908060	0.489730
O231	O23	0.762040	0.981610	0.291720
O241	O24	0.582080	0.023160	0.230840
O251	O25	0.519790	0.189420	0.194460
O261	O26	0.837020	0.842800	0.386270
O271	O27	0.842520	0.856860	0.310490
O281	O28	0.741950	0.925760	0.091420
O291	O29	0.721810	0.771630	0.049090
O301	O30	0.694680	0.797690	0.984100
O311	O31	0.911120	0.966630	0.427230
O321	O32	0.894940	0.080720	0.577750
O331	O33	0.032380	0.899490	0.583500
O341	O34	0.167680	0.753090	0.661830
O351	O35	0.091870	0.755350	0.677300
O361	O36	0.748280	0.136460	0.677370
O371	O37	0.750740	0.207050	0.677400
O381	O38	0.843170	0.798550	0.239300
O391	O39	0.427000	0.285700	0.125000
O401	O40	0.450850	0.195870	0.223590
O411	O41	0.440340	0.745620	0.871670
O421	O42	0.489730	0.765140	0.908060
O431	O43	0.291720	0.762040	0.981610
O441	O44	0.230840	0.582080	0.023160
O451	O45	0.194460	0.519790	0.189420
O461	O46	0.386270	0.837020	0.842800
O471	O47	0.310490	0.842520	0.856860
O481	O48	0.091420	0.741950	0.925760
O491	O49	0.049090	0.721810	0.771630
O501	O50	0.984100	0.694680	0.797690
O511	O51	0.427230	0.911120	0.966630
O521	O52	0.577750	0.894940	0.080720
O531	O53	0.583500	0.032380	0.899490
O541	O54	0.661830	0.167680	0.753090
O551	O55	0.677300	0.091870	0.755350
O561	O56	0.677370	0.748280	0.136460
O571	O57	0.677400	0.750740	0.207050
O581	O58	0.239300	0.843170	0.798550
O591	O59	0.125000	0.427000	0.285700
O601	O60	0.223590	0.450850	0.195870
O611	O61	0.059660	0.628330	0.754380
O621	O62	0.010270	0.591940	0.734860
O631	O63	0.208280	0.518390	0.737960
O641	O64	0.269160	0.476840	0.917920
O651	O65	0.305540	0.310580	0.980210
O661	O66	0.113730	0.657200	0.662980
O671	O67	0.189510	0.643140	0.657480
O681	O68	0.408580	0.574240	0.758050
O691	O69	0.450910	0.728370	0.778190
O701	O70	0.515900	0.702310	0.805320
O711	O71	0.072770	0.533370	0.588880
O721	O72	0.922250	0.419280	0.605060
O731	O73	0.916500	0.600510	0.467620
O741	O74	0.838170	0.746910	0.332320
O751	O75	0.822700	0.744650	0.408130
O761	O76	0.822630	0.363540	0.751720
O771	O77	0.822600	0.292950	0.749260
O781	O78	0.260700	0.701450	0.656830
O791	O79	0.375000	0.214300	0.073000
O801	O80	0.276410	0.304130	0.049150
O811	O81	0.628330	0.754380	0.059660
O821	O82	0.591940	0.734860	0.010270
O831	O83	0.518390	0.737960	0.208280
O841	O84	0.476840	0.917920	0.269160
O851	O85	0.310580	0.980210	0.305540
O861	O86	0.657200	0.662980	0.113730
O871	O87	0.643140	0.657480	0.189510
O881	O88	0.574240	0.758050	0.408580
O891	O89	0.728370	0.778190	0.450910
O901	O90	0.702310	0.805320	0.515900
O911	O91	0.533370	0.588880	0.072770
O921	O92	0.419280	0.605060	0.922250
O931	O93	0.600510	0.467620	0.916500
O941	O94	0.746910	0.332320	0.838170
O951	O95	0.744650	0.408130	0.822700
O961	O96	0.363540	0.751720	0.822630
O971	O97	0.292950	0.749260	0.822600
O981	O98	0.701450	0.656830	0.260700
O991	O99	0.214300	0.073000	0.375000
O1001	O100	0.304130	0.049150	0.276410
O1011	O101	0.754380	0.059660	0.628330
O1021	O102	0.734860	0.010270	0.591940
O1031	O103	0.737960	0.208280	0.518390
O1041	O104	0.917920	0.269160	0.476840
O1051	O105	0.980210	0.305540	0.310580
O1061	O106	0.662980	0.113730	0.657200
O1071	O107	0.657480	0.189510	0.643140
O1081	O108	0.758050	0.408580	0.574240
O1091	O109	0.778190	0.450910	0.728370
O1101	O110	0.805320	0.515900	0.702310
O1111	O111	0.588880	0.072770	0.533370
O1121	O112	0.605060	0.922250	0.419280
O1131	O113	0.467620	0.916500	0.600510
O1141	O114	0.332320	0.838170	0.746910
O1151	O115	0.408130	0.822700	0.744650
O1161	O116	0.751720	0.822630	0.363540
O1171	O117	0.749260	0.822600	0.292950
O1181	O118	0.656830	0.260700	0.701450
O1191	O119	0.073000	0.375000	0.214300
O1201	O120	0.049150	0.276410	0.304130
O1211	O121	0.128330	0.559660	0.254380
O1221	O122	0.091940	0.510270	0.234860
O1231	O123	0.018390	0.708280	0.237960
O1241	O124	0.976840	0.769160	0.417920
O1251	O125	0.810580	0.805540	0.480210
O1261	O126	0.157200	0.613730	0.162980
O1271	O127	0.143140	0.689510	0.157480
O1281	O128	0.074240	0.908580	0.258050
O1291	O129	0.228370	0.950910	0.278190
O1301	O130	0.202310	0.015900	0.305320
O1311	O131	0.033370	0.572770	0.088880
O1321	O132	0.919280	0.422250	0.105060
O1331	O133	0.100510	0.416500	0.967620
O1341	O134	0.246910	0.338170	0.832320
O1351	O135	0.244650	0.322700	0.908130
O1361	O136	0.863540	0.322630	0.251720
O1371	O137	0.792950	0.322600	0.249260
O1381	O138	0.201450	0.760700	0.156830
O1391	O139	0.714300	0.875000	0.573000
O1401	O140	0.804130	0.776410	0.549150
O1411	O141	0.254380	0.128330	0.559660
O1421	O142	0.234860	0.091940	0.510270
O1431	O143	0.237960	0.018390	0.708280
O1441	O144	0.417920	0.976840	0.769160
O1451	O145	0.480210	0.810580	0.805540
O1461	O146	0.162980	0.157200	0.613730
O1471	O147	0.157480	0.143140	0.689510
O1481	O148	0.258050	0.074240	0.908580
O1491	O149	0.278190	0.228370	0.950910
O1501	O150	0.305320	0.202310	0.015900
O1511	O151	0.088880	0.033370	0.572770
O1521	O152	0.105060	0.919280	0.422250
O1531	O153	0.967620	0.100510	0.416500
O1541	O154	0.832320	0.246910	0.338170
O1551	O155	0.908130	0.244650	0.322700
O1561	O156	0.251720	0.863540	0.322630
O1571	O157	0.249260	0.792950	0.322600
O1581	O158	0.156830	0.201450	0.760700
O1591	O159	0.573000	0.714300	0.875000
O1601	O160	0.549150	0.804130	0.776410
O1611	O161	0.559660	0.254380	0.128330
O1621	O162	0.510270	0.234860	0.091940
O1631	O163	0.708280	0.237960	0.018390
O1641	O164	0.769160	0.417920	0.976840
O1651	O165	0.805540	0.480210	0.810580
O1661	O166	0.613730	0.162980	0.157200
O1671	O167	0.689510	0.157480	0.143140
O1681	O168	0.908580	0.258050	0.074240
O1691	O169	0.950910	0.278190	0.228370
O1701	O170	0.015900	0.305320	0.202310
O1711	O171	0.572770	0.088880	0.033370
O1721	O172	0.422250	0.105060	0.919280
O1731	O173	0.416500	0.967620	0.100510
O1741	O174	0.338170	0.832320	0.246910
O1751	O175	0.322700	0.908130	0.244650
O1761	O176	0.322630	0.251720	0.863540
O1771	O177	0.322600	0.249260	0.792950
O1781	O178	0.760700	0.156830	0.201450
O1791	O179	0.875000	0.573000	0.714300
O1801	O180	0.776410	0.549150	0.804130
O1811	O181	0.940340	0.371670	0.245620
O1821	O182	0.989730	0.408060	0.265140
O1831	O183	0.791720	0.481610	0.262040
O1841	O184	0.730840	0.523160	0.082080
O1851	O185	0.694460	0.689420	0.019790
O1861	O186	0.886270	0.342800	0.337020
O1871	O187	0.810490	0.356860	0.342520
O1881	O188	0.591420	0.425760	0.241950
O1891	O189	0.549090	0.271630	0.221810
O1901	O190	0.484100	0.297690	0.194680
O1911	O191	0.927230	0.466630	0.411120
O1921	O192	0.077750	0.580720	0.394940
O1931	O193	0.083500	0.399490	0.532380
O1941	O194	0.161830	0.253090	0.667680
O1951	O195	0.177300	0.255350	0.591870
O1961	O196	0.177370	0.636460	0.248280
O1971	O197	0.177400	0.707050	0.250740
O1981	O198	0.739300	0.298550	0.343170
O1991	O199	0.625000	0.785700	0.927000
O2001	O200	0.723590	0.695870	0.950850
O2011	O201	0.371670	0.245620	0.940340
O2021	O202	0.408060	0.265140	0.989730
O2031	O203	0.481610	0.262040	0.791720
O2041	O204	0.523160	0.082080	0.730840
O2051	O205	0.689420	0.019790	0.694460
O2061	O206	0.342800	0.337020	0.886270
O2071	O207	0.356860	0.342520	0.810490
O2081	O208	0.425760	0.241950	0.591420
O2091	O209	0.271630	0.221810	0.549090
O2101	O210	0.297690	0.194680	0.484100
O2111	O211	0.466630	0.411120	0.927230
O2121	O212	0.580720	0.394940	0.077750
O2131	O213	0.399490	0.532380	0.083500
O2141	O214	0.253090	0.667680	0.161830
O2151	O215	0.255350	0.591870	0.177300
O2161	O216	0.636460	0.248280	0.177370
O2171	O217	0.707050	0.250740	0.177400
O2181	O218	0.298550	0.343170	0.739300
O2191	O219	0.785700	0.927000	0.625000
O2201	O220	0.695870	0.950850	0.723590
O2211	O221	0.245620	0.940340	0.371670
O2221	O222	0.265140	0.989730	0.408060
O2231	O223	0.262040	0.791720	0.481610
O2241	O224	0.082080	0.730840	0.523160
O2251	O225	0.019790	0.694460	0.689420
O2261	O226	0.337020	0.886270	0.342800
O2271	O227	0.342520	0.810490	0.356860
O2281	O228	0.241950	0.591420	0.425760
O2291	O229	0.221810	0.549090	0.271630
O2301	O230	0.194680	0.484100	0.297690
O2311	O231	0.411120	0.927230	0.466630
O2321	O232	0.394940	0.077750	0.580720
O2331	O233	0.532380	0.083500	0.399490
O2341	O234	0.667680	0.161830	0.253090
O2351	O235	0.591870	0.177300	0.255350
O2361	O236	0.248280	0.177370	0.636460
O2371	O237	0.250740	0.177400	0.707050
O2381	O238	0.343170	0.739300	0.298550
O2391	O239	0.927000	0.625000	0.785700
O2401	O240	0.950850	0.723590	0.695870
