data_NEXXEV_freeONLY_PM
_symmetry_space_group_name_H-M	'P1'
_cell_length_a	12.915000
_cell_length_b	21.264200
_cell_length_c	21.264200
_cell_angle_alpha	84.675800
_cell_angle_beta	72.321300
_cell_angle_gamma	72.321300
_symmetry_Int_Tables_number 1

loop_
_symmetry_equiv_pos_as_xyz
'x,y,z'

loop_
_atom_site_label
_atom_site_type_symbol
_atom_site_fract_x
_atom_site_fract_y
_atom_site_fract_z
Li11	Li1	0.915200	0.004050	0.561750
Li21	Li2	0.761950	0.517550	0.049150
Li31	Li3	0.587970	0.477830	0.044430
Li41	Li4	0.050200	0.305900	0.990500
Li51	Li5	0.481000	0.995950	0.438250
Li61	Li6	0.328650	0.482450	0.950850
Li71	Li7	0.110230	0.522170	0.955570
Li81	Li8	0.346600	0.694100	0.009500
Li91	Li9	0.981000	0.438250	0.995950
Li101	Li10	0.828650	0.950850	0.482450
Li111	Li11	0.610230	0.955570	0.522170
Li121	Li12	0.846600	0.009500	0.694100
Li131	Li13	0.415200	0.561750	0.004050
Li141	Li14	0.261950	0.049150	0.517550
Li151	Li15	0.087970	0.044430	0.477830
Li161	Li16	0.550200	0.990500	0.305900
H11	H1	0.607300	0.389800	0.152800
H21	H2	0.541300	0.318800	0.236800
H31	H3	0.844300	0.179800	0.172000
H41	H4	0.911700	0.251900	0.090300
H51	H5	0.691500	0.064600	0.429200
H61	H6	0.603200	0.109400	0.349000
H71	H7	0.821600	0.220600	0.285000
H81	H8	0.912700	0.171400	0.361800
H91	H9	0.119100	0.803800	0.396200
H101	H10	0.291600	0.749600	0.319400
H111	H11	0.445000	0.866900	0.372300
H121	H12	0.271300	0.928000	0.440000
H131	H13	0.636200	0.588700	0.170900
H141	H14	0.623900	0.652900	0.255900
H151	H15	0.368500	0.795000	0.213600
H161	H16	0.381100	0.731600	0.125400
H171	H17	0.149900	0.610200	0.847200
H181	H18	0.096900	0.681200	0.763200
H191	H19	0.196100	0.820200	0.828000
H201	H20	0.253900	0.748100	0.909700
H211	H21	0.185300	0.935400	0.570800
H221	H22	0.061600	0.890600	0.651000
H231	H23	0.327200	0.779400	0.715000
H241	H24	0.445900	0.828600	0.638200
H251	H25	0.319100	0.196200	0.603800
H261	H26	0.360600	0.250400	0.680600
H271	H27	0.684200	0.133100	0.627700
H281	H28	0.639300	0.072000	0.560000
H291	H29	0.395800	0.411300	0.829100
H301	H30	0.532700	0.347100	0.744100
H311	H31	0.377100	0.205000	0.786400
H321	H32	0.238100	0.268400	0.874600
H331	H33	0.649900	0.847200	0.610200
H341	H34	0.596900	0.763200	0.681200
H351	H35	0.696100	0.828000	0.820200
H361	H36	0.753900	0.909700	0.748100
H371	H37	0.685300	0.570800	0.935400
H381	H38	0.561600	0.651000	0.890600
H391	H39	0.827200	0.715000	0.779400
H401	H40	0.945900	0.638200	0.828600
H411	H41	0.819100	0.603800	0.196200
H421	H42	0.860600	0.680600	0.250400
H431	H43	0.184200	0.627700	0.133100
H441	H44	0.139300	0.560000	0.072000
H451	H45	0.895800	0.829100	0.411300
H461	H46	0.032700	0.744100	0.347100
H471	H47	0.877100	0.786400	0.205000
H481	H48	0.738100	0.874600	0.268400
H491	H49	0.107300	0.152800	0.389800
H501	H50	0.041300	0.236800	0.318800
H511	H51	0.344300	0.172000	0.179800
H521	H52	0.411700	0.090300	0.251900
H531	H53	0.191500	0.429200	0.064600
H541	H54	0.103200	0.349000	0.109400
H551	H55	0.321600	0.285000	0.220600
H561	H56	0.412700	0.361800	0.171400
H571	H57	0.619100	0.396200	0.803800
H581	H58	0.791600	0.319400	0.749600
H591	H59	0.945000	0.372300	0.866900
H601	H60	0.771300	0.440000	0.928000
H611	H61	0.136200	0.170900	0.588700
H621	H62	0.123900	0.255900	0.652900
H631	H63	0.868500	0.213600	0.795000
H641	H64	0.881100	0.125400	0.731600
C11	C1	0.807010	0.379370	0.069210
C21	C2	0.766470	0.329290	0.116170
C31	C3	0.656700	0.347490	0.157910
C41	C4	0.616200	0.305050	0.207750
C51	C5	0.686800	0.243800	0.213200
C61	C6	0.797000	0.223230	0.168770
C71	C7	0.837400	0.265900	0.120100
C81	C8	0.874600	0.081330	0.453670
C91	C9	0.813530	0.111730	0.404010
C101	C10	0.719600	0.095540	0.398860
C111	C11	0.665700	0.122640	0.351560
C121	C12	0.703300	0.170020	0.306980
C131	C13	0.795800	0.187830	0.313370
C141	C14	0.849100	0.158970	0.359630
C151	C15	0.541400	0.186100	0.264100
C161	C16	0.065080	0.911880	0.467560
C171	C17	0.176750	0.872060	0.424440
C181	C18	0.184230	0.818370	0.389770
C191	C19	0.288340	0.784960	0.344960
C201	C20	0.385910	0.802890	0.337690
C211	C21	0.378170	0.855230	0.375230
C221	C22	0.275300	0.890900	0.416700
C231	C23	0.516240	0.609950	0.085170
C241	C24	0.511270	0.653730	0.137530
C251	C25	0.582190	0.631010	0.178410
C261	C26	0.574460	0.669340	0.229140
C271	C27	0.496520	0.731180	0.242180
C281	C28	0.424410	0.753290	0.204290
C291	C29	0.431510	0.715190	0.151590
C301	C30	0.595700	0.769100	0.306300
C311	C31	0.255590	0.620630	0.930790
C321	C32	0.211930	0.670710	0.883830
C331	C33	0.162100	0.652510	0.842090
C341	C34	0.129000	0.694950	0.792250
C351	C35	0.143800	0.756200	0.786800
C361	C36	0.189000	0.776770	0.831230
C371	C37	0.223400	0.734100	0.879900
C381	C38	0.409600	0.918670	0.546330
C391	C39	0.329270	0.888270	0.595990
C401	C40	0.214000	0.904460	0.601140
C411	C41	0.139900	0.877360	0.648440
C421	C42	0.180300	0.829980	0.693020
C431	C43	0.297000	0.812170	0.686630
C441	C44	0.367700	0.841030	0.640370
C451	C45	0.991600	0.813900	0.735900
C461	C46	0.444520	0.088120	0.532440
C471	C47	0.473250	0.127940	0.575560
C481	C48	0.392370	0.181630	0.610230
C491	C49	0.418260	0.215040	0.655040
C501	C50	0.526490	0.197110	0.662310
C511	C51	0.608630	0.144770	0.624770
C521	C52	0.582900	0.109100	0.583300
C531	C53	0.211360	0.390050	0.914830
C541	C54	0.302530	0.346270	0.862470
C551	C55	0.391610	0.368990	0.821590
C561	C56	0.472940	0.330660	0.770860
C571	C57	0.469880	0.268820	0.757820
C581	C58	0.381990	0.246710	0.795710
C591	C59	0.298290	0.284810	0.848410
C601	C60	0.671100	0.230900	0.693700
C611	C61	0.755590	0.930790	0.620630
C621	C62	0.711930	0.883830	0.670710
C631	C63	0.662100	0.842090	0.652510
C641	C64	0.629000	0.792250	0.694950
C651	C65	0.643800	0.786800	0.756200
C661	C66	0.689000	0.831230	0.776770
C671	C67	0.723400	0.879900	0.734100
C681	C68	0.909600	0.546330	0.918670
C691	C69	0.829270	0.595990	0.888270
C701	C70	0.714000	0.601140	0.904460
C711	C71	0.639900	0.648440	0.877360
C721	C72	0.680300	0.693020	0.829980
C731	C73	0.797000	0.686630	0.812170
C741	C74	0.867700	0.640370	0.841030
C751	C75	0.491600	0.735900	0.813900
C761	C76	0.944520	0.532440	0.088120
C771	C77	0.973250	0.575560	0.127940
C781	C78	0.892370	0.610230	0.181630
C791	C79	0.918260	0.655040	0.215040
C801	C80	0.026490	0.662310	0.197110
C811	C81	0.108630	0.624770	0.144770
C821	C82	0.082900	0.583300	0.109100
C831	C83	0.711360	0.914830	0.390050
C841	C84	0.802530	0.862470	0.346270
C851	C85	0.891610	0.821590	0.368990
C861	C86	0.972940	0.770860	0.330660
C871	C87	0.969880	0.757820	0.268820
C881	C88	0.881990	0.795710	0.246710
C891	C89	0.798290	0.848410	0.284810
C901	C90	0.171100	0.693700	0.230900
C911	C91	0.307010	0.069210	0.379370
C921	C92	0.266470	0.116170	0.329290
C931	C93	0.156700	0.157910	0.347490
C941	C94	0.116200	0.207750	0.305050
C951	C95	0.186800	0.213200	0.243800
C961	C96	0.297000	0.168770	0.223230
C971	C97	0.337400	0.120100	0.265900
C981	C98	0.374600	0.453670	0.081330
C991	C99	0.313530	0.404010	0.111730
C1001	C100	0.219600	0.398860	0.095540
C1011	C101	0.165700	0.351560	0.122640
C1021	C102	0.203300	0.306980	0.170020
C1031	C103	0.295800	0.313370	0.187830
C1041	C104	0.349100	0.359630	0.158970
C1051	C105	0.041400	0.264100	0.186100
C1061	C106	0.565080	0.467560	0.911880
C1071	C107	0.676750	0.424440	0.872060
C1081	C108	0.684230	0.389770	0.818370
C1091	C109	0.788340	0.344960	0.784960
C1101	C110	0.885910	0.337690	0.802890
C1111	C111	0.878170	0.375230	0.855230
C1121	C112	0.775300	0.416700	0.890900
C1131	C113	0.016240	0.085170	0.609950
C1141	C114	0.011270	0.137530	0.653730
C1151	C115	0.082190	0.178410	0.631010
C1161	C116	0.074460	0.229140	0.669340
C1171	C117	0.996520	0.242180	0.731180
C1181	C118	0.924410	0.204290	0.753290
C1191	C119	0.931510	0.151590	0.715190
C1201	C120	0.095700	0.306300	0.769100
N11	N1	0.648400	0.197070	0.259730
N21	N2	0.491520	0.768680	0.294480
N31	N3	0.105200	0.802930	0.740270
N41	N4	0.554680	0.231320	0.705520
N51	N5	0.605200	0.740270	0.802930
N61	N6	0.054680	0.705520	0.231320
N71	N7	0.148400	0.259730	0.197070
N81	N8	0.991520	0.294480	0.768680
O11	O1	0.152100	0.240100	0.028100
O21	O2	0.013600	0.249200	0.939000
O31	O3	0.733890	0.431160	0.059260
O41	O4	0.912290	0.368980	0.042240
O51	O5	0.837700	0.037830	0.491770
O61	O6	0.958370	0.098960	0.454700
O71	O7	0.063210	0.959850	0.498490
O81	O8	0.978760	0.893230	0.471250
O91	O9	0.601720	0.560230	0.069330
O101	O10	0.435640	0.624210	0.059710
O111	O11	0.420300	0.759900	0.971900
O121	O12	0.201800	0.750800	0.061000
O131	O13	0.224310	0.568840	0.940740
O141	O14	0.323510	0.631020	0.957760
O151	O15	0.367300	0.962170	0.508230
O161	O16	0.512030	0.901040	0.545300
O171	O17	0.521550	0.040150	0.501510
O181	O18	0.343240	0.106770	0.528750
O191	O19	0.231280	0.439770	0.930670
O201	O20	0.119560	0.375790	0.940290
O211	O21	0.920300	0.971900	0.759900
O221	O22	0.701800	0.061000	0.750800
O231	O23	0.724310	0.940740	0.568840
O241	O24	0.823510	0.957760	0.631020
O251	O25	0.867300	0.508230	0.962170
O261	O26	0.012030	0.545300	0.901040
O271	O27	0.021550	0.501510	0.040150
O281	O28	0.843240	0.528750	0.106770
O291	O29	0.731280	0.930670	0.439770
O301	O30	0.619560	0.940290	0.375790
O311	O31	0.652100	0.028100	0.240100
O321	O32	0.513600	0.939000	0.249200
O331	O33	0.233890	0.059260	0.431160
O341	O34	0.412290	0.042240	0.368980
O351	O35	0.337700	0.491770	0.037830
O361	O36	0.458370	0.454700	0.098960
O371	O37	0.563210	0.498490	0.959850
O381	O38	0.478760	0.471250	0.893230
O391	O39	0.101720	0.069330	0.560230
O401	O40	0.935640	0.059710	0.624210
