data_NEYYUN_freeONLY_PM
_symmetry_space_group_name_H-M	'P1'
_cell_length_a	16.894400
_cell_length_b	16.894400
_cell_length_c	7.545400
_cell_angle_alpha	90.000000
_cell_angle_beta	90.000000
_cell_angle_gamma	90.000000
_symmetry_Int_Tables_number 1

loop_
_symmetry_equiv_pos_as_xyz
'x,y,z'

loop_
_atom_site_label
_atom_site_type_symbol
_atom_site_fract_x
_atom_site_fract_y
_atom_site_fract_z
O11	O1	0.536300	0.380800	0.016500
N11	N1	0.423600	0.313500	0.074500
H11	H1	0.398100	0.355000	0.041100
C11	C1	0.506700	0.317400	0.072200
H21	H2	0.511800	0.539000	0.665500
O21	O2	0.036300	0.880800	0.516500
N21	N2	0.923600	0.813500	0.574500
H31	H3	0.898100	0.855000	0.541100
C21	C2	0.006700	0.817400	0.572200
H41	H4	0.011800	0.039000	0.165500
O31	O3	0.463700	0.619200	0.016500
N31	N3	0.576400	0.686500	0.074500
H51	H5	0.601900	0.645000	0.041100
C31	C3	0.493300	0.682600	0.072200
H61	H6	0.488200	0.461000	0.665500
O41	O4	0.963700	0.119200	0.516500
N41	N4	0.076400	0.186500	0.574500
H71	H7	0.101900	0.145000	0.541100
C41	C4	0.993300	0.182600	0.572200
H81	H8	0.988200	0.961000	0.165500
O51	O5	0.380800	0.463700	0.983500
N51	N5	0.313500	0.576400	0.925500
H91	H9	0.355000	0.601900	0.958900
C51	C5	0.317400	0.493300	0.927800
H101	H10	0.539000	0.488200	0.334500
O61	O6	0.880800	0.963700	0.483500
N61	N6	0.813500	0.076400	0.425500
H111	H11	0.855000	0.101900	0.458900
C61	C6	0.817400	0.993300	0.427800
H121	H12	0.039000	0.988200	0.834500
O71	O7	0.619200	0.536300	0.983500
N71	N7	0.686500	0.423600	0.925500
H131	H13	0.645000	0.398100	0.958900
C71	C7	0.682600	0.506700	0.927800
H141	H14	0.461000	0.511800	0.334500
O81	O8	0.119200	0.036300	0.483500
N81	N8	0.186500	0.923600	0.425500
H151	H15	0.145000	0.898100	0.458900
C81	C8	0.182600	0.006700	0.427800
H161	H16	0.961000	0.011800	0.834500
O91	O9	0.963700	0.380800	0.733500
N91	N9	0.076400	0.313500	0.675500
H171	H17	0.101900	0.355000	0.708900
C91	C9	0.993300	0.317400	0.677800
H181	H18	0.988200	0.539000	0.084500
O101	O10	0.463700	0.880800	0.233500
N101	N10	0.576400	0.813500	0.175500
H191	H19	0.601900	0.855000	0.208900
C101	C10	0.493300	0.817400	0.177800
H201	H20	0.488200	0.039000	0.584500
O111	O11	0.036300	0.619200	0.733500
N111	N11	0.923600	0.686500	0.675500
H211	H21	0.898100	0.645000	0.708900
C111	C11	0.006700	0.682600	0.677800
H221	H22	0.011800	0.461000	0.084500
O121	O12	0.536300	0.119200	0.233500
N121	N12	0.423600	0.186500	0.175500
H231	H23	0.398100	0.145000	0.208900
C121	C12	0.506700	0.182600	0.177800
H241	H24	0.511800	0.961000	0.584500
O131	O13	0.119200	0.463700	0.766500
N131	N13	0.186500	0.576400	0.824500
H251	H25	0.145000	0.601900	0.791100
C131	C13	0.182600	0.493300	0.822200
H261	H26	0.961000	0.488200	0.415500
O141	O14	0.619200	0.963700	0.266500
N141	N14	0.686500	0.076400	0.324500
H271	H27	0.645000	0.101900	0.291100
C141	C14	0.682600	0.993300	0.322200
H281	H28	0.461000	0.988200	0.915500
O151	O15	0.880800	0.536300	0.766500
N151	N15	0.813500	0.423600	0.824500
H291	H29	0.855000	0.398100	0.791100
C151	C15	0.817400	0.506700	0.822200
H301	H30	0.039000	0.511800	0.415500
O161	O16	0.380800	0.036300	0.266500
N161	N16	0.313500	0.923600	0.324500
H311	H31	0.355000	0.898100	0.291100
C161	C16	0.317400	0.006700	0.322200
H321	H32	0.539000	0.011800	0.915500
Ni11	Ni1	0.500000	0.500000	0.000000
Ni21	Ni2	0.000000	0.000000	0.500000
Ni31	Ni3	0.000000	0.500000	0.750000
Ni41	Ni4	0.500000	0.000000	0.250000
S11	S1	0.282870	0.250000	0.125000
C171	C17	0.380100	0.250000	0.125000
C181	C18	0.547500	0.250000	0.125000
H331	H33	0.602600	0.250000	0.125000
S21	S2	0.717130	0.750000	0.125000
C191	C19	0.619900	0.750000	0.125000
C201	C20	0.452500	0.750000	0.125000
H341	H34	0.397400	0.750000	0.125000
S31	S3	0.217130	0.250000	0.625000
C211	C21	0.119900	0.250000	0.625000
C221	C22	0.952500	0.250000	0.625000
H351	H35	0.897400	0.250000	0.625000
S41	S4	0.250000	0.717130	0.875000
C231	C23	0.250000	0.619900	0.875000
C241	C24	0.250000	0.452500	0.875000
H361	H36	0.250000	0.397400	0.875000
S51	S5	0.750000	0.217130	0.375000
C251	C25	0.750000	0.119900	0.375000
C261	C26	0.750000	0.952500	0.375000
H371	H37	0.750000	0.897400	0.375000
S61	S6	0.750000	0.282870	0.875000
C271	C27	0.750000	0.380100	0.875000
C281	C28	0.750000	0.547500	0.875000
H381	H38	0.750000	0.602600	0.875000
S71	S7	0.250000	0.782870	0.375000
C291	C29	0.250000	0.880100	0.375000
C301	C30	0.250000	0.047500	0.375000
H391	H39	0.250000	0.102600	0.375000
S81	S8	0.782870	0.750000	0.625000
C311	C31	0.880100	0.750000	0.625000
C321	C32	0.047500	0.750000	0.625000
H401	H40	0.102600	0.750000	0.625000
O171	O17	0.500000	0.500000	0.733600
O181	O18	0.000000	0.000000	0.233600
O191	O19	0.500000	0.500000	0.266400
O201	O20	0.000000	0.000000	0.766400
O211	O21	0.000000	0.500000	0.016400
O221	O22	0.500000	0.000000	0.516400
O231	O23	0.000000	0.500000	0.483600
O241	O24	0.500000	0.000000	0.983600
