data_NICJUG_freeONLY_PM
_symmetry_space_group_name_H-M	'P1'
_cell_length_a	12.564000
_cell_length_b	16.581000
_cell_length_c	16.581000
_cell_angle_alpha	66.152300
_cell_angle_beta	75.369900
_cell_angle_gamma	104.630000
_symmetry_Int_Tables_number 1

loop_
_symmetry_equiv_pos_as_xyz
'x,y,z'

loop_
_atom_site_label
_atom_site_type_symbol
_atom_site_fract_x
_atom_site_fract_y
_atom_site_fract_z
Ba11	Ba1	0.704930	0.409860	0.295070
Ba21	Ba2	0.000000	0.295070	0.295070
Ba31	Ba3	0.295070	0.295070	0.409860
Ba41	Ba4	0.295070	0.590140	0.704930
Ba51	Ba5	0.000000	0.704930	0.704930
Ba61	Ba6	0.704930	0.704930	0.590140
Cu11	Cu1	0.892570	0.627470	0.372530
Cu21	Cu2	0.265100	0.372530	0.000000
Cu31	Cu3	0.265100	0.000000	0.627470
Cu41	Cu4	0.734900	0.000000	0.372530
Cu51	Cu5	0.734900	0.627470	0.000000
Cu61	Cu6	0.107430	0.372530	0.627470
H11	H1	0.533000	0.456900	0.190900
H21	H2	0.499900	0.368400	0.210700
H31	H3	0.771700	0.332700	0.153100
H41	H4	0.748200	0.494500	0.548900
H51	H5	0.657800	0.289000	0.188600
H61	H6	0.723900	0.190900	0.352200
H71	H7	0.710600	0.210700	0.420900
H81	H8	0.924800	0.153100	0.514200
H91	H9	0.297100	0.548900	0.956600
H101	H10	0.846400	0.188600	0.522400
H111	H11	0.076100	0.352200	0.456900
H121	H12	0.131500	0.420900	0.368400
H131	H13	0.439000	0.514200	0.332700
H141	H14	0.253700	0.956600	0.494500
H151	H15	0.368800	0.522400	0.289000
H161	H16	0.276100	0.352200	0.190900
H171	H17	0.289400	0.420900	0.210700
H181	H18	0.075200	0.514200	0.153100
H191	H19	0.702900	0.956600	0.548900
H201	H20	0.153600	0.522400	0.188600
H211	H21	0.923900	0.456900	0.352200
H221	H22	0.868500	0.368400	0.420900
H231	H23	0.561000	0.332700	0.514200
H241	H24	0.746300	0.494500	0.956600
H251	H25	0.631200	0.289000	0.522400
H261	H26	0.467000	0.190900	0.456900
H271	H27	0.500100	0.210700	0.368400
H281	H28	0.228300	0.153100	0.332700
H291	H29	0.251800	0.548900	0.494500
H301	H30	0.342200	0.188600	0.289000
H311	H31	0.467000	0.543100	0.809100
H321	H32	0.500100	0.631600	0.789300
H331	H33	0.228300	0.667300	0.846900
H341	H34	0.251800	0.505500	0.451100
H351	H35	0.342200	0.711000	0.811400
H361	H36	0.276100	0.809100	0.647800
H371	H37	0.289400	0.789300	0.579100
H381	H38	0.075200	0.846900	0.485800
H391	H39	0.702900	0.451100	0.043400
H401	H40	0.153600	0.811400	0.477600
H411	H41	0.923900	0.647800	0.543100
H421	H42	0.868500	0.579100	0.631600
H431	H43	0.561000	0.485800	0.667300
H441	H44	0.746300	0.043400	0.505500
H451	H45	0.631200	0.477600	0.711000
H461	H46	0.723900	0.647800	0.809100
H471	H47	0.710600	0.579100	0.789300
H481	H48	0.924800	0.485800	0.846900
H491	H49	0.297100	0.043400	0.451100
H501	H50	0.846400	0.477600	0.811400
H511	H51	0.076100	0.543100	0.647800
H521	H52	0.131500	0.631600	0.579100
H531	H53	0.439000	0.667300	0.485800
H541	H54	0.253700	0.505500	0.043400
H551	H55	0.368800	0.711000	0.477600
H561	H56	0.533000	0.809100	0.543100
H571	H57	0.499900	0.789300	0.631600
H581	H58	0.771700	0.846900	0.667300
H591	H59	0.748200	0.451100	0.505500
H601	H60	0.657800	0.811400	0.711000
C11	C1	0.118550	0.702500	0.387450
C21	C2	0.693180	0.595790	0.315450
C31	C3	0.506000	0.387450	0.910050
C41	C4	0.008630	0.315450	0.088760
C51	C5	0.416050	0.910050	0.702500
C61	C6	0.097390	0.088760	0.595790
C71	C7	0.494000	0.910050	0.387450
C81	C8	0.991370	0.088760	0.315450
C91	C9	0.583950	0.702500	0.910050
C101	C10	0.902610	0.595790	0.088760
C111	C11	0.881450	0.387450	0.702500
C121	C12	0.306820	0.315450	0.595790
C131	C13	0.881450	0.297500	0.612550
C141	C14	0.306820	0.404210	0.684550
C151	C15	0.494000	0.612550	0.089950
C161	C16	0.991370	0.684550	0.911240
C171	C17	0.583950	0.089950	0.297500
C181	C18	0.902610	0.911240	0.404210
C191	C19	0.506000	0.089950	0.612550
C201	C20	0.008630	0.911240	0.684550
C211	C21	0.416050	0.297500	0.089950
C221	C22	0.097390	0.404210	0.911240
C231	C23	0.118550	0.612550	0.297500
C241	C24	0.693180	0.684550	0.404210
C251	C25	0.315020	0.730680	0.269320
C261	C26	0.181960	0.708990	0.291010
C271	C27	0.169700	0.790200	0.209800
C281	C28	0.687420	0.688830	0.311170
C291	C29	0.573740	0.698910	0.301090
C301	C30	0.797140	0.775710	0.224290
C311	C31	0.584340	0.269320	0.000000
C321	C32	0.472970	0.291010	0.000000
C331	C33	0.379500	0.209800	0.000000
C341	C34	0.998590	0.311170	0.000000
C351	C35	0.874830	0.301090	0.000000
C361	C36	0.021430	0.224290	0.000000
C371	C37	0.584340	0.000000	0.730680
C381	C38	0.472970	0.000000	0.708990
C391	C39	0.379500	0.000000	0.790200
C401	C40	0.998590	0.000000	0.688830
C411	C41	0.874830	0.000000	0.698910
C421	C42	0.021430	0.000000	0.775710
C431	C43	0.415660	0.000000	0.269320
C441	C44	0.527030	0.000000	0.291010
C451	C45	0.620500	0.000000	0.209800
C461	C46	0.001410	0.000000	0.311170
C471	C47	0.125170	0.000000	0.301090
C481	C48	0.978570	0.000000	0.224290
C491	C49	0.415660	0.730680	0.000000
C501	C50	0.527030	0.708990	0.000000
C511	C51	0.620500	0.790200	0.000000
C521	C52	0.001410	0.688830	0.000000
C531	C53	0.125170	0.698910	0.000000
C541	C54	0.978570	0.775710	0.000000
C551	C55	0.684980	0.269320	0.730680
C561	C56	0.818040	0.291010	0.708990
C571	C57	0.830300	0.209800	0.790200
C581	C58	0.312580	0.311170	0.688830
C591	C59	0.426260	0.301090	0.698910
C601	C60	0.202860	0.224290	0.775710
O11	O1	0.005450	0.684540	0.414910
O21	O2	0.788270	0.581480	0.316410
O31	O3	0.176490	0.717040	0.433550
O41	O4	0.510770	0.400320	0.236350
O51	O5	0.713990	0.343880	0.163260
O61	O6	0.607320	0.537240	0.317020
O71	O7	0.420360	0.414910	0.900550
O81	O8	0.104680	0.316410	0.102110
O91	O9	0.610040	0.433550	0.849410
O101	O10	0.747120	0.236350	0.363330
O111	O11	0.877250	0.163260	0.492860
O121	O12	0.924340	0.317020	0.145740
O131	O13	0.320910	0.900550	0.684540
O141	O14	0.206790	0.102110	0.581480
O151	O15	0.459450	0.849410	0.717040
O161	O16	0.110450	0.363330	0.400320
O171	O17	0.370110	0.492860	0.343880
O181	O18	0.070080	0.145740	0.537240
O191	O19	0.579640	0.900550	0.414910
O201	O20	0.895320	0.102110	0.316410
O211	O21	0.389960	0.849410	0.433550
O221	O22	0.252880	0.363330	0.236350
O231	O23	0.122750	0.492860	0.163260
O241	O24	0.075660	0.145740	0.317020
O251	O25	0.679090	0.684540	0.900550
O261	O26	0.793210	0.581480	0.102110
O271	O27	0.540550	0.717040	0.849410
O281	O28	0.889550	0.400320	0.363330
O291	O29	0.629890	0.343880	0.492860
O301	O30	0.929920	0.537240	0.145740
O311	O31	0.994550	0.414910	0.684540
O321	O32	0.211730	0.316410	0.581480
O331	O33	0.823510	0.433550	0.717040
O341	O34	0.489230	0.236350	0.400320
O351	O35	0.286010	0.163260	0.343880
O361	O36	0.392680	0.317020	0.537240
O371	O37	0.994550	0.315460	0.585090
O381	O38	0.211730	0.418520	0.683590
O391	O39	0.823510	0.282960	0.566450
O401	O40	0.489230	0.599680	0.763650
O411	O41	0.286010	0.656120	0.836740
O421	O42	0.392680	0.462760	0.682980
O431	O43	0.579640	0.585090	0.099450
O441	O44	0.895320	0.683590	0.897890
O451	O45	0.389960	0.566450	0.150590
O461	O46	0.252880	0.763650	0.636670
O471	O47	0.122750	0.836740	0.507140
O481	O48	0.075660	0.682980	0.854260
O491	O49	0.679090	0.099450	0.315460
O501	O50	0.793210	0.897890	0.418520
O511	O51	0.540550	0.150590	0.282960
O521	O52	0.889550	0.636670	0.599680
O531	O53	0.629890	0.507140	0.656120
O541	O54	0.929920	0.854260	0.462760
O551	O55	0.420360	0.099450	0.585090
O561	O56	0.104680	0.897890	0.683590
O571	O57	0.610040	0.150590	0.566450
O581	O58	0.747120	0.636670	0.763650
O591	O59	0.877250	0.507140	0.836740
O601	O60	0.924340	0.854260	0.682980
O611	O61	0.320910	0.315460	0.099450
O621	O62	0.206790	0.418520	0.897890
O631	O63	0.459450	0.282960	0.150590
O641	O64	0.110450	0.599680	0.636670
O651	O65	0.370110	0.656120	0.507140
O661	O66	0.070080	0.462760	0.854260
O671	O67	0.005450	0.585090	0.315460
O681	O68	0.788270	0.683590	0.418520
O691	O69	0.176490	0.566450	0.282960
O701	O70	0.510770	0.763650	0.599680
O711	O71	0.713990	0.836740	0.656120
O721	O72	0.607320	0.682980	0.462760
O731	O73	0.788440	0.488310	0.511690
O741	O74	0.300130	0.511690	0.000000
O751	O75	0.300130	0.000000	0.488310
O761	O76	0.699870	0.000000	0.511690
O771	O77	0.699870	0.488310	0.000000
O781	O78	0.211560	0.511690	0.488310
