data_NIFYUY_charged_PM
_symmetry_space_group_name_H-M	'P1'
_cell_length_a	18.426000
_cell_length_b	18.507000
_cell_length_c	48.374000
_cell_angle_alpha	90.000000
_cell_angle_beta	90.000000
_cell_angle_gamma	90.000000
_symmetry_Int_Tables_number 1

loop_
_symmetry_equiv_pos_as_xyz
'x,y,z'

loop_
_atom_site_label
_atom_site_type_symbol
_atom_site_fract_x
_atom_site_fract_y
_atom_site_fract_z
Tm11	Tm1	0.799600	0.929530	0.878170
Tm21	Tm2	0.681000	0.486340	0.875870
Tm31	Tm3	0.369110	0.901880	0.122290
Tm41	Tm4	0.299600	0.070470	0.621830
Tm51	Tm5	0.181000	0.513660	0.624130
Tm61	Tm6	0.869110	0.098120	0.377710
Tm71	Tm7	0.700400	0.429530	0.121830
Tm81	Tm8	0.819000	0.986340	0.124130
Tm91	Tm9	0.130890	0.401880	0.877710
Tm101	Tm10	0.200400	0.570470	0.378170
Tm111	Tm11	0.319000	0.013660	0.375870
Tm121	Tm12	0.630890	0.598120	0.622290
Tm131	Tm13	0.200400	0.070470	0.121830
Tm141	Tm14	0.319000	0.513660	0.124130
Tm151	Tm15	0.630890	0.098120	0.877710
Tm161	Tm16	0.700400	0.929530	0.378170
Tm171	Tm17	0.819000	0.486340	0.375870
Tm181	Tm18	0.130890	0.901880	0.622290
Tm191	Tm19	0.299600	0.570470	0.878170
Tm201	Tm20	0.181000	0.013660	0.875870
Tm211	Tm21	0.869110	0.598120	0.122290
Tm221	Tm22	0.799600	0.429530	0.621830
Tm231	Tm23	0.681000	0.986340	0.624130
Tm241	Tm24	0.369110	0.401880	0.377710
Co11	Co1	0.953740	0.614750	0.755400
Co21	Co2	0.608330	0.747560	0.997700
Co31	Co3	0.453740	0.385250	0.744600
Co41	Co4	0.108330	0.252440	0.502300
Co51	Co5	0.546260	0.114750	0.244600
Co61	Co6	0.891670	0.247560	0.002300
Co71	Co7	0.046260	0.885250	0.255400
Co81	Co8	0.391670	0.752440	0.497700
Co91	Co9	0.046260	0.385250	0.244600
Co101	Co10	0.391670	0.252440	0.002300
Co111	Co11	0.546260	0.614750	0.255400
Co121	Co12	0.891670	0.747560	0.497700
Co131	Co13	0.453740	0.885250	0.755400
Co141	Co14	0.108330	0.752440	0.997700
Co151	Co15	0.953740	0.114750	0.744600
Co161	Co16	0.608330	0.247560	0.502300
H11	H1	0.801100	0.773100	0.879200
H21	H2	0.723700	0.792700	0.880200
H31	H3	0.550200	0.481200	0.909900
H41	H4	0.541000	0.421700	0.890000
H51	H5	0.680900	0.331600	0.886800
H61	H6	0.658200	0.338000	0.857700
H71	H7	0.498900	0.908100	0.090900
H81	H8	0.521100	0.925700	0.119300
H91	H9	0.971200	0.957700	0.875200
H101	H10	0.940500	0.031100	0.875200
H111	H11	0.537700	0.724900	0.054900
H121	H12	0.370600	0.863000	0.056800
H131	H13	0.410000	0.909700	0.014600
H141	H14	0.462300	0.956100	0.977100
H151	H15	0.531300	0.999400	0.940000
H161	H16	0.668700	0.834200	0.950000
H171	H17	0.791900	0.186600	0.956500
H181	H18	0.910500	0.025900	0.924100
H191	H19	0.994000	0.039600	0.959700
H201	H20	0.060700	0.053700	0.996400
H211	H21	0.126300	0.074300	0.036900
H221	H22	0.994400	0.242300	0.052700
H231	H23	0.942700	0.703300	0.811000
H241	H24	0.801800	0.865600	0.799400
H251	H25	0.776900	0.818300	0.756100
H261	H26	0.763000	0.771100	0.715600
H271	H27	0.738100	0.705900	0.675900
H281	H28	0.874300	0.552800	0.702100
H291	H29	0.473300	0.798200	0.698500
H301	H30	0.627800	0.650300	0.709800
H311	H31	0.643500	0.694200	0.754400
H321	H32	0.655300	0.742200	0.794800
H331	H33	0.681900	0.814500	0.832900
H341	H34	0.531900	0.956200	0.806800
H351	H35	0.852500	0.577200	0.805600
H361	H36	0.855500	0.363600	0.816300
H371	H37	0.925300	0.353500	0.776600
H381	H38	0.973900	0.352400	0.734200
H391	H39	0.038600	0.361600	0.693100
H401	H40	0.047200	0.575100	0.704400
H411	H41	0.626300	0.662300	0.944900
H421	H42	0.840500	0.639300	0.934800
H431	H43	0.858600	0.708500	0.974300
H441	H44	0.862800	0.785800	0.012400
H451	H45	0.851200	0.867200	0.049200
H461	H46	0.635500	0.861100	0.039800
H471	H47	0.301100	0.226900	0.620800
H481	H48	0.223700	0.207300	0.619800
H491	H49	0.050200	0.518800	0.590100
H501	H50	0.041000	0.578300	0.610000
H511	H51	0.180900	0.668400	0.613200
H521	H52	0.158200	0.662000	0.642300
H531	H53	0.998900	0.091900	0.409100
H541	H54	0.021100	0.074300	0.380700
H551	H55	0.471200	0.042300	0.624800
H561	H56	0.440500	0.968900	0.624800
H571	H57	0.037700	0.275100	0.445100
H581	H58	0.870600	0.137000	0.443200
H591	H59	0.910000	0.090300	0.485400
H601	H60	0.962300	0.043900	0.522900
H611	H61	0.031300	0.000600	0.560000
H621	H62	0.168700	0.165800	0.550000
H631	H63	0.291900	0.813400	0.543500
H641	H64	0.410500	0.974100	0.575900
H651	H65	0.494000	0.960400	0.540300
H661	H66	0.560700	0.946300	0.503600
H671	H67	0.626300	0.925700	0.463100
H681	H68	0.494400	0.757700	0.447300
H691	H69	0.442700	0.296700	0.689000
H701	H70	0.301800	0.134400	0.700600
H711	H71	0.276900	0.181700	0.743900
H721	H72	0.263000	0.228900	0.784400
H731	H73	0.238100	0.294100	0.824100
H741	H74	0.374300	0.447200	0.797900
H751	H75	0.973300	0.201800	0.801500
H761	H76	0.127800	0.349700	0.790200
H771	H77	0.143500	0.305800	0.745600
H781	H78	0.155300	0.257800	0.705200
H791	H79	0.181900	0.185500	0.667100
H801	H80	0.031900	0.043800	0.693200
H811	H81	0.352500	0.422800	0.694400
H821	H82	0.355500	0.636400	0.683700
H831	H83	0.425300	0.646500	0.723400
H841	H84	0.473900	0.647600	0.765800
H851	H85	0.538600	0.638400	0.806900
H861	H86	0.547200	0.424900	0.795600
H871	H87	0.126300	0.337700	0.555100
H881	H88	0.340500	0.360700	0.565200
H891	H89	0.358600	0.291500	0.525700
H901	H90	0.362800	0.214200	0.487600
H911	H91	0.351200	0.132800	0.450800
H921	H92	0.135500	0.138900	0.460200
H931	H93	0.698900	0.273100	0.120800
H941	H94	0.776300	0.292700	0.119800
H951	H95	0.949800	0.981200	0.090100
H961	H96	0.959000	0.921700	0.110000
H971	H97	0.819100	0.831600	0.113200
H981	H98	0.841800	0.838000	0.142300
H991	H99	0.001100	0.408100	0.909100
H1001	H100	0.978900	0.425700	0.880700
H1011	H101	0.528800	0.457700	0.124800
H1021	H102	0.559500	0.531100	0.124800
H1031	H103	0.962300	0.224900	0.945100
H1041	H104	0.129400	0.363000	0.943200
H1051	H105	0.090000	0.409700	0.985400
H1061	H106	0.037700	0.456100	0.022900
H1071	H107	0.968700	0.499400	0.060000
H1081	H108	0.831300	0.334200	0.050000
H1091	H109	0.708100	0.686600	0.043500
H1101	H110	0.589500	0.525900	0.075900
H1111	H111	0.506000	0.539600	0.040300
H1121	H112	0.439300	0.553700	0.003600
H1131	H113	0.373700	0.574300	0.963100
H1141	H114	0.505600	0.742300	0.947300
H1151	H115	0.557300	0.203300	0.189000
H1161	H116	0.698200	0.365600	0.200600
H1171	H117	0.723100	0.318300	0.243900
H1181	H118	0.737000	0.271100	0.284400
H1191	H119	0.761900	0.205900	0.324100
H1201	H120	0.625700	0.052800	0.297900
H1211	H121	0.026700	0.298200	0.301500
H1221	H122	0.872200	0.150300	0.290200
H1231	H123	0.856500	0.194200	0.245600
H1241	H124	0.844700	0.242200	0.205200
H1251	H125	0.818100	0.314500	0.167100
H1261	H126	0.968100	0.456200	0.193200
H1271	H127	0.647500	0.077200	0.194400
H1281	H128	0.644500	0.863600	0.183700
H1291	H129	0.574700	0.853500	0.223400
H1301	H130	0.526100	0.852400	0.265800
H1311	H131	0.461400	0.861600	0.306900
H1321	H132	0.452800	0.075100	0.295600
H1331	H133	0.873700	0.162300	0.055100
H1341	H134	0.659500	0.139300	0.065200
H1351	H135	0.641400	0.208500	0.025700
H1361	H136	0.637200	0.285800	0.987600
H1371	H137	0.648800	0.367200	0.950800
H1381	H138	0.864500	0.361100	0.960200
H1391	H139	0.198900	0.726900	0.379200
H1401	H140	0.276300	0.707300	0.380200
H1411	H141	0.449800	0.018800	0.409900
H1421	H142	0.459000	0.078300	0.390000
H1431	H143	0.319100	0.168400	0.386800
H1441	H144	0.341800	0.162000	0.357700
H1451	H145	0.501100	0.591900	0.590900
H1461	H146	0.478900	0.574300	0.619300
H1471	H147	0.028800	0.542300	0.375200
H1481	H148	0.059500	0.468900	0.375200
H1491	H149	0.462300	0.775100	0.554900
H1501	H150	0.629400	0.637000	0.556800
H1511	H151	0.590000	0.590300	0.514600
H1521	H152	0.537700	0.543900	0.477100
H1531	H153	0.468700	0.500600	0.440000
H1541	H154	0.331300	0.665800	0.450000
H1551	H155	0.208100	0.313400	0.456500
H1561	H156	0.089500	0.474100	0.424100
H1571	H157	0.006000	0.460400	0.459700
H1581	H158	0.939300	0.446300	0.496400
H1591	H159	0.873700	0.425700	0.536900
H1601	H160	0.005600	0.257700	0.552700
H1611	H161	0.057300	0.796700	0.311000
H1621	H162	0.198200	0.634400	0.299400
H1631	H163	0.223100	0.681700	0.256100
H1641	H164	0.237000	0.728900	0.215600
H1651	H165	0.261900	0.794100	0.175900
H1661	H166	0.125700	0.947200	0.202100
H1671	H167	0.526700	0.701800	0.198500
H1681	H168	0.372200	0.849700	0.209800
H1691	H169	0.356500	0.805800	0.254400
H1701	H170	0.344700	0.757800	0.294800
H1711	H171	0.318100	0.685500	0.332900
H1721	H172	0.468100	0.543800	0.306800
H1731	H173	0.147500	0.922800	0.305600
H1741	H174	0.144500	0.136400	0.316300
H1751	H175	0.074700	0.146500	0.276600
H1761	H176	0.026100	0.147600	0.234200
H1771	H177	0.961400	0.138400	0.193100
H1781	H178	0.952800	0.924900	0.204400
H1791	H179	0.373700	0.837700	0.444900
H1801	H180	0.159500	0.860700	0.434800
H1811	H181	0.141400	0.791500	0.474300
H1821	H182	0.137200	0.714200	0.512400
H1831	H183	0.148800	0.632800	0.549200
H1841	H184	0.364500	0.638900	0.539800
H1851	H185	0.198900	0.226900	0.120800
H1861	H186	0.276300	0.207300	0.119800
H1871	H187	0.449800	0.518800	0.090100
H1881	H188	0.459000	0.578300	0.110000
H1891	H189	0.319100	0.668400	0.113200
H1901	H190	0.341800	0.662000	0.142300
H1911	H191	0.501100	0.091900	0.909100
H1921	H192	0.478900	0.074300	0.880700
H1931	H193	0.028800	0.042300	0.124800
H1941	H194	0.059500	0.968900	0.124800
H1951	H195	0.462300	0.275100	0.945100
H1961	H196	0.629400	0.137000	0.943200
H1971	H197	0.590000	0.090300	0.985400
H1981	H198	0.537700	0.043900	0.022900
H1991	H199	0.468700	0.000600	0.060000
H2001	H200	0.331300	0.165800	0.050000
H2011	H201	0.208100	0.813400	0.043500
H2021	H202	0.089500	0.974100	0.075900
H2031	H203	0.006000	0.960400	0.040300
H2041	H204	0.939300	0.946300	0.003600
H2051	H205	0.873700	0.925700	0.963100
H2061	H206	0.005600	0.757700	0.947300
H2071	H207	0.057300	0.296700	0.189000
H2081	H208	0.198200	0.134400	0.200600
H2091	H209	0.223100	0.181700	0.243900
H2101	H210	0.237000	0.228900	0.284400
H2111	H211	0.261900	0.294100	0.324100
H2121	H212	0.125700	0.447200	0.297900
H2131	H213	0.526700	0.201800	0.301500
H2141	H214	0.372200	0.349700	0.290200
H2151	H215	0.356500	0.305800	0.245600
H2161	H216	0.344700	0.257800	0.205200
H2171	H217	0.318100	0.185500	0.167100
H2181	H218	0.468100	0.043800	0.193200
H2191	H219	0.147500	0.422800	0.194400
H2201	H220	0.144500	0.636400	0.183700
H2211	H221	0.074700	0.646500	0.223400
H2221	H222	0.026100	0.647600	0.265800
H2231	H223	0.961400	0.638400	0.306900
H2241	H224	0.952800	0.424900	0.295600
H2251	H225	0.373700	0.337700	0.055100
H2261	H226	0.159500	0.360700	0.065200
H2271	H227	0.141400	0.291500	0.025700
H2281	H228	0.137200	0.214200	0.987600
H2291	H229	0.148800	0.132800	0.950800
H2301	H230	0.364500	0.138900	0.960200
H2311	H231	0.698900	0.773100	0.379200
H2321	H232	0.776300	0.792700	0.380200
H2331	H233	0.949800	0.481200	0.409900
H2341	H234	0.959000	0.421700	0.390000
H2351	H235	0.819100	0.331600	0.386800
H2361	H236	0.841800	0.338000	0.357700
H2371	H237	0.001100	0.908100	0.590900
H2381	H238	0.978900	0.925700	0.619300
H2391	H239	0.528800	0.957700	0.375200
H2401	H240	0.559500	0.031100	0.375200
H2411	H241	0.962300	0.724900	0.554900
H2421	H242	0.129400	0.863000	0.556800
H2431	H243	0.090000	0.909700	0.514600
H2441	H244	0.037700	0.956100	0.477100
H2451	H245	0.968700	0.999400	0.440000
H2461	H246	0.831300	0.834200	0.450000
H2471	H247	0.708100	0.186600	0.456500
H2481	H248	0.589500	0.025900	0.424100
H2491	H249	0.506000	0.039600	0.459700
H2501	H250	0.439300	0.053700	0.496400
H2511	H251	0.373700	0.074300	0.536900
H2521	H252	0.505600	0.242300	0.552700
H2531	H253	0.557300	0.703300	0.311000
H2541	H254	0.698200	0.865600	0.299400
H2551	H255	0.723100	0.818300	0.256100
H2561	H256	0.737000	0.771100	0.215600
H2571	H257	0.761900	0.705900	0.175900
H2581	H258	0.625700	0.552800	0.202100
H2591	H259	0.026700	0.798200	0.198500
H2601	H260	0.872200	0.650300	0.209800
H2611	H261	0.856500	0.694200	0.254400
H2621	H262	0.844700	0.742200	0.294800
H2631	H263	0.818100	0.814500	0.332900
H2641	H264	0.968100	0.956200	0.306800
H2651	H265	0.647500	0.577200	0.305600
H2661	H266	0.644500	0.363600	0.316300
H2671	H267	0.574700	0.353500	0.276600
H2681	H268	0.526100	0.352400	0.234200
H2691	H269	0.461400	0.361600	0.193100
H2701	H270	0.452800	0.575100	0.204400
H2711	H271	0.873700	0.662300	0.444900
H2721	H272	0.659500	0.639300	0.434800
H2731	H273	0.641400	0.708500	0.474300
H2741	H274	0.637200	0.785800	0.512400
H2751	H275	0.648800	0.867200	0.549200
H2761	H276	0.864500	0.861100	0.539800
H2771	H277	0.301100	0.726900	0.879200
H2781	H278	0.223700	0.707300	0.880200
H2791	H279	0.050200	0.018800	0.909900
H2801	H280	0.041000	0.078300	0.890000
H2811	H281	0.180900	0.168400	0.886800
H2821	H282	0.158200	0.162000	0.857700
H2831	H283	0.998900	0.591900	0.090900
H2841	H284	0.021100	0.574300	0.119300
H2851	H285	0.471200	0.542300	0.875200
H2861	H286	0.440500	0.468900	0.875200
H2871	H287	0.037700	0.775100	0.054900
H2881	H288	0.870600	0.637000	0.056800
H2891	H289	0.910000	0.590300	0.014600
H2901	H290	0.962300	0.543900	0.977100
H2911	H291	0.031300	0.500600	0.940000
H2921	H292	0.168700	0.665800	0.950000
H2931	H293	0.291900	0.313400	0.956500
H2941	H294	0.410500	0.474100	0.924100
H2951	H295	0.494000	0.460400	0.959700
H2961	H296	0.560700	0.446300	0.996400
H2971	H297	0.626300	0.425700	0.036900
H2981	H298	0.494400	0.257700	0.052700
H2991	H299	0.442700	0.796700	0.811000
H3001	H300	0.301800	0.634400	0.799400
H3011	H301	0.276900	0.681700	0.756100
H3021	H302	0.263000	0.728900	0.715600
H3031	H303	0.238100	0.794100	0.675900
H3041	H304	0.374300	0.947200	0.702100
H3051	H305	0.973300	0.701800	0.698500
H3061	H306	0.127800	0.849700	0.709800
H3071	H307	0.143500	0.805800	0.754400
H3081	H308	0.155300	0.757800	0.794800
H3091	H309	0.181900	0.685500	0.832900
H3101	H310	0.031900	0.543800	0.806800
H3111	H311	0.352500	0.922800	0.805600
H3121	H312	0.355500	0.136400	0.816300
H3131	H313	0.425300	0.146500	0.776600
H3141	H314	0.473900	0.147600	0.734200
H3151	H315	0.538600	0.138400	0.693100
H3161	H316	0.547200	0.924900	0.704400
H3171	H317	0.126300	0.837700	0.944900
H3181	H318	0.340500	0.860700	0.934800
H3191	H319	0.358600	0.791500	0.974300
H3201	H320	0.362800	0.714200	0.012400
H3211	H321	0.351200	0.632800	0.049200
H3221	H322	0.135500	0.638900	0.039800
H3231	H323	0.801100	0.273100	0.620800
H3241	H324	0.723700	0.292700	0.619800
H3251	H325	0.550200	0.981200	0.590100
H3261	H326	0.541000	0.921700	0.610000
H3271	H327	0.680900	0.831600	0.613200
H3281	H328	0.658200	0.838000	0.642300
H3291	H329	0.498900	0.408100	0.409100
H3301	H330	0.521100	0.425700	0.380700
H3311	H331	0.971200	0.457700	0.624800
H3321	H332	0.940500	0.531100	0.624800
H3331	H333	0.537700	0.224900	0.445100
H3341	H334	0.370600	0.363000	0.443200
H3351	H335	0.410000	0.409700	0.485400
H3361	H336	0.462300	0.456100	0.522900
H3371	H337	0.531300	0.499400	0.560000
H3381	H338	0.668700	0.334200	0.550000
H3391	H339	0.791900	0.686600	0.543500
H3401	H340	0.910500	0.525900	0.575900
H3411	H341	0.994000	0.539600	0.540300
H3421	H342	0.060700	0.553700	0.503600
H3431	H343	0.126300	0.574300	0.463100
H3441	H344	0.994400	0.742300	0.447300
H3451	H345	0.942700	0.203300	0.689000
H3461	H346	0.801800	0.365600	0.700600
H3471	H347	0.776900	0.318300	0.743900
H3481	H348	0.763000	0.271100	0.784400
H3491	H349	0.738100	0.205900	0.824100
H3501	H350	0.874300	0.052800	0.797900
H3511	H351	0.473300	0.298200	0.801500
H3521	H352	0.627800	0.150300	0.790200
H3531	H353	0.643500	0.194200	0.745600
H3541	H354	0.655300	0.242200	0.705200
H3551	H355	0.681900	0.314500	0.667100
H3561	H356	0.531900	0.456200	0.693200
H3571	H357	0.852500	0.077200	0.694400
H3581	H358	0.855500	0.863600	0.683700
H3591	H359	0.925300	0.853500	0.723400
H3601	H360	0.973900	0.852400	0.765800
H3611	H361	0.038600	0.861600	0.806900
H3621	H362	0.047200	0.075100	0.795600
H3631	H363	0.626300	0.162300	0.555100
H3641	H364	0.840500	0.139300	0.565200
H3651	H365	0.858600	0.208500	0.525700
H3661	H366	0.862800	0.285800	0.487600
H3671	H367	0.851200	0.367200	0.450800
H3681	H368	0.635500	0.361100	0.460200
C11	C1	0.511400	0.762100	0.046710
C21	C2	0.451400	0.789000	0.060400
C31	C3	0.411800	0.844500	0.048250
C41	C4	0.435000	0.872000	0.023020
C51	C5	0.495700	0.842700	0.010440
C61	C6	0.528100	0.870800	0.984760
C71	C7	0.504400	0.932600	0.971540
C81	C8	0.546000	0.958400	0.949570
C91	C9	0.609300	0.923000	0.942090
C101	C10	0.627400	0.859400	0.955560
C111	C11	0.428800	0.755100	0.087450
C121	C12	0.657200	0.951000	0.919410
C131	C13	0.784800	0.089200	0.914690
C141	C14	0.832300	0.156500	0.957150
C151	C15	0.840700	0.103500	0.936990
C161	C16	0.902700	0.060300	0.937840
C171	C17	0.952700	0.068300	0.958910
C181	C18	0.939300	0.120200	0.978820
C191	C19	0.987700	0.133200	0.002390
C201	C20	0.047000	0.090600	0.008380
C211	C21	0.086400	0.102900	0.032450
C221	C22	0.065000	0.158900	0.049700
C231	C23	0.007000	0.203000	0.041700
C241	C24	0.106200	0.169700	0.076290
C251	C25	0.893600	0.813900	0.838740
C261	C26	0.909000	0.726700	0.799880
C271	C27	0.874500	0.788400	0.810220
C281	C28	0.824800	0.823800	0.793380
C291	C29	0.810300	0.795600	0.767590
C301	C30	0.845700	0.733000	0.758790
C311	C31	0.831700	0.697300	0.732080
C321	C32	0.784300	0.726100	0.712700
C331	C33	0.769400	0.687400	0.689180
C341	C34	0.801500	0.620200	0.685460
C351	C35	0.850900	0.596600	0.705030
C361	C36	0.781600	0.573600	0.661140
C371	C37	0.537200	0.696900	0.669400
C381	C38	0.508900	0.777700	0.709620
C391	C39	0.549600	0.721500	0.698900
C401	C40	0.600500	0.689300	0.716050
C411	C41	0.610300	0.715900	0.742560
C421	C42	0.570100	0.775100	0.751260
C431	C43	0.582000	0.811200	0.778190
C441	C44	0.632300	0.786500	0.797200
C451	C45	0.647700	0.829400	0.819920
C461	C46	0.612000	0.894600	0.823160
C471	C47	0.557900	0.913600	0.804160
C481	C48	0.635200	0.947500	0.844980
C491	C49	0.793900	0.481400	0.838450
C501	C50	0.867600	0.531600	0.799810
C511	C51	0.845400	0.471700	0.814920
C521	C52	0.868200	0.404600	0.806340
C531	C53	0.910200	0.398700	0.782790
C541	C54	0.929300	0.460400	0.768540
C551	C55	0.972100	0.459400	0.742740
C561	C56	0.988700	0.397400	0.727740
C571	C57	0.027200	0.402700	0.703330
C581	C58	0.048400	0.470300	0.694370
C591	C59	0.031400	0.529900	0.710250
C601	C60	0.089500	0.482400	0.667950
C611	C61	0.714500	0.601500	0.910040
C621	C62	0.673400	0.672100	0.950690
C631	C63	0.731800	0.645200	0.935260
C641	C64	0.801100	0.658000	0.944360
C651	C65	0.812000	0.699000	0.967960
C661	C66	0.752100	0.725600	0.981850
C671	C67	0.754400	0.775500	0.005560
C681	C68	0.817300	0.801100	0.018250
C691	C69	0.810300	0.850300	0.039980
C701	C70	0.741500	0.873600	0.047700
C711	C71	0.681400	0.845400	0.034510
C721	C72	0.728300	0.928100	0.070490
C731	C73	0.011400	0.237900	0.453290
C741	C74	0.951400	0.211000	0.439600
C751	C75	0.911800	0.155500	0.451750
C761	C76	0.935000	0.128000	0.476980
C771	C77	0.995700	0.157300	0.489560
C781	C78	0.028100	0.129200	0.515240
C791	C79	0.004400	0.067400	0.528460
C801	C80	0.046000	0.041600	0.550430
C811	C81	0.109300	0.077000	0.557910
C821	C82	0.127400	0.140600	0.544440
C831	C83	0.928800	0.244900	0.412550
C841	C84	0.157200	0.049000	0.580590
C851	C85	0.284800	0.910800	0.585310
C861	C86	0.332300	0.843500	0.542850
C871	C87	0.340700	0.896500	0.563010
C881	C88	0.402700	0.939700	0.562160
C891	C89	0.452700	0.931700	0.541090
C901	C90	0.439300	0.879800	0.521180
C911	C91	0.487700	0.866800	0.497610
C921	C92	0.547000	0.909400	0.491620
C931	C93	0.586400	0.897100	0.467550
C941	C94	0.565000	0.841100	0.450300
C951	C95	0.507000	0.797000	0.458300
C961	C96	0.606200	0.830300	0.423710
C971	C97	0.393600	0.186100	0.661260
C981	C98	0.409000	0.273300	0.700120
C991	C99	0.374500	0.211600	0.689780
C1001	C100	0.324800	0.176200	0.706620
C1011	C101	0.310300	0.204400	0.732410
C1021	C102	0.345700	0.267000	0.741210
C1031	C103	0.331700	0.302700	0.767920
C1041	C104	0.284300	0.273900	0.787300
C1051	C105	0.269400	0.312600	0.810820
C1061	C106	0.301500	0.379800	0.814540
C1071	C107	0.350900	0.403400	0.794970
C1081	C108	0.281600	0.426400	0.838860
C1091	C109	0.037200	0.303100	0.830600
C1101	C110	0.008900	0.222300	0.790380
C1111	C111	0.049600	0.278500	0.801100
C1121	C112	0.100500	0.310700	0.783950
C1131	C113	0.110300	0.284100	0.757440
C1141	C114	0.070100	0.224900	0.748740
C1151	C115	0.082000	0.188800	0.721810
C1161	C116	0.132300	0.213500	0.702800
C1171	C117	0.147700	0.170600	0.680080
C1181	C118	0.112000	0.105400	0.676840
C1191	C119	0.057900	0.086400	0.695840
C1201	C120	0.135200	0.052500	0.655020
C1211	C121	0.293900	0.518600	0.661550
C1221	C122	0.367600	0.468400	0.700190
C1231	C123	0.345400	0.528300	0.685080
C1241	C124	0.368200	0.595400	0.693660
C1251	C125	0.410200	0.601300	0.717210
C1261	C126	0.429300	0.539600	0.731460
C1271	C127	0.472100	0.540600	0.757260
C1281	C128	0.488700	0.602600	0.772260
C1291	C129	0.527200	0.597300	0.796670
C1301	C130	0.548400	0.529700	0.805630
C1311	C131	0.531400	0.470100	0.789750
C1321	C132	0.589500	0.517600	0.832050
C1331	C133	0.214500	0.398500	0.589960
C1341	C134	0.173400	0.327900	0.549310
C1351	C135	0.231800	0.354800	0.564740
C1361	C136	0.301100	0.342000	0.555640
C1371	C137	0.312000	0.301000	0.532040
C1381	C138	0.252100	0.274400	0.518150
C1391	C139	0.254400	0.224500	0.494440
C1401	C140	0.317300	0.198900	0.481750
C1411	C141	0.310300	0.149700	0.460020
C1421	C142	0.241500	0.126400	0.452300
C1431	C143	0.181400	0.154600	0.465490
C1441	C144	0.228300	0.071900	0.429510
C1451	C145	0.988600	0.262100	0.953290
C1461	C146	0.048600	0.289000	0.939600
C1471	C147	0.088200	0.344500	0.951750
C1481	C148	0.065000	0.372000	0.976980
C1491	C149	0.004300	0.342700	0.989560
C1501	C150	0.971900	0.370800	0.015240
C1511	C151	0.995600	0.432600	0.028460
C1521	C152	0.954000	0.458400	0.050430
C1531	C153	0.890700	0.423000	0.057910
C1541	C154	0.872600	0.359400	0.044440
C1551	C155	0.071200	0.255100	0.912550
C1561	C156	0.842800	0.451000	0.080590
C1571	C157	0.715200	0.589200	0.085310
C1581	C158	0.667700	0.656500	0.042850
C1591	C159	0.659300	0.603500	0.063010
C1601	C160	0.597300	0.560300	0.062160
C1611	C161	0.547300	0.568300	0.041090
C1621	C162	0.560700	0.620200	0.021180
C1631	C163	0.512300	0.633200	0.997610
C1641	C164	0.453000	0.590600	0.991620
C1651	C165	0.413600	0.602900	0.967550
C1661	C166	0.435000	0.658900	0.950300
C1671	C167	0.493000	0.703000	0.958300
C1681	C168	0.393800	0.669700	0.923710
C1691	C169	0.606400	0.313900	0.161260
C1701	C170	0.591000	0.226700	0.200120
C1711	C171	0.625500	0.288400	0.189780
C1721	C172	0.675200	0.323800	0.206620
C1731	C173	0.689700	0.295600	0.232410
C1741	C174	0.654300	0.233000	0.241210
C1751	C175	0.668300	0.197300	0.267920
C1761	C176	0.715700	0.226100	0.287300
C1771	C177	0.730600	0.187400	0.310820
C1781	C178	0.698500	0.120200	0.314540
C1791	C179	0.649100	0.096600	0.294970
C1801	C180	0.718400	0.073600	0.338860
C1811	C181	0.962800	0.196900	0.330600
C1821	C182	0.991100	0.277700	0.290380
C1831	C183	0.950400	0.221500	0.301100
C1841	C184	0.899500	0.189300	0.283950
C1851	C185	0.889700	0.215900	0.257440
C1861	C186	0.929900	0.275100	0.248740
C1871	C187	0.918000	0.311200	0.221810
C1881	C188	0.867700	0.286500	0.202800
C1891	C189	0.852300	0.329400	0.180080
C1901	C190	0.888000	0.394600	0.176840
C1911	C191	0.942100	0.413600	0.195840
C1921	C192	0.864800	0.447500	0.155020
C1931	C193	0.706100	0.981400	0.161550
C1941	C194	0.632400	0.031600	0.200190
C1951	C195	0.654600	0.971700	0.185080
C1961	C196	0.631800	0.904600	0.193660
C1971	C197	0.589800	0.898700	0.217210
C1981	C198	0.570700	0.960400	0.231460
C1991	C199	0.527900	0.959400	0.257260
C2001	C200	0.511300	0.897400	0.272260
C2011	C201	0.472800	0.902700	0.296670
C2021	C202	0.451600	0.970300	0.305630
C2031	C203	0.468600	0.029900	0.289750
C2041	C204	0.410500	0.982400	0.332050
C2051	C205	0.785500	0.101500	0.089960
C2061	C206	0.826600	0.172100	0.049310
C2071	C207	0.768200	0.145200	0.064740
C2081	C208	0.698900	0.158000	0.055640
C2091	C209	0.688000	0.199000	0.032040
C2101	C210	0.747900	0.225600	0.018150
C2111	C211	0.745600	0.275500	0.994440
C2121	C212	0.682700	0.301100	0.981750
C2131	C213	0.689700	0.350300	0.960020
C2141	C214	0.758500	0.373600	0.952300
C2151	C215	0.818600	0.345400	0.965490
C2161	C216	0.771700	0.428100	0.929510
C2171	C217	0.488600	0.737900	0.546710
C2181	C218	0.548600	0.711000	0.560400
C2191	C219	0.588200	0.655500	0.548250
C2201	C220	0.565000	0.628000	0.523020
C2211	C221	0.504300	0.657300	0.510440
C2221	C222	0.471900	0.629200	0.484760
C2231	C223	0.495600	0.567400	0.471540
C2241	C224	0.454000	0.541600	0.449570
C2251	C225	0.390700	0.577000	0.442090
C2261	C226	0.372600	0.640600	0.455560
C2271	C227	0.571200	0.744900	0.587450
C2281	C228	0.342800	0.549000	0.419410
C2291	C229	0.215200	0.410800	0.414690
C2301	C230	0.167700	0.343500	0.457150
C2311	C231	0.159300	0.396500	0.436990
C2321	C232	0.097300	0.439700	0.437840
C2331	C233	0.047300	0.431700	0.458910
C2341	C234	0.060700	0.379800	0.478820
C2351	C235	0.012300	0.366800	0.502390
C2361	C236	0.953000	0.409400	0.508380
C2371	C237	0.913600	0.397100	0.532450
C2381	C238	0.935000	0.341100	0.549700
C2391	C239	0.993000	0.297000	0.541700
C2401	C240	0.893800	0.330300	0.576290
C2411	C241	0.106400	0.686100	0.338740
C2421	C242	0.091000	0.773300	0.299880
C2431	C243	0.125500	0.711600	0.310220
C2441	C244	0.175200	0.676200	0.293380
C2451	C245	0.189700	0.704400	0.267590
C2461	C246	0.154300	0.767000	0.258790
C2471	C247	0.168300	0.802700	0.232080
C2481	C248	0.215700	0.773900	0.212700
C2491	C249	0.230600	0.812600	0.189180
C2501	C250	0.198500	0.879800	0.185460
C2511	C251	0.149100	0.903400	0.205030
C2521	C252	0.218400	0.926400	0.161140
C2531	C253	0.462800	0.803100	0.169400
C2541	C254	0.491100	0.722300	0.209620
C2551	C255	0.450400	0.778500	0.198900
C2561	C256	0.399500	0.810700	0.216050
C2571	C257	0.389700	0.784100	0.242560
C2581	C258	0.429900	0.724900	0.251260
C2591	C259	0.418000	0.688800	0.278190
C2601	C260	0.367700	0.713500	0.297200
C2611	C261	0.352300	0.670600	0.319920
C2621	C262	0.388000	0.605400	0.323160
C2631	C263	0.442100	0.586400	0.304160
C2641	C264	0.364800	0.552500	0.344980
C2651	C265	0.206100	0.018600	0.338450
C2661	C266	0.132400	0.968400	0.299810
C2671	C267	0.154600	0.028300	0.314920
C2681	C268	0.131800	0.095400	0.306340
C2691	C269	0.089800	0.101300	0.282790
C2701	C270	0.070700	0.039600	0.268540
C2711	C271	0.027900	0.040600	0.242740
C2721	C272	0.011300	0.102600	0.227740
C2731	C273	0.972800	0.097300	0.203330
C2741	C274	0.951600	0.029700	0.194370
C2751	C275	0.968600	0.970100	0.210250
C2761	C276	0.910500	0.017600	0.167950
C2771	C277	0.285500	0.898500	0.410040
C2781	C278	0.326600	0.827900	0.450690
C2791	C279	0.268200	0.854800	0.435260
C2801	C280	0.198900	0.842000	0.444360
C2811	C281	0.188000	0.801000	0.467960
C2821	C282	0.247900	0.774400	0.481850
C2831	C283	0.245600	0.724500	0.505560
C2841	C284	0.182700	0.698900	0.518250
C2851	C285	0.189700	0.649700	0.539980
C2861	C286	0.258500	0.626400	0.547700
C2871	C287	0.318600	0.654600	0.534510
C2881	C288	0.271700	0.571900	0.570490
C2891	C289	0.488600	0.237900	0.953290
C2901	C290	0.548600	0.211000	0.939600
C2911	C291	0.588200	0.155500	0.951750
C2921	C292	0.565000	0.128000	0.976980
C2931	C293	0.504300	0.157300	0.989560
C2941	C294	0.471900	0.129200	0.015240
C2951	C295	0.495600	0.067400	0.028460
C2961	C296	0.454000	0.041600	0.050430
C2971	C297	0.390700	0.077000	0.057910
C2981	C298	0.372600	0.140600	0.044440
C2991	C299	0.571200	0.244900	0.912550
C3001	C300	0.342800	0.049000	0.080590
C3011	C301	0.215200	0.910800	0.085310
C3021	C302	0.167700	0.843500	0.042850
C3031	C303	0.159300	0.896500	0.063010
C3041	C304	0.097300	0.939700	0.062160
C3051	C305	0.047300	0.931700	0.041090
C3061	C306	0.060700	0.879800	0.021180
C3071	C307	0.012300	0.866800	0.997610
C3081	C308	0.953000	0.909400	0.991620
C3091	C309	0.913600	0.897100	0.967550
C3101	C310	0.935000	0.841100	0.950300
C3111	C311	0.993000	0.797000	0.958300
C3121	C312	0.893800	0.830300	0.923710
C3131	C313	0.106400	0.186100	0.161260
C3141	C314	0.091000	0.273300	0.200120
C3151	C315	0.125500	0.211600	0.189780
C3161	C316	0.175200	0.176200	0.206620
C3171	C317	0.189700	0.204400	0.232410
C3181	C318	0.154300	0.267000	0.241210
C3191	C319	0.168300	0.302700	0.267920
C3201	C320	0.215700	0.273900	0.287300
C3211	C321	0.230600	0.312600	0.310820
C3221	C322	0.198500	0.379800	0.314540
C3231	C323	0.149100	0.403400	0.294970
C3241	C324	0.218400	0.426400	0.338860
C3251	C325	0.462800	0.303100	0.330600
C3261	C326	0.491100	0.222300	0.290380
C3271	C327	0.450400	0.278500	0.301100
C3281	C328	0.399500	0.310700	0.283950
C3291	C329	0.389700	0.284100	0.257440
C3301	C330	0.429900	0.224900	0.248740
C3311	C331	0.418000	0.188800	0.221810
C3321	C332	0.367700	0.213500	0.202800
C3331	C333	0.352300	0.170600	0.180080
C3341	C334	0.388000	0.105400	0.176840
C3351	C335	0.442100	0.086400	0.195840
C3361	C336	0.364800	0.052500	0.155020
C3371	C337	0.206100	0.518600	0.161550
C3381	C338	0.132400	0.468400	0.200190
C3391	C339	0.154600	0.528300	0.185080
C3401	C340	0.131800	0.595400	0.193660
C3411	C341	0.089800	0.601300	0.217210
C3421	C342	0.070700	0.539600	0.231460
C3431	C343	0.027900	0.540600	0.257260
C3441	C344	0.011300	0.602600	0.272260
C3451	C345	0.972800	0.597300	0.296670
C3461	C346	0.951600	0.529700	0.305630
C3471	C347	0.968600	0.470100	0.289750
C3481	C348	0.910500	0.517600	0.332050
C3491	C349	0.285500	0.398500	0.089960
C3501	C350	0.326600	0.327900	0.049310
C3511	C351	0.268200	0.354800	0.064740
C3521	C352	0.198900	0.342000	0.055640
C3531	C353	0.188000	0.301000	0.032040
C3541	C354	0.247900	0.274400	0.018150
C3551	C355	0.245600	0.224500	0.994440
C3561	C356	0.182700	0.198900	0.981750
C3571	C357	0.189700	0.149700	0.960020
C3581	C358	0.258500	0.126400	0.952300
C3591	C359	0.318600	0.154600	0.965490
C3601	C360	0.271700	0.071900	0.929510
C3611	C361	0.988600	0.762100	0.546710
C3621	C362	0.048600	0.789000	0.560400
C3631	C363	0.088200	0.844500	0.548250
C3641	C364	0.065000	0.872000	0.523020
C3651	C365	0.004300	0.842700	0.510440
C3661	C366	0.971900	0.870800	0.484760
C3671	C367	0.995600	0.932600	0.471540
C3681	C368	0.954000	0.958400	0.449570
C3691	C369	0.890700	0.923000	0.442090
C3701	C370	0.872600	0.859400	0.455560
C3711	C371	0.071200	0.755100	0.587450
C3721	C372	0.842800	0.951000	0.419410
C3731	C373	0.715200	0.089200	0.414690
C3741	C374	0.667700	0.156500	0.457150
C3751	C375	0.659300	0.103500	0.436990
C3761	C376	0.597300	0.060300	0.437840
C3771	C377	0.547300	0.068300	0.458910
C3781	C378	0.560700	0.120200	0.478820
C3791	C379	0.512300	0.133200	0.502390
C3801	C380	0.453000	0.090600	0.508380
C3811	C381	0.413600	0.102900	0.532450
C3821	C382	0.435000	0.158900	0.549700
C3831	C383	0.493000	0.203000	0.541700
C3841	C384	0.393800	0.169700	0.576290
C3851	C385	0.606400	0.813900	0.338740
C3861	C386	0.591000	0.726700	0.299880
C3871	C387	0.625500	0.788400	0.310220
C3881	C388	0.675200	0.823800	0.293380
C3891	C389	0.689700	0.795600	0.267590
C3901	C390	0.654300	0.733000	0.258790
C3911	C391	0.668300	0.697300	0.232080
C3921	C392	0.715700	0.726100	0.212700
C3931	C393	0.730600	0.687400	0.189180
C3941	C394	0.698500	0.620200	0.185460
C3951	C395	0.649100	0.596600	0.205030
C3961	C396	0.718400	0.573600	0.161140
C3971	C397	0.962800	0.696900	0.169400
C3981	C398	0.991100	0.777700	0.209620
C3991	C399	0.950400	0.721500	0.198900
C4001	C400	0.899500	0.689300	0.216050
C4011	C401	0.889700	0.715900	0.242560
C4021	C402	0.929900	0.775100	0.251260
C4031	C403	0.918000	0.811200	0.278190
C4041	C404	0.867700	0.786500	0.297200
C4051	C405	0.852300	0.829400	0.319920
C4061	C406	0.888000	0.894600	0.323160
C4071	C407	0.942100	0.913600	0.304160
C4081	C408	0.864800	0.947500	0.344980
C4091	C409	0.706100	0.481400	0.338450
C4101	C410	0.632400	0.531600	0.299810
C4111	C411	0.654600	0.471700	0.314920
C4121	C412	0.631800	0.404600	0.306340
C4131	C413	0.589800	0.398700	0.282790
C4141	C414	0.570700	0.460400	0.268540
C4151	C415	0.527900	0.459400	0.242740
C4161	C416	0.511300	0.397400	0.227740
C4171	C417	0.472800	0.402700	0.203330
C4181	C418	0.451600	0.470300	0.194370
C4191	C419	0.468600	0.529900	0.210250
C4201	C420	0.410500	0.482400	0.167950
C4211	C421	0.785500	0.601500	0.410040
C4221	C422	0.826600	0.672100	0.450690
C4231	C423	0.768200	0.645200	0.435260
C4241	C424	0.698900	0.658000	0.444360
C4251	C425	0.688000	0.699000	0.467960
C4261	C426	0.747900	0.725600	0.481850
C4271	C427	0.745600	0.775500	0.505560
C4281	C428	0.682700	0.801100	0.518250
C4291	C429	0.689700	0.850300	0.539980
C4301	C430	0.758500	0.873600	0.547700
C4311	C431	0.818600	0.845400	0.534510
C4321	C432	0.771700	0.928100	0.570490
C4331	C433	0.011400	0.737900	0.046710
C4341	C434	0.951400	0.711000	0.060400
C4351	C435	0.911800	0.655500	0.048250
C4361	C436	0.935000	0.628000	0.023020
C4371	C437	0.995700	0.657300	0.010440
C4381	C438	0.028100	0.629200	0.984760
C4391	C439	0.004400	0.567400	0.971540
C4401	C440	0.046000	0.541600	0.949570
C4411	C441	0.109300	0.577000	0.942090
C4421	C442	0.127400	0.640600	0.955560
C4431	C443	0.928800	0.744900	0.087450
C4441	C444	0.157200	0.549000	0.919410
C4451	C445	0.284800	0.410800	0.914690
C4461	C446	0.332300	0.343500	0.957150
C4471	C447	0.340700	0.396500	0.936990
C4481	C448	0.402700	0.439700	0.937840
C4491	C449	0.452700	0.431700	0.958910
C4501	C450	0.439300	0.379800	0.978820
C4511	C451	0.487700	0.366800	0.002390
C4521	C452	0.547000	0.409400	0.008380
C4531	C453	0.586400	0.397100	0.032450
C4541	C454	0.565000	0.341100	0.049700
C4551	C455	0.507000	0.297000	0.041700
C4561	C456	0.606200	0.330300	0.076290
C4571	C457	0.393600	0.686100	0.838740
C4581	C458	0.409000	0.773300	0.799880
C4591	C459	0.374500	0.711600	0.810220
C4601	C460	0.324800	0.676200	0.793380
C4611	C461	0.310300	0.704400	0.767590
C4621	C462	0.345700	0.767000	0.758790
C4631	C463	0.331700	0.802700	0.732080
C4641	C464	0.284300	0.773900	0.712700
C4651	C465	0.269400	0.812600	0.689180
C4661	C466	0.301500	0.879800	0.685460
C4671	C467	0.350900	0.903400	0.705030
C4681	C468	0.281600	0.926400	0.661140
C4691	C469	0.037200	0.803100	0.669400
C4701	C470	0.008900	0.722300	0.709620
C4711	C471	0.049600	0.778500	0.698900
C4721	C472	0.100500	0.810700	0.716050
C4731	C473	0.110300	0.784100	0.742560
C4741	C474	0.070100	0.724900	0.751260
C4751	C475	0.082000	0.688800	0.778190
C4761	C476	0.132300	0.713500	0.797200
C4771	C477	0.147700	0.670600	0.819920
C4781	C478	0.112000	0.605400	0.823160
C4791	C479	0.057900	0.586400	0.804160
C4801	C480	0.135200	0.552500	0.844980
C4811	C481	0.293900	0.018600	0.838450
C4821	C482	0.367600	0.968400	0.799810
C4831	C483	0.345400	0.028300	0.814920
C4841	C484	0.368200	0.095400	0.806340
C4851	C485	0.410200	0.101300	0.782790
C4861	C486	0.429300	0.039600	0.768540
C4871	C487	0.472100	0.040600	0.742740
C4881	C488	0.488700	0.102600	0.727740
C4891	C489	0.527200	0.097300	0.703330
C4901	C490	0.548400	0.029700	0.694370
C4911	C491	0.531400	0.970100	0.710250
C4921	C492	0.589500	0.017600	0.667950
C4931	C493	0.214500	0.898500	0.910040
C4941	C494	0.173400	0.827900	0.950690
C4951	C495	0.231800	0.854800	0.935260
C4961	C496	0.301100	0.842000	0.944360
C4971	C497	0.312000	0.801000	0.967960
C4981	C498	0.252100	0.774400	0.981850
C4991	C499	0.254400	0.724500	0.005560
C5001	C500	0.317300	0.698900	0.018250
C5011	C501	0.310300	0.649700	0.039980
C5021	C502	0.241500	0.626400	0.047700
C5031	C503	0.181400	0.654600	0.034510
C5041	C504	0.228300	0.571900	0.070490
C5051	C505	0.511400	0.262100	0.453290
C5061	C506	0.451400	0.289000	0.439600
C5071	C507	0.411800	0.344500	0.451750
C5081	C508	0.435000	0.372000	0.476980
C5091	C509	0.495700	0.342700	0.489560
C5101	C510	0.528100	0.370800	0.515240
C5111	C511	0.504400	0.432600	0.528460
C5121	C512	0.546000	0.458400	0.550430
C5131	C513	0.609300	0.423000	0.557910
C5141	C514	0.627400	0.359400	0.544440
C5151	C515	0.428800	0.255100	0.412550
C5161	C516	0.657200	0.451000	0.580590
C5171	C517	0.784800	0.589200	0.585310
C5181	C518	0.832300	0.656500	0.542850
C5191	C519	0.840700	0.603500	0.563010
C5201	C520	0.902700	0.560300	0.562160
C5211	C521	0.952700	0.568300	0.541090
C5221	C522	0.939300	0.620200	0.521180
C5231	C523	0.987700	0.633200	0.497610
C5241	C524	0.047000	0.590600	0.491620
C5251	C525	0.086400	0.602900	0.467550
C5261	C526	0.065000	0.658900	0.450300
C5271	C527	0.007000	0.703000	0.458300
C5281	C528	0.106200	0.669700	0.423710
C5291	C529	0.893600	0.313900	0.661260
C5301	C530	0.909000	0.226700	0.700120
C5311	C531	0.874500	0.288400	0.689780
C5321	C532	0.824800	0.323800	0.706620
C5331	C533	0.810300	0.295600	0.732410
C5341	C534	0.845700	0.233000	0.741210
C5351	C535	0.831700	0.197300	0.767920
C5361	C536	0.784300	0.226100	0.787300
C5371	C537	0.769400	0.187400	0.810820
C5381	C538	0.801500	0.120200	0.814540
C5391	C539	0.850900	0.096600	0.794970
C5401	C540	0.781600	0.073600	0.838860
C5411	C541	0.537200	0.196900	0.830600
C5421	C542	0.508900	0.277700	0.790380
C5431	C543	0.549600	0.221500	0.801100
C5441	C544	0.600500	0.189300	0.783950
C5451	C545	0.610300	0.215900	0.757440
C5461	C546	0.570100	0.275100	0.748740
C5471	C547	0.582000	0.311200	0.721810
C5481	C548	0.632300	0.286500	0.702800
C5491	C549	0.647700	0.329400	0.680080
C5501	C550	0.612000	0.394600	0.676840
C5511	C551	0.557900	0.413600	0.695840
C5521	C552	0.635200	0.447500	0.655020
C5531	C553	0.793900	0.981400	0.661550
C5541	C554	0.867600	0.031600	0.700190
C5551	C555	0.845400	0.971700	0.685080
C5561	C556	0.868200	0.904600	0.693660
C5571	C557	0.910200	0.898700	0.717210
C5581	C558	0.929300	0.960400	0.731460
C5591	C559	0.972100	0.959400	0.757260
C5601	C560	0.988700	0.897400	0.772260
C5611	C561	0.027200	0.902700	0.796670
C5621	C562	0.048400	0.970300	0.805630
C5631	C563	0.031400	0.029900	0.789750
C5641	C564	0.089500	0.982400	0.832050
C5651	C565	0.714500	0.101500	0.589960
C5661	C566	0.673400	0.172100	0.549310
C5671	C567	0.731800	0.145200	0.564740
C5681	C568	0.801100	0.158000	0.555640
C5691	C569	0.812000	0.199000	0.532040
C5701	C570	0.752100	0.225600	0.518150
C5711	C571	0.754400	0.275500	0.494440
C5721	C572	0.817300	0.301100	0.481750
C5731	C573	0.810300	0.350300	0.460020
C5741	C574	0.741500	0.373600	0.452300
C5751	C575	0.681400	0.345400	0.465490
C5761	C576	0.728300	0.428100	0.429510
N11	N1	0.533200	0.787600	0.022080
N21	N2	0.587400	0.833200	0.976260
N31	N3	0.881000	0.165300	0.977460
N41	N4	0.969400	0.190000	0.018590
N51	N5	0.866300	0.633900	0.727930
N61	N6	0.895800	0.700100	0.774950
N71	N7	0.517900	0.804200	0.735070
N81	N8	0.542600	0.872400	0.782400
N91	N9	0.993500	0.525400	0.733600
N101	N10	0.909700	0.526800	0.777310
N111	N11	0.683400	0.711100	0.973270
N121	N12	0.687200	0.796600	0.014500
N131	N13	0.033200	0.212400	0.477920
N141	N14	0.087400	0.166800	0.523740
N151	N15	0.381000	0.834700	0.522540
N161	N16	0.469400	0.810000	0.481410
N171	N17	0.366300	0.366100	0.772070
N181	N18	0.395800	0.299900	0.725050
N191	N19	0.017900	0.195800	0.764930
N201	N20	0.042600	0.127600	0.717600
N211	N21	0.493500	0.474600	0.766400
N221	N22	0.409700	0.473200	0.722690
N231	N23	0.183400	0.288900	0.526730
N241	N24	0.187200	0.203400	0.485500
N251	N25	0.966800	0.287600	0.977920
N261	N26	0.912600	0.333200	0.023740
N271	N27	0.619000	0.665300	0.022540
N281	N28	0.530600	0.690000	0.981410
N291	N29	0.633700	0.133900	0.272070
N301	N30	0.604200	0.200100	0.225050
N311	N31	0.982100	0.304200	0.264930
N321	N32	0.957400	0.372400	0.217600
N331	N33	0.506500	0.025400	0.266400
N341	N34	0.590300	0.026800	0.222690
N351	N35	0.816600	0.211100	0.026730
N361	N36	0.812800	0.296600	0.985500
N371	N37	0.466800	0.712400	0.522080
N381	N38	0.412600	0.666800	0.476260
N391	N39	0.119000	0.334700	0.477460
N401	N40	0.030600	0.310000	0.518590
N411	N41	0.133700	0.866100	0.227930
N421	N42	0.104200	0.799900	0.274950
N431	N43	0.482100	0.695800	0.235070
N441	N44	0.457400	0.627600	0.282400
N451	N45	0.006500	0.974600	0.233600
N461	N46	0.090300	0.973200	0.277310
N471	N47	0.316600	0.788900	0.473270
N481	N48	0.312800	0.703400	0.514500
N491	N49	0.466800	0.212400	0.977920
N501	N50	0.412600	0.166800	0.023740
N511	N51	0.119000	0.834700	0.022540
N521	N52	0.030600	0.810000	0.981410
N531	N53	0.133700	0.366100	0.272070
N541	N54	0.104200	0.299900	0.225050
N551	N55	0.482100	0.195800	0.264930
N561	N56	0.457400	0.127600	0.217600
N571	N57	0.006500	0.474600	0.266400
N581	N58	0.090300	0.473200	0.222690
N591	N59	0.316600	0.288900	0.026730
N601	N60	0.312800	0.203400	0.985500
N611	N61	0.966800	0.787600	0.522080
N621	N62	0.912600	0.833200	0.476260
N631	N63	0.619000	0.165300	0.477460
N641	N64	0.530600	0.190000	0.518590
N651	N65	0.633700	0.633900	0.227930
N661	N66	0.604200	0.700100	0.274950
N671	N67	0.982100	0.804200	0.235070
N681	N68	0.957400	0.872400	0.282400
N691	N69	0.506500	0.525400	0.233600
N701	N70	0.590300	0.526800	0.277310
N711	N71	0.816600	0.711100	0.473270
N721	N72	0.812800	0.796600	0.514500
N731	N73	0.033200	0.712400	0.022080
N741	N74	0.087400	0.666800	0.976260
N751	N75	0.381000	0.334700	0.977460
N761	N76	0.469400	0.310000	0.018590
N771	N77	0.366300	0.866100	0.727930
N781	N78	0.395800	0.799900	0.774950
N791	N79	0.017900	0.695800	0.735070
N801	N80	0.042600	0.627600	0.782400
N811	N81	0.493500	0.974600	0.733600
N821	N82	0.409700	0.973200	0.777310
N831	N83	0.183400	0.788900	0.973270
N841	N84	0.187200	0.703400	0.014500
N851	N85	0.533200	0.287600	0.477920
N861	N86	0.587400	0.333200	0.523740
N871	N87	0.881000	0.665300	0.522540
N881	N88	0.969400	0.690000	0.481410
N891	N89	0.866300	0.133900	0.772070
N901	N90	0.895800	0.200100	0.725050
N911	N91	0.517900	0.304200	0.764930
N921	N92	0.542600	0.372400	0.717600
N931	N93	0.993500	0.025400	0.766400
N941	N94	0.909700	0.026800	0.722690
N951	N95	0.683400	0.211100	0.526730
N961	N96	0.687200	0.296600	0.485500
O11	O1	0.390900	0.792900	0.103490
O21	O2	0.447900	0.691700	0.091210
O31	O3	0.636500	0.009500	0.908320
O41	O4	0.712300	0.915200	0.913940
O51	O5	0.731800	0.131700	0.911470
O61	O6	0.796900	0.033700	0.900800
O71	O7	0.114400	0.231800	0.085380
O81	O8	0.131600	0.112100	0.086570
O91	O9	0.868600	0.874200	0.845860
O101	O10	0.933500	0.774600	0.852840
O111	O11	0.816400	0.516500	0.657220
O121	O12	0.729600	0.596300	0.646860
O131	O13	0.694300	0.931700	0.857120
O141	O14	0.597500	0.002300	0.849480
O151	O15	0.583700	0.655900	0.659530
O161	O16	0.483000	0.723600	0.657390
O171	O17	0.793800	0.437400	0.858140
O181	O18	0.748200	0.531900	0.837340
O191	O19	0.112900	0.545700	0.663310
O201	O20	0.099800	0.432700	0.651150
O211	O21	0.764300	0.584700	0.893540
O221	O22	0.649700	0.581300	0.906540
O231	O23	0.784900	0.947200	0.083090
O241	O24	0.664600	0.947200	0.074390
O251	O25	0.768000	0.805100	0.879470
O261	O26	0.565900	0.456700	0.896350
O271	O27	0.671300	0.357700	0.872800
O281	O28	0.488200	0.914500	0.107780
O291	O29	0.934600	0.985600	0.875620
O301	O30	0.890900	0.207100	0.396510
O311	O31	0.947900	0.308300	0.408790
O321	O32	0.136500	0.990500	0.591680
O331	O33	0.212300	0.084800	0.586060
O341	O34	0.231800	0.868300	0.588530
O351	O35	0.296900	0.966300	0.599200
O361	O36	0.614400	0.768200	0.414620
O371	O37	0.631600	0.887900	0.413430
O381	O38	0.368600	0.125800	0.654140
O391	O39	0.433500	0.225400	0.647160
O401	O40	0.316400	0.483500	0.842780
O411	O41	0.229600	0.403700	0.853140
O421	O42	0.194300	0.068300	0.642880
O431	O43	0.097500	0.997700	0.650520
O441	O44	0.083700	0.344100	0.840470
O451	O45	0.983000	0.276400	0.842610
O461	O46	0.293800	0.562600	0.641860
O471	O47	0.248200	0.468100	0.662660
O481	O48	0.612900	0.454300	0.836690
O491	O49	0.599800	0.567300	0.848850
O501	O50	0.264300	0.415300	0.606460
O511	O51	0.149700	0.418700	0.593460
O521	O52	0.284900	0.052800	0.416910
O531	O53	0.164600	0.052800	0.425610
O541	O54	0.268000	0.194900	0.620530
O551	O55	0.065900	0.543300	0.603650
O561	O56	0.171300	0.642300	0.627200
O571	O57	0.988200	0.085500	0.392220
O581	O58	0.434600	0.014400	0.624380
O591	O59	0.109100	0.292900	0.896510
O601	O60	0.052100	0.191700	0.908790
O611	O61	0.863500	0.509500	0.091680
O621	O62	0.787700	0.415200	0.086060
O631	O63	0.768200	0.631700	0.088530
O641	O64	0.703100	0.533700	0.099200
O651	O65	0.385600	0.731800	0.914620
O661	O66	0.368400	0.612100	0.913430
O671	O67	0.631400	0.374200	0.154140
O681	O68	0.566500	0.274600	0.147160
O691	O69	0.683600	0.016500	0.342780
O701	O70	0.770400	0.096300	0.353140
O711	O71	0.805700	0.431700	0.142880
O721	O72	0.902500	0.502300	0.150520
O731	O73	0.916300	0.155900	0.340470
O741	O74	0.017000	0.223600	0.342610
O751	O75	0.706200	0.937400	0.141860
O761	O76	0.751800	0.031900	0.162660
O771	O77	0.387100	0.045700	0.336690
O781	O78	0.400200	0.932700	0.348850
O791	O79	0.735700	0.084700	0.106460
O801	O80	0.850300	0.081300	0.093460
O811	O81	0.715100	0.447200	0.916910
O821	O82	0.835400	0.447200	0.925610
O831	O83	0.732000	0.305100	0.120530
O841	O84	0.934100	0.956700	0.103650
O851	O85	0.828700	0.857700	0.127200
O861	O86	0.011800	0.414500	0.892220
O871	O87	0.565400	0.485600	0.124380
O881	O88	0.609100	0.707100	0.603490
O891	O89	0.552100	0.808300	0.591210
O901	O90	0.363500	0.490500	0.408320
O911	O91	0.287700	0.584800	0.413940
O921	O92	0.268200	0.368300	0.411470
O931	O93	0.203100	0.466300	0.400800
O941	O94	0.885600	0.268200	0.585380
O951	O95	0.868400	0.387900	0.586570
O961	O96	0.131400	0.625800	0.345860
O971	O97	0.066500	0.725400	0.352840
O981	O98	0.183600	0.983500	0.157220
O991	O99	0.270400	0.903700	0.146860
O1001	O100	0.305700	0.568300	0.357120
O1011	O101	0.402500	0.497700	0.349480
O1021	O102	0.416300	0.844100	0.159530
O1031	O103	0.517000	0.776400	0.157390
O1041	O104	0.206200	0.062600	0.358140
O1051	O105	0.251800	0.968100	0.337340
O1061	O106	0.887100	0.954300	0.163310
O1071	O107	0.900200	0.067300	0.151150
O1081	O108	0.235700	0.915300	0.393540
O1091	O109	0.350300	0.918700	0.406540
O1101	O110	0.215100	0.552800	0.583090
O1111	O111	0.335400	0.552800	0.574390
O1121	O112	0.232000	0.694900	0.379470
O1131	O113	0.434100	0.043300	0.396350
O1141	O114	0.328700	0.142300	0.372800
O1151	O115	0.511800	0.585500	0.607780
O1161	O116	0.065400	0.514400	0.375620
O1171	O117	0.609100	0.207100	0.896510
O1181	O118	0.552100	0.308300	0.908790
O1191	O119	0.363500	0.990500	0.091680
O1201	O120	0.287700	0.084800	0.086060
O1211	O121	0.268200	0.868300	0.088530
O1221	O122	0.203100	0.966300	0.099200
O1231	O123	0.885600	0.768200	0.914620
O1241	O124	0.868400	0.887900	0.913430
O1251	O125	0.131400	0.125800	0.154140
O1261	O126	0.066500	0.225400	0.147160
O1271	O127	0.183600	0.483500	0.342780
O1281	O128	0.270400	0.403700	0.353140
O1291	O129	0.305700	0.068300	0.142880
O1301	O130	0.402500	0.997700	0.150520
O1311	O131	0.416300	0.344100	0.340470
O1321	O132	0.517000	0.276400	0.342610
O1331	O133	0.206200	0.562600	0.141860
O1341	O134	0.251800	0.468100	0.162660
O1351	O135	0.887100	0.454300	0.336690
O1361	O136	0.900200	0.567300	0.348850
O1371	O137	0.235700	0.415300	0.106460
O1381	O138	0.350300	0.418700	0.093460
O1391	O139	0.215100	0.052800	0.916910
O1401	O140	0.335400	0.052800	0.925610
O1411	O141	0.232000	0.194900	0.120530
O1421	O142	0.434100	0.543300	0.103650
O1431	O143	0.328700	0.642300	0.127200
O1441	O144	0.511800	0.085500	0.892220
O1451	O145	0.065400	0.014400	0.124380
O1461	O146	0.109100	0.792900	0.603490
O1471	O147	0.052100	0.691700	0.591210
O1481	O148	0.863500	0.009500	0.408320
O1491	O149	0.787700	0.915200	0.413940
O1501	O150	0.768200	0.131700	0.411470
O1511	O151	0.703100	0.033700	0.400800
O1521	O152	0.385600	0.231800	0.585380
O1531	O153	0.368400	0.112100	0.586570
O1541	O154	0.631400	0.874200	0.345860
O1551	O155	0.566500	0.774600	0.352840
O1561	O156	0.683600	0.516500	0.157220
O1571	O157	0.770400	0.596300	0.146860
O1581	O158	0.805700	0.931700	0.357120
O1591	O159	0.902500	0.002300	0.349480
O1601	O160	0.916300	0.655900	0.159530
O1611	O161	0.017000	0.723600	0.157390
O1621	O162	0.706200	0.437400	0.358140
O1631	O163	0.751800	0.531900	0.337340
O1641	O164	0.387100	0.545700	0.163310
O1651	O165	0.400200	0.432700	0.151150
O1661	O166	0.735700	0.584700	0.393540
O1671	O167	0.850300	0.581300	0.406540
O1681	O168	0.715100	0.947200	0.583090
O1691	O169	0.835400	0.947200	0.574390
O1701	O170	0.732000	0.805100	0.379470
O1711	O171	0.934100	0.456700	0.396350
O1721	O172	0.828700	0.357700	0.372800
O1731	O173	0.011800	0.914500	0.607780
O1741	O174	0.565400	0.985600	0.375620
O1751	O175	0.890900	0.707100	0.103490
O1761	O176	0.947900	0.808300	0.091210
O1771	O177	0.136500	0.490500	0.908320
O1781	O178	0.212300	0.584800	0.913940
O1791	O179	0.231800	0.368300	0.911470
O1801	O180	0.296900	0.466300	0.900800
O1811	O181	0.614400	0.268200	0.085380
O1821	O182	0.631600	0.387900	0.086570
O1831	O183	0.368600	0.625800	0.845860
O1841	O184	0.433500	0.725400	0.852840
O1851	O185	0.316400	0.983500	0.657220
O1861	O186	0.229600	0.903700	0.646860
O1871	O187	0.194300	0.568300	0.857120
O1881	O188	0.097500	0.497700	0.849480
O1891	O189	0.083700	0.844100	0.659530
O1901	O190	0.983000	0.776400	0.657390
O1911	O191	0.293800	0.062600	0.858140
O1921	O192	0.248200	0.968100	0.837340
O1931	O193	0.612900	0.954300	0.663310
O1941	O194	0.599800	0.067300	0.651150
O1951	O195	0.264300	0.915300	0.893540
O1961	O196	0.149700	0.918700	0.906540
O1971	O197	0.284900	0.552800	0.083090
O1981	O198	0.164600	0.552800	0.074390
O1991	O199	0.268000	0.694900	0.879470
O2001	O200	0.065900	0.043300	0.896350
O2011	O201	0.171300	0.142300	0.872800
O2021	O202	0.988200	0.585500	0.107780
O2031	O203	0.434600	0.514400	0.875620
O2041	O204	0.390900	0.292900	0.396510
O2051	O205	0.447900	0.191700	0.408790
O2061	O206	0.636500	0.509500	0.591680
O2071	O207	0.712300	0.415200	0.586060
O2081	O208	0.731800	0.631700	0.588530
O2091	O209	0.796900	0.533700	0.599200
O2101	O210	0.114400	0.731800	0.414620
O2111	O211	0.131600	0.612100	0.413430
O2121	O212	0.868600	0.374200	0.654140
O2131	O213	0.933500	0.274600	0.647160
O2141	O214	0.816400	0.016500	0.842780
O2151	O215	0.729600	0.096300	0.853140
O2161	O216	0.694300	0.431700	0.642880
O2171	O217	0.597500	0.502300	0.650520
O2181	O218	0.583700	0.155900	0.840470
O2191	O219	0.483000	0.223600	0.842610
O2201	O220	0.793800	0.937400	0.641860
O2211	O221	0.748200	0.031900	0.662660
O2221	O222	0.112900	0.045700	0.836690
O2231	O223	0.099800	0.932700	0.848850
O2241	O224	0.764300	0.084700	0.606460
O2251	O225	0.649700	0.081300	0.593460
O2261	O226	0.784900	0.447200	0.416910
O2271	O227	0.664600	0.447200	0.425610
O2281	O228	0.768000	0.305100	0.620530
O2291	O229	0.565900	0.956700	0.603650
O2301	O230	0.671300	0.857700	0.627200
O2311	O231	0.488200	0.414500	0.392220
O2321	O232	0.934600	0.485600	0.624380
Cl11	Cl1	0.704910	0.991720	0.761400
O2331	O233	0.761160	0.014930	0.743760
O2341	O234	0.640110	0.033810	0.759600
O2351	O235	0.680280	0.920290	0.749370
O2361	O236	0.725580	0.975440	0.788830
Cl21	Cl2	0.225040	0.494470	0.992220
O2371	O237	0.253900	0.563700	0.985170
O2381	O238	0.209600	0.453800	0.967490
O2391	O239	0.276700	0.454800	0.007820
O2401	O240	0.159100	0.504000	0.007230
Cl31	Cl3	0.204910	0.008280	0.738600
O2411	O241	0.261160	0.985070	0.756240
O2421	O242	0.140110	0.966190	0.740400
O2431	O243	0.180280	0.079710	0.750630
O2441	O244	0.225580	0.024560	0.711170
Cl41	Cl4	0.725040	0.505530	0.507780
O2451	O245	0.753900	0.436300	0.514830
O2461	O246	0.709600	0.546200	0.532510
O2471	O247	0.776700	0.545200	0.492180
O2481	O248	0.659100	0.496000	0.492770
Cl51	Cl5	0.795090	0.491720	0.238600
O2491	O249	0.738840	0.514930	0.256240
O2501	O250	0.859890	0.533810	0.240400
O2511	O251	0.819720	0.420290	0.250630
O2521	O252	0.774420	0.475440	0.211170
Cl61	Cl6	0.274960	0.994470	0.007780
O2531	O253	0.246100	0.063700	0.014830
O2541	O254	0.290400	0.953800	0.032510
O2551	O255	0.223300	0.954800	0.992180
O2561	O256	0.340900	0.004000	0.992770
Cl71	Cl7	0.295090	0.508280	0.261400
O2571	O257	0.238840	0.485070	0.243760
O2581	O258	0.359890	0.466190	0.259600
O2591	O259	0.319720	0.579710	0.249370
O2601	O260	0.274420	0.524560	0.288830
Cl81	Cl8	0.774960	0.005530	0.492220
O2611	O261	0.746100	0.936300	0.485170
O2621	O262	0.790400	0.046200	0.467490
O2631	O263	0.723300	0.045200	0.507820
O2641	O264	0.840900	0.996000	0.507230
Cl91	Cl9	0.295090	0.008280	0.238600
O2651	O265	0.238840	0.985070	0.256240
O2661	O266	0.359890	0.966190	0.240400
O2671	O267	0.319720	0.079710	0.250630
O2681	O268	0.274420	0.024560	0.211170
Cl101	Cl10	0.774960	0.505530	0.007780
O2691	O269	0.746100	0.436300	0.014830
O2701	O270	0.790400	0.546200	0.032510
O2711	O271	0.723300	0.545200	0.992180
O2721	O272	0.840900	0.496000	0.992770
Cl111	Cl11	0.795090	0.991720	0.261400
O2731	O273	0.738840	0.014930	0.243760
O2741	O274	0.859890	0.033810	0.259600
O2751	O275	0.819720	0.920290	0.249370
O2761	O276	0.774420	0.975440	0.288830
Cl121	Cl12	0.274960	0.494470	0.492220
O2771	O277	0.246100	0.563700	0.485170
O2781	O278	0.290400	0.453800	0.467490
O2791	O279	0.223300	0.454800	0.507820
O2801	O280	0.340900	0.504000	0.507230
Cl131	Cl13	0.204910	0.508280	0.761400
O2811	O281	0.261160	0.485070	0.743760
O2821	O282	0.140110	0.466190	0.759600
O2831	O283	0.180280	0.579710	0.749370
O2841	O284	0.225580	0.524560	0.788830
Cl141	Cl14	0.725040	0.005530	0.992220
O2851	O285	0.753900	0.936300	0.985170
O2861	O286	0.709600	0.046200	0.967490
O2871	O287	0.776700	0.045200	0.007820
O2881	O288	0.659100	0.996000	0.007230
Cl151	Cl15	0.704910	0.491720	0.738600
O2891	O289	0.761160	0.514930	0.756240
O2901	O290	0.640110	0.533810	0.740400
O2911	O291	0.680280	0.420290	0.750630
O2921	O292	0.725580	0.475440	0.711170
Cl161	Cl16	0.225040	0.994470	0.507780
O2931	O293	0.253900	0.063700	0.514830
O2941	O294	0.209600	0.953800	0.532510
O2951	O295	0.276700	0.954800	0.492180
O2961	O296	0.159100	0.004000	0.492770
