data_NIHBEM01_freeONLY_PM
_symmetry_space_group_name_H-M	'P1'
_cell_length_a	9.902300
_cell_length_b	11.339000
_cell_length_c	14.876600
_cell_angle_alpha	90.959400
_cell_angle_beta	90.000000
_cell_angle_gamma	90.000000
_symmetry_Int_Tables_number 1

loop_
_symmetry_equiv_pos_as_xyz
'x,y,z'

loop_
_atom_site_label
_atom_site_type_symbol
_atom_site_fract_x
_atom_site_fract_y
_atom_site_fract_z
Fe11	Fe1	0.920690	0.754840	0.133630
Fe21	Fe2	0.889230	0.262000	0.690970
Fe31	Fe3	0.420690	0.745160	0.366370
Fe41	Fe4	0.389230	0.238000	0.809030
Fe51	Fe5	0.079310	0.245160	0.866370
Fe61	Fe6	0.110770	0.738000	0.309030
Fe71	Fe7	0.579310	0.254840	0.633630
Fe81	Fe8	0.610770	0.762000	0.190970
Fe91	Fe9	0.000000	0.500000	0.000000
Fe101	Fe10	0.500000	0.000000	0.500000
Fe111	Fe11	0.000000	0.000000	0.000000
Fe121	Fe12	0.500000	0.500000	0.500000
H11	H1	0.757000	0.865100	0.369100
H21	H2	0.036000	0.469000	0.267000
H31	H3	0.613000	0.552000	0.051000
H41	H4	0.214000	0.975000	0.217000
H51	H5	0.152000	0.695700	0.930700
H61	H6	0.709000	0.991000	0.011000
H71	H7	0.257000	0.634900	0.130900
H81	H8	0.536000	0.031000	0.233000
H91	H9	0.113000	0.948000	0.449000
H101	H10	0.714000	0.525000	0.283000
H111	H11	0.652000	0.804300	0.569300
H121	H12	0.209000	0.509000	0.489000
H131	H13	0.243000	0.134900	0.630900
H141	H14	0.964000	0.531000	0.733000
H151	H15	0.387000	0.448000	0.949000
H161	H16	0.786000	0.025000	0.783000
H171	H17	0.848000	0.304300	0.069300
H181	H18	0.291000	0.009000	0.989000
H191	H19	0.743000	0.365100	0.869100
H201	H20	0.464000	0.969000	0.767000
H211	H21	0.887000	0.052000	0.551000
H221	H22	0.286000	0.475000	0.717000
H231	H23	0.348000	0.195700	0.430700
H241	H24	0.791000	0.491000	0.511000
C11	C1	0.829500	0.831060	0.329760
C21	C2	0.021000	0.514600	0.209100
C31	C3	0.710600	0.571200	0.054900
C41	C4	0.137000	0.950300	0.181700
C51	C5	0.100800	0.743000	0.967400
C61	C6	0.720600	0.930920	0.054420
C71	C7	0.329500	0.668940	0.170240
C81	C8	0.521000	0.985400	0.290900
C91	C9	0.210600	0.928800	0.445100
C101	C10	0.637000	0.549700	0.318300
C111	C11	0.600800	0.757000	0.532600
C121	C12	0.220600	0.569080	0.445580
C131	C13	0.170500	0.168940	0.670240
C141	C14	0.979000	0.485400	0.790900
C151	C15	0.289400	0.428800	0.945100
C161	C16	0.863000	0.049700	0.818300
C171	C17	0.899200	0.257000	0.032600
C181	C18	0.279400	0.069080	0.945580
C191	C19	0.670500	0.331060	0.829760
C201	C20	0.479000	0.014600	0.709100
C211	C21	0.789400	0.071200	0.554900
C221	C22	0.363000	0.450300	0.681700
C231	C23	0.399200	0.243000	0.467400
C241	C24	0.779400	0.430920	0.554420
O11	O1	0.801660	0.810010	0.247410
O21	O2	0.940050	0.812830	0.366930
O31	O3	0.005650	0.624940	0.217140
O41	O4	0.010300	0.456380	0.137980
O51	O5	0.742270	0.651420	0.111920
O61	O6	0.789650	0.514600	0.006300
O71	O7	0.086180	0.849280	0.194080
O81	O8	0.111190	0.017530	0.120030
O91	O9	0.025860	0.686410	0.022610
O101	O10	0.110170	0.850030	0.961430
O111	O11	0.842970	0.897480	0.062560
O121	O12	0.622240	0.894270	0.097070
O131	O13	0.301660	0.689990	0.252590
O141	O14	0.440050	0.687170	0.133070
O151	O15	0.505650	0.875060	0.282860
O161	O16	0.510300	0.043620	0.362020
O171	O17	0.242270	0.848580	0.388080
O181	O18	0.289650	0.985400	0.493700
O191	O19	0.586180	0.650720	0.305920
O201	O20	0.611190	0.482470	0.379970
O211	O21	0.525860	0.813590	0.477390
O221	O22	0.610170	0.649970	0.538570
O231	O23	0.342970	0.602520	0.437440
O241	O24	0.122240	0.605730	0.402930
O251	O25	0.198340	0.189990	0.752590
O261	O26	0.059950	0.187170	0.633070
O271	O27	0.994350	0.375060	0.782860
O281	O28	0.989700	0.543620	0.862020
O291	O29	0.257730	0.348580	0.888080
O301	O30	0.210350	0.485400	0.993700
O311	O31	0.913820	0.150720	0.805920
O321	O32	0.888810	0.982470	0.879970
O331	O33	0.974140	0.313590	0.977390
O341	O34	0.889830	0.149970	0.038570
O351	O35	0.157030	0.102520	0.937440
O361	O36	0.377760	0.105730	0.902930
O371	O37	0.698340	0.310010	0.747410
O381	O38	0.559950	0.312830	0.866930
O391	O39	0.494350	0.124940	0.717140
O401	O40	0.489700	0.956380	0.637980
O411	O41	0.757730	0.151420	0.611920
O421	O42	0.710350	0.014600	0.506300
O431	O43	0.413820	0.349280	0.694080
O441	O44	0.388810	0.517530	0.620030
O451	O45	0.474140	0.186410	0.522610
O461	O46	0.389830	0.350030	0.461430
O471	O47	0.657030	0.397480	0.562560
O481	O48	0.877760	0.394270	0.597070
