data_NIHBAI_freeONLY_PM
_symmetry_space_group_name_H-M	'P1'
_cell_length_a	11.359400
_cell_length_b	9.817700
_cell_length_c	18.372400
_cell_angle_alpha	90.000000
_cell_angle_beta	126.931000
_cell_angle_gamma	90.000000
_symmetry_Int_Tables_number 1

loop_
_symmetry_equiv_pos_as_xyz
'x,y,z'

loop_
_atom_site_label
_atom_site_type_symbol
_atom_site_fract_x
_atom_site_fract_y
_atom_site_fract_z
Fe11	Fe1	0.377690	0.084950	0.133110
Fe21	Fe2	0.425850	0.102270	0.686920
O11	O1	0.434700	0.207200	0.245570
O21	O2	0.550700	0.070300	0.367660
O31	O3	0.592100	0.003200	0.220000
O41	O4	0.679400	0.003000	0.138660
O51	O5	0.454400	0.263000	0.106850
O61	O6	0.481300	0.211200	0.999070
O71	O7	0.346100	0.921300	0.196410
O81	O8	0.102200	0.898500	0.120940
O91	O9	0.337300	0.975400	0.023660
O101	O10	0.114900	0.890200	0.967610
O111	O11	0.158900	0.157800	0.059390
O121	O12	0.199600	0.381700	0.090780
C11	C1	0.494900	0.179800	0.328800
H11	H1	0.497000	0.250900	0.364600
C21	C2	0.695200	0.991100	0.211300
H21	H2	0.791300	0.971400	0.264600
C31	C3	0.473100	0.292900	0.046800
H31	H3	0.481400	0.386800	0.038100
C41	C4	0.232600	0.874300	0.186400
H41	H4	0.248700	0.815700	0.232700
C51	C5	0.225100	0.897600	0.970100
H51	H5	0.228300	0.841300	0.929300
C61	C6	0.116800	0.283100	0.049500
H61	H6	0.014400	0.301100	0.007300
Fe31	Fe3	0.622310	0.584950	0.366890
Fe41	Fe4	0.574150	0.602270	0.813080
O131	O13	0.565300	0.707200	0.254430
O141	O14	0.449300	0.570300	0.132340
O151	O15	0.407900	0.503200	0.280000
O161	O16	0.320600	0.503000	0.361340
O171	O17	0.545600	0.763000	0.393150
O181	O18	0.518700	0.711200	0.500930
O191	O19	0.653900	0.421300	0.303590
O201	O20	0.897800	0.398500	0.379060
O211	O21	0.662700	0.475400	0.476340
O221	O22	0.885100	0.390200	0.532390
O231	O23	0.841100	0.657800	0.440610
O241	O24	0.800400	0.881700	0.409220
C71	C7	0.505100	0.679800	0.171200
H71	H7	0.503000	0.750900	0.135400
C81	C8	0.304800	0.491100	0.288700
H81	H8	0.208700	0.471400	0.235400
C91	C9	0.526900	0.792900	0.453200
H91	H9	0.518600	0.886800	0.461900
C101	C10	0.767400	0.374300	0.313600
H101	H10	0.751300	0.315700	0.267300
C111	C11	0.774900	0.397600	0.529900
H111	H11	0.771700	0.341300	0.570700
C121	C12	0.883200	0.783100	0.450500
H121	H12	0.985600	0.801100	0.492700
Fe51	Fe5	0.622310	0.915050	0.866890
Fe61	Fe6	0.574150	0.897730	0.313080
O251	O25	0.565300	0.792800	0.754430
O261	O26	0.449300	0.929700	0.632340
O271	O27	0.407900	0.996800	0.780000
O281	O28	0.320600	0.997000	0.861340
O291	O29	0.545600	0.737000	0.893150
O301	O30	0.518700	0.788800	0.000930
O311	O31	0.653900	0.078700	0.803590
O321	O32	0.897800	0.101500	0.879060
O331	O33	0.662700	0.024600	0.976340
O341	O34	0.885100	0.109800	0.032390
O351	O35	0.841100	0.842200	0.940610
O361	O36	0.800400	0.618300	0.909220
C131	C13	0.505100	0.820200	0.671200
H131	H13	0.503000	0.749100	0.635400
C141	C14	0.304800	0.008900	0.788700
H141	H14	0.208700	0.028600	0.735400
C151	C15	0.526900	0.707100	0.953200
H151	H15	0.518600	0.613200	0.961900
C161	C16	0.767400	0.125700	0.813600
H161	H16	0.751300	0.184300	0.767300
C171	C17	0.774900	0.102400	0.029900
H171	H17	0.771700	0.158700	0.070700
C181	C18	0.883200	0.716900	0.950500
H181	H18	0.985600	0.698900	0.992700
Fe71	Fe7	0.377690	0.415050	0.633110
Fe81	Fe8	0.425850	0.397730	0.186920
O371	O37	0.434700	0.292800	0.745570
O381	O38	0.550700	0.429700	0.867660
O391	O39	0.592100	0.496800	0.720000
O401	O40	0.679400	0.497000	0.638660
O411	O41	0.454400	0.237000	0.606850
O421	O42	0.481300	0.288800	0.499070
O431	O43	0.346100	0.578700	0.696410
O441	O44	0.102200	0.601500	0.620940
O451	O45	0.337300	0.524600	0.523660
O461	O46	0.114900	0.609800	0.467610
O471	O47	0.158900	0.342200	0.559390
O481	O48	0.199600	0.118300	0.590780
C191	C19	0.494900	0.320200	0.828800
H191	H19	0.497000	0.249100	0.864600
C201	C20	0.695200	0.508900	0.711300
H201	H20	0.791300	0.528600	0.764600
C211	C21	0.473100	0.207100	0.546800
H211	H21	0.481400	0.113200	0.538100
C221	C22	0.232600	0.625700	0.686400
H221	H22	0.248700	0.684300	0.732700
C231	C23	0.225100	0.602400	0.470100
H231	H23	0.228300	0.658700	0.429300
C241	C24	0.116800	0.216900	0.549500
H241	H24	0.014400	0.198900	0.507300
Fe91	Fe9	0.500000	0.000000	0.000000
Fe101	Fe10	0.500000	0.500000	0.500000
Fe111	Fe11	0.000000	0.000000	0.000000
Fe121	Fe12	0.000000	0.500000	0.500000
