data_NIHBIQ_freeONLY_PM
_symmetry_space_group_name_H-M	'P1'
_cell_length_a	10.022400
_cell_length_b	11.448800
_cell_length_c	15.175400
_cell_angle_alpha	90.860100
_cell_angle_beta	90.000000
_cell_angle_gamma	90.000000
_symmetry_Int_Tables_number 1

loop_
_symmetry_equiv_pos_as_xyz
'x,y,z'

loop_
_atom_site_label
_atom_site_type_symbol
_atom_site_fract_x
_atom_site_fract_y
_atom_site_fract_z
Fe11	Fe1	0.926300	0.754320	0.134420
Fe21	Fe2	0.878770	0.259610	0.696740
Fe31	Fe3	0.426300	0.745680	0.365580
Fe41	Fe4	0.378770	0.240390	0.803260
Fe51	Fe5	0.073700	0.245680	0.865580
Fe61	Fe6	0.121230	0.740390	0.303260
Fe71	Fe7	0.573700	0.254320	0.634420
Fe81	Fe8	0.621230	0.759610	0.196740
Fe91	Fe9	0.000000	0.500000	0.000000
Fe101	Fe10	0.500000	0.000000	0.500000
Fe111	Fe11	0.000000	0.000000	0.000000
Fe121	Fe12	0.500000	0.500000	0.500000
H11	H1	0.773000	0.853400	0.368400
H21	H2	0.056000	0.476100	0.257100
H31	H3	0.628000	0.534500	0.075500
H41	H4	0.230000	0.964700	0.206700
H51	H5	0.128000	0.695600	0.916600
H61	H6	0.714000	0.995600	0.026600
H71	H7	0.273000	0.646600	0.131600
H81	H8	0.556000	0.023900	0.242900
H91	H9	0.128000	0.965500	0.424500
H101	H10	0.730000	0.535300	0.293300
H111	H11	0.628000	0.804400	0.583400
H121	H12	0.214000	0.504400	0.473400
H131	H13	0.227000	0.146600	0.631600
H141	H14	0.944000	0.523900	0.742900
H151	H15	0.372000	0.465500	0.924500
H161	H16	0.770000	0.035300	0.793300
H171	H17	0.872000	0.304400	0.083400
H181	H18	0.286000	0.004400	0.973400
H191	H19	0.727000	0.353400	0.868400
H201	H20	0.444000	0.976100	0.757100
H211	H21	0.872000	0.034500	0.575500
H221	H22	0.270000	0.464700	0.706700
H231	H23	0.372000	0.195600	0.416600
H241	H24	0.786000	0.495600	0.526600
C11	C1	0.842400	0.826110	0.329510
C21	C2	0.036800	0.518560	0.204160
C31	C3	0.717800	0.561760	0.069760
C41	C4	0.155800	0.940500	0.170300
C51	C5	0.083300	0.741420	0.961420
C61	C6	0.729900	0.935010	0.065710
C71	C7	0.342400	0.673890	0.170490
C81	C8	0.536800	0.981440	0.295840
C91	C9	0.217800	0.938240	0.430240
C101	C10	0.655800	0.559500	0.329700
C111	C11	0.583300	0.758580	0.538580
C121	C12	0.229900	0.564990	0.434290
C131	C13	0.157600	0.173890	0.670490
C141	C14	0.963200	0.481440	0.795840
C151	C15	0.282200	0.438240	0.930240
C161	C16	0.844200	0.059500	0.829700
C171	C17	0.916700	0.258580	0.038580
C181	C18	0.270100	0.064990	0.934290
C191	C19	0.657600	0.326110	0.829510
C201	C20	0.463200	0.018560	0.704160
C211	C21	0.782200	0.061760	0.569760
C221	C22	0.344200	0.440500	0.670300
C231	C23	0.416700	0.241420	0.461420
C241	C24	0.770100	0.435010	0.565710
O11	O1	0.811400	0.807370	0.249030
O21	O2	0.953810	0.811030	0.363050
O31	O3	0.014870	0.627760	0.214480
O41	O4	0.029010	0.462770	0.134490
O51	O5	0.749990	0.649800	0.118600
O61	O6	0.793460	0.507320	0.019790
O71	O7	0.093900	0.846740	0.189560
O81	O8	0.131860	0.005080	0.108140
O91	O9	0.018470	0.686360	0.020790
O101	O10	0.091630	0.848460	0.954560
O111	O11	0.850860	0.899910	0.069350
O121	O12	0.633330	0.894170	0.105670
O131	O13	0.311400	0.692630	0.250970
O141	O14	0.453810	0.688970	0.136950
O151	O15	0.514870	0.872240	0.285520
O161	O16	0.529010	0.037230	0.365510
O171	O17	0.249990	0.850200	0.381400
O181	O18	0.293460	0.992680	0.480210
O191	O19	0.593900	0.653260	0.310440
O201	O20	0.631860	0.494920	0.391860
O211	O21	0.518470	0.813640	0.479210
O221	O22	0.591630	0.651540	0.545440
O231	O23	0.350860	0.600090	0.430650
O241	O24	0.133330	0.605830	0.394330
O251	O25	0.188600	0.192630	0.750970
O261	O26	0.046190	0.188970	0.636950
O271	O27	0.985130	0.372240	0.785520
O281	O28	0.970990	0.537230	0.865510
O291	O29	0.250010	0.350200	0.881400
O301	O30	0.206540	0.492680	0.980210
O311	O31	0.906100	0.153260	0.810440
O321	O32	0.868140	0.994920	0.891860
O331	O33	0.981530	0.313640	0.979210
O341	O34	0.908370	0.151540	0.045440
O351	O35	0.149140	0.100090	0.930650
O361	O36	0.366670	0.105830	0.894330
O371	O37	0.688600	0.307370	0.749030
O381	O38	0.546190	0.311030	0.863050
O391	O39	0.485130	0.127760	0.714480
O401	O40	0.470990	0.962770	0.634490
O411	O41	0.750010	0.149800	0.618600
O421	O42	0.706540	0.007320	0.519790
O431	O43	0.406100	0.346740	0.689560
O441	O44	0.368140	0.505080	0.608140
O451	O45	0.481530	0.186360	0.520790
O461	O46	0.408370	0.348460	0.454560
O471	O47	0.649140	0.399910	0.569350
O481	O48	0.866670	0.394170	0.605670
