data_NIHBIQ01_freeONLY_PM
_symmetry_space_group_name_H-M	'P1'
_cell_length_a	10.070500
_cell_length_b	11.466700
_cell_length_c	15.212400
_cell_angle_alpha	90.890800
_cell_angle_beta	90.000000
_cell_angle_gamma	90.000000
_symmetry_Int_Tables_number 1

loop_
_symmetry_equiv_pos_as_xyz
'x,y,z'

loop_
_atom_site_label
_atom_site_type_symbol
_atom_site_fract_x
_atom_site_fract_y
_atom_site_fract_z
Fe11	Fe1	0.928260	0.754210	0.134330
Fe21	Fe2	0.875820	0.259480	0.697630
Fe31	Fe3	0.428260	0.745790	0.365670
Fe41	Fe4	0.375820	0.240520	0.802370
Fe51	Fe5	0.071740	0.245790	0.865670
Fe61	Fe6	0.124180	0.740520	0.302370
Fe71	Fe7	0.571740	0.254210	0.634330
Fe81	Fe8	0.624180	0.759480	0.197630
Fe91	Fe9	0.000000	0.500000	0.000000
Fe101	Fe10	0.500000	0.000000	0.500000
Fe111	Fe11	0.000000	0.000000	0.000000
Fe121	Fe12	0.500000	0.500000	0.500000
H11	H1	0.774000	0.850200	0.368200
H21	H2	0.059000	0.476000	0.254000
H31	H3	0.623000	0.534600	0.077600
H41	H4	0.228000	0.963600	0.206600
H51	H5	0.129000	0.696400	0.915400
H61	H6	0.717000	0.994100	0.031100
H71	H7	0.274000	0.649800	0.131800
H81	H8	0.559000	0.024000	0.246000
H91	H9	0.123000	0.965400	0.422400
H101	H10	0.728000	0.536400	0.293400
H111	H11	0.629000	0.803600	0.584600
H121	H12	0.217000	0.505900	0.468900
H131	H13	0.226000	0.149800	0.631800
H141	H14	0.941000	0.524000	0.746000
H151	H15	0.377000	0.465400	0.922400
H161	H16	0.772000	0.036400	0.793400
H171	H17	0.871000	0.303600	0.084600
H181	H18	0.283000	0.005900	0.968900
H191	H19	0.726000	0.350200	0.868200
H201	H20	0.441000	0.976000	0.754000
H211	H21	0.877000	0.034600	0.577600
H221	H22	0.272000	0.463600	0.706600
H231	H23	0.371000	0.196400	0.415400
H241	H24	0.783000	0.494100	0.531100
C11	C1	0.846100	0.824730	0.329130
C21	C2	0.039100	0.519350	0.203350
C31	C3	0.719900	0.562530	0.070830
C41	C4	0.156400	0.940330	0.169230
C51	C5	0.081900	0.741680	0.961280
C61	C6	0.731800	0.934350	0.066950
C71	C7	0.346100	0.675270	0.170870
C81	C8	0.539100	0.980650	0.296650
C91	C9	0.219900	0.937470	0.429170
C101	C10	0.656400	0.559670	0.330770
C111	C11	0.581900	0.758320	0.538720
C121	C12	0.231800	0.565650	0.433050
C131	C13	0.153900	0.175270	0.670870
C141	C14	0.960900	0.480650	0.796650
C151	C15	0.280100	0.437470	0.929170
C161	C16	0.843600	0.059670	0.830770
C171	C17	0.918100	0.258320	0.038720
C181	C18	0.268200	0.065650	0.933050
C191	C19	0.653900	0.324730	0.829130
C201	C20	0.460900	0.019350	0.703350
C211	C21	0.780100	0.062530	0.570830
C221	C22	0.343600	0.440330	0.669230
C231	C23	0.418100	0.241680	0.461280
C241	C24	0.768200	0.434350	0.566950
O11	O1	0.814320	0.806220	0.249370
O21	O2	0.957150	0.810560	0.362080
O31	O3	0.018380	0.627820	0.213570
O41	O4	0.030300	0.463150	0.134100
O51	O5	0.752310	0.650130	0.119190
O61	O6	0.795110	0.507890	0.020620
O71	O7	0.095320	0.846940	0.189040
O81	O8	0.131790	0.004620	0.107670
O91	O9	0.018810	0.686280	0.020600
O101	O10	0.090130	0.848380	0.954230
O111	O11	0.852550	0.899930	0.069800
O121	O12	0.636340	0.893640	0.107050
O131	O13	0.314320	0.693780	0.250630
O141	O14	0.457150	0.689440	0.137920
O151	O15	0.518380	0.872180	0.286430
O161	O16	0.530300	0.036850	0.365900
O171	O17	0.252310	0.849870	0.380810
O181	O18	0.295110	0.992110	0.479380
O191	O19	0.595320	0.653060	0.310960
O201	O20	0.631790	0.495380	0.392330
O211	O21	0.518810	0.813720	0.479400
O221	O22	0.590130	0.651620	0.545770
O231	O23	0.352550	0.600070	0.430200
O241	O24	0.136340	0.606360	0.392950
O251	O25	0.185680	0.193780	0.750630
O261	O26	0.042850	0.189440	0.637920
O271	O27	0.981620	0.372180	0.786430
O281	O28	0.969700	0.536850	0.865900
O291	O29	0.247690	0.349870	0.880810
O301	O30	0.204890	0.492110	0.979380
O311	O31	0.904680	0.153060	0.810960
O321	O32	0.868210	0.995380	0.892330
O331	O33	0.981190	0.313720	0.979400
O341	O34	0.909870	0.151620	0.045770
O351	O35	0.147450	0.100070	0.930200
O361	O36	0.363660	0.106360	0.892950
O371	O37	0.685680	0.306220	0.749370
O381	O38	0.542850	0.310560	0.862080
O391	O39	0.481620	0.127820	0.713570
O401	O40	0.469700	0.963150	0.634100
O411	O41	0.747690	0.150130	0.619190
O421	O42	0.704890	0.007890	0.520620
O431	O43	0.404680	0.346940	0.689040
O441	O44	0.368210	0.504620	0.607670
O451	O45	0.481190	0.186280	0.520600
O461	O46	0.409870	0.348380	0.454230
O471	O47	0.647450	0.399930	0.569800
O481	O48	0.863660	0.393640	0.607050
