data_NIHBAI02_freeONLY_PM
_symmetry_space_group_name_H-M	'P1'
_cell_length_a	11.419800
_cell_length_b	9.897900
_cell_length_c	18.439200
_cell_angle_alpha	90.000000
_cell_angle_beta	126.853000
_cell_angle_gamma	90.000000
_symmetry_Int_Tables_number 1

loop_
_symmetry_equiv_pos_as_xyz
'x,y,z'

loop_
_atom_site_label
_atom_site_type_symbol
_atom_site_fract_x
_atom_site_fract_y
_atom_site_fract_z
Fe11	Fe1	0.377250	0.082160	0.132970
Fe21	Fe2	0.427810	0.106700	0.688330
O11	O1	0.437100	0.202800	0.246300
O21	O2	0.549700	0.064300	0.365790
O31	O3	0.589500	0.998400	0.218400
O41	O4	0.676300	0.999900	0.137930
O51	O5	0.454700	0.259400	0.107450
O61	O6	0.484300	0.209800	0.001710
O71	O7	0.345300	0.918600	0.195480
O81	O8	0.104700	0.894500	0.119530
O91	O9	0.336500	0.975400	0.022780
O101	O10	0.114700	0.895500	0.965800
O111	O11	0.159700	0.155800	0.060760
O121	O12	0.203300	0.377000	0.094320
C11	C1	0.496200	0.173500	0.329200
H11	H1	0.498700	0.241300	0.364900
C21	C2	0.691300	0.986500	0.209600
H21	H2	0.784400	0.965900	0.261300
C31	C3	0.474200	0.289400	0.049200
H31	H3	0.481700	0.380800	0.041000
C41	C4	0.231900	0.870300	0.182900
H41	H4	0.246800	0.810100	0.226500
C51	C5	0.223900	0.902900	0.968300
H51	H5	0.224900	0.851000	0.926700
C61	C6	0.119600	0.280300	0.053200
H61	H6	0.020000	0.298700	0.013800
Fe31	Fe3	0.622750	0.582160	0.367030
Fe41	Fe4	0.572190	0.606700	0.811670
O131	O13	0.562900	0.702800	0.253700
O141	O14	0.450300	0.564300	0.134210
O151	O15	0.410500	0.498400	0.281600
O161	O16	0.323700	0.499900	0.362070
O171	O17	0.545300	0.759400	0.392550
O181	O18	0.515700	0.709800	0.498290
O191	O19	0.654700	0.418600	0.304520
O201	O20	0.895300	0.394500	0.380470
O211	O21	0.663500	0.475400	0.477220
O221	O22	0.885300	0.395500	0.534200
O231	O23	0.840300	0.655800	0.439240
O241	O24	0.796700	0.877000	0.405680
C71	C7	0.503800	0.673500	0.170800
H71	H7	0.501300	0.741300	0.135100
C81	C8	0.308700	0.486500	0.290400
H81	H8	0.215600	0.465900	0.238700
C91	C9	0.525800	0.789400	0.450800
H91	H9	0.518300	0.880800	0.459000
C101	C10	0.768100	0.370300	0.317100
H101	H10	0.753200	0.310100	0.273500
C111	C11	0.776100	0.402900	0.531700
H111	H11	0.775100	0.351000	0.573300
C121	C12	0.880400	0.780300	0.446800
H121	H12	0.980000	0.798700	0.486200
Fe51	Fe5	0.622750	0.917840	0.867030
Fe61	Fe6	0.572190	0.893300	0.311670
O251	O25	0.562900	0.797200	0.753700
O261	O26	0.450300	0.935700	0.634210
O271	O27	0.410500	0.001600	0.781600
O281	O28	0.323700	0.000100	0.862070
O291	O29	0.545300	0.740600	0.892550
O301	O30	0.515700	0.790200	0.998290
O311	O31	0.654700	0.081400	0.804520
O321	O32	0.895300	0.105500	0.880470
O331	O33	0.663500	0.024600	0.977220
O341	O34	0.885300	0.104500	0.034200
O351	O35	0.840300	0.844200	0.939240
O361	O36	0.796700	0.623000	0.905680
C131	C13	0.503800	0.826500	0.670800
H131	H13	0.501300	0.758700	0.635100
C141	C14	0.308700	0.013500	0.790400
H141	H14	0.215600	0.034100	0.738700
C151	C15	0.525800	0.710600	0.950800
H151	H15	0.518300	0.619200	0.959000
C161	C16	0.768100	0.129700	0.817100
H161	H16	0.753200	0.189900	0.773500
C171	C17	0.776100	0.097100	0.031700
H171	H17	0.775100	0.149000	0.073300
C181	C18	0.880400	0.719700	0.946800
H181	H18	0.980000	0.701300	0.986200
Fe71	Fe7	0.377250	0.417840	0.632970
Fe81	Fe8	0.427810	0.393300	0.188330
O371	O37	0.437100	0.297200	0.746300
O381	O38	0.549700	0.435700	0.865790
O391	O39	0.589500	0.501600	0.718400
O401	O40	0.676300	0.500100	0.637930
O411	O41	0.454700	0.240600	0.607450
O421	O42	0.484300	0.290200	0.501710
O431	O43	0.345300	0.581400	0.695480
O441	O44	0.104700	0.605500	0.619530
O451	O45	0.336500	0.524600	0.522780
O461	O46	0.114700	0.604500	0.465800
O471	O47	0.159700	0.344200	0.560760
O481	O48	0.203300	0.123000	0.594320
C191	C19	0.496200	0.326500	0.829200
H191	H19	0.498700	0.258700	0.864900
C201	C20	0.691300	0.513500	0.709600
H201	H20	0.784400	0.534100	0.761300
C211	C21	0.474200	0.210600	0.549200
H211	H21	0.481700	0.119200	0.541000
C221	C22	0.231900	0.629700	0.682900
H221	H22	0.246800	0.689900	0.726500
C231	C23	0.223900	0.597100	0.468300
H231	H23	0.224900	0.649000	0.426700
C241	C24	0.119600	0.219700	0.553200
H241	H24	0.020000	0.201300	0.513800
Fe91	Fe9	0.500000	0.000000	0.000000
Fe101	Fe10	0.500000	0.500000	0.500000
Fe111	Fe11	0.000000	0.000000	0.000000
Fe121	Fe12	0.000000	0.500000	0.500000
