data_NIHBIQ02_freeONLY_PM
_symmetry_space_group_name_H-M	'P1'
_cell_length_a	10.156800
_cell_length_b	11.500800
_cell_length_c	15.283000
_cell_angle_alpha	90.946400
_cell_angle_beta	90.000000
_cell_angle_gamma	90.000000
_symmetry_Int_Tables_number 1

loop_
_symmetry_equiv_pos_as_xyz
'x,y,z'

loop_
_atom_site_label
_atom_site_type_symbol
_atom_site_fract_x
_atom_site_fract_y
_atom_site_fract_z
Fe11	Fe1	0.931550	0.754150	0.134290
Fe21	Fe2	0.870950	0.259450	0.699000
Fe31	Fe3	0.431550	0.745850	0.365710
Fe41	Fe4	0.370950	0.240550	0.801000
Fe51	Fe5	0.068450	0.245850	0.865710
Fe61	Fe6	0.129050	0.740550	0.301000
Fe71	Fe7	0.568450	0.254150	0.634290
Fe81	Fe8	0.629050	0.759450	0.199000
Fe91	Fe9	0.000000	0.500000	0.000000
Fe101	Fe10	0.500000	0.000000	0.500000
Fe111	Fe11	0.000000	0.000000	0.000000
Fe121	Fe12	0.500000	0.500000	0.500000
H11	H1	0.784000	0.845200	0.370200
H21	H2	0.066000	0.480000	0.251000
H31	H3	0.632000	0.543000	0.069000
H41	H4	0.234000	0.962000	0.206000
H51	H5	0.123000	0.698000	0.913000
H61	H6	0.722000	0.998800	0.030800
H71	H7	0.284000	0.654800	0.129800
H81	H8	0.566000	0.020000	0.249000
H91	H9	0.132000	0.957000	0.431000
H101	H10	0.734000	0.538000	0.294000
H111	H11	0.623000	0.802000	0.587000
H121	H12	0.222000	0.501200	0.469200
H131	H13	0.216000	0.154800	0.629800
H141	H14	0.934000	0.520000	0.749000
H151	H15	0.368000	0.457000	0.931000
H161	H16	0.766000	0.038000	0.794000
H171	H17	0.877000	0.302000	0.087000
H181	H18	0.278000	0.001200	0.969200
H191	H19	0.716000	0.345200	0.870200
H201	H20	0.434000	0.980000	0.751000
H211	H21	0.868000	0.043000	0.569000
H221	H22	0.266000	0.462000	0.706000
H231	H23	0.377000	0.198000	0.413000
H241	H24	0.778000	0.498800	0.530800
C11	C1	0.851800	0.822850	0.328750
C21	C2	0.042700	0.520600	0.201600
C31	C3	0.724100	0.565000	0.071100
C41	C4	0.157100	0.939600	0.168000
C51	C5	0.080200	0.741700	0.960800
C61	C6	0.736400	0.935040	0.069440
C71	C7	0.351800	0.677150	0.171250
C81	C8	0.542700	0.979400	0.298400
C91	C9	0.224100	0.935000	0.428900
C101	C10	0.657100	0.560400	0.332000
C111	C11	0.580200	0.758300	0.539200
C121	C12	0.236400	0.564960	0.430560
C131	C13	0.148200	0.177150	0.671250
C141	C14	0.957300	0.479400	0.798400
C151	C15	0.275900	0.435000	0.928900
C161	C16	0.842900	0.060400	0.832000
C171	C17	0.919800	0.258300	0.039200
C181	C18	0.263600	0.064960	0.930560
C191	C19	0.648200	0.322850	0.828750
C201	C20	0.457300	0.020600	0.701600
C211	C21	0.775900	0.065000	0.571100
C221	C22	0.342900	0.439600	0.668000
C231	C23	0.419800	0.241700	0.460800
C241	C24	0.763600	0.435040	0.569440
O11	O1	0.818780	0.804290	0.250040
O21	O2	0.962500	0.809410	0.360210
O31	O3	0.024280	0.628210	0.212210
O41	O4	0.030800	0.463590	0.133590
O51	O5	0.755960	0.651420	0.119620
O61	O6	0.797260	0.509440	0.021240
O71	O7	0.097410	0.847250	0.188250
O81	O8	0.132000	0.003560	0.106660
O91	O9	0.019510	0.686390	0.020390
O101	O10	0.088000	0.848300	0.954000
O111	O11	0.855050	0.900060	0.071060
O121	O12	0.642090	0.894040	0.109940
O131	O13	0.318780	0.695710	0.249960
O141	O14	0.462500	0.690590	0.139790
O151	O15	0.524280	0.871790	0.287790
O161	O16	0.530800	0.036410	0.366410
O171	O17	0.255960	0.848580	0.380380
O181	O18	0.297260	0.990560	0.478760
O191	O19	0.597410	0.652750	0.311750
O201	O20	0.632000	0.496440	0.393340
O211	O21	0.519510	0.813610	0.479610
O221	O22	0.588000	0.651700	0.546000
O231	O23	0.355050	0.599940	0.428940
O241	O24	0.142090	0.605960	0.390060
O251	O25	0.181220	0.195710	0.749960
O261	O26	0.037500	0.190590	0.639790
O271	O27	0.975720	0.371790	0.787790
O281	O28	0.969200	0.536410	0.866410
O291	O29	0.244040	0.348580	0.880380
O301	O30	0.202740	0.490560	0.978760
O311	O31	0.902590	0.152750	0.811750
O321	O32	0.868000	0.996440	0.893340
O331	O33	0.980490	0.313610	0.979610
O341	O34	0.912000	0.151700	0.046000
O351	O35	0.144950	0.099940	0.928940
O361	O36	0.357910	0.105960	0.890060
O371	O37	0.681220	0.304290	0.750040
O381	O38	0.537500	0.309410	0.860210
O391	O39	0.475720	0.128210	0.712210
O401	O40	0.469200	0.963590	0.633590
O411	O41	0.744040	0.151420	0.619620
O421	O42	0.702740	0.009440	0.521240
O431	O43	0.402590	0.347250	0.688250
O441	O44	0.368000	0.503560	0.606660
O451	O45	0.480490	0.186390	0.520390
O461	O46	0.412000	0.348300	0.454000
O471	O47	0.644950	0.400060	0.571060
O481	O48	0.857910	0.394040	0.609940
