data_NIJVAF_freeONLY_PM
_symmetry_space_group_name_H-M	'P1'
_cell_length_a	10.697400
_cell_length_b	37.268000
_cell_length_c	9.405800
_cell_angle_alpha	90.000000
_cell_angle_beta	101.263000
_cell_angle_gamma	90.000000
_symmetry_Int_Tables_number 1

loop_
_symmetry_equiv_pos_as_xyz
'x,y,z'

loop_
_atom_site_label
_atom_site_type_symbol
_atom_site_fract_x
_atom_site_fract_y
_atom_site_fract_z
Cd11	Cd1	0.851840	0.632960	0.258340
C11	C1	0.612700	0.620780	0.321000
C21	C2	0.483800	0.613180	0.351300
C31	C3	0.451200	0.595380	0.464300
H11	H1	0.510100	0.584500	0.537300
C41	C4	0.319300	0.595120	0.459900
H21	H2	0.281800	0.584000	0.529600
C51	C5	0.252200	0.612750	0.343500
C61	C6	0.112100	0.619870	0.305200
C71	C7	0.828300	0.712150	0.409400
H31	H3	0.755800	0.717400	0.340400
C81	C8	0.885600	0.734920	0.514600
H41	H4	0.860100	0.758200	0.530800
C91	C9	0.988000	0.684050	0.530500
H51	H5	0.047800	0.666300	0.562500
C101	C10	0.078600	0.730280	0.712600
C111	C11	0.097800	0.766940	0.730700
H61	H6	0.048800	0.783000	0.667300
C121	C12	0.190000	0.779480	0.843600
H71	H7	0.200900	0.804100	0.857000
C131	C13	0.267000	0.756060	0.937700
C141	C14	0.243100	0.719610	0.920800
H81	H8	0.291200	0.703500	0.984700
C151	C15	0.149600	0.706810	0.811200
H91	H9	0.133800	0.682300	0.803000
C161	C16	0.699400	0.817160	0.487600
H101	H10	0.633900	0.812600	0.537200
C171	C17	0.878400	0.833040	0.437400
H111	H11	0.961400	0.841500	0.447900
C181	C18	0.807500	0.820930	0.313000
H121	H12	0.831400	0.819900	0.223200
C191	C19	0.585600	0.796160	0.244200
C201	C20	0.541500	0.814860	0.118200
H131	H13	0.581400	0.835900	0.098300
C211	C21	0.437200	0.801830	0.021500
H141	H14	0.406300	0.814700	0.937100
C221	C22	0.376900	0.769950	0.046900
C231	C23	0.427500	0.751160	0.172600
H151	H15	0.392300	0.729200	0.190700
C241	C24	0.529800	0.764790	0.271400
H161	H16	0.560600	0.752400	0.356900
C251	C25	0.746000	0.553920	0.108900
H171	H17	0.690100	0.550600	0.172000
C261	C26	0.757400	0.531790	0.998400
H181	H18	0.712600	0.510600	0.973000
C271	C27	0.889200	0.576660	0.006600
H191	H19	0.952500	0.591600	0.984900
C281	C28	0.890800	0.533120	0.806800
C291	C29	0.907000	0.555640	0.699100
H201	H20	0.889300	0.579900	0.705800
C301	C30	0.949700	0.542910	0.579500
H211	H21	0.960300	0.558900	0.506800
C311	C31	0.977400	0.506840	0.564500
C321	C32	0.957000	0.484330	0.674600
H221	H22	0.971800	0.459900	0.667300
C331	C33	0.915100	0.497140	0.795900
H231	H23	0.903700	0.481500	0.869300
N11	N1	0.892800	0.680400	0.419600
N21	N2	0.988400	0.716910	0.592400
N31	N3	0.810300	0.831030	0.547100
N41	N4	0.692700	0.810330	0.344300
N51	N5	0.829400	0.582110	0.113900
N61	N6	0.847300	0.546490	0.931000
O11	O1	0.707000	0.605560	0.396500
O21	O2	0.620900	0.642660	0.224400
O31	O3	0.072200	0.637510	0.193900
O41	O4	0.045100	0.608990	0.391700
S11	S1	0.352180	0.629720	0.237110
Cd21	Cd2	0.148160	0.132960	0.241660
C341	C34	0.387300	0.120780	0.179000
C351	C35	0.516200	0.113180	0.148700
C361	C36	0.548800	0.095380	0.035700
H241	H24	0.489900	0.084500	0.962700
C371	C37	0.680700	0.095120	0.040100
H251	H25	0.718200	0.084000	0.970400
C381	C38	0.747800	0.112750	0.156500
C391	C39	0.887900	0.119870	0.194800
C401	C40	0.171700	0.212150	0.090600
H261	H26	0.244200	0.217400	0.159600
C411	C41	0.114400	0.234920	0.985400
H271	H27	0.139900	0.258200	0.969200
C421	C42	0.012000	0.184050	0.969500
H281	H28	0.952200	0.166300	0.937500
C431	C43	0.921400	0.230280	0.787400
C441	C44	0.902200	0.266940	0.769300
H291	H29	0.951200	0.283000	0.832700
C451	C45	0.810000	0.279480	0.656400
H301	H30	0.799100	0.304100	0.643000
C461	C46	0.733000	0.256060	0.562300
C471	C47	0.756900	0.219610	0.579200
H311	H31	0.708800	0.203500	0.515300
C481	C48	0.850400	0.206810	0.688800
H321	H32	0.866200	0.182300	0.697000
C491	C49	0.300600	0.317160	0.012400
H331	H33	0.366100	0.312600	0.962800
C501	C50	0.121600	0.333040	0.062600
H341	H34	0.038600	0.341500	0.052100
C511	C51	0.192500	0.320930	0.187000
H351	H35	0.168600	0.319900	0.276800
C521	C52	0.414400	0.296160	0.255800
C531	C53	0.458500	0.314860	0.381800
H361	H36	0.418600	0.335900	0.401700
C541	C54	0.562800	0.301830	0.478500
H371	H37	0.593700	0.314700	0.562900
C551	C55	0.623100	0.269950	0.453100
C561	C56	0.572500	0.251160	0.327400
H381	H38	0.607700	0.229200	0.309300
C571	C57	0.470200	0.264790	0.228600
H391	H39	0.439400	0.252400	0.143100
C581	C58	0.254000	0.053920	0.391100
H401	H40	0.309900	0.050600	0.328000
C591	C59	0.242600	0.031790	0.501600
H411	H41	0.287400	0.010600	0.527000
C601	C60	0.110800	0.076660	0.493400
H421	H42	0.047500	0.091600	0.515100
C611	C61	0.109200	0.033120	0.693200
C621	C62	0.093000	0.055640	0.800900
H431	H43	0.110700	0.079900	0.794200
C631	C63	0.050300	0.042910	0.920500
H441	H44	0.039700	0.058900	0.993200
C641	C64	0.022600	0.006840	0.935500
C651	C65	0.043000	0.984330	0.825400
H451	H45	0.028200	0.959900	0.832700
C661	C66	0.084900	0.997140	0.704100
H461	H46	0.096300	0.981500	0.630700
N71	N7	0.107200	0.180400	0.080400
N81	N8	0.011600	0.216910	0.907600
N91	N9	0.189700	0.331030	0.952900
N101	N10	0.307300	0.310330	0.155700
N111	N11	0.170600	0.082110	0.386100
N121	N12	0.152700	0.046490	0.569000
O51	O5	0.293000	0.105560	0.103500
O61	O6	0.379100	0.142660	0.275600
O71	O7	0.927800	0.137510	0.306100
O81	O8	0.954900	0.108990	0.108300
S21	S2	0.647820	0.129720	0.262890
Cd31	Cd3	0.148160	0.367040	0.741660
C671	C67	0.387300	0.379220	0.679000
C681	C68	0.516200	0.386820	0.648700
C691	C69	0.548800	0.404620	0.535700
H471	H47	0.489900	0.415500	0.462700
C701	C70	0.680700	0.404880	0.540100
H481	H48	0.718200	0.416000	0.470400
C711	C71	0.747800	0.387250	0.656500
C721	C72	0.887900	0.380130	0.694800
C731	C73	0.171700	0.287850	0.590600
H491	H49	0.244200	0.282600	0.659600
C741	C74	0.114400	0.265080	0.485400
H501	H50	0.139900	0.241800	0.469200
C751	C75	0.012000	0.315950	0.469500
H511	H51	0.952200	0.333700	0.437500
C761	C76	0.921400	0.269720	0.287400
C771	C77	0.902200	0.233060	0.269300
H521	H52	0.951200	0.217000	0.332700
C781	C78	0.810000	0.220520	0.156400
H531	H53	0.799100	0.195900	0.143000
C791	C79	0.733000	0.243940	0.062300
C801	C80	0.756900	0.280390	0.079200
H541	H54	0.708800	0.296500	0.015300
C811	C81	0.850400	0.293190	0.188800
H551	H55	0.866200	0.317700	0.197000
C821	C82	0.300600	0.182840	0.512400
H561	H56	0.366100	0.187400	0.462800
C831	C83	0.121600	0.166960	0.562600
H571	H57	0.038600	0.158500	0.552100
C841	C84	0.192500	0.179070	0.687000
H581	H58	0.168600	0.180100	0.776800
C851	C85	0.414400	0.203840	0.755800
C861	C86	0.458500	0.185140	0.881800
H591	H59	0.418600	0.164100	0.901700
C871	C87	0.562800	0.198170	0.978500
H601	H60	0.593700	0.185300	0.062900
C881	C88	0.623100	0.230050	0.953100
C891	C89	0.572500	0.248840	0.827400
H611	H61	0.607700	0.270800	0.809300
C901	C90	0.470200	0.235210	0.728600
H621	H62	0.439400	0.247600	0.643100
C911	C91	0.254000	0.446080	0.891100
H631	H63	0.309900	0.449400	0.828000
C921	C92	0.242600	0.468210	0.001600
H641	H64	0.287400	0.489400	0.027000
C931	C93	0.110800	0.423340	0.993400
H651	H65	0.047500	0.408400	0.015100
C941	C94	0.109200	0.466880	0.193200
C951	C95	0.093000	0.444360	0.300900
H661	H66	0.110700	0.420100	0.294200
C961	C96	0.050300	0.457090	0.420500
H671	H67	0.039700	0.441100	0.493200
C971	C97	0.022600	0.493160	0.435500
C981	C98	0.043000	0.515670	0.325400
H681	H68	0.028200	0.540100	0.332700
C991	C99	0.084900	0.502860	0.204100
H691	H69	0.096300	0.518500	0.130700
N131	N13	0.107200	0.319600	0.580400
N141	N14	0.011600	0.283090	0.407600
N151	N15	0.189700	0.168970	0.452900
N161	N16	0.307300	0.189670	0.655700
N171	N17	0.170600	0.417890	0.886100
N181	N18	0.152700	0.453510	0.069000
O91	O9	0.293000	0.394440	0.603500
O101	O10	0.379100	0.357340	0.775600
O111	O11	0.927800	0.362490	0.806100
O121	O12	0.954900	0.391010	0.608300
S31	S3	0.647820	0.370280	0.762890
Cd41	Cd4	0.851840	0.867040	0.758340
C1001	C100	0.612700	0.879220	0.821000
C1011	C101	0.483800	0.886820	0.851300
C1021	C102	0.451200	0.904620	0.964300
H701	H70	0.510100	0.915500	0.037300
C1031	C103	0.319300	0.904880	0.959900
H711	H71	0.281800	0.916000	0.029600
C1041	C104	0.252200	0.887250	0.843500
C1051	C105	0.112100	0.880130	0.805200
C1061	C106	0.828300	0.787850	0.909400
H721	H72	0.755800	0.782600	0.840400
C1071	C107	0.885600	0.765080	0.014600
H731	H73	0.860100	0.741800	0.030800
C1081	C108	0.988000	0.815950	0.030500
H741	H74	0.047800	0.833700	0.062500
C1091	C109	0.078600	0.769720	0.212600
C1101	C110	0.097800	0.733060	0.230700
H751	H75	0.048800	0.717000	0.167300
C1111	C111	0.190000	0.720520	0.343600
H761	H76	0.200900	0.695900	0.357000
C1121	C112	0.267000	0.743940	0.437700
C1131	C113	0.243100	0.780390	0.420800
H771	H77	0.291200	0.796500	0.484700
C1141	C114	0.149600	0.793190	0.311200
H781	H78	0.133800	0.817700	0.303000
C1151	C115	0.699400	0.682840	0.987600
H791	H79	0.633900	0.687400	0.037200
C1161	C116	0.878400	0.666960	0.937400
H801	H80	0.961400	0.658500	0.947900
C1171	C117	0.807500	0.679070	0.813000
H811	H81	0.831400	0.680100	0.723200
C1181	C118	0.585600	0.703840	0.744200
C1191	C119	0.541500	0.685140	0.618200
H821	H82	0.581400	0.664100	0.598300
C1201	C120	0.437200	0.698170	0.521500
H831	H83	0.406300	0.685300	0.437100
C1211	C121	0.376900	0.730050	0.546900
C1221	C122	0.427500	0.748840	0.672600
H841	H84	0.392300	0.770800	0.690700
C1231	C123	0.529800	0.735210	0.771400
H851	H85	0.560600	0.747600	0.856900
C1241	C124	0.746000	0.946080	0.608900
H861	H86	0.690100	0.949400	0.672000
C1251	C125	0.757400	0.968210	0.498400
H871	H87	0.712600	0.989400	0.473000
C1261	C126	0.889200	0.923340	0.506600
H881	H88	0.952500	0.908400	0.484900
C1271	C127	0.890800	0.966880	0.306800
C1281	C128	0.907000	0.944360	0.199100
H891	H89	0.889300	0.920100	0.205800
C1291	C129	0.949700	0.957090	0.079500
H901	H90	0.960300	0.941100	0.006800
C1301	C130	0.977400	0.993160	0.064500
C1311	C131	0.957000	0.015670	0.174600
H911	H91	0.971800	0.040100	0.167300
C1321	C132	0.915100	0.002860	0.295900
H921	H92	0.903700	0.018500	0.369300
N191	N19	0.892800	0.819600	0.919600
N201	N20	0.988400	0.783090	0.092400
N211	N21	0.810300	0.668970	0.047100
N221	N22	0.692700	0.689670	0.844300
N231	N23	0.829400	0.917890	0.613900
N241	N24	0.847300	0.953510	0.431000
O131	O13	0.707000	0.894440	0.896500
O141	O14	0.620900	0.857340	0.724400
O151	O15	0.072200	0.862490	0.693900
O161	O16	0.045100	0.891010	0.891700
S41	S4	0.352180	0.870280	0.737110
