data_NIJZOV_freeONLY_PM
_symmetry_space_group_name_H-M	'P1'
_cell_length_a	14.516000
_cell_length_b	14.516000
_cell_length_c	15.279000
_cell_angle_alpha	90.000000
_cell_angle_beta	90.000000
_cell_angle_gamma	120.000000
_symmetry_Int_Tables_number 1

loop_
_symmetry_equiv_pos_as_xyz
'x,y,z'

loop_
_atom_site_label
_atom_site_type_symbol
_atom_site_fract_x
_atom_site_fract_y
_atom_site_fract_z
Er11	Er1	0.666670	0.333340	0.750000
Er21	Er2	0.333330	0.666660	0.750000
Er31	Er3	0.333330	0.666660	0.250000
Er41	Er4	0.666670	0.333340	0.250000
Cu11	Cu1	0.500000	0.500000	0.500000
Cu21	Cu2	0.000000	0.500000	0.500000
Cu31	Cu3	0.500000	0.000000	0.500000
Cu41	Cu4	0.000000	0.500000	0.000000
Cu51	Cu5	0.500000	0.500000	0.000000
Cu61	Cu6	0.500000	0.000000	0.000000
C11	C1	0.737100	0.588700	0.694300
C21	C2	0.645900	0.513700	0.638100
C31	C3	0.851600	0.262900	0.694300
C41	C4	0.867800	0.354100	0.638100
C51	C5	0.411300	0.148400	0.694300
C61	C6	0.486300	0.132200	0.638100
C71	C7	0.262900	0.411300	0.694300
C81	C8	0.354100	0.486300	0.638100
C91	C9	0.148400	0.737100	0.694300
C101	C10	0.132200	0.645900	0.638100
C111	C11	0.588700	0.851600	0.694300
C121	C12	0.513700	0.867800	0.638100
C131	C13	0.148400	0.411300	0.805700
C141	C14	0.132200	0.486300	0.861900
C151	C15	0.588700	0.737100	0.805700
C161	C16	0.513700	0.645900	0.861900
C171	C17	0.262900	0.851600	0.805700
C181	C18	0.354100	0.867800	0.861900
C191	C19	0.851600	0.588700	0.805700
C201	C20	0.867800	0.513700	0.861900
C211	C21	0.411300	0.262900	0.805700
C221	C22	0.486300	0.354100	0.861900
C231	C23	0.737100	0.148400	0.805700
C241	C24	0.645900	0.132200	0.861900
C251	C25	0.262900	0.411300	0.305700
C261	C26	0.354100	0.486300	0.361900
C271	C27	0.148400	0.737100	0.305700
C281	C28	0.132200	0.645900	0.361900
C291	C29	0.588700	0.851600	0.305700
C301	C30	0.513700	0.867800	0.361900
C311	C31	0.737100	0.588700	0.305700
C321	C32	0.645900	0.513700	0.361900
C331	C33	0.851600	0.262900	0.305700
C341	C34	0.867800	0.354100	0.361900
C351	C35	0.411300	0.148400	0.305700
C361	C36	0.486300	0.132200	0.361900
C371	C37	0.851600	0.588700	0.194300
C381	C38	0.867800	0.513700	0.138100
C391	C39	0.411300	0.262900	0.194300
C401	C40	0.486300	0.354100	0.138100
C411	C41	0.737100	0.148400	0.194300
C421	C42	0.645900	0.132200	0.138100
C431	C43	0.148400	0.411300	0.194300
C441	C44	0.132200	0.486300	0.138100
C451	C45	0.588700	0.737100	0.194300
C461	C46	0.513700	0.645900	0.138100
C471	C47	0.262900	0.851600	0.194300
C481	C48	0.354100	0.867800	0.138100
O11	O1	0.612500	0.415600	0.644700
O21	O2	0.610900	0.556900	0.588600
O31	O3	0.803100	0.387500	0.644700
O41	O4	0.946000	0.389100	0.588600
O51	O5	0.584400	0.196900	0.644700
O61	O6	0.443100	0.054000	0.588600
O71	O7	0.387500	0.584400	0.644700
O81	O8	0.389100	0.443100	0.588600
O91	O9	0.196900	0.612500	0.644700
O101	O10	0.054000	0.610900	0.588600
O111	O11	0.415600	0.803100	0.644700
O121	O12	0.556900	0.946000	0.588600
O131	O13	0.196900	0.584400	0.855300
O141	O14	0.054000	0.443100	0.911400
O151	O15	0.415600	0.612500	0.855300
O161	O16	0.556900	0.610900	0.911400
O171	O17	0.387500	0.803100	0.855300
O181	O18	0.389100	0.946000	0.911400
O191	O19	0.803100	0.415600	0.855300
O201	O20	0.946000	0.556900	0.911400
O211	O21	0.584400	0.387500	0.855300
O221	O22	0.443100	0.389100	0.911400
O231	O23	0.612500	0.196900	0.855300
O241	O24	0.610900	0.054000	0.911400
O251	O25	0.387500	0.584400	0.355300
O261	O26	0.389100	0.443100	0.411400
O271	O27	0.196900	0.612500	0.355300
O281	O28	0.054000	0.610900	0.411400
O291	O29	0.415600	0.803100	0.355300
O301	O30	0.556900	0.946000	0.411400
O311	O31	0.612500	0.415600	0.355300
O321	O32	0.610900	0.556900	0.411400
O331	O33	0.803100	0.387500	0.355300
O341	O34	0.946000	0.389100	0.411400
O351	O35	0.584400	0.196900	0.355300
O361	O36	0.443100	0.054000	0.411400
O371	O37	0.803100	0.415600	0.144700
O381	O38	0.946000	0.556900	0.088600
O391	O39	0.584400	0.387500	0.144700
O401	O40	0.443100	0.389100	0.088600
O411	O41	0.612500	0.196900	0.144700
O421	O42	0.610900	0.054000	0.088600
O431	O43	0.196900	0.584400	0.144700
O441	O44	0.054000	0.443100	0.088600
O451	O45	0.415600	0.612500	0.144700
O461	O46	0.556900	0.610900	0.088600
O471	O47	0.387500	0.803100	0.144700
O481	O48	0.389100	0.946000	0.088600
O491	O49	0.762800	0.525600	0.750000
O501	O50	0.762800	0.237200	0.750000
O511	O51	0.474400	0.237200	0.750000
O521	O52	0.237200	0.474400	0.750000
O531	O53	0.237200	0.762800	0.750000
O541	O54	0.525600	0.762800	0.750000
O551	O55	0.237200	0.474400	0.250000
O561	O56	0.237200	0.762800	0.250000
O571	O57	0.525600	0.762800	0.250000
O581	O58	0.762800	0.525600	0.250000
O591	O59	0.762800	0.237200	0.250000
O601	O60	0.474400	0.237200	0.250000
