data_NIKJIB_freeONLY_PM
_symmetry_space_group_name_H-M	'P1'
_cell_length_a	9.421700
_cell_length_b	22.141100
_cell_length_c	26.340000
_cell_angle_alpha	90.000000
_cell_angle_beta	90.000000
_cell_angle_gamma	90.000000
_symmetry_Int_Tables_number 1

loop_
_symmetry_equiv_pos_as_xyz
'x,y,z'

loop_
_atom_site_label
_atom_site_type_symbol
_atom_site_fract_x
_atom_site_fract_y
_atom_site_fract_z
Er11	Er1	0.750000	0.000000	0.486190
Er21	Er2	0.750000	0.500000	0.013810
Er31	Er3	0.250000	0.000000	0.513810
Er41	Er4	0.250000	0.500000	0.986190
H11	H1	0.868700	0.890500	0.111200
H21	H2	0.911200	0.813100	0.044600
H31	H3	0.860700	0.806500	0.843200
H41	H4	0.815200	0.882000	0.776900
H51	H5	0.585600	0.941400	0.142100
H61	H6	0.584500	0.943900	0.229900
H71	H7	0.699200	0.754800	0.969500
H81	H8	0.762200	0.655300	0.982200
H91	H9	0.153300	0.692800	0.930800
H101	H10	0.087800	0.792900	0.916300
H111	H11	0.909200	0.059900	0.746800
H121	H12	0.907700	0.060500	0.658700
H131	H13	0.522700	0.031100	0.418800
H141	H14	0.630500	0.011100	0.382700
H151	H15	0.631300	0.109500	0.111200
H161	H16	0.588800	0.186900	0.044600
H171	H17	0.639300	0.193500	0.843200
H181	H18	0.684800	0.118000	0.776900
H191	H19	0.914400	0.058600	0.142100
H201	H20	0.915500	0.056100	0.229900
H211	H21	0.800800	0.245200	0.969500
H221	H22	0.737800	0.344700	0.982200
H231	H23	0.346700	0.307200	0.930800
H241	H24	0.412200	0.207100	0.916300
H251	H25	0.590800	0.940100	0.746800
H261	H26	0.592300	0.939500	0.658700
H271	H27	0.977300	0.968900	0.418800
H281	H28	0.869500	0.988900	0.382700
H291	H29	0.631300	0.390500	0.388800
H301	H30	0.588800	0.313100	0.455400
H311	H31	0.639300	0.306500	0.656800
H321	H32	0.684800	0.382000	0.723100
H331	H33	0.914400	0.441400	0.357900
H341	H34	0.915500	0.443900	0.270100
H351	H35	0.800800	0.254800	0.530500
H361	H36	0.737800	0.155300	0.517800
H371	H37	0.346700	0.192800	0.569200
H381	H38	0.412200	0.292900	0.583700
H391	H39	0.590800	0.559900	0.753200
H401	H40	0.592300	0.560500	0.841300
H411	H41	0.977300	0.531100	0.081200
H421	H42	0.869500	0.511100	0.117300
H431	H43	0.868700	0.609500	0.388800
H441	H44	0.911200	0.686900	0.455400
H451	H45	0.860700	0.693500	0.656800
H461	H46	0.815200	0.618000	0.723100
H471	H47	0.585600	0.558600	0.357900
H481	H48	0.584500	0.556100	0.270100
H491	H49	0.699200	0.745200	0.530500
H501	H50	0.762200	0.844700	0.517800
H511	H51	0.153300	0.807200	0.569200
H521	H52	0.087800	0.707100	0.583700
H531	H53	0.909200	0.440100	0.753200
H541	H54	0.907700	0.439500	0.841300
H551	H55	0.522700	0.468900	0.081200
H561	H56	0.630500	0.488900	0.117300
H571	H57	0.131300	0.109500	0.888800
H581	H58	0.088800	0.186900	0.955400
H591	H59	0.139300	0.193500	0.156800
H601	H60	0.184800	0.118000	0.223100
H611	H61	0.414400	0.058600	0.857900
H621	H62	0.415500	0.056100	0.770100
H631	H63	0.300800	0.245200	0.030500
H641	H64	0.237800	0.344700	0.017800
H651	H65	0.846700	0.307200	0.069200
H661	H66	0.912200	0.207100	0.083700
H671	H67	0.090800	0.940100	0.253200
H681	H68	0.092300	0.939500	0.341300
H691	H69	0.477300	0.968900	0.581200
H701	H70	0.369500	0.988900	0.617300
H711	H71	0.368700	0.890500	0.888800
H721	H72	0.411200	0.813100	0.955400
H731	H73	0.360700	0.806500	0.156800
H741	H74	0.315200	0.882000	0.223100
H751	H75	0.085600	0.941400	0.857900
H761	H76	0.084500	0.943900	0.770100
H771	H77	0.199200	0.754800	0.030500
H781	H78	0.262200	0.655300	0.017800
H791	H79	0.653300	0.692800	0.069200
H801	H80	0.587800	0.792900	0.083700
H811	H81	0.409200	0.059900	0.253200
H821	H82	0.407700	0.060500	0.341300
H831	H83	0.022700	0.031100	0.581200
H841	H84	0.130500	0.011100	0.617300
H851	H85	0.368700	0.609500	0.611200
H861	H86	0.411200	0.686900	0.544600
H871	H87	0.360700	0.693500	0.343200
H881	H88	0.315200	0.618000	0.276900
H891	H89	0.085600	0.558600	0.642100
H901	H90	0.084500	0.556100	0.729900
H911	H91	0.199200	0.745200	0.469500
H921	H92	0.262200	0.844700	0.482200
H931	H93	0.653300	0.807200	0.430800
H941	H94	0.587800	0.707100	0.416300
H951	H95	0.409200	0.440100	0.246800
H961	H96	0.407700	0.439500	0.158700
H971	H97	0.022700	0.468900	0.918800
H981	H98	0.130500	0.488900	0.882700
H991	H99	0.131300	0.390500	0.611200
H1001	H100	0.088800	0.313100	0.544600
H1011	H101	0.139300	0.306500	0.343200
H1021	H102	0.184800	0.382000	0.276900
H1031	H103	0.414400	0.441400	0.642100
H1041	H104	0.415500	0.443900	0.729900
H1051	H105	0.300800	0.254800	0.469500
H1061	H106	0.237800	0.155300	0.482200
H1071	H107	0.846700	0.192800	0.430800
H1081	H108	0.912200	0.292900	0.416300
H1091	H109	0.090800	0.559900	0.246800
H1101	H110	0.092300	0.560500	0.158700
H1111	H111	0.477300	0.531100	0.918800
H1121	H112	0.369500	0.511100	0.882700
C11	C1	0.794900	0.947100	0.051280
C21	C2	0.851800	0.895000	0.075860
C31	C3	0.877200	0.853100	0.039480
C41	C4	0.842800	0.880700	0.991670
C51	C5	0.850600	0.850660	0.944480
C61	C6	0.823700	0.877700	0.897220
C71	C7	0.837500	0.847800	0.848550
C81	C8	0.811800	0.888800	0.812510
C91	C9	0.777700	0.945400	0.837310
C101	C10	0.652700	0.965700	0.159600
C111	C11	0.653300	0.966800	0.211900
C121	C12	0.888500	0.786400	0.945900
C131	C13	0.794100	0.742900	0.962500
C141	C14	0.830200	0.683200	0.969600
C151	C15	0.964900	0.664500	0.958360
C161	C16	0.059900	0.705600	0.939100
C171	C17	0.022100	0.765800	0.931400
C181	C18	0.011100	0.601800	0.970500
C191	C19	0.843300	0.035200	0.729070
C201	C20	0.842800	0.035500	0.676550
C211	C21	0.705100	0.052900	0.051280
C221	C22	0.648200	0.105000	0.075860
C231	C23	0.622800	0.146900	0.039480
C241	C24	0.657200	0.119300	0.991670
C251	C25	0.649400	0.149340	0.944480
C261	C26	0.676300	0.122300	0.897220
C271	C27	0.662500	0.152200	0.848550
C281	C28	0.688200	0.111200	0.812510
C291	C29	0.722300	0.054600	0.837310
C301	C30	0.847300	0.034300	0.159600
C311	C31	0.846700	0.033200	0.211900
C321	C32	0.611500	0.213600	0.945900
C331	C33	0.705900	0.257100	0.962500
C341	C34	0.669800	0.316800	0.969600
C351	C35	0.535100	0.335500	0.958360
C361	C36	0.440100	0.294400	0.939100
C371	C37	0.477900	0.234200	0.931400
C381	C38	0.488900	0.398200	0.970500
C391	C39	0.656700	0.964800	0.729070
C401	C40	0.657200	0.964500	0.676550
C411	C41	0.705100	0.447100	0.448720
C421	C42	0.648200	0.395000	0.424140
C431	C43	0.622800	0.353100	0.460520
C441	C44	0.657200	0.380700	0.508330
C451	C45	0.649400	0.350660	0.555520
C461	C46	0.676300	0.377700	0.602780
C471	C47	0.662500	0.347800	0.651450
C481	C48	0.688200	0.388800	0.687490
C491	C49	0.722300	0.445400	0.662690
C501	C50	0.847300	0.465700	0.340400
C511	C51	0.846700	0.466800	0.288100
C521	C52	0.611500	0.286400	0.554100
C531	C53	0.705900	0.242900	0.537500
C541	C54	0.669800	0.183200	0.530400
C551	C55	0.535100	0.164500	0.541640
C561	C56	0.440100	0.205600	0.560900
C571	C57	0.477900	0.265800	0.568600
C581	C58	0.488900	0.101800	0.529500
C591	C59	0.656700	0.535200	0.770930
C601	C60	0.657200	0.535500	0.823450
C611	C61	0.794900	0.552900	0.448720
C621	C62	0.851800	0.605000	0.424140
C631	C63	0.877200	0.646900	0.460520
C641	C64	0.842800	0.619300	0.508330
C651	C65	0.850600	0.649340	0.555520
C661	C66	0.823700	0.622300	0.602780
C671	C67	0.837500	0.652200	0.651450
C681	C68	0.811800	0.611200	0.687490
C691	C69	0.777700	0.554600	0.662690
C701	C70	0.652700	0.534300	0.340400
C711	C71	0.653300	0.533200	0.288100
C721	C72	0.888500	0.713600	0.554100
C731	C73	0.794100	0.757100	0.537500
C741	C74	0.830200	0.816800	0.530400
C751	C75	0.964900	0.835500	0.541640
C761	C76	0.059900	0.794400	0.560900
C771	C77	0.022100	0.734200	0.568600
C781	C78	0.011100	0.898200	0.529500
C791	C79	0.843300	0.464800	0.770930
C801	C80	0.842800	0.464500	0.823450
C811	C81	0.205100	0.052900	0.948720
C821	C82	0.148200	0.105000	0.924140
C831	C83	0.122800	0.146900	0.960520
C841	C84	0.157200	0.119300	0.008330
C851	C85	0.149400	0.149340	0.055520
C861	C86	0.176300	0.122300	0.102780
C871	C87	0.162500	0.152200	0.151450
C881	C88	0.188200	0.111200	0.187490
C891	C89	0.222300	0.054600	0.162690
C901	C90	0.347300	0.034300	0.840400
C911	C91	0.346700	0.033200	0.788100
C921	C92	0.111500	0.213600	0.054100
C931	C93	0.205900	0.257100	0.037500
C941	C94	0.169800	0.316800	0.030400
C951	C95	0.035100	0.335500	0.041640
C961	C96	0.940100	0.294400	0.060900
C971	C97	0.977900	0.234200	0.068600
C981	C98	0.988900	0.398200	0.029500
C991	C99	0.156700	0.964800	0.270930
C1001	C100	0.157200	0.964500	0.323450
C1011	C101	0.294900	0.947100	0.948720
C1021	C102	0.351800	0.895000	0.924140
C1031	C103	0.377200	0.853100	0.960520
C1041	C104	0.342800	0.880700	0.008330
C1051	C105	0.350600	0.850660	0.055520
C1061	C106	0.323700	0.877700	0.102780
C1071	C107	0.337500	0.847800	0.151450
C1081	C108	0.311800	0.888800	0.187490
C1091	C109	0.277700	0.945400	0.162690
C1101	C110	0.152700	0.965700	0.840400
C1111	C111	0.153300	0.966800	0.788100
C1121	C112	0.388500	0.786400	0.054100
C1131	C113	0.294100	0.742900	0.037500
C1141	C114	0.330200	0.683200	0.030400
C1151	C115	0.464900	0.664500	0.041640
C1161	C116	0.559900	0.705600	0.060900
C1171	C117	0.522100	0.765800	0.068600
C1181	C118	0.511100	0.601800	0.029500
C1191	C119	0.343300	0.035200	0.270930
C1201	C120	0.342800	0.035500	0.323450
C1211	C121	0.294900	0.552900	0.551280
C1221	C122	0.351800	0.605000	0.575860
C1231	C123	0.377200	0.646900	0.539480
C1241	C124	0.342800	0.619300	0.491670
C1251	C125	0.350600	0.649340	0.444480
C1261	C126	0.323700	0.622300	0.397220
C1271	C127	0.337500	0.652200	0.348550
C1281	C128	0.311800	0.611200	0.312510
C1291	C129	0.277700	0.554600	0.337310
C1301	C130	0.152700	0.534300	0.659600
C1311	C131	0.153300	0.533200	0.711900
C1321	C132	0.388500	0.713600	0.445900
C1331	C133	0.294100	0.757100	0.462500
C1341	C134	0.330200	0.816800	0.469600
C1351	C135	0.464900	0.835500	0.458360
C1361	C136	0.559900	0.794400	0.439100
C1371	C137	0.522100	0.734200	0.431400
C1381	C138	0.511100	0.898200	0.470500
C1391	C139	0.343300	0.464800	0.229070
C1401	C140	0.342800	0.464500	0.176550
C1411	C141	0.205100	0.447100	0.551280
C1421	C142	0.148200	0.395000	0.575860
C1431	C143	0.122800	0.353100	0.539480
C1441	C144	0.157200	0.380700	0.491670
C1451	C145	0.149400	0.350660	0.444480
C1461	C146	0.176300	0.377700	0.397220
C1471	C147	0.162500	0.347800	0.348550
C1481	C148	0.188200	0.388800	0.312510
C1491	C149	0.222300	0.445400	0.337310
C1501	C150	0.347300	0.465700	0.659600
C1511	C151	0.346700	0.466800	0.711900
C1521	C152	0.111500	0.286400	0.445900
C1531	C153	0.205900	0.242900	0.462500
C1541	C154	0.169800	0.183200	0.469600
C1551	C155	0.035100	0.164500	0.458360
C1561	C156	0.940100	0.205600	0.439100
C1571	C157	0.977900	0.265800	0.431400
C1581	C158	0.988900	0.101800	0.470500
C1591	C159	0.156700	0.535200	0.229070
C1601	C160	0.157200	0.535500	0.176550
C1611	C161	0.750000	0.000000	0.076200
C1621	C162	0.750000	0.000000	0.812700
C1631	C163	0.750000	0.000000	0.132500
C1641	C164	0.750000	0.000000	0.238600
C1651	C165	0.750000	0.000000	0.297400
C1661	C166	0.750000	0.000000	0.755900
C1671	C167	0.750000	0.000000	0.650000
C1681	C168	0.750000	0.000000	0.592910
C1691	C169	0.750000	0.500000	0.423800
C1701	C170	0.750000	0.500000	0.687300
C1711	C171	0.750000	0.500000	0.367500
C1721	C172	0.750000	0.500000	0.261400
C1731	C173	0.750000	0.500000	0.202600
C1741	C174	0.750000	0.500000	0.744100
C1751	C175	0.750000	0.500000	0.850000
C1761	C176	0.750000	0.500000	0.907090
C1771	C177	0.250000	0.000000	0.923800
C1781	C178	0.250000	0.000000	0.187300
C1791	C179	0.250000	0.000000	0.867500
C1801	C180	0.250000	0.000000	0.761400
C1811	C181	0.250000	0.000000	0.702600
C1821	C182	0.250000	0.000000	0.244100
C1831	C183	0.250000	0.000000	0.350000
C1841	C184	0.250000	0.000000	0.407090
C1851	C185	0.250000	0.500000	0.576200
C1861	C186	0.250000	0.500000	0.312700
C1871	C187	0.250000	0.500000	0.632500
C1881	C188	0.250000	0.500000	0.738600
C1891	C189	0.250000	0.500000	0.797400
C1901	C190	0.250000	0.500000	0.255900
C1911	C191	0.250000	0.500000	0.150000
C1921	C192	0.250000	0.500000	0.092910
N11	N1	0.791300	0.937750	0.999820
N21	N2	0.786900	0.936710	0.888810
N31	N3	0.708700	0.062250	0.999820
N41	N4	0.713100	0.063290	0.888810
N51	N5	0.708700	0.437750	0.500180
N61	N6	0.713100	0.436710	0.611190
N71	N7	0.791300	0.562250	0.500180
N81	N8	0.786900	0.563290	0.611190
N91	N9	0.208700	0.062250	0.000180
N101	N10	0.213100	0.063290	0.111190
N111	N11	0.291300	0.937750	0.000180
N121	N12	0.286900	0.936710	0.111190
N131	N13	0.291300	0.562250	0.499820
N141	N14	0.286900	0.563290	0.388810
N151	N15	0.208700	0.437750	0.499820
N161	N16	0.213100	0.436710	0.388810
O11	O1	0.842500	0.029600	0.319210
O21	O2	0.921800	0.566070	0.989150
O31	O3	0.137100	0.587740	0.962350
O41	O4	0.833900	0.034850	0.569160
O51	O5	0.617800	0.029340	0.412980
O61	O6	0.657500	0.970400	0.319210
O71	O7	0.578200	0.433930	0.989150
O81	O8	0.362900	0.412260	0.962350
O91	O9	0.666100	0.965150	0.569160
O101	O10	0.882200	0.970660	0.412980
O111	O11	0.657500	0.529600	0.180790
O121	O12	0.578200	0.066070	0.510850
O131	O13	0.362900	0.087740	0.537650
O141	O14	0.666100	0.534850	0.930840
O151	O15	0.882200	0.529340	0.087020
O161	O16	0.842500	0.470400	0.180790
O171	O17	0.921800	0.933930	0.510850
O181	O18	0.137100	0.912260	0.537650
O191	O19	0.833900	0.465150	0.930840
O201	O20	0.617800	0.470660	0.087020
O211	O21	0.157500	0.970400	0.680790
O221	O22	0.078200	0.433930	0.010850
O231	O23	0.862900	0.412260	0.037650
O241	O24	0.166100	0.965150	0.430840
O251	O25	0.382200	0.970660	0.587020
O261	O26	0.342500	0.029600	0.680790
O271	O27	0.421800	0.566070	0.010850
O281	O28	0.637100	0.587740	0.037650
O291	O29	0.333900	0.034850	0.430840
O301	O30	0.117800	0.029340	0.587020
O311	O31	0.342500	0.470400	0.819210
O321	O32	0.421800	0.933930	0.489150
O331	O33	0.637100	0.912260	0.462350
O341	O34	0.333900	0.465150	0.069160
O351	O35	0.117800	0.470660	0.912980
O361	O36	0.157500	0.529600	0.819210
O371	O37	0.078200	0.066070	0.489150
O381	O38	0.862900	0.087740	0.462350
O391	O39	0.166100	0.534850	0.069160
O401	O40	0.382200	0.529340	0.912980
