data_NIKYUC01_freeONLY_PM
_symmetry_space_group_name_H-M	'P1'
_cell_length_a	9.980300
_cell_length_b	11.452500
_cell_length_c	14.861900
_cell_angle_alpha	91.278000
_cell_angle_beta	90.000000
_cell_angle_gamma	90.000000
_symmetry_Int_Tables_number 1

loop_
_symmetry_equiv_pos_as_xyz
'x,y,z'

loop_
_atom_site_label
_atom_site_type_symbol
_atom_site_fract_x
_atom_site_fract_y
_atom_site_fract_z
Fe11	Fe1	0.923770	0.755910	0.133680
Fe21	Fe2	0.884530	0.260490	0.691980
Fe31	Fe3	0.423770	0.744090	0.366320
Fe41	Fe4	0.384530	0.239510	0.808020
Fe51	Fe5	0.076230	0.244090	0.866320
Fe61	Fe6	0.115470	0.739510	0.308020
Fe71	Fe7	0.576230	0.255910	0.633680
Fe81	Fe8	0.615470	0.760490	0.191980
Fe91	Fe9	0.000000	0.500000	0.000000
Fe101	Fe10	0.500000	0.000000	0.500000
Fe111	Fe11	0.000000	0.000000	0.000000
Fe121	Fe12	0.500000	0.500000	0.500000
H11	H1	0.758000	0.842800	0.370800
H21	H2	0.056000	0.471300	0.261300
H31	H3	0.620000	0.553600	0.051600
H41	H4	0.206000	0.978000	0.223000
H51	H5	0.146000	0.696100	0.927100
H61	H6	0.708000	0.001700	0.021700
H71	H7	0.258000	0.657200	0.129200
H81	H8	0.556000	0.028700	0.238700
H91	H9	0.120000	0.946400	0.448400
H101	H10	0.706000	0.522000	0.277000
H111	H11	0.646000	0.803900	0.572900
H121	H12	0.208000	0.498300	0.478300
H131	H13	0.242000	0.157200	0.629200
H141	H14	0.944000	0.528700	0.738700
H151	H15	0.380000	0.446400	0.948400
H161	H16	0.794000	0.022000	0.777000
H171	H17	0.854000	0.303900	0.072900
H181	H18	0.292000	0.998300	0.978300
H191	H19	0.742000	0.342800	0.870800
H201	H20	0.444000	0.971300	0.761300
H211	H21	0.880000	0.053600	0.551600
H221	H22	0.294000	0.478000	0.723000
H231	H23	0.354000	0.196100	0.427100
H241	H24	0.792000	0.501700	0.521700
C11	C1	0.833000	0.819260	0.332860
C21	C2	0.030500	0.517810	0.206510
C31	C3	0.713300	0.570930	0.056430
C41	C4	0.138200	0.951100	0.181900
C51	C5	0.095600	0.742380	0.965380
C61	C6	0.725700	0.936990	0.061590
C71	C7	0.333000	0.680740	0.167140
C81	C8	0.530500	0.982190	0.293490
C91	C9	0.213300	0.929070	0.443570
C101	C10	0.638200	0.548900	0.318100
C111	C11	0.595600	0.757620	0.534620
C121	C12	0.225700	0.563010	0.438410
C131	C13	0.167000	0.180740	0.667140
C141	C14	0.969500	0.482190	0.793490
C151	C15	0.286700	0.429070	0.943570
C161	C16	0.861800	0.048900	0.818100
C171	C17	0.904400	0.257620	0.034620
C181	C18	0.274300	0.063010	0.938410
C191	C19	0.667000	0.319260	0.832860
C201	C20	0.469500	0.017810	0.706510
C211	C21	0.786700	0.070930	0.556430
C221	C22	0.361800	0.451100	0.681900
C231	C23	0.404400	0.242380	0.465380
C241	C24	0.774300	0.436990	0.561590
O11	O1	0.806130	0.803490	0.249670
O21	O2	0.943140	0.803620	0.368890
O31	O3	0.013580	0.627160	0.214780
O41	O4	0.014560	0.457970	0.137370
O51	O5	0.745440	0.654160	0.109940
O61	O6	0.791060	0.512930	0.008250
O71	O7	0.085700	0.851610	0.195640
O81	O8	0.115130	0.014530	0.118060
O91	O9	0.024760	0.686900	0.022320
O101	O10	0.103130	0.848460	0.958470
O111	O11	0.846620	0.900870	0.066150
O121	O12	0.629020	0.897590	0.102830
O131	O13	0.306130	0.696510	0.250330
O141	O14	0.443140	0.696380	0.131110
O151	O15	0.513580	0.872840	0.285220
O161	O16	0.514560	0.042030	0.362630
O171	O17	0.245440	0.845840	0.390060
O181	O18	0.291060	0.987070	0.491750
O191	O19	0.585700	0.648390	0.304360
O201	O20	0.615130	0.485470	0.381940
O211	O21	0.524760	0.813100	0.477680
O221	O22	0.603130	0.651540	0.541530
O231	O23	0.346620	0.599130	0.433850
O241	O24	0.129020	0.602410	0.397170
O251	O25	0.193870	0.196510	0.750330
O261	O26	0.056860	0.196380	0.631110
O271	O27	0.986420	0.372840	0.785220
O281	O28	0.985440	0.542030	0.862630
O291	O29	0.254560	0.345840	0.890060
O301	O30	0.208940	0.487070	0.991750
O311	O31	0.914300	0.148390	0.804360
O321	O32	0.884870	0.985470	0.881940
O331	O33	0.975240	0.313100	0.977680
O341	O34	0.896870	0.151540	0.041530
O351	O35	0.153380	0.099130	0.933850
O361	O36	0.370980	0.102410	0.897170
O371	O37	0.693870	0.303490	0.749670
O381	O38	0.556860	0.303620	0.868890
O391	O39	0.486420	0.127160	0.714780
O401	O40	0.485440	0.957970	0.637370
O411	O41	0.754560	0.154160	0.609940
O421	O42	0.708940	0.012930	0.508250
O431	O43	0.414300	0.351610	0.695640
O441	O44	0.384870	0.514530	0.618060
O451	O45	0.475240	0.186900	0.522320
O461	O46	0.396870	0.348460	0.458470
O471	O47	0.653380	0.400870	0.566150
O481	O48	0.870980	0.397590	0.602830
