data_NIKZAJ02_freeONLY_PM
_symmetry_space_group_name_H-M	'P1'
_cell_length_a	9.882000
_cell_length_b	11.398300
_cell_length_c	14.614400
_cell_angle_alpha	91.322300
_cell_angle_beta	90.000000
_cell_angle_gamma	90.000000
_symmetry_Int_Tables_number 1

loop_
_symmetry_equiv_pos_as_xyz
'x,y,z'

loop_
_atom_site_label
_atom_site_type_symbol
_atom_site_fract_x
_atom_site_fract_y
_atom_site_fract_z
Fe11	Fe1	0.918470	0.756050	0.131960
Fe21	Fe2	0.894650	0.260170	0.687170
Fe31	Fe3	0.418470	0.743950	0.368040
Fe41	Fe4	0.394650	0.239830	0.812830
Fe51	Fe5	0.081530	0.243950	0.868040
Fe61	Fe6	0.105350	0.739830	0.312830
Fe71	Fe7	0.581530	0.256050	0.631960
Fe81	Fe8	0.605350	0.760170	0.187170
Fe91	Fe9	0.000000	0.500000	0.000000
Fe101	Fe10	0.500000	0.000000	0.500000
Fe111	Fe11	0.000000	0.000000	0.000000
Fe121	Fe12	0.500000	0.500000	0.500000
H11	H1	0.752400	0.859700	0.366100
H21	H2	0.025000	0.475800	0.265500
H31	H3	0.618800	0.558700	0.037900
H41	H4	0.188000	0.980300	0.232800
H51	H5	0.168100	0.700000	0.934000
H61	H6	0.700100	0.991500	0.010700
H71	H7	0.252400	0.640300	0.133900
H81	H8	0.525000	0.024200	0.234500
H91	H9	0.118800	0.941300	0.462100
H101	H10	0.688000	0.519700	0.267200
H111	H11	0.668100	0.800000	0.566000
H121	H12	0.200100	0.508500	0.489300
H131	H13	0.247600	0.140300	0.633900
H141	H14	0.975000	0.524200	0.734500
H151	H15	0.381200	0.441300	0.962100
H161	H16	0.812000	0.019700	0.767200
H171	H17	0.831900	0.300000	0.066000
H181	H18	0.299900	0.008500	0.989300
H191	H19	0.747600	0.359700	0.866100
H201	H20	0.475000	0.975800	0.765500
H211	H21	0.881200	0.058700	0.537900
H221	H22	0.312000	0.480300	0.732800
H231	H23	0.331900	0.200000	0.434000
H241	H24	0.799900	0.491500	0.510700
C11	C1	0.822600	0.830110	0.330010
C21	C2	0.008100	0.516090	0.212090
C31	C3	0.710000	0.576200	0.045500
C41	C4	0.129500	0.952910	0.187210
C51	C5	0.108100	0.743750	0.970150
C61	C6	0.716800	0.931340	0.051140
C71	C7	0.322600	0.669890	0.169990
C81	C8	0.508100	0.983910	0.287910
C91	C9	0.210000	0.923800	0.454500
C101	C10	0.629500	0.547090	0.312790
C111	C11	0.608100	0.756250	0.529850
C121	C12	0.216800	0.568660	0.448860
C131	C13	0.177400	0.169890	0.669990
C141	C14	0.991900	0.483910	0.787910
C151	C15	0.290000	0.423800	0.954500
C161	C16	0.870500	0.047090	0.812790
C171	C17	0.891900	0.256250	0.029850
C181	C18	0.283200	0.068660	0.948860
C191	C19	0.677400	0.330110	0.830010
C201	C20	0.491900	0.016090	0.712090
C211	C21	0.790000	0.076200	0.545500
C221	C22	0.370500	0.452910	0.687210
C231	C23	0.391900	0.243750	0.470150
C241	C24	0.783200	0.431340	0.551140
O11	O1	0.796370	0.809030	0.246230
O21	O2	0.932570	0.815090	0.368290
O31	O3	0.001020	0.626740	0.218810
O41	O4	0.994600	0.456930	0.141130
O51	O5	0.739210	0.652480	0.106110
O61	O6	0.790270	0.522230	0.995030
O71	O7	0.081630	0.851190	0.196680
O81	O8	0.107000	0.019260	0.124160
O91	O9	0.030080	0.686620	0.023030
O101	O10	0.111300	0.849970	0.962670
O111	O11	0.840290	0.898620	0.059830
O121	O12	0.618400	0.890980	0.091160
O131	O13	0.296370	0.690970	0.253770
O141	O14	0.432570	0.684910	0.131710
O151	O15	0.501020	0.873260	0.281190
O161	O16	0.494600	0.043070	0.358870
O171	O17	0.239210	0.847520	0.393890
O181	O18	0.290270	0.977770	0.504970
O191	O19	0.581630	0.648810	0.303320
O201	O20	0.607000	0.480740	0.375840
O211	O21	0.530080	0.813380	0.476970
O221	O22	0.611300	0.650030	0.537330
O231	O23	0.340290	0.601380	0.440170
O241	O24	0.118400	0.609020	0.408840
O251	O25	0.203630	0.190970	0.753770
O261	O26	0.067430	0.184910	0.631710
O271	O27	0.998980	0.373260	0.781190
O281	O28	0.005400	0.543070	0.858870
O291	O29	0.260790	0.347520	0.893890
O301	O30	0.209730	0.477770	0.004970
O311	O31	0.918370	0.148810	0.803320
O321	O32	0.893000	0.980740	0.875840
O331	O33	0.969920	0.313380	0.976970
O341	O34	0.888700	0.150030	0.037330
O351	O35	0.159710	0.101380	0.940170
O361	O36	0.381600	0.109020	0.908840
O371	O37	0.703630	0.309030	0.746230
O381	O38	0.567430	0.315090	0.868290
O391	O39	0.498980	0.126740	0.718810
O401	O40	0.505400	0.956930	0.641130
O411	O41	0.760790	0.152480	0.606110
O421	O42	0.709730	0.022230	0.495030
O431	O43	0.418370	0.351190	0.696680
O441	O44	0.393000	0.519260	0.624160
O451	O45	0.469920	0.186620	0.523030
O461	O46	0.388700	0.349970	0.462670
O471	O47	0.659710	0.398620	0.559830
O481	O48	0.881600	0.390980	0.591160
