data_NIKZEN_freeONLY_PM
_symmetry_space_group_name_H-M	'P1'
_cell_length_a	9.885500
_cell_length_b	11.408200
_cell_length_c	14.805100
_cell_angle_alpha	91.410700
_cell_angle_beta	90.000000
_cell_angle_gamma	90.000000
_symmetry_Int_Tables_number 1

loop_
_symmetry_equiv_pos_as_xyz
'x,y,z'

loop_
_atom_site_label
_atom_site_type_symbol
_atom_site_fract_x
_atom_site_fract_y
_atom_site_fract_z
Fe11	Fe1	0.923920	0.756540	0.132910
Fe21	Fe2	0.886010	0.260190	0.691760
Fe31	Fe3	0.423920	0.743460	0.367090
Fe41	Fe4	0.386010	0.239810	0.808240
Fe51	Fe5	0.076080	0.243460	0.867090
Fe61	Fe6	0.113990	0.739810	0.308240
Fe71	Fe7	0.576080	0.256540	0.632910
Fe81	Fe8	0.613990	0.760190	0.191760
Fe91	Fe9	0.000000	0.500000	0.000000
Fe101	Fe10	0.500000	0.000000	0.500000
Fe111	Fe11	0.000000	0.000000	0.000000
Fe121	Fe12	0.500000	0.500000	0.500000
H11	H1	0.762100	0.854800	0.368300
H21	H2	0.042900	0.476500	0.260200
H31	H3	0.620200	0.558100	0.044300
H41	H4	0.205300	0.977000	0.223400
H51	H5	0.160300	0.696800	0.929600
H61	H6	0.705400	0.994800	0.018700
H71	H7	0.262100	0.645200	0.131700
H81	H8	0.542900	0.023500	0.239800
H91	H9	0.120200	0.941900	0.455700
H101	H10	0.705300	0.523000	0.276600
H111	H11	0.660300	0.803200	0.570400
H121	H12	0.205400	0.505200	0.481300
H131	H13	0.237900	0.145200	0.631700
H141	H14	0.957100	0.523500	0.739800
H151	H15	0.379800	0.441900	0.955700
H161	H16	0.794700	0.023000	0.776600
H171	H17	0.839700	0.303200	0.070400
H181	H18	0.294600	0.005200	0.981300
H191	H19	0.737900	0.354800	0.868300
H201	H20	0.457100	0.976500	0.760200
H211	H21	0.879800	0.058100	0.544300
H221	H22	0.294700	0.477000	0.723400
H231	H23	0.339700	0.196800	0.429600
H241	H24	0.794600	0.494800	0.518700
C11	C1	0.831800	0.825540	0.332040
C21	C2	0.020500	0.516100	0.208100
C31	C3	0.711800	0.575300	0.050100
C41	C4	0.141300	0.951000	0.181500
C51	C5	0.104200	0.741800	0.967100
C61	C6	0.722400	0.934690	0.058490
C71	C7	0.331800	0.674460	0.167960
C81	C8	0.520500	0.983900	0.291900
C91	C9	0.211800	0.924700	0.449900
C101	C10	0.641300	0.549000	0.318500
C111	C11	0.604200	0.758200	0.532900
C121	C12	0.222400	0.565310	0.441510
C131	C13	0.168200	0.174460	0.667960
C141	C14	0.979500	0.483900	0.791900
C151	C15	0.288200	0.424700	0.949900
C161	C16	0.858700	0.049000	0.818500
C171	C17	0.895800	0.258200	0.032900
C181	C18	0.277600	0.065310	0.941510
C191	C19	0.668200	0.325540	0.832040
C201	C20	0.479500	0.016100	0.708100
C211	C21	0.788200	0.075300	0.550100
C221	C22	0.358700	0.451000	0.681500
C231	C23	0.395800	0.241800	0.467100
C241	C24	0.777600	0.434690	0.558490
O11	O1	0.804840	0.807440	0.248720
O21	O2	0.941780	0.807990	0.369390
O31	O3	0.010120	0.627460	0.215460
O41	O4	0.003960	0.456120	0.139120
O51	O5	0.744170	0.654290	0.108500
O61	O6	0.790310	0.519250	0.000250
O71	O7	0.087520	0.851400	0.195050
O81	O8	0.117080	0.016140	0.118440
O91	O9	0.029090	0.686590	0.022790
O101	O10	0.108520	0.849150	0.959050
O111	O11	0.844830	0.900420	0.064700
O121	O12	0.624030	0.896300	0.099900
O131	O13	0.304840	0.692560	0.251280
O141	O14	0.441780	0.692010	0.130610
O151	O15	0.510120	0.872540	0.284540
O161	O16	0.503960	0.043880	0.360880
O171	O17	0.244170	0.845710	0.391500
O181	O18	0.290310	0.980750	0.499750
O191	O19	0.587520	0.648600	0.304950
O201	O20	0.617080	0.483860	0.381560
O211	O21	0.529090	0.813410	0.477210
O221	O22	0.608520	0.650850	0.540950
O231	O23	0.344830	0.599580	0.435300
O241	O24	0.124030	0.603700	0.400100
O251	O25	0.195160	0.192560	0.751280
O261	O26	0.058220	0.192010	0.630610
O271	O27	0.989880	0.372540	0.784540
O281	O28	0.996040	0.543880	0.860880
O291	O29	0.255830	0.345710	0.891500
O301	O30	0.209690	0.480750	0.999750
O311	O31	0.912480	0.148600	0.804950
O321	O32	0.882920	0.983860	0.881560
O331	O33	0.970910	0.313410	0.977210
O341	O34	0.891480	0.150850	0.040950
O351	O35	0.155170	0.099580	0.935300
O361	O36	0.375970	0.103700	0.900100
O371	O37	0.695160	0.307440	0.748720
O381	O38	0.558220	0.307990	0.869390
O391	O39	0.489880	0.127460	0.715460
O401	O40	0.496040	0.956120	0.639120
O411	O41	0.755830	0.154290	0.608500
O421	O42	0.709690	0.019250	0.500250
O431	O43	0.412480	0.351400	0.695050
O441	O44	0.382920	0.516140	0.618440
O451	O45	0.470910	0.186590	0.522790
O461	O46	0.391480	0.349150	0.459050
O471	O47	0.655170	0.400420	0.564700
O481	O48	0.875970	0.396300	0.599900
