data_NIKZEN01_freeONLY_PM
_symmetry_space_group_name_H-M	'P1'
_cell_length_a	9.936900
_cell_length_b	11.444300
_cell_length_c	14.814200
_cell_angle_alpha	91.474700
_cell_angle_beta	90.000000
_cell_angle_gamma	90.000000
_symmetry_Int_Tables_number 1

loop_
_symmetry_equiv_pos_as_xyz
'x,y,z'

loop_
_atom_site_label
_atom_site_type_symbol
_atom_site_fract_x
_atom_site_fract_y
_atom_site_fract_z
Fe11	Fe1	0.924450	0.756370	0.132940
Fe21	Fe2	0.615300	0.759960	0.192010
Fe31	Fe3	0.424450	0.743630	0.367060
Fe41	Fe4	0.115300	0.740040	0.307990
Fe51	Fe5	0.075550	0.243630	0.867060
Fe61	Fe6	0.384700	0.240040	0.807990
Fe71	Fe7	0.575550	0.256370	0.632940
Fe81	Fe8	0.884700	0.259960	0.692010
Fe91	Fe9	0.000000	0.500000	0.000000
Fe101	Fe10	0.500000	0.000000	0.500000
Fe111	Fe11	0.000000	0.000000	0.000000
Fe121	Fe12	0.500000	0.500000	0.500000
H11	H1	0.763300	0.854200	0.369400
H21	H2	0.047100	0.477200	0.260800
H31	H3	0.620300	0.556300	0.046200
H41	H4	0.202700	0.978800	0.225400
H51	H5	0.158600	0.696500	0.927700
H61	H6	0.706600	0.996600	0.019500
H71	H7	0.263300	0.645800	0.130600
H81	H8	0.547100	0.022800	0.239200
H91	H9	0.120300	0.943700	0.453800
H101	H10	0.702700	0.521200	0.274600
H111	H11	0.658600	0.803500	0.572300
H121	H12	0.206600	0.503400	0.480500
H131	H13	0.236700	0.145800	0.630600
H141	H14	0.952900	0.522800	0.739200
H151	H15	0.379700	0.443700	0.953800
H161	H16	0.797300	0.021200	0.774600
H171	H17	0.841400	0.303500	0.072300
H181	H18	0.293400	0.003400	0.980500
H191	H19	0.736700	0.354200	0.869400
H201	H20	0.452900	0.977200	0.760800
H211	H21	0.879700	0.056300	0.546200
H221	H22	0.297300	0.478800	0.725400
H231	H23	0.341400	0.196500	0.427700
H241	H24	0.793400	0.496600	0.519500
C11	C1	0.833600	0.824200	0.332000
C21	C2	0.023200	0.517290	0.207790
C31	C3	0.713300	0.574550	0.051450
C41	C4	0.139400	0.951260	0.181760
C51	C5	0.102200	0.742080	0.966680
C61	C6	0.724100	0.934600	0.059300
C71	C7	0.333600	0.675800	0.168000
C81	C8	0.523200	0.982710	0.292210
C91	C9	0.213300	0.925450	0.448550
C101	C10	0.639400	0.548740	0.318240
C111	C11	0.602200	0.757920	0.533320
C121	C12	0.224100	0.565400	0.440700
C131	C13	0.166400	0.175800	0.668000
C141	C14	0.976800	0.482710	0.792210
C151	C15	0.286700	0.425450	0.948550
C161	C16	0.860600	0.048740	0.818240
C171	C17	0.897800	0.257920	0.033320
C181	C18	0.275900	0.065400	0.940700
C191	C19	0.666400	0.324200	0.832000
C201	C20	0.476800	0.017290	0.707790
C211	C21	0.786700	0.074550	0.551450
C221	C22	0.360600	0.451260	0.681760
C231	C23	0.397800	0.242080	0.466680
C241	C24	0.775900	0.434600	0.559300
O11	O1	0.805880	0.805930	0.248970
O21	O2	0.443350	0.693390	0.131270
O31	O3	0.012390	0.627850	0.214820
O41	O4	0.005500	0.457430	0.138870
O51	O5	0.745350	0.654420	0.108710
O61	O6	0.791260	0.518170	0.001850
O71	O7	0.087220	0.851400	0.194700
O81	O8	0.116010	0.015520	0.118420
O91	O9	0.027940	0.686730	0.022440
O101	O10	0.106590	0.848760	0.959490
O111	O11	0.846230	0.900080	0.064800
O121	O12	0.626810	0.895490	0.100550
O131	O13	0.305880	0.694070	0.251030
O141	O14	0.943350	0.806610	0.368730
O151	O15	0.512390	0.872150	0.285180
O161	O16	0.505500	0.042570	0.361130
O171	O17	0.245350	0.845580	0.391290
O181	O18	0.291260	0.981830	0.498150
O191	O19	0.587220	0.648600	0.305300
O201	O20	0.616010	0.484480	0.381580
O211	O21	0.527940	0.813270	0.477560
O221	O22	0.606590	0.651240	0.540510
O231	O23	0.346230	0.599920	0.435200
O241	O24	0.126810	0.604510	0.399450
O251	O25	0.194120	0.194070	0.751030
O261	O26	0.556650	0.306610	0.868730
O271	O27	0.987610	0.372150	0.785180
O281	O28	0.994500	0.542570	0.861130
O291	O29	0.254650	0.345580	0.891290
O301	O30	0.208740	0.481830	0.998150
O311	O31	0.912780	0.148600	0.805300
O321	O32	0.883990	0.984480	0.881580
O331	O33	0.972060	0.313270	0.977560
O341	O34	0.893410	0.151240	0.040510
O351	O35	0.153770	0.099920	0.935200
O361	O36	0.373190	0.104510	0.899450
O371	O37	0.694120	0.305930	0.748970
O381	O38	0.056650	0.193390	0.631270
O391	O39	0.487610	0.127850	0.714820
O401	O40	0.494500	0.957430	0.638870
O411	O41	0.754650	0.154420	0.608710
O421	O42	0.708740	0.018170	0.501850
O431	O43	0.412780	0.351400	0.694700
O441	O44	0.383990	0.515520	0.618420
O451	O45	0.472060	0.186730	0.522440
O461	O46	0.393410	0.348760	0.459490
O471	O47	0.653770	0.400080	0.564800
O481	O48	0.873190	0.395490	0.600550
