data_NIKZAJ_freeONLY_PM
_symmetry_space_group_name_H-M	'P1'
_cell_length_a	9.757700
_cell_length_b	11.319000
_cell_length_c	14.515600
_cell_angle_alpha	91.061700
_cell_angle_beta	90.000000
_cell_angle_gamma	90.000000
_symmetry_Int_Tables_number 1

loop_
_symmetry_equiv_pos_as_xyz
'x,y,z'

loop_
_atom_site_label
_atom_site_type_symbol
_atom_site_fract_x
_atom_site_fract_y
_atom_site_fract_z
Fe11	Fe1	0.915710	0.755870	0.131430
Fe21	Fe2	0.900210	0.261340	0.685010
Fe31	Fe3	0.415710	0.744130	0.368570
Fe41	Fe4	0.400210	0.238660	0.814990
Fe51	Fe5	0.084290	0.244130	0.868570
Fe61	Fe6	0.099790	0.738660	0.314990
Fe71	Fe7	0.584290	0.255870	0.631430
Fe81	Fe8	0.599790	0.761340	0.185010
Fe91	Fe9	0.000000	0.500000	0.000000
Fe101	Fe10	0.500000	0.000000	0.500000
Fe111	Fe11	0.000000	0.000000	0.000000
Fe121	Fe12	0.500000	0.500000	0.500000
H11	H1	0.743400	0.867100	0.365100
H21	H2	0.016200	0.471500	0.269800
H31	H3	0.611200	0.559500	0.032900
H41	H4	0.183800	0.983800	0.238400
H51	H5	0.178600	0.697600	0.936900
H61	H6	0.695700	0.991800	0.002900
H71	H7	0.243400	0.632900	0.134900
H81	H8	0.516200	0.028500	0.230200
H91	H9	0.111200	0.940500	0.467100
H101	H10	0.683800	0.516200	0.261600
H111	H11	0.678600	0.802400	0.563100
H121	H12	0.195700	0.508200	0.497100
H131	H13	0.256600	0.132900	0.634900
H141	H14	0.983800	0.528500	0.730200
H151	H15	0.388800	0.440500	0.967100
H161	H16	0.816200	0.016200	0.761600
H171	H17	0.821400	0.302400	0.063100
H181	H18	0.304300	0.008200	0.997100
H191	H19	0.756600	0.367100	0.865100
H201	H20	0.483800	0.971500	0.769800
H211	H21	0.888800	0.059500	0.532900
H221	H22	0.316200	0.483800	0.738400
H231	H23	0.321400	0.197600	0.436900
H241	H24	0.804300	0.491800	0.502900
C11	C1	0.816200	0.834470	0.329370
C21	C2	0.000900	0.513230	0.214530
C31	C3	0.705500	0.577090	0.041890
C41	C4	0.126400	0.955270	0.190070
C51	C5	0.114200	0.742980	0.971680
C61	C6	0.711600	0.931310	0.046110
C71	C7	0.316200	0.665530	0.170630
C81	C8	0.500900	0.986770	0.285470
C91	C9	0.205500	0.922910	0.458110
C101	C10	0.626400	0.544730	0.309930
C111	C11	0.614200	0.757020	0.528320
C121	C12	0.211600	0.568690	0.453890
C131	C13	0.183800	0.165530	0.670630
C141	C14	0.999100	0.486770	0.785470
C151	C15	0.294500	0.422910	0.958110
C161	C16	0.873600	0.044730	0.809930
C171	C17	0.885800	0.257020	0.028320
C181	C18	0.288400	0.068690	0.953890
C191	C19	0.683800	0.334470	0.829370
C201	C20	0.499100	0.013230	0.714530
C211	C21	0.794500	0.077090	0.541890
C221	C22	0.373600	0.455270	0.690070
C231	C23	0.385800	0.242980	0.471680
C241	C24	0.788400	0.431310	0.546110
O11	O1	0.791490	0.812300	0.244500
O21	O2	0.926000	0.817450	0.369490
O31	O3	0.993700	0.625320	0.221090
O41	O4	0.989830	0.453920	0.142550
O51	O5	0.734710	0.652240	0.104380
O61	O6	0.788710	0.524160	0.991160
O71	O7	0.079960	0.850410	0.197590
O81	O8	0.104180	0.023060	0.126290
O91	O9	0.031770	0.686330	0.023870
O101	O10	0.117170	0.851120	0.962780
O111	O11	0.835930	0.897970	0.056990
O121	O12	0.609850	0.891780	0.086790
O131	O13	0.291490	0.687700	0.255500
O141	O14	0.426000	0.682550	0.130510
O151	O15	0.493700	0.874680	0.278910
O161	O16	0.489830	0.046080	0.357450
O171	O17	0.234710	0.847760	0.395620
O181	O18	0.288710	0.975840	0.508840
O191	O19	0.579960	0.649590	0.302410
O201	O20	0.604180	0.476940	0.373710
O211	O21	0.531770	0.813670	0.476130
O221	O22	0.617170	0.648880	0.537220
O231	O23	0.335930	0.602030	0.443010
O241	O24	0.109850	0.608220	0.413210
O251	O25	0.208510	0.187700	0.755500
O261	O26	0.074000	0.182550	0.630510
O271	O27	0.006300	0.374680	0.778910
O281	O28	0.010170	0.546080	0.857450
O291	O29	0.265290	0.347760	0.895620
O301	O30	0.211290	0.475840	0.008840
O311	O31	0.920040	0.149590	0.802410
O321	O32	0.895820	0.976940	0.873710
O331	O33	0.968230	0.313670	0.976130
O341	O34	0.882830	0.148880	0.037220
O351	O35	0.164070	0.102030	0.943010
O361	O36	0.390150	0.108220	0.913210
O371	O37	0.708510	0.312300	0.744500
O381	O38	0.574000	0.317450	0.869490
O391	O39	0.506300	0.125320	0.721090
O401	O40	0.510170	0.953920	0.642550
O411	O41	0.765290	0.152240	0.604380
O421	O42	0.711290	0.024160	0.491160
O431	O43	0.420040	0.350410	0.697590
O441	O44	0.395820	0.523060	0.626290
O451	O45	0.468230	0.186330	0.523870
O461	O46	0.382830	0.351120	0.462780
O471	O47	0.664070	0.397970	0.556990
O481	O48	0.890150	0.391780	0.586790
