data_NILGIA_freeONLY_PM
_symmetry_space_group_name_H-M	'P1'
_cell_length_a	22.000000
_cell_length_b	15.000000
_cell_length_c	24.000000
_cell_angle_alpha	90.000000
_cell_angle_beta	90.000000
_cell_angle_gamma	90.000000
_symmetry_Int_Tables_number 1

loop_
_symmetry_equiv_pos_as_xyz
'x,y,z'

loop_
_atom_site_label
_atom_site_type_symbol
_atom_site_fract_x
_atom_site_fract_y
_atom_site_fract_z
W11	W1	0.888910	0.600220	0.258290
W21	W2	0.980280	0.600770	0.147520
W31	W3	0.874100	0.757270	0.160440
W41	W4	0.097380	0.774730	0.134520
W51	W5	0.991820	0.930750	0.147540
W61	W6	0.111320	0.930560	0.231970
O11	O1	0.970300	0.006300	0.098900
O21	O2	0.815200	0.778000	0.117700
O31	O3	0.167500	0.005700	0.239400
O41	O4	0.143700	0.753400	0.079300
O51	O5	0.942600	0.961200	0.210600
O61	O6	0.059000	0.991200	0.180200
O71	O7	0.953100	0.702000	0.216000
O81	O8	0.037000	0.826700	0.207000
O91	O9	0.987100	0.530400	0.091600
O101	O10	0.957000	0.566900	0.302800
O111	O11	0.836100	0.522700	0.277400
O121	O12	0.047600	0.863500	0.102400
O131	O13	0.924500	0.540400	0.195300
O141	O14	0.839000	0.667900	0.206700
O151	O15	0.913600	0.666900	0.118600
O161	O16	0.873600	0.691000	0.311700
O171	O17	0.032500	0.692800	0.123500
O181	O18	0.932400	0.839300	0.134200
O191	O19	0.143600	0.864400	0.170300
O201	O20	0.858800	0.839400	0.219600
N11	N1	0.907300	0.503300	0.986200
N21	N2	0.820400	0.479500	0.939800
N31	N3	0.517100	0.275400	0.974200
N41	N4	0.496800	0.134300	0.977400
C11	C1	0.879700	0.454900	0.947800
H11	H1	0.898600	0.409000	0.928200
C21	C2	0.781000	0.443200	0.900000
H21	H2	0.799000	0.389200	0.885000
H31	H3	0.776400	0.485200	0.869600
C31	C3	0.865400	0.562700	0.004600
H41	H4	0.871600	0.604300	0.032800
C41	C4	0.812800	0.551800	0.975500
H51	H5	0.777900	0.586500	0.978800
C51	C5	0.604500	0.379400	0.967600
C61	C6	0.520300	0.198900	0.006100
H61	H6	0.536400	0.194500	0.041800
C71	C7	0.489400	0.252800	0.926300
H71	H7	0.479600	0.290600	0.897000
C81	C8	0.543100	0.359800	0.994300
H81	H8	0.547900	0.356900	0.034400
H91	H9	0.515200	0.408100	0.986000
C91	C9	0.616500	0.462900	0.947500
H101	H10	0.586400	0.506400	0.948600
C101	C10	0.718700	0.421300	0.923700
C111	C11	0.674000	0.483600	0.925200
H111	H11	0.681400	0.540500	0.911400
C121	C12	0.706600	0.337500	0.943600
H121	H12	0.736500	0.293700	0.942400
C131	C13	0.650100	0.317700	0.965400
H131	H13	0.642900	0.260700	0.979000
C141	C14	0.478900	0.167400	0.929200
H141	H14	0.461100	0.134000	0.901000
W71	W7	0.611090	0.899780	0.758290
W81	W8	0.519720	0.899230	0.647520
W91	W9	0.625900	0.742730	0.660440
W101	W10	0.402620	0.725270	0.634520
W111	W11	0.508180	0.569250	0.647540
W121	W12	0.388680	0.569440	0.731970
O211	O21	0.529700	0.493700	0.598900
O221	O22	0.684800	0.722000	0.617700
O231	O23	0.332500	0.494300	0.739400
O241	O24	0.356300	0.746600	0.579300
O251	O25	0.557400	0.538800	0.710600
O261	O26	0.441000	0.508800	0.680200
O271	O27	0.546900	0.798000	0.716000
O281	O28	0.463000	0.673300	0.707000
O291	O29	0.512900	0.969600	0.591600
O301	O30	0.543000	0.933100	0.802800
O311	O31	0.663900	0.977300	0.777400
O321	O32	0.452400	0.636500	0.602400
O331	O33	0.575500	0.959600	0.695300
O341	O34	0.661000	0.832100	0.706700
O351	O35	0.586400	0.833100	0.618600
O361	O36	0.626400	0.809000	0.811700
O371	O37	0.467500	0.807200	0.623500
O381	O38	0.567600	0.660700	0.634200
O391	O39	0.356400	0.635600	0.670300
O401	O40	0.641200	0.660600	0.719600
N51	N5	0.592700	0.996700	0.486200
N61	N6	0.679600	0.020500	0.439800
N71	N7	0.982900	0.224600	0.474200
N81	N8	0.003200	0.365700	0.477400
C151	C15	0.620300	0.045100	0.447800
H151	H15	0.601400	0.091000	0.428200
C161	C16	0.719000	0.056800	0.400000
H161	H16	0.701000	0.110800	0.385000
H171	H17	0.723600	0.014800	0.369600
C171	C17	0.634600	0.937300	0.504600
H181	H18	0.628400	0.895700	0.532800
C181	C18	0.687200	0.948200	0.475500
H191	H19	0.722100	0.913500	0.478800
C191	C19	0.895500	0.120600	0.467600
C201	C20	0.979700	0.301100	0.506100
H201	H20	0.963600	0.305500	0.541800
C211	C21	0.010600	0.247200	0.426300
H211	H21	0.020400	0.209400	0.397000
C221	C22	0.956900	0.140200	0.494300
H221	H22	0.952100	0.143100	0.534400
H231	H23	0.984800	0.091900	0.486000
C231	C23	0.883500	0.037100	0.447500
H241	H24	0.913600	0.993600	0.448600
C241	C24	0.781300	0.078700	0.423700
C251	C25	0.826000	0.016400	0.425200
H251	H25	0.818600	0.959500	0.411400
C261	C26	0.793400	0.162500	0.443600
H261	H26	0.763500	0.206300	0.442400
C271	C27	0.849900	0.182300	0.465400
H271	H27	0.857100	0.239300	0.479000
C281	C28	0.021100	0.332600	0.429200
H281	H28	0.038900	0.366000	0.401000
W131	W13	0.111090	0.600220	0.241710
W141	W14	0.019720	0.600770	0.352480
W151	W15	0.125900	0.757270	0.339560
W161	W16	0.902620	0.774730	0.365480
W171	W17	0.008180	0.930750	0.352460
W181	W18	0.888680	0.930560	0.268030
O411	O41	0.029700	0.006300	0.401100
O421	O42	0.184800	0.778000	0.382300
O431	O43	0.832500	0.005700	0.260600
O441	O44	0.856300	0.753400	0.420700
O451	O45	0.057400	0.961200	0.289400
O461	O46	0.941000	0.991200	0.319800
O471	O47	0.046900	0.702000	0.284000
O481	O48	0.963000	0.826700	0.293000
O491	O49	0.012900	0.530400	0.408400
O501	O50	0.043000	0.566900	0.197200
O511	O51	0.163900	0.522700	0.222600
O521	O52	0.952400	0.863500	0.397600
O531	O53	0.075500	0.540400	0.304700
O541	O54	0.161000	0.667900	0.293300
O551	O55	0.086400	0.666900	0.381400
O561	O56	0.126400	0.691000	0.188300
O571	O57	0.967500	0.692800	0.376500
O581	O58	0.067600	0.839300	0.365800
O591	O59	0.856400	0.864400	0.329700
O601	O60	0.141200	0.839400	0.280400
N91	N9	0.092700	0.503300	0.513800
N101	N10	0.179600	0.479500	0.560200
N111	N11	0.482900	0.275400	0.525800
N121	N12	0.503200	0.134300	0.522600
C291	C29	0.120300	0.454900	0.552200
H291	H29	0.101400	0.409000	0.571800
C301	C30	0.219000	0.443200	0.600000
H301	H30	0.201000	0.389200	0.615000
H311	H31	0.223600	0.485200	0.630400
C311	C31	0.134600	0.562700	0.495400
H321	H32	0.128400	0.604300	0.467200
C321	C32	0.187200	0.551800	0.524500
H331	H33	0.222100	0.586500	0.521200
C331	C33	0.395500	0.379400	0.532400
C341	C34	0.479700	0.198900	0.493900
H341	H34	0.463600	0.194500	0.458200
C351	C35	0.510600	0.252800	0.573700
H351	H35	0.520400	0.290600	0.603000
C361	C36	0.456900	0.359800	0.505700
H361	H36	0.452100	0.356900	0.465600
H371	H37	0.484800	0.408100	0.514000
C371	C37	0.383500	0.462900	0.552500
H381	H38	0.413600	0.506400	0.551400
C381	C38	0.281300	0.421300	0.576300
C391	C39	0.326000	0.483600	0.574800
H391	H39	0.318600	0.540500	0.588600
C401	C40	0.293400	0.337500	0.556400
H401	H40	0.263500	0.293700	0.557600
C411	C41	0.349900	0.317700	0.534600
H411	H41	0.357100	0.260700	0.521000
C421	C42	0.521100	0.167400	0.570800
H421	H42	0.538900	0.134000	0.599000
W191	W19	0.388910	0.899780	0.741710
W201	W20	0.480280	0.899230	0.852480
W211	W21	0.374100	0.742730	0.839560
W221	W22	0.597380	0.725270	0.865480
W231	W23	0.491820	0.569250	0.852460
W241	W24	0.611320	0.569440	0.768030
O611	O61	0.470300	0.493700	0.901100
O621	O62	0.315200	0.722000	0.882300
O631	O63	0.667500	0.494300	0.760600
O641	O64	0.643700	0.746600	0.920700
O651	O65	0.442600	0.538800	0.789400
O661	O66	0.559000	0.508800	0.819800
O671	O67	0.453100	0.798000	0.784000
O681	O68	0.537000	0.673300	0.793000
O691	O69	0.487100	0.969600	0.908400
O701	O70	0.457000	0.933100	0.697200
O711	O71	0.336100	0.977300	0.722600
O721	O72	0.547600	0.636500	0.897600
O731	O73	0.424500	0.959600	0.804700
O741	O74	0.339000	0.832100	0.793300
O751	O75	0.413600	0.833100	0.881400
O761	O76	0.373600	0.809000	0.688300
O771	O77	0.532500	0.807200	0.876500
O781	O78	0.432400	0.660700	0.865800
O791	O79	0.643600	0.635600	0.829700
O801	O80	0.358800	0.660600	0.780400
N131	N13	0.407300	0.996700	0.013800
N141	N14	0.320400	0.020500	0.060200
N151	N15	0.017100	0.224600	0.025800
N161	N16	0.996800	0.365700	0.022600
C431	C43	0.379700	0.045100	0.052200
H431	H43	0.398600	0.091000	0.071800
C441	C44	0.281000	0.056800	0.100000
H441	H44	0.299000	0.110800	0.115000
H451	H45	0.276400	0.014800	0.130400
C451	C45	0.365400	0.937300	0.995400
H461	H46	0.371600	0.895700	0.967200
C461	C46	0.312800	0.948200	0.024500
H471	H47	0.277900	0.913500	0.021200
C471	C47	0.104500	0.120600	0.032400
C481	C48	0.020300	0.301100	0.993900
H481	H48	0.036400	0.305500	0.958200
C491	C49	0.989400	0.247200	0.073700
H491	H49	0.979600	0.209400	0.103000
C501	C50	0.043100	0.140200	0.005700
H501	H50	0.047900	0.143100	0.965600
H511	H51	0.015200	0.091900	0.014000
C511	C51	0.116500	0.037100	0.052500
H521	H52	0.086400	0.993600	0.051400
C521	C52	0.218700	0.078700	0.076300
C531	C53	0.174000	0.016400	0.074800
H531	H53	0.181400	0.959500	0.088600
C541	C54	0.206600	0.162500	0.056400
H541	H54	0.236500	0.206300	0.057600
C551	C55	0.150100	0.182300	0.034600
H551	H55	0.142900	0.239300	0.021000
C561	C56	0.978900	0.332600	0.070800
H561	H56	0.961100	0.366000	0.099000
W251	W25	0.111090	0.399780	0.741710
W261	W26	0.019720	0.399230	0.852480
W271	W27	0.125900	0.242730	0.839560
W281	W28	0.902620	0.225270	0.865480
W291	W29	0.008180	0.069250	0.852460
W301	W30	0.888680	0.069440	0.768030
O811	O81	0.029700	0.993700	0.901100
O821	O82	0.184800	0.222000	0.882300
O831	O83	0.832500	0.994300	0.760600
O841	O84	0.856300	0.246600	0.920700
O851	O85	0.057400	0.038800	0.789400
O861	O86	0.941000	0.008800	0.819800
O871	O87	0.046900	0.298000	0.784000
O881	O88	0.963000	0.173300	0.793000
O891	O89	0.012900	0.469600	0.908400
O901	O90	0.043000	0.433100	0.697200
O911	O91	0.163900	0.477300	0.722600
O921	O92	0.952400	0.136500	0.897600
O931	O93	0.075500	0.459600	0.804700
O941	O94	0.161000	0.332100	0.793300
O951	O95	0.086400	0.333100	0.881400
O961	O96	0.126400	0.309000	0.688300
O971	O97	0.967500	0.307200	0.876500
O981	O98	0.067600	0.160700	0.865800
O991	O99	0.856400	0.135600	0.829700
O1001	O100	0.141200	0.160600	0.780400
N171	N17	0.092700	0.496700	0.013800
N181	N18	0.179600	0.520500	0.060200
N191	N19	0.482900	0.724600	0.025800
N201	N20	0.503200	0.865700	0.022600
C571	C57	0.120300	0.545100	0.052200
H571	H57	0.101400	0.591000	0.071800
C581	C58	0.219000	0.556800	0.100000
H581	H58	0.201000	0.610800	0.115000
H591	H59	0.223600	0.514800	0.130400
C591	C59	0.134600	0.437300	0.995400
H601	H60	0.128400	0.395700	0.967200
C601	C60	0.187200	0.448200	0.024500
H611	H61	0.222100	0.413500	0.021200
C611	C61	0.395500	0.620600	0.032400
C621	C62	0.479700	0.801100	0.993900
H621	H62	0.463600	0.805500	0.958200
C631	C63	0.510600	0.747200	0.073700
H631	H63	0.520400	0.709400	0.103000
C641	C64	0.456900	0.640200	0.005700
H641	H64	0.452100	0.643100	0.965600
H651	H65	0.484800	0.591900	0.014000
C651	C65	0.383500	0.537100	0.052500
H661	H66	0.413600	0.493600	0.051400
C661	C66	0.281300	0.578700	0.076300
C671	C67	0.326000	0.516400	0.074800
H671	H67	0.318600	0.459500	0.088600
C681	C68	0.293400	0.662500	0.056400
H681	H68	0.263500	0.706300	0.057600
C691	C69	0.349900	0.682300	0.034600
H691	H69	0.357100	0.739300	0.021000
C701	C70	0.521100	0.832600	0.070800
H701	H70	0.538900	0.866000	0.099000
W311	W31	0.388910	0.100220	0.241710
W321	W32	0.480280	0.100770	0.352480
W331	W33	0.374100	0.257270	0.339560
W341	W34	0.597380	0.274730	0.365480
W351	W35	0.491820	0.430750	0.352460
W361	W36	0.611320	0.430560	0.268030
O1011	O101	0.470300	0.506300	0.401100
O1021	O102	0.315200	0.278000	0.382300
O1031	O103	0.667500	0.505700	0.260600
O1041	O104	0.643700	0.253400	0.420700
O1051	O105	0.442600	0.461200	0.289400
O1061	O106	0.559000	0.491200	0.319800
O1071	O107	0.453100	0.202000	0.284000
O1081	O108	0.537000	0.326700	0.293000
O1091	O109	0.487100	0.030400	0.408400
O1101	O110	0.457000	0.066900	0.197200
O1111	O111	0.336100	0.022700	0.222600
O1121	O112	0.547600	0.363500	0.397600
O1131	O113	0.424500	0.040400	0.304700
O1141	O114	0.339000	0.167900	0.293300
O1151	O115	0.413600	0.166900	0.381400
O1161	O116	0.373600	0.191000	0.188300
O1171	O117	0.532500	0.192800	0.376500
O1181	O118	0.432400	0.339300	0.365800
O1191	O119	0.643600	0.364400	0.329700
O1201	O120	0.358800	0.339400	0.280400
N211	N21	0.407300	0.003300	0.513800
N221	N22	0.320400	0.979500	0.560200
N231	N23	0.017100	0.775400	0.525800
N241	N24	0.996800	0.634300	0.522600
C711	C71	0.379700	0.954900	0.552200
H711	H71	0.398600	0.909000	0.571800
C721	C72	0.281000	0.943200	0.600000
H721	H72	0.299000	0.889200	0.615000
H731	H73	0.276400	0.985200	0.630400
C731	C73	0.365400	0.062700	0.495400
H741	H74	0.371600	0.104300	0.467200
C741	C74	0.312800	0.051800	0.524500
H751	H75	0.277900	0.086500	0.521200
C751	C75	0.104500	0.879400	0.532400
C761	C76	0.020300	0.698900	0.493900
H761	H76	0.036400	0.694500	0.458200
C771	C77	0.989400	0.752800	0.573700
H771	H77	0.979600	0.790600	0.603000
C781	C78	0.043100	0.859800	0.505700
H781	H78	0.047900	0.856900	0.465600
H791	H79	0.015200	0.908100	0.514000
C791	C79	0.116500	0.962900	0.552500
H801	H80	0.086400	0.006400	0.551400
C801	C80	0.218700	0.921300	0.576300
C811	C81	0.174000	0.983600	0.574800
H811	H81	0.181400	0.040500	0.588600
C821	C82	0.206600	0.837500	0.556400
H821	H82	0.236500	0.793700	0.557600
C831	C83	0.150100	0.817700	0.534600
H831	H83	0.142900	0.760700	0.521000
C841	C84	0.978900	0.667400	0.570800
H841	H84	0.961100	0.634000	0.599000
W371	W37	0.888910	0.399780	0.758290
W381	W38	0.980280	0.399230	0.647520
W391	W39	0.874100	0.242730	0.660440
W401	W40	0.097380	0.225270	0.634520
W411	W41	0.991820	0.069250	0.647540
W421	W42	0.111320	0.069440	0.731970
O1211	O121	0.970300	0.993700	0.598900
O1221	O122	0.815200	0.222000	0.617700
O1231	O123	0.167500	0.994300	0.739400
O1241	O124	0.143700	0.246600	0.579300
O1251	O125	0.942600	0.038800	0.710600
O1261	O126	0.059000	0.008800	0.680200
O1271	O127	0.953100	0.298000	0.716000
O1281	O128	0.037000	0.173300	0.707000
O1291	O129	0.987100	0.469600	0.591600
O1301	O130	0.957000	0.433100	0.802800
O1311	O131	0.836100	0.477300	0.777400
O1321	O132	0.047600	0.136500	0.602400
O1331	O133	0.924500	0.459600	0.695300
O1341	O134	0.839000	0.332100	0.706700
O1351	O135	0.913600	0.333100	0.618600
O1361	O136	0.873600	0.309000	0.811700
O1371	O137	0.032500	0.307200	0.623500
O1381	O138	0.932400	0.160700	0.634200
O1391	O139	0.143600	0.135600	0.670300
O1401	O140	0.858800	0.160600	0.719600
N251	N25	0.907300	0.496700	0.486200
N261	N26	0.820400	0.520500	0.439800
N271	N27	0.517100	0.724600	0.474200
N281	N28	0.496800	0.865700	0.477400
C851	C85	0.879700	0.545100	0.447800
H851	H85	0.898600	0.591000	0.428200
C861	C86	0.781000	0.556800	0.400000
H861	H86	0.799000	0.610800	0.385000
H871	H87	0.776400	0.514800	0.369600
C871	C87	0.865400	0.437300	0.504600
H881	H88	0.871600	0.395700	0.532800
C881	C88	0.812800	0.448200	0.475500
H891	H89	0.777900	0.413500	0.478800
C891	C89	0.604500	0.620600	0.467600
C901	C90	0.520300	0.801100	0.506100
H901	H90	0.536400	0.805500	0.541800
C911	C91	0.489400	0.747200	0.426300
H911	H91	0.479600	0.709400	0.397000
C921	C92	0.543100	0.640200	0.494300
H921	H92	0.547900	0.643100	0.534400
H931	H93	0.515200	0.591900	0.486000
C931	C93	0.616500	0.537100	0.447500
H941	H94	0.586400	0.493600	0.448600
C941	C94	0.718700	0.578700	0.423700
C951	C95	0.674000	0.516400	0.425200
H951	H95	0.681400	0.459500	0.411400
C961	C96	0.706600	0.662500	0.443600
H961	H96	0.736500	0.706300	0.442400
C971	C97	0.650100	0.682300	0.465400
H971	H97	0.642900	0.739300	0.479000
C981	C98	0.478900	0.832600	0.429200
H981	H98	0.461100	0.866000	0.401000
W431	W43	0.611090	0.100220	0.258290
W441	W44	0.519720	0.100770	0.147520
W451	W45	0.625900	0.257270	0.160440
W461	W46	0.402620	0.274730	0.134520
W471	W47	0.508180	0.430750	0.147540
W481	W48	0.388680	0.430560	0.231970
O1411	O141	0.529700	0.506300	0.098900
O1421	O142	0.684800	0.278000	0.117700
O1431	O143	0.332500	0.505700	0.239400
O1441	O144	0.356300	0.253400	0.079300
O1451	O145	0.557400	0.461200	0.210600
O1461	O146	0.441000	0.491200	0.180200
O1471	O147	0.546900	0.202000	0.216000
O1481	O148	0.463000	0.326700	0.207000
O1491	O149	0.512900	0.030400	0.091600
O1501	O150	0.543000	0.066900	0.302800
O1511	O151	0.663900	0.022700	0.277400
O1521	O152	0.452400	0.363500	0.102400
O1531	O153	0.575500	0.040400	0.195300
O1541	O154	0.661000	0.167900	0.206700
O1551	O155	0.586400	0.166900	0.118600
O1561	O156	0.626400	0.191000	0.311700
O1571	O157	0.467500	0.192800	0.123500
O1581	O158	0.567600	0.339300	0.134200
O1591	O159	0.356400	0.364400	0.170300
O1601	O160	0.641200	0.339400	0.219600
N291	N29	0.592700	0.003300	0.986200
N301	N30	0.679600	0.979500	0.939800
N311	N31	0.982900	0.775400	0.974200
N321	N32	0.003200	0.634300	0.977400
C991	C99	0.620300	0.954900	0.947800
H991	H99	0.601400	0.909000	0.928200
C1001	C100	0.719000	0.943200	0.900000
H1001	H100	0.701000	0.889200	0.885000
H1011	H101	0.723600	0.985200	0.869600
C1011	C101	0.634600	0.062700	0.004600
H1021	H102	0.628400	0.104300	0.032800
C1021	C102	0.687200	0.051800	0.975500
H1031	H103	0.722100	0.086500	0.978800
C1031	C103	0.895500	0.879400	0.967600
C1041	C104	0.979700	0.698900	0.006100
H1041	H104	0.963600	0.694500	0.041800
C1051	C105	0.010600	0.752800	0.926300
H1051	H105	0.020400	0.790600	0.897000
C1061	C106	0.956900	0.859800	0.994300
H1061	H106	0.952100	0.856900	0.034400
H1071	H107	0.984800	0.908100	0.986000
C1071	C107	0.883500	0.962900	0.947500
H1081	H108	0.913600	0.006400	0.948600
C1081	C108	0.781300	0.921300	0.923700
C1091	C109	0.826000	0.983600	0.925200
H1091	H109	0.818600	0.040500	0.911400
C1101	C110	0.793400	0.837500	0.943600
H1101	H110	0.763500	0.793700	0.942400
C1111	C111	0.849900	0.817700	0.965400
H1111	H111	0.857100	0.760700	0.979000
C1121	C112	0.021100	0.667400	0.929200
H1121	H112	0.038900	0.634000	0.901000
V11	V1	0.000000	0.764300	0.250000
V21	V2	0.500000	0.735700	0.750000
V31	V3	0.000000	0.235700	0.750000
V41	V4	0.500000	0.264300	0.250000
Ni11	Ni1	0.000000	0.500000	0.000000
Ni21	Ni2	0.500000	0.000000	0.500000
Ni31	Ni3	0.000000	0.500000	0.500000
Ni41	Ni4	0.500000	0.000000	0.000000
