data_NIMTAE_freeONLY_PM
_symmetry_space_group_name_H-M	'P1'
_cell_length_a	10.292000
_cell_length_b	29.887000
_cell_length_c	38.593000
_cell_angle_alpha	90.000000
_cell_angle_beta	90.000000
_cell_angle_gamma	90.000000
_symmetry_Int_Tables_number 1

loop_
_symmetry_equiv_pos_as_xyz
'x,y,z'

loop_
_atom_site_label
_atom_site_type_symbol
_atom_site_fract_x
_atom_site_fract_y
_atom_site_fract_z
N11	N1	0.961000	0.093700	0.045900
C11	C1	0.970000	0.084200	0.079600
C21	C2	0.865600	0.073100	0.100300
C31	C3	0.007300	0.678700	0.085700
C41	C4	0.017400	0.669400	0.050400
C51	C5	0.907900	0.658200	0.032100
C61	C6	0.128100	0.692200	0.104800
N21	N2	0.980600	0.828100	0.027000
C71	C7	0.098900	0.811200	0.024300
C81	C8	0.156900	0.784600	0.049500
C91	C9	0.090300	0.773800	0.079400
C101	C10	0.966700	0.791100	0.082000
C111	C11	0.918500	0.818400	0.055800
C121	C12	0.151300	0.744800	0.106100
H11	H1	0.053600	0.085100	0.090000
H21	H2	0.877800	0.066900	0.124200
H31	H3	0.099500	0.670700	0.039200
H41	H4	0.917200	0.651500	0.008200
H51	H5	0.206300	0.675900	0.096000
H61	H6	0.102800	0.817500	0.246100
H71	H7	0.007200	0.773800	0.203800
H81	H8	0.914500	0.784300	0.101600
H91	H9	0.834600	0.831000	0.059000
H101	H10	0.003100	0.750700	0.143400
N31	N3	0.961000	0.593700	0.545900
C131	C13	0.970000	0.584200	0.579600
C141	C14	0.865600	0.573100	0.600300
C151	C15	0.007300	0.178700	0.585700
C161	C16	0.017400	0.169400	0.550400
C171	C17	0.907900	0.158200	0.532100
C181	C18	0.128100	0.192200	0.604800
N41	N4	0.980600	0.328100	0.527000
C191	C19	0.098900	0.311200	0.524300
C201	C20	0.156900	0.284600	0.549500
C211	C21	0.090300	0.273800	0.579400
C221	C22	0.966700	0.291100	0.582000
C231	C23	0.918500	0.318400	0.555800
C241	C24	0.151300	0.244800	0.606100
H111	H11	0.053600	0.585100	0.590000
H121	H12	0.877800	0.566900	0.624200
H131	H13	0.099500	0.170700	0.539200
H141	H14	0.917200	0.151500	0.508200
H151	H15	0.206300	0.175900	0.596000
H161	H16	0.102800	0.317500	0.746100
H171	H17	0.007200	0.273800	0.703800
H181	H18	0.914500	0.284300	0.601600
H191	H19	0.834600	0.331000	0.559000
H201	H20	0.003100	0.250700	0.643400
N51	N5	0.461000	0.093700	0.545900
C251	C25	0.470000	0.084200	0.579600
C261	C26	0.365600	0.073100	0.600300
C271	C27	0.507300	0.678700	0.585700
C281	C28	0.517400	0.669400	0.550400
C291	C29	0.407900	0.658200	0.532100
C301	C30	0.628100	0.692200	0.604800
N61	N6	0.480600	0.828100	0.527000
C311	C31	0.598900	0.811200	0.524300
C321	C32	0.656900	0.784600	0.549500
C331	C33	0.590300	0.773800	0.579400
C341	C34	0.466700	0.791100	0.582000
C351	C35	0.418500	0.818400	0.555800
C361	C36	0.651300	0.744800	0.606100
H211	H21	0.553600	0.085100	0.590000
H221	H22	0.377800	0.066900	0.624200
H231	H23	0.599500	0.670700	0.539200
H241	H24	0.417200	0.651500	0.508200
H251	H25	0.706300	0.675900	0.596000
H261	H26	0.602800	0.817500	0.746100
H271	H27	0.507200	0.773800	0.703800
H281	H28	0.414500	0.784300	0.601600
H291	H29	0.334600	0.831000	0.559000
H301	H30	0.503100	0.750700	0.643400
N71	N7	0.461000	0.593700	0.045900
C371	C37	0.470000	0.584200	0.079600
C381	C38	0.365600	0.573100	0.100300
C391	C39	0.507300	0.178700	0.085700
C401	C40	0.517400	0.169400	0.050400
C411	C41	0.407900	0.158200	0.032100
C421	C42	0.628100	0.192200	0.104800
N81	N8	0.480600	0.328100	0.027000
C431	C43	0.598900	0.311200	0.024300
C441	C44	0.656900	0.284600	0.049500
C451	C45	0.590300	0.273800	0.079400
C461	C46	0.466700	0.291100	0.082000
C471	C47	0.418500	0.318400	0.055800
C481	C48	0.651300	0.244800	0.106100
H311	H31	0.553600	0.585100	0.090000
H321	H32	0.377800	0.566900	0.124200
H331	H33	0.599500	0.170700	0.039200
H341	H34	0.417200	0.151500	0.008200
H351	H35	0.706300	0.175900	0.096000
H361	H36	0.602800	0.317500	0.246100
H371	H37	0.507200	0.273800	0.203800
H381	H38	0.414500	0.284300	0.101600
H391	H39	0.334600	0.331000	0.059000
H401	H40	0.503100	0.250700	0.143400
N91	N9	0.789000	0.656300	0.045900
C491	C49	0.780000	0.665800	0.079600
C501	C50	0.884400	0.676900	0.100300
C511	C51	0.742700	0.071300	0.085700
C521	C52	0.732600	0.080600	0.050400
C531	C53	0.842100	0.091800	0.032100
C541	C54	0.621900	0.057800	0.104800
N101	N10	0.769400	0.921900	0.027000
C551	C55	0.651100	0.938800	0.024300
C561	C56	0.593100	0.965400	0.049500
C571	C57	0.659700	0.976200	0.079400
C581	C58	0.783300	0.958900	0.082000
C591	C59	0.831500	0.931600	0.055800
C601	C60	0.598700	0.005200	0.106100
H411	H41	0.696400	0.664900	0.090000
H421	H42	0.872200	0.683100	0.124200
H431	H43	0.650500	0.079300	0.039200
H441	H44	0.832800	0.098500	0.008200
H451	H45	0.543700	0.074100	0.096000
H461	H46	0.647200	0.932500	0.246100
H471	H47	0.742800	0.976200	0.203800
H481	H48	0.835500	0.965700	0.101600
H491	H49	0.915400	0.919000	0.059000
H501	H50	0.746900	0.999300	0.143400
N111	N11	0.789000	0.156300	0.545900
C611	C61	0.780000	0.165800	0.579600
C621	C62	0.884400	0.176900	0.600300
C631	C63	0.742700	0.571300	0.585700
C641	C64	0.732600	0.580600	0.550400
C651	C65	0.842100	0.591800	0.532100
C661	C66	0.621900	0.557800	0.604800
N121	N12	0.769400	0.421900	0.527000
C671	C67	0.651100	0.438800	0.524300
C681	C68	0.593100	0.465400	0.549500
C691	C69	0.659700	0.476200	0.579400
C701	C70	0.783300	0.458900	0.582000
C711	C71	0.831500	0.431600	0.555800
C721	C72	0.598700	0.505200	0.606100
H511	H51	0.696400	0.164900	0.590000
H521	H52	0.872200	0.183100	0.624200
H531	H53	0.650500	0.579300	0.539200
H541	H54	0.832800	0.598500	0.508200
H551	H55	0.543700	0.574100	0.596000
H561	H56	0.647200	0.432500	0.746100
H571	H57	0.742800	0.476200	0.703800
H581	H58	0.835500	0.465700	0.601600
H591	H59	0.915400	0.419000	0.559000
H601	H60	0.746900	0.499300	0.643400
N131	N13	0.289000	0.656300	0.545900
C731	C73	0.280000	0.665800	0.579600
C741	C74	0.384400	0.676900	0.600300
C751	C75	0.242700	0.071300	0.585700
C761	C76	0.232600	0.080600	0.550400
C771	C77	0.342100	0.091800	0.532100
C781	C78	0.121900	0.057800	0.604800
N141	N14	0.269400	0.921900	0.527000
C791	C79	0.151100	0.938800	0.524300
C801	C80	0.093100	0.965400	0.549500
C811	C81	0.159700	0.976200	0.579400
C821	C82	0.283300	0.958900	0.582000
C831	C83	0.331500	0.931600	0.555800
C841	C84	0.098700	0.005200	0.606100
H611	H61	0.196400	0.664900	0.590000
H621	H62	0.372200	0.683100	0.624200
H631	H63	0.150500	0.079300	0.539200
H641	H64	0.332800	0.098500	0.508200
H651	H65	0.043700	0.074100	0.596000
H661	H66	0.147200	0.932500	0.746100
H671	H67	0.242800	0.976200	0.703800
H681	H68	0.335500	0.965700	0.601600
H691	H69	0.415400	0.919000	0.559000
H701	H70	0.246900	0.999300	0.643400
N151	N15	0.289000	0.156300	0.045900
C851	C85	0.280000	0.165800	0.079600
C861	C86	0.384400	0.176900	0.100300
C871	C87	0.242700	0.571300	0.085700
C881	C88	0.232600	0.580600	0.050400
C891	C89	0.342100	0.591800	0.032100
C901	C90	0.121900	0.557800	0.104800
N161	N16	0.269400	0.421900	0.027000
C911	C91	0.151100	0.438800	0.024300
C921	C92	0.093100	0.465400	0.049500
C931	C93	0.159700	0.476200	0.079400
C941	C94	0.283300	0.458900	0.082000
C951	C95	0.331500	0.431600	0.055800
C961	C96	0.098700	0.505200	0.106100
H711	H71	0.196400	0.164900	0.090000
H721	H72	0.372200	0.183100	0.124200
H731	H73	0.150500	0.579300	0.039200
H741	H74	0.332800	0.598500	0.008200
H751	H75	0.043700	0.574100	0.096000
H761	H76	0.147200	0.432500	0.246100
H771	H77	0.242800	0.476200	0.203800
H781	H78	0.335500	0.465700	0.101600
H791	H79	0.415400	0.419000	0.059000
H801	H80	0.246900	0.499300	0.143400
N171	N17	0.789000	0.093700	0.704100
C971	C97	0.780000	0.084200	0.670400
C981	C98	0.884400	0.073100	0.649700
C991	C99	0.742700	0.678700	0.664300
C1001	C100	0.732600	0.669400	0.699600
C1011	C101	0.842100	0.658200	0.717900
C1021	C102	0.621900	0.692200	0.645200
N181	N18	0.769400	0.828100	0.723000
C1031	C103	0.651100	0.811200	0.725700
C1041	C104	0.593100	0.784600	0.700500
C1051	C105	0.659700	0.773800	0.670600
C1061	C106	0.783300	0.791100	0.668000
C1071	C107	0.831500	0.818400	0.694200
C1081	C108	0.598700	0.744800	0.643900
H811	H81	0.696400	0.085100	0.660000
H821	H82	0.872200	0.066900	0.625800
H831	H83	0.650500	0.670700	0.710800
H841	H84	0.832800	0.651500	0.741800
H851	H85	0.543700	0.675900	0.654000
H861	H86	0.647200	0.817500	0.503900
H871	H87	0.742800	0.773800	0.546200
H881	H88	0.835500	0.784300	0.648400
H891	H89	0.915400	0.831000	0.691000
H901	H90	0.746900	0.750700	0.606600
N191	N19	0.789000	0.593700	0.204100
C1091	C109	0.780000	0.584200	0.170400
C1101	C110	0.884400	0.573100	0.149700
C1111	C111	0.742700	0.178700	0.164300
C1121	C112	0.732600	0.169400	0.199600
C1131	C113	0.842100	0.158200	0.217900
C1141	C114	0.621900	0.192200	0.145200
N201	N20	0.769400	0.328100	0.223000
C1151	C115	0.651100	0.311200	0.225700
C1161	C116	0.593100	0.284600	0.200500
C1171	C117	0.659700	0.273800	0.170600
C1181	C118	0.783300	0.291100	0.168000
C1191	C119	0.831500	0.318400	0.194200
C1201	C120	0.598700	0.244800	0.143900
H911	H91	0.696400	0.585100	0.160000
H921	H92	0.872200	0.566900	0.125800
H931	H93	0.650500	0.170700	0.210800
H941	H94	0.832800	0.151500	0.241800
H951	H95	0.543700	0.175900	0.154000
H961	H96	0.647200	0.317500	0.003900
H971	H97	0.742800	0.273800	0.046200
H981	H98	0.835500	0.284300	0.148400
H991	H99	0.915400	0.331000	0.191000
H1001	H100	0.746900	0.250700	0.106600
N211	N21	0.289000	0.093700	0.204100
C1211	C121	0.280000	0.084200	0.170400
C1221	C122	0.384400	0.073100	0.149700
C1231	C123	0.242700	0.678700	0.164300
C1241	C124	0.232600	0.669400	0.199600
C1251	C125	0.342100	0.658200	0.217900
C1261	C126	0.121900	0.692200	0.145200
N221	N22	0.269400	0.828100	0.223000
C1271	C127	0.151100	0.811200	0.225700
C1281	C128	0.093100	0.784600	0.200500
C1291	C129	0.159700	0.773800	0.170600
C1301	C130	0.283300	0.791100	0.168000
C1311	C131	0.331500	0.818400	0.194200
C1321	C132	0.098700	0.744800	0.143900
H1011	H101	0.196400	0.085100	0.160000
H1021	H102	0.372200	0.066900	0.125800
H1031	H103	0.150500	0.670700	0.210800
H1041	H104	0.332800	0.651500	0.241800
H1051	H105	0.043700	0.675900	0.154000
H1061	H106	0.147200	0.817500	0.003900
H1071	H107	0.242800	0.773800	0.046200
H1081	H108	0.335500	0.784300	0.148400
H1091	H109	0.415400	0.831000	0.191000
H1101	H110	0.246900	0.750700	0.106600
N231	N23	0.289000	0.593700	0.704100
C1331	C133	0.280000	0.584200	0.670400
C1341	C134	0.384400	0.573100	0.649700
C1351	C135	0.242700	0.178700	0.664300
C1361	C136	0.232600	0.169400	0.699600
C1371	C137	0.342100	0.158200	0.717900
C1381	C138	0.121900	0.192200	0.645200
N241	N24	0.269400	0.328100	0.723000
C1391	C139	0.151100	0.311200	0.725700
C1401	C140	0.093100	0.284600	0.700500
C1411	C141	0.159700	0.273800	0.670600
C1421	C142	0.283300	0.291100	0.668000
C1431	C143	0.331500	0.318400	0.694200
C1441	C144	0.098700	0.244800	0.643900
H1111	H111	0.196400	0.585100	0.660000
H1121	H112	0.372200	0.566900	0.625800
H1131	H113	0.150500	0.170700	0.710800
H1141	H114	0.332800	0.151500	0.741800
H1151	H115	0.043700	0.175900	0.654000
H1161	H116	0.147200	0.317500	0.503900
H1171	H117	0.242800	0.273800	0.546200
H1181	H118	0.335500	0.284300	0.648400
H1191	H119	0.415400	0.331000	0.691000
H1201	H120	0.246900	0.250700	0.606600
N251	N25	0.961000	0.656300	0.704100
C1451	C145	0.970000	0.665800	0.670400
C1461	C146	0.865600	0.676900	0.649700
C1471	C147	0.007300	0.071300	0.664300
C1481	C148	0.017400	0.080600	0.699600
C1491	C149	0.907900	0.091800	0.717900
C1501	C150	0.128100	0.057800	0.645200
N261	N26	0.980600	0.921900	0.723000
C1511	C151	0.098900	0.938800	0.725700
C1521	C152	0.156900	0.965400	0.700500
C1531	C153	0.090300	0.976200	0.670600
C1541	C154	0.966700	0.958900	0.668000
C1551	C155	0.918500	0.931600	0.694200
C1561	C156	0.151300	0.005200	0.643900
H1211	H121	0.053600	0.664900	0.660000
H1221	H122	0.877800	0.683100	0.625800
H1231	H123	0.099500	0.079300	0.710800
H1241	H124	0.917200	0.098500	0.741800
H1251	H125	0.206300	0.074100	0.654000
H1261	H126	0.102800	0.932500	0.503900
H1271	H127	0.007200	0.976200	0.546200
H1281	H128	0.914500	0.965700	0.648400
H1291	H129	0.834600	0.919000	0.691000
H1301	H130	0.003100	0.999300	0.606600
N271	N27	0.961000	0.156300	0.204100
C1571	C157	0.970000	0.165800	0.170400
C1581	C158	0.865600	0.176900	0.149700
C1591	C159	0.007300	0.571300	0.164300
C1601	C160	0.017400	0.580600	0.199600
C1611	C161	0.907900	0.591800	0.217900
C1621	C162	0.128100	0.557800	0.145200
N281	N28	0.980600	0.421900	0.223000
C1631	C163	0.098900	0.438800	0.225700
C1641	C164	0.156900	0.465400	0.200500
C1651	C165	0.090300	0.476200	0.170600
C1661	C166	0.966700	0.458900	0.168000
C1671	C167	0.918500	0.431600	0.194200
C1681	C168	0.151300	0.505200	0.143900
H1311	H131	0.053600	0.164900	0.160000
H1321	H132	0.877800	0.183100	0.125800
H1331	H133	0.099500	0.579300	0.210800
H1341	H134	0.917200	0.598500	0.241800
H1351	H135	0.206300	0.574100	0.154000
H1361	H136	0.102800	0.432500	0.003900
H1371	H137	0.007200	0.476200	0.046200
H1381	H138	0.914500	0.465700	0.148400
H1391	H139	0.834600	0.419000	0.191000
H1401	H140	0.003100	0.499300	0.106600
N291	N29	0.461000	0.656300	0.204100
C1691	C169	0.470000	0.665800	0.170400
C1701	C170	0.365600	0.676900	0.149700
C1711	C171	0.507300	0.071300	0.164300
C1721	C172	0.517400	0.080600	0.199600
C1731	C173	0.407900	0.091800	0.217900
C1741	C174	0.628100	0.057800	0.145200
N301	N30	0.480600	0.921900	0.223000
C1751	C175	0.598900	0.938800	0.225700
C1761	C176	0.656900	0.965400	0.200500
C1771	C177	0.590300	0.976200	0.170600
C1781	C178	0.466700	0.958900	0.168000
C1791	C179	0.418500	0.931600	0.194200
C1801	C180	0.651300	0.005200	0.143900
H1411	H141	0.553600	0.664900	0.160000
H1421	H142	0.377800	0.683100	0.125800
H1431	H143	0.599500	0.079300	0.210800
H1441	H144	0.417200	0.098500	0.241800
H1451	H145	0.706300	0.074100	0.154000
H1461	H146	0.602800	0.932500	0.003900
H1471	H147	0.507200	0.976200	0.046200
H1481	H148	0.414500	0.965700	0.148400
H1491	H149	0.334600	0.919000	0.191000
H1501	H150	0.503100	0.999300	0.106600
N311	N31	0.461000	0.156300	0.704100
C1811	C181	0.470000	0.165800	0.670400
C1821	C182	0.365600	0.176900	0.649700
C1831	C183	0.507300	0.571300	0.664300
C1841	C184	0.517400	0.580600	0.699600
C1851	C185	0.407900	0.591800	0.717900
C1861	C186	0.628100	0.557800	0.645200
N321	N32	0.480600	0.421900	0.723000
C1871	C187	0.598900	0.438800	0.725700
C1881	C188	0.656900	0.465400	0.700500
C1891	C189	0.590300	0.476200	0.670600
C1901	C190	0.466700	0.458900	0.668000
C1911	C191	0.418500	0.431600	0.694200
C1921	C192	0.651300	0.505200	0.643900
H1511	H151	0.553600	0.164900	0.660000
H1521	H152	0.377800	0.183100	0.625800
H1531	H153	0.599500	0.579300	0.710800
H1541	H154	0.417200	0.598500	0.741800
H1551	H155	0.706300	0.574100	0.654000
H1561	H156	0.602800	0.432500	0.503900
H1571	H157	0.507200	0.476200	0.546200
H1581	H158	0.414500	0.465700	0.648400
H1591	H159	0.334600	0.419000	0.691000
H1601	H160	0.503100	0.499300	0.606600
N331	N33	0.039000	0.906300	0.954100
C1931	C193	0.030000	0.915800	0.920400
C1941	C194	0.134400	0.926900	0.899700
C1951	C195	0.992700	0.321300	0.914300
C1961	C196	0.982600	0.330600	0.949600
C1971	C197	0.092100	0.341800	0.967900
C1981	C198	0.871900	0.307800	0.895200
N341	N34	0.019400	0.171900	0.973000
C1991	C199	0.901100	0.188800	0.975700
C2001	C200	0.843100	0.215400	0.950500
C2011	C201	0.909700	0.226200	0.920600
C2021	C202	0.033300	0.208900	0.918000
C2031	C203	0.081500	0.181600	0.944200
C2041	C204	0.848700	0.255200	0.893900
H1611	H161	0.946400	0.914900	0.910000
H1621	H162	0.122200	0.933100	0.875800
H1631	H163	0.900500	0.329300	0.960800
H1641	H164	0.082800	0.348500	0.991800
H1651	H165	0.793700	0.324100	0.904000
H1661	H166	0.897200	0.182500	0.753900
H1671	H167	0.992800	0.226200	0.796200
H1681	H168	0.085500	0.215700	0.898400
H1691	H169	0.165400	0.169000	0.941000
H1701	H170	0.996900	0.249300	0.856600
N351	N35	0.039000	0.406300	0.454100
C2051	C205	0.030000	0.415800	0.420400
C2061	C206	0.134400	0.426900	0.399700
C2071	C207	0.992700	0.821300	0.414300
C2081	C208	0.982600	0.830600	0.449600
C2091	C209	0.092100	0.841800	0.467900
C2101	C210	0.871900	0.807800	0.395200
N361	N36	0.019400	0.671900	0.473000
C2111	C211	0.901100	0.688800	0.475700
C2121	C212	0.843100	0.715400	0.450500
C2131	C213	0.909700	0.726200	0.420600
C2141	C214	0.033300	0.708900	0.418000
C2151	C215	0.081500	0.681600	0.444200
C2161	C216	0.848700	0.755200	0.393900
H1711	H171	0.946400	0.414900	0.410000
H1721	H172	0.122200	0.433100	0.375800
H1731	H173	0.900500	0.829300	0.460800
H1741	H174	0.082800	0.848500	0.491800
H1751	H175	0.793700	0.824100	0.404000
H1761	H176	0.897200	0.682500	0.253900
H1771	H177	0.992800	0.726200	0.296200
H1781	H178	0.085500	0.715700	0.398400
H1791	H179	0.165400	0.669000	0.441000
H1801	H180	0.996900	0.749300	0.356600
N371	N37	0.539000	0.906300	0.454100
C2171	C217	0.530000	0.915800	0.420400
C2181	C218	0.634400	0.926900	0.399700
C2191	C219	0.492700	0.321300	0.414300
C2201	C220	0.482600	0.330600	0.449600
C2211	C221	0.592100	0.341800	0.467900
C2221	C222	0.371900	0.307800	0.395200
N381	N38	0.519400	0.171900	0.473000
C2231	C223	0.401100	0.188800	0.475700
C2241	C224	0.343100	0.215400	0.450500
C2251	C225	0.409700	0.226200	0.420600
C2261	C226	0.533300	0.208900	0.418000
C2271	C227	0.581500	0.181600	0.444200
C2281	C228	0.348700	0.255200	0.393900
H1811	H181	0.446400	0.914900	0.410000
H1821	H182	0.622200	0.933100	0.375800
H1831	H183	0.400500	0.329300	0.460800
H1841	H184	0.582800	0.348500	0.491800
H1851	H185	0.293700	0.324100	0.404000
H1861	H186	0.397200	0.182500	0.253900
H1871	H187	0.492800	0.226200	0.296200
H1881	H188	0.585500	0.215700	0.398400
H1891	H189	0.665400	0.169000	0.441000
H1901	H190	0.496900	0.249300	0.356600
N391	N39	0.539000	0.406300	0.954100
C2291	C229	0.530000	0.415800	0.920400
C2301	C230	0.634400	0.426900	0.899700
C2311	C231	0.492700	0.821300	0.914300
C2321	C232	0.482600	0.830600	0.949600
C2331	C233	0.592100	0.841800	0.967900
C2341	C234	0.371900	0.807800	0.895200
N401	N40	0.519400	0.671900	0.973000
C2351	C235	0.401100	0.688800	0.975700
C2361	C236	0.343100	0.715400	0.950500
C2371	C237	0.409700	0.726200	0.920600
C2381	C238	0.533300	0.708900	0.918000
C2391	C239	0.581500	0.681600	0.944200
C2401	C240	0.348700	0.755200	0.893900
H1911	H191	0.446400	0.414900	0.910000
H1921	H192	0.622200	0.433100	0.875800
H1931	H193	0.400500	0.829300	0.960800
H1941	H194	0.582800	0.848500	0.991800
H1951	H195	0.293700	0.824100	0.904000
H1961	H196	0.397200	0.682500	0.753900
H1971	H197	0.492800	0.726200	0.796200
H1981	H198	0.585500	0.715700	0.898400
H1991	H199	0.665400	0.669000	0.941000
H2001	H200	0.496900	0.749300	0.856600
N411	N41	0.211000	0.343700	0.954100
C2411	C241	0.220000	0.334200	0.920400
C2421	C242	0.115600	0.323100	0.899700
C2431	C243	0.257300	0.928700	0.914300
C2441	C244	0.267400	0.919400	0.949600
C2451	C245	0.157900	0.908200	0.967900
C2461	C246	0.378100	0.942200	0.895200
N421	N42	0.230600	0.078100	0.973000
C2471	C247	0.348900	0.061200	0.975700
C2481	C248	0.406900	0.034600	0.950500
C2491	C249	0.340300	0.023800	0.920600
C2501	C250	0.216700	0.041100	0.918000
C2511	C251	0.168500	0.068400	0.944200
C2521	C252	0.401300	0.994800	0.893900
H2011	H201	0.303600	0.335100	0.910000
H2021	H202	0.127800	0.316900	0.875800
H2031	H203	0.349500	0.920700	0.960800
H2041	H204	0.167200	0.901500	0.991800
H2051	H205	0.456300	0.925900	0.904000
H2061	H206	0.352800	0.067500	0.753900
H2071	H207	0.257200	0.023800	0.796200
H2081	H208	0.164500	0.034300	0.898400
H2091	H209	0.084600	0.081000	0.941000
H2101	H210	0.253100	0.000700	0.856600
N431	N43	0.211000	0.843700	0.454100
C2531	C253	0.220000	0.834200	0.420400
C2541	C254	0.115600	0.823100	0.399700
C2551	C255	0.257300	0.428700	0.414300
C2561	C256	0.267400	0.419400	0.449600
C2571	C257	0.157900	0.408200	0.467900
C2581	C258	0.378100	0.442200	0.395200
N441	N44	0.230600	0.578100	0.473000
C2591	C259	0.348900	0.561200	0.475700
C2601	C260	0.406900	0.534600	0.450500
C2611	C261	0.340300	0.523800	0.420600
C2621	C262	0.216700	0.541100	0.418000
C2631	C263	0.168500	0.568400	0.444200
C2641	C264	0.401300	0.494800	0.393900
H2111	H211	0.303600	0.835100	0.410000
H2121	H212	0.127800	0.816900	0.375800
H2131	H213	0.349500	0.420700	0.460800
H2141	H214	0.167200	0.401500	0.491800
H2151	H215	0.456300	0.425900	0.404000
H2161	H216	0.352800	0.567500	0.253900
H2171	H217	0.257200	0.523800	0.296200
H2181	H218	0.164500	0.534300	0.398400
H2191	H219	0.084600	0.581000	0.441000
H2201	H220	0.253100	0.500700	0.356600
N451	N45	0.711000	0.343700	0.454100
C2651	C265	0.720000	0.334200	0.420400
C2661	C266	0.615600	0.323100	0.399700
C2671	C267	0.757300	0.928700	0.414300
C2681	C268	0.767400	0.919400	0.449600
C2691	C269	0.657900	0.908200	0.467900
C2701	C270	0.878100	0.942200	0.395200
N461	N46	0.730600	0.078100	0.473000
C2711	C271	0.848900	0.061200	0.475700
C2721	C272	0.906900	0.034600	0.450500
C2731	C273	0.840300	0.023800	0.420600
C2741	C274	0.716700	0.041100	0.418000
C2751	C275	0.668500	0.068400	0.444200
C2761	C276	0.901300	0.994800	0.393900
H2211	H221	0.803600	0.335100	0.410000
H2221	H222	0.627800	0.316900	0.375800
H2231	H223	0.849500	0.920700	0.460800
H2241	H224	0.667200	0.901500	0.491800
H2251	H225	0.956300	0.925900	0.404000
H2261	H226	0.852800	0.067500	0.253900
H2271	H227	0.757200	0.023800	0.296200
H2281	H228	0.664500	0.034300	0.398400
H2291	H229	0.584600	0.081000	0.441000
H2301	H230	0.753100	0.000700	0.356600
N471	N47	0.711000	0.843700	0.954100
C2771	C277	0.720000	0.834200	0.920400
C2781	C278	0.615600	0.823100	0.899700
C2791	C279	0.757300	0.428700	0.914300
C2801	C280	0.767400	0.419400	0.949600
C2811	C281	0.657900	0.408200	0.967900
C2821	C282	0.878100	0.442200	0.895200
N481	N48	0.730600	0.578100	0.973000
C2831	C283	0.848900	0.561200	0.975700
C2841	C284	0.906900	0.534600	0.950500
C2851	C285	0.840300	0.523800	0.920600
C2861	C286	0.716700	0.541100	0.918000
C2871	C287	0.668500	0.568400	0.944200
C2881	C288	0.901300	0.494800	0.893900
H2311	H231	0.803600	0.835100	0.910000
H2321	H232	0.627800	0.816900	0.875800
H2331	H233	0.849500	0.420700	0.960800
H2341	H234	0.667200	0.401500	0.991800
H2351	H235	0.956300	0.425900	0.904000
H2361	H236	0.852800	0.567500	0.753900
H2371	H237	0.757200	0.523800	0.796200
H2381	H238	0.664500	0.534300	0.898400
H2391	H239	0.584600	0.581000	0.941000
H2401	H240	0.753100	0.500700	0.856600
N491	N49	0.211000	0.906300	0.295900
C2891	C289	0.220000	0.915800	0.329600
C2901	C290	0.115600	0.926900	0.350300
C2911	C291	0.257300	0.321300	0.335700
C2921	C292	0.267400	0.330600	0.300400
C2931	C293	0.157900	0.341800	0.282100
C2941	C294	0.378100	0.307800	0.354800
N501	N50	0.230600	0.171900	0.277000
C2951	C295	0.348900	0.188800	0.274300
C2961	C296	0.406900	0.215400	0.299500
C2971	C297	0.340300	0.226200	0.329400
C2981	C298	0.216700	0.208900	0.332000
C2991	C299	0.168500	0.181600	0.305800
C3001	C300	0.401300	0.255200	0.356100
H2411	H241	0.303600	0.914900	0.340000
H2421	H242	0.127800	0.933100	0.374200
H2431	H243	0.349500	0.329300	0.289200
H2441	H244	0.167200	0.348500	0.258200
H2451	H245	0.456300	0.324100	0.346000
H2461	H246	0.352800	0.182500	0.496100
H2471	H247	0.257200	0.226200	0.453800
H2481	H248	0.164500	0.215700	0.351600
H2491	H249	0.084600	0.169000	0.309000
H2501	H250	0.253100	0.249300	0.393400
N511	N51	0.211000	0.406300	0.795900
C3011	C301	0.220000	0.415800	0.829600
C3021	C302	0.115600	0.426900	0.850300
C3031	C303	0.257300	0.821300	0.835700
C3041	C304	0.267400	0.830600	0.800400
C3051	C305	0.157900	0.841800	0.782100
C3061	C306	0.378100	0.807800	0.854800
N521	N52	0.230600	0.671900	0.777000
C3071	C307	0.348900	0.688800	0.774300
C3081	C308	0.406900	0.715400	0.799500
C3091	C309	0.340300	0.726200	0.829400
C3101	C310	0.216700	0.708900	0.832000
C3111	C311	0.168500	0.681600	0.805800
C3121	C312	0.401300	0.755200	0.856100
H2511	H251	0.303600	0.414900	0.840000
H2521	H252	0.127800	0.433100	0.874200
H2531	H253	0.349500	0.829300	0.789200
H2541	H254	0.167200	0.848500	0.758200
H2551	H255	0.456300	0.824100	0.846000
H2561	H256	0.352800	0.682500	0.996100
H2571	H257	0.257200	0.726200	0.953800
H2581	H258	0.164500	0.715700	0.851600
H2591	H259	0.084600	0.669000	0.809000
H2601	H260	0.253100	0.749300	0.893400
N531	N53	0.711000	0.906300	0.795900
C3131	C313	0.720000	0.915800	0.829600
C3141	C314	0.615600	0.926900	0.850300
C3151	C315	0.757300	0.321300	0.835700
C3161	C316	0.767400	0.330600	0.800400
C3171	C317	0.657900	0.341800	0.782100
C3181	C318	0.878100	0.307800	0.854800
N541	N54	0.730600	0.171900	0.777000
C3191	C319	0.848900	0.188800	0.774300
C3201	C320	0.906900	0.215400	0.799500
C3211	C321	0.840300	0.226200	0.829400
C3221	C322	0.716700	0.208900	0.832000
C3231	C323	0.668500	0.181600	0.805800
C3241	C324	0.901300	0.255200	0.856100
H2611	H261	0.803600	0.914900	0.840000
H2621	H262	0.627800	0.933100	0.874200
H2631	H263	0.849500	0.329300	0.789200
H2641	H264	0.667200	0.348500	0.758200
H2651	H265	0.956300	0.324100	0.846000
H2661	H266	0.852800	0.182500	0.996100
H2671	H267	0.757200	0.226200	0.953800
H2681	H268	0.664500	0.215700	0.851600
H2691	H269	0.584600	0.169000	0.809000
H2701	H270	0.753100	0.249300	0.893400
N551	N55	0.711000	0.406300	0.295900
C3251	C325	0.720000	0.415800	0.329600
C3261	C326	0.615600	0.426900	0.350300
C3271	C327	0.757300	0.821300	0.335700
C3281	C328	0.767400	0.830600	0.300400
C3291	C329	0.657900	0.841800	0.282100
C3301	C330	0.878100	0.807800	0.354800
N561	N56	0.730600	0.671900	0.277000
C3311	C331	0.848900	0.688800	0.274300
C3321	C332	0.906900	0.715400	0.299500
C3331	C333	0.840300	0.726200	0.329400
C3341	C334	0.716700	0.708900	0.332000
C3351	C335	0.668500	0.681600	0.305800
C3361	C336	0.901300	0.755200	0.356100
H2711	H271	0.803600	0.414900	0.340000
H2721	H272	0.627800	0.433100	0.374200
H2731	H273	0.849500	0.829300	0.289200
H2741	H274	0.667200	0.848500	0.258200
H2751	H275	0.956300	0.824100	0.346000
H2761	H276	0.852800	0.682500	0.496100
H2771	H277	0.757200	0.726200	0.453800
H2781	H278	0.664500	0.715700	0.351600
H2791	H279	0.584600	0.669000	0.309000
H2801	H280	0.753100	0.749300	0.393400
N571	N57	0.039000	0.343700	0.295900
C3371	C337	0.030000	0.334200	0.329600
C3381	C338	0.134400	0.323100	0.350300
C3391	C339	0.992700	0.928700	0.335700
C3401	C340	0.982600	0.919400	0.300400
C3411	C341	0.092100	0.908200	0.282100
C3421	C342	0.871900	0.942200	0.354800
N581	N58	0.019400	0.078100	0.277000
C3431	C343	0.901100	0.061200	0.274300
C3441	C344	0.843100	0.034600	0.299500
C3451	C345	0.909700	0.023800	0.329400
C3461	C346	0.033300	0.041100	0.332000
C3471	C347	0.081500	0.068400	0.305800
C3481	C348	0.848700	0.994800	0.356100
H2811	H281	0.946400	0.335100	0.340000
H2821	H282	0.122200	0.316900	0.374200
H2831	H283	0.900500	0.920700	0.289200
H2841	H284	0.082800	0.901500	0.258200
H2851	H285	0.793700	0.925900	0.346000
H2861	H286	0.897200	0.067500	0.496100
H2871	H287	0.992800	0.023800	0.453800
H2881	H288	0.085500	0.034300	0.351600
H2891	H289	0.165400	0.081000	0.309000
H2901	H290	0.996900	0.000700	0.393400
N591	N59	0.039000	0.843700	0.795900
C3491	C349	0.030000	0.834200	0.829600
C3501	C350	0.134400	0.823100	0.850300
C3511	C351	0.992700	0.428700	0.835700
C3521	C352	0.982600	0.419400	0.800400
C3531	C353	0.092100	0.408200	0.782100
C3541	C354	0.871900	0.442200	0.854800
N601	N60	0.019400	0.578100	0.777000
C3551	C355	0.901100	0.561200	0.774300
C3561	C356	0.843100	0.534600	0.799500
C3571	C357	0.909700	0.523800	0.829400
C3581	C358	0.033300	0.541100	0.832000
C3591	C359	0.081500	0.568400	0.805800
C3601	C360	0.848700	0.494800	0.856100
H2911	H291	0.946400	0.835100	0.840000
H2921	H292	0.122200	0.816900	0.874200
H2931	H293	0.900500	0.420700	0.789200
H2941	H294	0.082800	0.401500	0.758200
H2951	H295	0.793700	0.425900	0.846000
H2961	H296	0.897200	0.567500	0.996100
H2971	H297	0.992800	0.523800	0.953800
H2981	H298	0.085500	0.534300	0.851600
H2991	H299	0.165400	0.581000	0.809000
H3001	H300	0.996900	0.500700	0.893400
N611	N61	0.539000	0.343700	0.795900
C3611	C361	0.530000	0.334200	0.829600
C3621	C362	0.634400	0.323100	0.850300
C3631	C363	0.492700	0.928700	0.835700
C3641	C364	0.482600	0.919400	0.800400
C3651	C365	0.592100	0.908200	0.782100
C3661	C366	0.371900	0.942200	0.854800
N621	N62	0.519400	0.078100	0.777000
C3671	C367	0.401100	0.061200	0.774300
C3681	C368	0.343100	0.034600	0.799500
C3691	C369	0.409700	0.023800	0.829400
C3701	C370	0.533300	0.041100	0.832000
C3711	C371	0.581500	0.068400	0.805800
C3721	C372	0.348700	0.994800	0.856100
H3011	H301	0.446400	0.335100	0.840000
H3021	H302	0.622200	0.316900	0.874200
H3031	H303	0.400500	0.920700	0.789200
H3041	H304	0.582800	0.901500	0.758200
H3051	H305	0.293700	0.925900	0.846000
H3061	H306	0.397200	0.067500	0.996100
H3071	H307	0.492800	0.023800	0.953800
H3081	H308	0.585500	0.034300	0.851600
H3091	H309	0.665400	0.081000	0.809000
H3101	H310	0.496900	0.000700	0.893400
N631	N63	0.539000	0.843700	0.295900
C3731	C373	0.530000	0.834200	0.329600
C3741	C374	0.634400	0.823100	0.350300
C3751	C375	0.492700	0.428700	0.335700
C3761	C376	0.482600	0.419400	0.300400
C3771	C377	0.592100	0.408200	0.282100
C3781	C378	0.371900	0.442200	0.354800
N641	N64	0.519400	0.578100	0.277000
C3791	C379	0.401100	0.561200	0.274300
C3801	C380	0.343100	0.534600	0.299500
C3811	C381	0.409700	0.523800	0.329400
C3821	C382	0.533300	0.541100	0.332000
C3831	C383	0.581500	0.568400	0.305800
C3841	C384	0.348700	0.494800	0.356100
H3111	H311	0.446400	0.835100	0.340000
H3121	H312	0.622200	0.816900	0.374200
H3131	H313	0.400500	0.420700	0.289200
H3141	H314	0.582800	0.401500	0.258200
H3151	H315	0.293700	0.425900	0.346000
H3161	H316	0.397200	0.567500	0.496100
H3171	H317	0.492800	0.523800	0.453800
H3181	H318	0.585500	0.534300	0.351600
H3191	H319	0.665400	0.581000	0.309000
H3201	H320	0.496900	0.500700	0.393400
Ag11	Ag1	0.875000	0.875000	0.986600
Ag21	Ag2	0.875000	0.375000	0.486600
Ag31	Ag3	0.375000	0.875000	0.486600
Ag41	Ag4	0.375000	0.375000	0.986600
Ag51	Ag5	0.875000	0.875000	0.763400
Ag61	Ag6	0.875000	0.375000	0.263400
Ag71	Ag7	0.375000	0.875000	0.263400
Ag81	Ag8	0.375000	0.375000	0.763400
Ag91	Ag9	0.125000	0.125000	0.013400
Ag101	Ag10	0.125000	0.625000	0.513400
Ag111	Ag11	0.625000	0.125000	0.513400
Ag121	Ag12	0.625000	0.625000	0.013400
Ag131	Ag13	0.125000	0.125000	0.236600
Ag141	Ag14	0.125000	0.625000	0.736600
Ag151	Ag15	0.625000	0.125000	0.736600
Ag161	Ag16	0.625000	0.625000	0.236600
