data_NIMWUD_freeONLY_PM
_symmetry_space_group_name_H-M	'P1'
_cell_length_a	11.454500
_cell_length_b	11.454500
_cell_length_c	15.077700
_cell_angle_alpha	109.621000
_cell_angle_beta	109.621000
_cell_angle_gamma	96.583400
_symmetry_Int_Tables_number 1

loop_
_symmetry_equiv_pos_as_xyz
'x,y,z'

loop_
_atom_site_label
_atom_site_type_symbol
_atom_site_fract_x
_atom_site_fract_y
_atom_site_fract_z
Cd11	Cd1	0.266840	0.003980	0.286200
Cd21	Cd2	0.733160	0.996020	0.713800
Cd31	Cd3	0.003980	0.266840	0.786200
Cd41	Cd4	0.996020	0.733160	0.213800
H11	H1	0.116200	0.839000	0.920700
H21	H2	0.754800	0.558400	0.856700
H31	H3	0.984300	0.487500	0.696000
H41	H4	0.839000	0.116200	0.420700
H51	H5	0.558400	0.754800	0.356700
H61	H6	0.677800	0.662800	0.127000
H71	H7	0.883800	0.161000	0.079300
H81	H8	0.245200	0.441600	0.143300
H91	H9	0.931600	0.816400	0.409400
H101	H10	0.183600	0.068400	0.090600
H111	H11	0.337200	0.322200	0.373000
H121	H12	0.816400	0.931600	0.909400
H131	H13	0.015700	0.512500	0.304000
H141	H14	0.476700	0.894900	0.519100
H151	H15	0.161000	0.883800	0.579300
H161	H16	0.487500	0.984300	0.196000
H171	H17	0.105100	0.523300	0.980900
H181	H18	0.441600	0.245200	0.643300
H191	H19	0.322200	0.337200	0.873000
H201	H20	0.002200	0.948600	0.193100
H211	H21	0.523300	0.105100	0.480900
H221	H22	0.068400	0.183600	0.590600
H231	H23	0.512500	0.015700	0.804000
H241	H24	0.662800	0.677800	0.627000
H251	H25	0.894900	0.476700	0.019100
H261	H26	0.051400	0.997800	0.306900
H271	H27	0.997800	0.051400	0.806900
H281	H28	0.948600	0.002200	0.693100
C11	C1	0.786100	0.846100	0.863300
C21	C2	0.164800	0.770000	0.084000
C31	C3	0.700900	0.598700	0.730500
C41	C4	0.846100	0.786100	0.363300
C51	C5	0.147900	0.207500	0.982300
C61	C6	0.561200	0.090200	0.433700
C71	C7	0.956200	0.328600	0.203600
C81	C8	0.598700	0.700900	0.230500
C91	C9	0.539600	0.018600	0.265800
C101	C10	0.328600	0.956200	0.703600
C111	C11	0.299100	0.401300	0.269500
C121	C12	0.096100	0.750300	0.899000
C131	C13	0.909800	0.438800	0.066300
C141	C14	0.248300	0.206900	0.597600
C151	C15	0.213900	0.153900	0.136700
C161	C16	0.460400	0.981400	0.734200
C171	C17	0.697300	0.696100	0.197200
C181	C18	0.249600	0.375600	0.166300
C191	C19	0.903900	0.249700	0.101000
C201	C20	0.206900	0.248300	0.097600
C211	C21	0.306400	0.881600	0.530300
C221	C22	0.302700	0.303900	0.802800
C231	C23	0.881600	0.306400	0.030300
C241	C24	0.770000	0.164800	0.584000
C251	C25	0.249700	0.903900	0.601000
C261	C26	0.751700	0.793100	0.402400
C271	C27	0.401300	0.299100	0.769500
C281	C28	0.118400	0.693600	0.969700
C291	C29	0.693600	0.118400	0.469700
C301	C30	0.207500	0.147900	0.482300
C311	C31	0.153900	0.213900	0.636700
C321	C32	0.852100	0.792500	0.017700
C331	C33	0.624400	0.750400	0.333700
C341	C34	0.230000	0.835200	0.416000
C351	C35	0.750300	0.096100	0.399000
C361	C36	0.793100	0.751700	0.902400
C371	C37	0.671400	0.043800	0.296400
C381	C38	0.018600	0.539600	0.765800
C391	C39	0.792500	0.852100	0.517700
C401	C40	0.981400	0.460400	0.234200
C411	C41	0.090200	0.561200	0.933700
C421	C42	0.835200	0.230000	0.916000
C431	C43	0.043800	0.671400	0.796400
C441	C44	0.696100	0.697300	0.697200
C451	C45	0.438800	0.909800	0.566300
C461	C46	0.375600	0.249600	0.666300
C471	C47	0.303900	0.302700	0.302800
C481	C48	0.750400	0.624400	0.833700
N11	N1	0.485200	0.042000	0.332800
N21	N2	0.958000	0.514800	0.167200
N31	N3	0.820000	0.738400	0.263400
N41	N4	0.261600	0.180000	0.236600
N51	N5	0.738400	0.820000	0.763400
N61	N6	0.514800	0.958000	0.667200
N71	N7	0.180000	0.261600	0.736600
N81	N8	0.042000	0.485200	0.832800
Cl11	Cl1	0.732810	0.004150	0.202840
Cl21	Cl2	0.647020	0.441420	0.639800
Cl31	Cl3	0.004150	0.732810	0.702840
Cl41	Cl4	0.267190	0.995850	0.797160
Cl51	Cl5	0.352980	0.558580	0.360200
Cl61	Cl6	0.558580	0.352980	0.860200
Cl71	Cl7	0.995850	0.267190	0.297160
Cl81	Cl8	0.441420	0.647020	0.139800
O11	O1	0.711810	0.137790	0.634000
O21	O2	0.893200	0.911000	0.070600
O31	O3	0.884400	0.225600	0.619200
O41	O4	0.911000	0.893200	0.570600
O51	O5	0.288190	0.862210	0.366000
O61	O6	0.705310	0.855490	0.550400
O71	O7	0.051000	0.949000	0.250000
O81	O8	0.115600	0.774400	0.380800
O91	O9	0.137790	0.711810	0.134000
O101	O10	0.144510	0.294690	0.949600
O111	O11	0.089000	0.106800	0.429400
O121	O12	0.106800	0.089000	0.929400
O131	O13	0.225600	0.884400	0.119200
O141	O14	0.774400	0.115600	0.880800
O151	O15	0.855490	0.705310	0.050400
O161	O16	0.294690	0.144510	0.449600
O171	O17	0.949000	0.051000	0.750000
O181	O18	0.862210	0.288190	0.866000
