data_NIRKAB_freeONLY_PM
_symmetry_space_group_name_H-M	'P1'
_cell_length_a	13.736000
_cell_length_b	13.736000
_cell_length_c	15.170000
_cell_angle_alpha	90.000000
_cell_angle_beta	90.000000
_cell_angle_gamma	120.000000
_symmetry_Int_Tables_number 1

loop_
_symmetry_equiv_pos_as_xyz
'x,y,z'

loop_
_atom_site_label
_atom_site_type_symbol
_atom_site_fract_x
_atom_site_fract_y
_atom_site_fract_z
Al11	Al1	0.996870	0.228680	0.100290
Si11	Si1	0.228620	0.231970	0.105200
O11	O1	0.123400	0.240000	0.128200
O21	O2	0.325100	0.313700	0.167200
O31	O3	0.202000	0.109600	0.119500
O41	O4	0.265200	0.269200	0.008700
P11	P1	0.898640	0.336680	0.228130
Al21	Al2	0.663540	0.562010	0.433620
Si21	Si2	0.895290	0.565300	0.438530
O51	O5	0.790070	0.573330	0.461530
O61	O6	0.991770	0.647030	0.500530
O71	O7	0.868670	0.442930	0.452830
O81	O8	0.931870	0.602530	0.342030
P21	P2	0.565300	0.670020	0.561470
Al31	Al3	0.330200	0.895350	0.766960
Si31	Si3	0.561950	0.898640	0.771870
O91	O9	0.456730	0.906670	0.794870
O101	O10	0.658430	0.980370	0.833870
O111	O11	0.535330	0.776270	0.786170
O121	O12	0.598530	0.935870	0.675370
P31	P3	0.231970	0.003350	0.894800
Al41	Al4	0.771320	0.768190	0.100290
Si41	Si4	0.768030	0.996650	0.105200
O131	O13	0.760000	0.883400	0.128200
O141	O14	0.686300	0.011400	0.167200
O151	O15	0.890400	0.092400	0.119500
O161	O16	0.730800	0.996000	0.008700
P41	P4	0.663320	0.561950	0.228130
Al51	Al5	0.437990	0.101520	0.433620
Si51	Si5	0.434700	0.329980	0.438530
O171	O17	0.426670	0.216730	0.461530
O181	O18	0.352970	0.344730	0.500530
O191	O19	0.557070	0.425730	0.452830
O201	O20	0.397470	0.329330	0.342030
P51	P5	0.329980	0.895290	0.561470
Al61	Al6	0.104650	0.434860	0.766960
Si61	Si6	0.101360	0.663320	0.771870
O211	O21	0.093330	0.550070	0.794870
O221	O22	0.019630	0.678070	0.833870
O231	O23	0.223730	0.759070	0.786170
O241	O24	0.064130	0.662670	0.675370
P61	P6	0.996650	0.228620	0.894800
Al71	Al7	0.231810	0.003130	0.100290
Si71	Si7	0.003350	0.771380	0.105200
O251	O25	0.116600	0.876600	0.128200
O261	O26	0.988600	0.674900	0.167200
O271	O27	0.907600	0.798000	0.119500
O281	O28	0.004000	0.734800	0.008700
P71	P7	0.438050	0.101360	0.228130
Al81	Al8	0.898480	0.336460	0.433620
Si81	Si8	0.670020	0.104710	0.438530
O291	O29	0.783270	0.209930	0.461530
O301	O30	0.655270	0.008230	0.500530
O311	O31	0.574270	0.131330	0.452830
O321	O32	0.670670	0.068130	0.342030
P81	P8	0.104710	0.434700	0.561470
Al91	Al9	0.565140	0.669800	0.766960
Si91	Si9	0.336680	0.438050	0.771870
O331	O33	0.449930	0.543270	0.794870
O341	O34	0.321930	0.341570	0.833870
O351	O35	0.240930	0.464670	0.786170
O361	O36	0.337330	0.401470	0.675370
P91	P9	0.771380	0.768030	0.894800
Al101	Al10	0.003130	0.771320	0.899710
O371	O37	0.876600	0.760000	0.871800
O381	O38	0.674900	0.686300	0.832800
O391	O39	0.798000	0.890400	0.880500
O401	O40	0.734800	0.730800	0.991300
Al111	Al11	0.669800	0.104650	0.233040
O411	O41	0.543270	0.093330	0.205130
O421	O42	0.341570	0.019630	0.166130
O431	O43	0.464670	0.223730	0.213830
O441	O44	0.401470	0.064130	0.324630
Al121	Al12	0.336460	0.437990	0.566380
O451	O45	0.209930	0.426670	0.538470
O461	O46	0.008230	0.352970	0.499470
O471	O47	0.131330	0.557070	0.547170
O481	O48	0.068130	0.397470	0.657970
Al131	Al13	0.228680	0.231810	0.899710
O491	O49	0.240000	0.116600	0.871800
O501	O50	0.313700	0.988600	0.832800
O511	O51	0.109600	0.907600	0.880500
O521	O52	0.269200	0.004000	0.991300
Al141	Al14	0.895350	0.565140	0.233040
O531	O53	0.906670	0.449930	0.205130
O541	O54	0.980370	0.321930	0.166130
O551	O55	0.776270	0.240930	0.213830
O561	O56	0.935870	0.337330	0.324630
Al151	Al15	0.562010	0.898480	0.566380
O571	O57	0.573330	0.783270	0.538470
O581	O58	0.647030	0.655270	0.499470
O591	O59	0.442930	0.574270	0.547170
O601	O60	0.602530	0.670670	0.657970
Al161	Al16	0.768190	0.996870	0.899710
O611	O61	0.883400	0.123400	0.871800
O621	O62	0.011400	0.325100	0.832800
O631	O63	0.092400	0.202000	0.880500
O641	O64	0.996000	0.265200	0.991300
Al171	Al17	0.434860	0.330200	0.233040
O651	O65	0.550070	0.456730	0.205130
O661	O66	0.678070	0.658430	0.166130
O671	O67	0.759070	0.535330	0.213830
O681	O68	0.662670	0.598530	0.324630
Al181	Al18	0.101520	0.663540	0.566380
O691	O69	0.216730	0.790070	0.538470
O701	O70	0.344730	0.991770	0.499470
O711	O71	0.425730	0.868670	0.547170
O721	O72	0.329330	0.931870	0.657970
