data_NISCOJ_freeONLY_PM
_symmetry_space_group_name_H-M	'P1'
_cell_length_a	7.846300
_cell_length_b	18.313900
_cell_length_c	19.376000
_cell_angle_alpha	90.000000
_cell_angle_beta	90.000000
_cell_angle_gamma	90.000000
_symmetry_Int_Tables_number 1

loop_
_symmetry_equiv_pos_as_xyz
'x,y,z'

loop_
_atom_site_label
_atom_site_type_symbol
_atom_site_fract_x
_atom_site_fract_y
_atom_site_fract_z
Zn11	Zn1	0.525380	0.508140	0.499990
Zn21	Zn2	0.474620	0.491860	0.999990
Zn31	Zn3	0.474620	0.008140	0.499990
Zn41	Zn4	0.525380	0.991860	0.999990
H11	H1	0.635400	0.725300	0.480800
H21	H2	0.864400	0.648000	0.458600
H31	H3	0.186600	0.819500	0.475200
H41	H4	0.954900	0.897400	0.490600
H51	H5	0.043700	0.561200	0.534200
H61	H6	0.095100	0.629500	0.579900
H71	H7	0.212100	0.559000	0.579300
H81	H8	0.359200	0.792500	0.372800
H91	H9	0.206700	0.753700	0.333700
H101	H10	0.397500	0.733100	0.315400
H111	H11	0.273700	0.565100	0.771100
H121	H12	0.055400	0.576500	0.689900
H131	H13	0.718800	0.493700	0.825700
H141	H14	0.937500	0.485000	0.907900
H151	H15	0.753600	0.406400	0.587500
H161	H16	0.826000	0.404900	0.663800
H171	H17	0.927100	0.446600	0.605100
H181	H18	0.527900	0.693300	0.730100
H191	H19	0.719800	0.680700	0.752500
H201	H20	0.572100	0.635100	0.787900
H211	H21	0.364600	0.274700	0.980800
H221	H22	0.135600	0.352000	0.958600
H231	H23	0.813400	0.180500	0.975200
H241	H24	0.045100	0.102600	0.990600
H251	H25	0.956300	0.438800	0.034200
H261	H26	0.904900	0.370500	0.079900
H271	H27	0.787900	0.441000	0.079300
H281	H28	0.640800	0.207500	0.872800
H291	H29	0.793300	0.246300	0.833700
H301	H30	0.602500	0.266900	0.815400
H311	H31	0.726300	0.434900	0.271100
H321	H32	0.944600	0.423500	0.189900
H331	H33	0.281200	0.506300	0.325700
H341	H34	0.062500	0.515000	0.407900
H351	H35	0.246400	0.593600	0.087500
H361	H36	0.174000	0.595100	0.163800
H371	H37	0.072900	0.553400	0.105100
H381	H38	0.472100	0.306700	0.230100
H391	H39	0.280200	0.319300	0.252500
H401	H40	0.427900	0.364900	0.287900
H411	H41	0.364600	0.225300	0.480800
H421	H42	0.135600	0.148000	0.458600
H431	H43	0.813400	0.319500	0.475200
H441	H44	0.045100	0.397400	0.490600
H451	H45	0.956300	0.061200	0.534200
H461	H46	0.904900	0.129500	0.579900
H471	H47	0.787900	0.059000	0.579300
H481	H48	0.640800	0.292500	0.372800
H491	H49	0.793300	0.253700	0.333700
H501	H50	0.602500	0.233100	0.315400
H511	H51	0.726300	0.065100	0.771100
H521	H52	0.944600	0.076500	0.689900
H531	H53	0.281200	0.993700	0.825700
H541	H54	0.062500	0.985000	0.907900
H551	H55	0.246400	0.906400	0.587500
H561	H56	0.174000	0.904900	0.663800
H571	H57	0.072900	0.946600	0.605100
H581	H58	0.472100	0.193300	0.730100
H591	H59	0.280200	0.180700	0.752500
H601	H60	0.427900	0.135100	0.787900
H611	H61	0.635400	0.774700	0.980800
H621	H62	0.864400	0.852000	0.958600
H631	H63	0.186600	0.680500	0.975200
H641	H64	0.954900	0.602600	0.990600
H651	H65	0.043700	0.938800	0.034200
H661	H66	0.095100	0.870500	0.079900
H671	H67	0.212100	0.941000	0.079300
H681	H68	0.359200	0.707500	0.872800
H691	H69	0.206700	0.746300	0.833700
H701	H70	0.397500	0.766900	0.815400
H711	H71	0.273700	0.934900	0.271100
H721	H72	0.055400	0.923500	0.189900
H731	H73	0.718800	0.006300	0.325700
H741	H74	0.937500	0.015000	0.407900
H751	H75	0.753600	0.093600	0.087500
H761	H76	0.826000	0.095100	0.163800
H771	H77	0.927100	0.053400	0.105100
H781	H78	0.527900	0.806700	0.230100
H791	H79	0.719800	0.819300	0.252500
H801	H80	0.572100	0.864900	0.287900
C11	C1	0.622700	0.869430	0.501100
C21	C2	0.772000	0.819000	0.487830
C31	C3	0.746500	0.744460	0.478620
C41	C4	0.882600	0.698020	0.466320
C51	C5	0.046800	0.726890	0.465670
C61	C6	0.075000	0.800740	0.475370
C71	C7	0.937000	0.846900	0.485390
C81	C8	0.138300	0.589860	0.551660
C91	C9	0.237100	0.620550	0.492440
C101	C10	0.317800	0.688620	0.406000
C111	C11	0.320600	0.747110	0.352300
C121	C12	0.273400	0.517220	0.897650
C131	C13	0.126500	0.523380	0.846990
C141	C14	0.162100	0.550600	0.782340
C151	C15	0.032100	0.556800	0.733630
C161	C16	0.869600	0.533880	0.749590
C171	C17	0.830700	0.507790	0.814510
C181	C18	0.961800	0.502710	0.863400
C191	C19	0.814700	0.434060	0.622330
C201	C20	0.719100	0.502090	0.638430
C211	C21	0.628400	0.600070	0.691550
C221	C22	0.610500	0.657200	0.745100
C231	C23	0.377300	0.130570	0.001100
C241	C24	0.228000	0.181000	0.987830
C251	C25	0.253500	0.255540	0.978620
C261	C26	0.117400	0.301980	0.966320
C271	C27	0.953200	0.273110	0.965670
C281	C28	0.925000	0.199260	0.975370
C291	C29	0.063000	0.153100	0.985390
C301	C30	0.861700	0.410140	0.051660
C311	C31	0.762900	0.379450	0.992440
C321	C32	0.682200	0.311380	0.906000
C331	C33	0.679400	0.252890	0.852300
C341	C34	0.726600	0.482780	0.397650
C351	C35	0.873500	0.476620	0.346990
C361	C36	0.837900	0.449400	0.282340
C371	C37	0.967900	0.443200	0.233630
C381	C38	0.130400	0.466120	0.249590
C391	C39	0.169300	0.492210	0.314510
C401	C40	0.038200	0.497290	0.363400
C411	C41	0.185300	0.565940	0.122330
C421	C42	0.280900	0.497910	0.138430
C431	C43	0.371600	0.399930	0.191550
C441	C44	0.389500	0.342800	0.245100
C451	C45	0.377300	0.369430	0.501100
C461	C46	0.228000	0.319000	0.487830
C471	C47	0.253500	0.244460	0.478620
C481	C48	0.117400	0.198020	0.466320
C491	C49	0.953200	0.226890	0.465670
C501	C50	0.925000	0.300740	0.475370
C511	C51	0.063000	0.346900	0.485390
C521	C52	0.861700	0.089860	0.551660
C531	C53	0.762900	0.120550	0.492440
C541	C54	0.682200	0.188620	0.406000
C551	C55	0.679400	0.247110	0.352300
C561	C56	0.726600	0.017220	0.897650
C571	C57	0.873500	0.023380	0.846990
C581	C58	0.837900	0.050600	0.782340
C591	C59	0.967900	0.056800	0.733630
C601	C60	0.130400	0.033880	0.749590
C611	C61	0.169300	0.007790	0.814510
C621	C62	0.038200	0.002710	0.863400
C631	C63	0.185300	0.934060	0.622330
C641	C64	0.280900	0.002090	0.638430
C651	C65	0.371600	0.100070	0.691550
C661	C66	0.389500	0.157200	0.745100
C671	C67	0.622700	0.630570	0.001100
C681	C68	0.772000	0.681000	0.987830
C691	C69	0.746500	0.755540	0.978620
C701	C70	0.882600	0.801980	0.966320
C711	C71	0.046800	0.773110	0.965670
C721	C72	0.075000	0.699260	0.975370
C731	C73	0.937000	0.653100	0.985390
C741	C74	0.138300	0.910140	0.051660
C751	C75	0.237100	0.879450	0.992440
C761	C76	0.317800	0.811380	0.906000
C771	C77	0.320600	0.752890	0.852300
C781	C78	0.273400	0.982780	0.397650
C791	C79	0.126500	0.976620	0.346990
C801	C80	0.162100	0.949400	0.282340
C811	C81	0.032100	0.943200	0.233630
C821	C82	0.869600	0.966120	0.249590
C831	C83	0.830700	0.992210	0.314510
C841	C84	0.961800	0.997290	0.363400
C851	C85	0.814700	0.065940	0.122330
C861	C86	0.719100	0.997910	0.138430
C871	C87	0.628400	0.899930	0.191550
C881	C88	0.610500	0.842800	0.245100
N11	N1	0.383400	0.595310	0.468980
N21	N2	0.434000	0.638250	0.413220
N31	N3	0.191100	0.679550	0.454070
N41	N4	0.602100	0.532600	0.600120
N51	N5	0.543700	0.595360	0.633880
N61	N6	0.739700	0.542430	0.697630
N71	N7	0.616600	0.404690	0.968980
N81	N8	0.566000	0.361750	0.913220
N91	N9	0.808900	0.320450	0.954070
N101	N10	0.397900	0.467400	0.100120
N111	N11	0.456300	0.404640	0.133880
N121	N12	0.260300	0.457570	0.197630
N131	N13	0.616600	0.095310	0.468980
N141	N14	0.566000	0.138250	0.413220
N151	N15	0.808900	0.179550	0.454070
N161	N16	0.397900	0.032600	0.600120
N171	N17	0.456300	0.095360	0.633880
N181	N18	0.260300	0.042430	0.697630
N191	N19	0.383400	0.904690	0.968980
N201	N20	0.434000	0.861750	0.913220
N211	N21	0.191100	0.820450	0.954070
N221	N22	0.602100	0.967400	0.100120
N231	N23	0.543700	0.904640	0.133880
N241	N24	0.739700	0.957570	0.197630
O11	O1	0.659280	0.937210	0.505960
O21	O2	0.476800	0.843940	0.507200
O31	O3	0.240000	0.493790	0.958150
O41	O4	0.419700	0.533420	0.879390
O51	O5	0.340720	0.062790	0.005960
O61	O6	0.523200	0.156060	0.007200
O71	O7	0.760000	0.506210	0.458150
O81	O8	0.580300	0.466580	0.379390
O91	O9	0.340720	0.437210	0.505960
O101	O10	0.523200	0.343940	0.507200
O111	O11	0.760000	0.993790	0.958150
O121	O12	0.580300	0.033420	0.879390
O131	O13	0.659280	0.562790	0.005960
O141	O14	0.476800	0.656060	0.007200
O151	O15	0.240000	0.006210	0.458150
O161	O16	0.419700	0.966580	0.379390
