data_NISPOV_freeONLY_PM
_symmetry_space_group_name_H-M	'P1'
_cell_length_a	10.143000
_cell_length_b	10.257000
_cell_length_c	15.500000
_cell_angle_alpha	86.982000
_cell_angle_beta	73.520000
_cell_angle_gamma	81.229000
_symmetry_Int_Tables_number 1

loop_
_symmetry_equiv_pos_as_xyz
'x,y,z'

loop_
_atom_site_label
_atom_site_type_symbol
_atom_site_fract_x
_atom_site_fract_y
_atom_site_fract_z
Zn11	Zn1	0.486450	0.247570	0.157290
Zn21	Zn2	0.455320	0.239120	0.934050
Zn31	Zn3	0.457580	0.777610	0.300370
Zn41	Zn4	0.458640	0.078370	0.393440
P11	P1	0.585100	0.507950	0.198150
P21	P2	0.640200	0.954200	0.202620
P31	P3	0.648000	0.163400	0.486380
O11	O1	0.547200	0.300000	0.028700
O21	O2	0.530300	0.573900	0.122200
O31	O3	0.530600	0.378300	0.226600
O41	O4	0.547800	0.597000	0.279500
O51	O5	0.267300	0.290500	0.016600
O61	O6	0.288800	0.488000	0.064200
O71	O7	0.613700	0.837100	0.159300
O81	O8	0.613600	0.083900	0.156700
O91	O9	0.549900	0.946200	0.301100
O101	O10	0.337000	0.845100	0.125700
O111	O11	0.276800	0.826100	0.276200
O121	O12	0.333500	0.202100	0.341000
O131	O13	0.291700	0.216600	0.208100
O141	O14	0.651700	0.017300	0.510200
O151	O15	0.558600	0.206000	0.423400
O161	O16	0.606600	0.251900	0.567800
C11	C1	0.773000	0.475300	0.159300
C21	C2	0.839000	0.362300	0.109900
H11	H1	0.786500	0.301600	0.098900
C31	C3	0.982500	0.340000	0.077300
H21	H2	0.025100	0.264300	0.044400
C41	C4	0.063600	0.428000	0.092900
C51	C5	0.999400	0.538300	0.142700
H31	H3	0.052800	0.597600	0.154500
C61	C6	0.855600	0.562400	0.175600
H41	H4	0.813900	0.637800	0.209100
C71	C7	0.219700	0.401400	0.055100
C81	C8	0.818900	0.928500	0.206000
C91	C9	0.923600	0.945100	0.127700
H51	H5	0.900400	0.972800	0.075100
C101	C10	0.063100	0.920900	0.127000
H61	H6	0.131800	0.933200	0.074100
C111	C11	0.099100	0.879900	0.202200
C121	C12	0.995400	0.863700	0.282000
H71	H7	0.018900	0.837100	0.334700
C131	C13	0.857100	0.887800	0.281600
H81	H8	0.788500	0.875800	0.334600
C141	C14	0.251000	0.846100	0.201200
C151	C15	0.253300	0.203400	0.291900
C161	C16	0.101700	0.195900	0.338600
C171	C17	0.004800	0.219200	0.291200
H91	H9	0.032200	0.238200	0.229900
C181	C18	0.864100	0.214300	0.335600
H101	H10	0.797500	0.232100	0.304200
C191	C19	0.825400	0.182600	0.426600
C201	C20	0.925000	0.158600	0.473100
H111	H11	0.898900	0.137400	0.534100
C211	C21	0.063200	0.166100	0.429400
H121	H12	0.129600	0.151200	0.461000
Zn51	Zn5	0.513550	0.752430	0.842710
Zn61	Zn6	0.544680	0.760880	0.065950
Zn71	Zn7	0.542420	0.222390	0.699630
Zn81	Zn8	0.541360	0.921630	0.606560
P41	P4	0.414900	0.492050	0.801850
P51	P5	0.359800	0.045800	0.797380
P61	P6	0.352000	0.836600	0.513620
O171	O17	0.452800	0.700000	0.971300
O181	O18	0.469700	0.426100	0.877800
O191	O19	0.469400	0.621700	0.773400
O201	O20	0.452200	0.403000	0.720500
O211	O21	0.732700	0.709500	0.983400
O221	O22	0.711200	0.512000	0.935800
O231	O23	0.386300	0.162900	0.840700
O241	O24	0.386400	0.916100	0.843300
O251	O25	0.450100	0.053800	0.698900
O261	O26	0.663000	0.154900	0.874300
O271	O27	0.723200	0.173900	0.723800
O281	O28	0.666500	0.797900	0.659000
O291	O29	0.708300	0.783400	0.791900
O301	O30	0.348300	0.982700	0.489800
O311	O31	0.441400	0.794000	0.576600
O321	O32	0.393400	0.748100	0.432200
C221	C22	0.227000	0.524700	0.840700
C231	C23	0.161000	0.637700	0.890100
H131	H13	0.213500	0.698400	0.901100
C241	C24	0.017500	0.660000	0.922700
H141	H14	0.974900	0.735700	0.955600
C251	C25	0.936400	0.572000	0.907100
C261	C26	0.000600	0.461700	0.857300
H151	H15	0.947200	0.402400	0.845500
C271	C27	0.144400	0.437600	0.824400
H161	H16	0.186100	0.362200	0.790900
C281	C28	0.780300	0.598600	0.944900
C291	C29	0.181100	0.071500	0.794000
C301	C30	0.076400	0.054900	0.872300
H171	H17	0.099600	0.027200	0.924900
C311	C31	0.936900	0.079100	0.873000
H181	H18	0.868200	0.066800	0.925900
C321	C32	0.900900	0.120100	0.797800
C331	C33	0.004600	0.136300	0.718000
H191	H19	0.981100	0.162900	0.665300
C341	C34	0.142900	0.112200	0.718400
H201	H20	0.211500	0.124200	0.665400
C351	C35	0.749000	0.153900	0.798800
C361	C36	0.746700	0.796600	0.708100
C371	C37	0.898300	0.804100	0.661400
C381	C38	0.995200	0.780800	0.708800
H211	H21	0.967800	0.761800	0.770100
C391	C39	0.135900	0.785700	0.664400
H221	H22	0.202500	0.767900	0.695800
C401	C40	0.174600	0.817400	0.573400
C411	C41	0.075000	0.841400	0.526900
H231	H23	0.101100	0.862600	0.465900
C421	C42	0.936800	0.833900	0.570600
H241	H24	0.870400	0.848800	0.539000
Zn91	Zn9	0.500000	0.500000	0.000000
