data_NIZZIG_freeONLY_PM
_symmetry_space_group_name_H-M	'P1'
_cell_length_a	14.022000
_cell_length_b	28.140000
_cell_length_c	44.480000
_cell_angle_alpha	90.000000
_cell_angle_beta	90.000000
_cell_angle_gamma	90.000000
_symmetry_Int_Tables_number 1

loop_
_symmetry_equiv_pos_as_xyz
'x,y,z'

loop_
_atom_site_label
_atom_site_type_symbol
_atom_site_fract_x
_atom_site_fract_y
_atom_site_fract_z
Zn11	Zn1	0.141940	0.050270	0.586350
Zn21	Zn2	0.382930	0.023230	0.415020
Zn31	Zn3	0.169550	0.239240	0.319450
Zn41	Zn4	0.858060	0.449730	0.086350
Zn51	Zn5	0.617070	0.476770	0.915020
Zn61	Zn6	0.830450	0.260760	0.819450
Zn71	Zn7	0.641940	0.949730	0.913650
Zn81	Zn8	0.882930	0.976770	0.084980
Zn91	Zn9	0.669550	0.760760	0.180550
Zn101	Zn10	0.358060	0.550270	0.413650
Zn111	Zn11	0.117070	0.523230	0.584980
Zn121	Zn12	0.330450	0.739240	0.680550
H11	H1	0.953800	0.029900	0.556100
H21	H2	0.875800	0.048600	0.512200
H31	H3	0.124200	0.097400	0.477600
H41	H4	0.196300	0.080100	0.523100
H51	H5	0.521900	0.033400	0.465800
H61	H6	0.679100	0.059700	0.475000
H71	H7	0.690400	0.101700	0.388200
H81	H8	0.536100	0.075800	0.381900
H91	H9	0.965900	0.213900	0.333600
H101	H10	0.876200	0.173700	0.369500
H111	H11	0.124000	0.142700	0.410500
H121	H12	0.204500	0.177900	0.371800
H131	H13	0.055700	0.088000	0.642700
H141	H14	0.030900	0.158900	0.667200
H151	H15	0.100500	0.228400	0.590500
H161	H16	0.132300	0.154100	0.569000
H171	H17	0.944000	0.203200	0.775100
H181	H18	0.997400	0.209600	0.726200
H191	H19	0.941400	0.349900	0.729400
H201	H20	0.875500	0.339000	0.776900
H211	H21	0.111300	0.419100	0.569500
H221	H22	0.084900	0.347000	0.592600
H231	H23	0.034900	0.414500	0.670100
H241	H24	0.060900	0.486200	0.645000
H251	H25	0.046200	0.470100	0.056100
H261	H26	0.124200	0.451400	0.012200
H271	H27	0.875800	0.402600	0.977600
H281	H28	0.803700	0.419900	0.023100
H291	H29	0.478100	0.466600	0.965800
H301	H30	0.320900	0.440300	0.975000
H311	H31	0.309600	0.398300	0.888200
H321	H32	0.463900	0.424200	0.881900
H331	H33	0.034100	0.286100	0.833600
H341	H34	0.123800	0.326300	0.869500
H351	H35	0.876000	0.357300	0.910500
H361	H36	0.795500	0.322100	0.871800
H371	H37	0.944300	0.412000	0.142700
H381	H38	0.969100	0.341100	0.167200
H391	H39	0.899500	0.271600	0.090500
H401	H40	0.867700	0.345900	0.069000
H411	H41	0.056000	0.296800	0.275100
H421	H42	0.002600	0.290400	0.226200
H431	H43	0.058600	0.150100	0.229400
H441	H44	0.124500	0.161000	0.276900
H451	H45	0.888700	0.080900	0.069500
H461	H46	0.915100	0.153000	0.092600
H471	H47	0.965100	0.085500	0.170100
H481	H48	0.939100	0.013800	0.145000
H491	H49	0.453800	0.970100	0.943900
H501	H50	0.375800	0.951400	0.987800
H511	H51	0.624200	0.902600	0.022400
H521	H52	0.696300	0.919900	0.976900
H531	H53	0.021900	0.966600	0.034200
H541	H54	0.179100	0.940300	0.025000
H551	H55	0.190400	0.898300	0.111800
H561	H56	0.036100	0.924200	0.118100
H571	H57	0.465900	0.786100	0.166400
H581	H58	0.376200	0.826300	0.130500
H591	H59	0.624000	0.857300	0.089500
H601	H60	0.704500	0.822100	0.128200
H611	H61	0.555700	0.912000	0.857300
H621	H62	0.530900	0.841100	0.832800
H631	H63	0.600500	0.771600	0.909500
H641	H64	0.632300	0.845900	0.931000
H651	H65	0.444000	0.796800	0.724900
H661	H66	0.497400	0.790400	0.773800
H671	H67	0.441400	0.650100	0.770600
H681	H68	0.375500	0.661000	0.723100
H691	H69	0.611300	0.580900	0.930500
H701	H70	0.584900	0.653000	0.907400
H711	H71	0.534900	0.585500	0.829900
H721	H72	0.560900	0.513800	0.855000
H731	H73	0.546200	0.529900	0.443900
H741	H74	0.624200	0.548600	0.487800
H751	H75	0.375800	0.597400	0.522400
H761	H76	0.303700	0.580100	0.476900
H771	H77	0.978100	0.533400	0.534200
H781	H78	0.820900	0.559700	0.525000
H791	H79	0.809600	0.601700	0.611800
H801	H80	0.963900	0.575800	0.618100
H811	H81	0.534100	0.713900	0.666400
H821	H82	0.623800	0.673700	0.630500
H831	H83	0.376000	0.642700	0.589500
H841	H84	0.295500	0.677900	0.628200
H851	H85	0.444300	0.588000	0.357300
H861	H86	0.469100	0.658900	0.332800
H871	H87	0.399500	0.728400	0.409500
H881	H88	0.367700	0.654100	0.431000
H891	H89	0.556000	0.703200	0.224900
H901	H90	0.502600	0.709600	0.273800
H911	H91	0.558600	0.849900	0.270600
H921	H92	0.624500	0.839000	0.223100
H931	H93	0.388700	0.919100	0.430500
H941	H94	0.415100	0.847000	0.407400
H951	H95	0.465100	0.914500	0.329900
H961	H96	0.439100	0.986200	0.355000
C11	C1	0.988200	0.044700	0.540300
C21	C2	0.941900	0.055400	0.514200
C31	C3	0.990300	0.076000	0.490700
C41	C4	0.088000	0.084500	0.493800
C51	C5	0.130100	0.073800	0.520800
C61	C6	0.939400	0.090700	0.463100
C71	C7	0.804400	0.095600	0.436600
C81	C8	0.937900	0.128100	0.418500
C91	C9	0.557000	0.047700	0.449900
C101	C10	0.651300	0.062800	0.455600
C111	C11	0.702300	0.082700	0.431700
C121	C12	0.657500	0.087600	0.404600
C131	C13	0.565600	0.072300	0.401000
C141	C14	0.998000	0.197700	0.349400
C151	C15	0.943800	0.174500	0.370900
C161	C16	0.990000	0.153000	0.393800
C171	C17	0.089400	0.156100	0.394200
C181	C18	0.136700	0.177800	0.371600
C191	C19	0.066800	0.116900	0.632200
C201	C20	0.050800	0.158900	0.646800
C211	C21	0.063600	0.201100	0.631800
C221	C22	0.092800	0.200000	0.601800
C231	C23	0.110100	0.155400	0.589200
C241	C24	0.047400	0.246500	0.647800
C251	C25	0.006400	0.284100	0.690300
C261	C26	0.045200	0.326300	0.649300
C271	C27	0.940200	0.233100	0.765200
C281	C28	0.973700	0.236900	0.736300
C291	C29	0.973200	0.280700	0.721700
C301	C30	0.939200	0.319000	0.737900
C311	C31	0.901900	0.312600	0.766500
C321	C32	0.095000	0.418400	0.590300
C331	C33	0.079800	0.375400	0.604100
C341	C34	0.057600	0.372700	0.634000
C351	C35	0.050300	0.414500	0.649400
C361	C36	0.065900	0.457200	0.634200
C371	C37	0.011800	0.455300	0.040300
C381	C38	0.058100	0.444600	0.014200
C391	C39	0.009700	0.424000	0.990700
C401	C40	0.912000	0.415500	0.993800
C411	C41	0.869900	0.426200	0.020800
C421	C42	0.060600	0.409300	0.963100
C431	C43	0.195600	0.404400	0.936600
C441	C44	0.062100	0.371900	0.918500
C451	C45	0.443000	0.452300	0.949900
C461	C46	0.348700	0.437200	0.955600
C471	C47	0.297700	0.417300	0.931700
C481	C48	0.342500	0.412400	0.904600
C491	C49	0.434400	0.427700	0.901000
C501	C50	0.002000	0.302300	0.849400
C511	C51	0.056200	0.325500	0.870900
C521	C52	0.010000	0.347000	0.893800
C531	C53	0.910600	0.343900	0.894200
C541	C54	0.863300	0.322200	0.871600
C551	C55	0.933200	0.383100	0.132200
C561	C56	0.949200	0.341100	0.146800
C571	C57	0.936400	0.298900	0.131800
C581	C58	0.907200	0.300000	0.101800
C591	C59	0.889900	0.344600	0.089200
C601	C60	0.952600	0.253500	0.147800
C611	C61	0.993600	0.215900	0.190300
C621	C62	0.954800	0.173700	0.149300
C631	C63	0.059800	0.266900	0.265200
C641	C64	0.026300	0.263100	0.236300
C651	C65	0.026800	0.219300	0.221700
C661	C66	0.060800	0.181000	0.237900
C671	C67	0.098100	0.187400	0.266500
C681	C68	0.905000	0.081600	0.090300
C691	C69	0.920200	0.124600	0.104100
C701	C70	0.942400	0.127300	0.134000
C711	C71	0.949700	0.085500	0.149400
C721	C72	0.934100	0.042800	0.134200
C731	C73	0.488200	0.955300	0.959700
C741	C74	0.441900	0.944600	0.985800
C751	C75	0.490300	0.924000	0.009300
C761	C76	0.588000	0.915500	0.006200
C771	C77	0.630100	0.926200	0.979200
C781	C78	0.439400	0.909300	0.036900
C791	C79	0.304400	0.904400	0.063400
C801	C80	0.437900	0.871900	0.081500
C811	C81	0.057000	0.952300	0.050100
C821	C82	0.151300	0.937200	0.044400
C831	C83	0.202300	0.917300	0.068300
C841	C84	0.157500	0.912400	0.095400
C851	C85	0.065600	0.927700	0.099000
C861	C86	0.498000	0.802300	0.150600
C871	C87	0.443800	0.825500	0.129100
C881	C88	0.490000	0.847000	0.106200
C891	C89	0.589400	0.843900	0.105800
C901	C90	0.636700	0.822200	0.128400
C911	C91	0.566800	0.883100	0.867800
C921	C92	0.550800	0.841100	0.853200
C931	C93	0.563600	0.798900	0.868200
C941	C94	0.592800	0.800000	0.898200
C951	C95	0.610100	0.844600	0.910800
C961	C96	0.547400	0.753500	0.852200
C971	C97	0.506400	0.715900	0.809700
C981	C98	0.545200	0.673700	0.850700
C991	C99	0.440200	0.766900	0.734800
C1001	C100	0.473700	0.763100	0.763700
C1011	C101	0.473200	0.719300	0.778300
C1021	C102	0.439200	0.681000	0.762100
C1031	C103	0.401900	0.687400	0.733500
C1041	C104	0.595000	0.581600	0.909700
C1051	C105	0.579800	0.624600	0.895900
C1061	C106	0.557600	0.627300	0.866000
C1071	C107	0.550300	0.585500	0.850600
C1081	C108	0.565900	0.542800	0.865800
C1091	C109	0.511800	0.544700	0.459700
C1101	C110	0.558100	0.555400	0.485800
C1111	C111	0.509700	0.576000	0.509300
C1121	C112	0.412000	0.584500	0.506200
C1131	C113	0.369900	0.573800	0.479200
C1141	C114	0.560600	0.590700	0.536900
C1151	C115	0.695600	0.595600	0.563400
C1161	C116	0.562100	0.628100	0.581500
C1171	C117	0.943000	0.547700	0.550100
C1181	C118	0.848700	0.562800	0.544400
C1191	C119	0.797700	0.582700	0.568300
C1201	C120	0.842500	0.587600	0.595400
C1211	C121	0.934400	0.572300	0.599000
C1221	C122	0.502000	0.697700	0.650600
C1231	C123	0.556200	0.674500	0.629100
C1241	C124	0.510000	0.653000	0.606200
C1251	C125	0.410600	0.656100	0.605800
C1261	C126	0.363300	0.677800	0.628400
C1271	C127	0.433200	0.616900	0.367800
C1281	C128	0.449200	0.658900	0.353200
C1291	C129	0.436400	0.701100	0.368200
C1301	C130	0.407200	0.700000	0.398200
C1311	C131	0.389900	0.655400	0.410800
C1321	C132	0.452600	0.746500	0.352200
C1331	C133	0.493600	0.784100	0.309700
C1341	C134	0.454800	0.826300	0.350700
C1351	C135	0.559800	0.733100	0.234800
C1361	C136	0.526300	0.736900	0.263700
C1371	C137	0.526800	0.780700	0.278300
C1381	C138	0.560800	0.819000	0.262100
C1391	C139	0.598100	0.812600	0.233500
C1401	C140	0.405000	0.918400	0.409700
C1411	C141	0.420200	0.875400	0.395900
C1421	C142	0.442400	0.872700	0.366000
C1431	C143	0.449700	0.914500	0.350600
C1441	C144	0.434100	0.957200	0.365800
I11	I1	0.322290	0.057350	0.583010
I21	I2	0.056510	0.986340	0.616490
I31	I3	0.304630	0.006010	0.465880
I41	I4	0.304010	0.074780	0.375830
I51	I5	0.157610	0.325900	0.335720
I61	I6	0.334060	0.201960	0.312900
I71	I7	0.677710	0.442650	0.083010
I81	I8	0.943490	0.513660	0.116490
I91	I9	0.695370	0.493990	0.965880
I101	I10	0.695990	0.425220	0.875830
I111	I11	0.842390	0.174100	0.835720
I121	I12	0.665940	0.298040	0.812900
I131	I13	0.822290	0.942650	0.916990
I141	I14	0.556510	0.013660	0.883510
I151	I15	0.804630	0.993990	0.034120
I161	I16	0.804010	0.925220	0.124170
I171	I17	0.657610	0.674100	0.164280
I181	I18	0.834060	0.798040	0.187100
I191	I19	0.177710	0.557350	0.416990
I201	I20	0.443490	0.486340	0.383510
I211	I21	0.195370	0.506010	0.534120
I221	I22	0.195990	0.574780	0.624170
I231	I23	0.342390	0.825900	0.664280
I241	I24	0.165940	0.701960	0.687100
N11	N1	0.082600	0.054800	0.544400
N21	N2	0.846500	0.079300	0.461000
N31	N3	0.844400	0.121400	0.414500
N41	N4	0.990300	0.113300	0.442200
N51	N5	0.515800	0.052400	0.423600
N61	N6	0.092200	0.198500	0.349700
N71	N7	0.097200	0.114500	0.603720
N81	N8	0.021300	0.243300	0.676360
N91	N9	0.061200	0.287300	0.633000
N101	N10	0.016700	0.327300	0.678300
N111	N11	0.902500	0.269900	0.779760
N121	N12	0.087600	0.458800	0.605100
N131	N13	0.917400	0.445200	0.044400
N141	N14	0.153500	0.420700	0.961000
N151	N15	0.155600	0.378600	0.914500
N161	N16	0.009700	0.386700	0.942200
N171	N17	0.484200	0.447600	0.923600
N181	N18	0.907800	0.301500	0.849700
N191	N19	0.902800	0.385500	0.103720
N201	N20	0.978700	0.256700	0.176360
N211	N21	0.938800	0.212700	0.133000
N221	N22	0.983300	0.172700	0.178300
N231	N23	0.097500	0.230100	0.279760
N241	N24	0.912400	0.041200	0.105100
N251	N25	0.582600	0.945200	0.955600
N261	N26	0.346500	0.920700	0.039000
N271	N27	0.344400	0.878600	0.085500
N281	N28	0.490300	0.886700	0.057800
N291	N29	0.015800	0.947600	0.076400
N301	N30	0.592200	0.801500	0.150300
N311	N31	0.597200	0.885500	0.896280
N321	N32	0.521300	0.756700	0.823640
N331	N33	0.561200	0.712700	0.867000
N341	N34	0.516700	0.672700	0.821700
N351	N35	0.402500	0.730100	0.720240
N361	N36	0.587600	0.541200	0.894900
N371	N37	0.417400	0.554800	0.455600
N381	N38	0.653500	0.579300	0.539000
N391	N39	0.655600	0.621400	0.585500
N401	N40	0.509700	0.613300	0.557800
N411	N41	0.984200	0.552400	0.576400
N421	N42	0.407800	0.698500	0.650300
N431	N43	0.402800	0.614500	0.396280
N441	N44	0.478700	0.743300	0.323640
N451	N45	0.438800	0.787300	0.367000
N461	N46	0.483300	0.827300	0.321700
N471	N47	0.597500	0.769900	0.220240
N481	N48	0.412400	0.958800	0.394900
Zn131	Zn13	0.858060	0.949730	0.413650
Zn141	Zn14	0.617070	0.976770	0.584980
Zn151	Zn15	0.830450	0.760760	0.680550
Zn161	Zn16	0.141940	0.550270	0.913650
Zn171	Zn17	0.382930	0.523230	0.084980
Zn181	Zn18	0.169550	0.739240	0.180550
Zn191	Zn19	0.358060	0.050270	0.086350
Zn201	Zn20	0.117070	0.023230	0.915020
Zn211	Zn21	0.330450	0.239240	0.819450
Zn221	Zn22	0.641940	0.449730	0.586350
Zn231	Zn23	0.882930	0.476770	0.415020
Zn241	Zn24	0.669550	0.260760	0.319450
H971	H97	0.046200	0.970100	0.443900
H981	H98	0.124200	0.951400	0.487800
H991	H99	0.875800	0.902600	0.522400
H1001	H100	0.803700	0.919900	0.476900
H1011	H101	0.478100	0.966600	0.534200
H1021	H102	0.320900	0.940300	0.525000
H1031	H103	0.309600	0.898300	0.611800
H1041	H104	0.463900	0.924200	0.618100
H1051	H105	0.034100	0.786100	0.666400
H1061	H106	0.123800	0.826300	0.630500
H1071	H107	0.876000	0.857300	0.589500
H1081	H108	0.795500	0.822100	0.628200
H1091	H109	0.944300	0.912000	0.357300
H1101	H110	0.969100	0.841100	0.332800
H1111	H111	0.899500	0.771600	0.409500
H1121	H112	0.867700	0.845900	0.431000
H1131	H113	0.056000	0.796800	0.224900
H1141	H114	0.002600	0.790400	0.273800
H1151	H115	0.058600	0.650100	0.270600
H1161	H116	0.124500	0.661000	0.223100
H1171	H117	0.888700	0.580900	0.430500
H1181	H118	0.915100	0.653000	0.407400
H1191	H119	0.965100	0.585500	0.329900
H1201	H120	0.939100	0.513800	0.355000
H1211	H121	0.953800	0.529900	0.943900
H1221	H122	0.875800	0.548600	0.987800
H1231	H123	0.124200	0.597400	0.022400
H1241	H124	0.196300	0.580100	0.976900
H1251	H125	0.521900	0.533400	0.034200
H1261	H126	0.679100	0.559700	0.025000
H1271	H127	0.690400	0.601700	0.111800
H1281	H128	0.536100	0.575800	0.118100
H1291	H129	0.965900	0.713900	0.166400
H1301	H130	0.876200	0.673700	0.130500
H1311	H131	0.124000	0.642700	0.089500
H1321	H132	0.204500	0.677900	0.128200
H1331	H133	0.055700	0.588000	0.857300
H1341	H134	0.030900	0.658900	0.832800
H1351	H135	0.100500	0.728400	0.909500
H1361	H136	0.132300	0.654100	0.931000
H1371	H137	0.944000	0.703200	0.724900
H1381	H138	0.997400	0.709600	0.773800
H1391	H139	0.941400	0.849900	0.770600
H1401	H140	0.875500	0.839000	0.723100
H1411	H141	0.111300	0.919100	0.930500
H1421	H142	0.084900	0.847000	0.907400
H1431	H143	0.034900	0.914500	0.829900
H1441	H144	0.060900	0.986200	0.855000
H1451	H145	0.546200	0.029900	0.056100
H1461	H146	0.624200	0.048600	0.012200
H1471	H147	0.375800	0.097400	0.977600
H1481	H148	0.303700	0.080100	0.023100
H1491	H149	0.978100	0.033400	0.965800
H1501	H150	0.820900	0.059700	0.975000
H1511	H151	0.809600	0.101700	0.888200
H1521	H152	0.963900	0.075800	0.881900
H1531	H153	0.534100	0.213900	0.833600
H1541	H154	0.623800	0.173700	0.869500
H1551	H155	0.376000	0.142700	0.910500
H1561	H156	0.295500	0.177900	0.871800
H1571	H157	0.444300	0.088000	0.142700
H1581	H158	0.469100	0.158900	0.167200
H1591	H159	0.399500	0.228400	0.090500
H1601	H160	0.367700	0.154100	0.069000
H1611	H161	0.556000	0.203200	0.275100
H1621	H162	0.502600	0.209600	0.226200
H1631	H163	0.558600	0.349900	0.229400
H1641	H164	0.624500	0.339000	0.276900
H1651	H165	0.388700	0.419100	0.069500
H1661	H166	0.415100	0.347000	0.092600
H1671	H167	0.465100	0.414500	0.170100
H1681	H168	0.439100	0.486200	0.145000
H1691	H169	0.453800	0.470100	0.556100
H1701	H170	0.375800	0.451400	0.512200
H1711	H171	0.624200	0.402600	0.477600
H1721	H172	0.696300	0.419900	0.523100
H1731	H173	0.021900	0.466600	0.465800
H1741	H174	0.179100	0.440300	0.475000
H1751	H175	0.190400	0.398300	0.388200
H1761	H176	0.036100	0.424200	0.381900
H1771	H177	0.465900	0.286100	0.333600
H1781	H178	0.376200	0.326300	0.369500
H1791	H179	0.624000	0.357300	0.410500
H1801	H180	0.704500	0.322100	0.371800
H1811	H181	0.555700	0.412000	0.642700
H1821	H182	0.530900	0.341100	0.667200
H1831	H183	0.600500	0.271600	0.590500
H1841	H184	0.632300	0.345900	0.569000
H1851	H185	0.444000	0.296800	0.775100
H1861	H186	0.497400	0.290400	0.726200
H1871	H187	0.441400	0.150100	0.729400
H1881	H188	0.375500	0.161000	0.776900
H1891	H189	0.611300	0.080900	0.569500
H1901	H190	0.584900	0.153000	0.592600
H1911	H191	0.534900	0.085500	0.670100
H1921	H192	0.560900	0.013800	0.645000
C1451	C145	0.011800	0.955300	0.459700
C1461	C146	0.058100	0.944600	0.485800
C1471	C147	0.009700	0.924000	0.509300
C1481	C148	0.912000	0.915500	0.506200
C1491	C149	0.869900	0.926200	0.479200
C1501	C150	0.060600	0.909300	0.536900
C1511	C151	0.195600	0.904400	0.563400
C1521	C152	0.062100	0.871900	0.581500
C1531	C153	0.443000	0.952300	0.550100
C1541	C154	0.348700	0.937200	0.544400
C1551	C155	0.297700	0.917300	0.568300
C1561	C156	0.342500	0.912400	0.595400
C1571	C157	0.434400	0.927700	0.599000
C1581	C158	0.002000	0.802300	0.650600
C1591	C159	0.056200	0.825500	0.629100
C1601	C160	0.010000	0.847000	0.606200
C1611	C161	0.910600	0.843900	0.605800
C1621	C162	0.863300	0.822200	0.628400
C1631	C163	0.933200	0.883100	0.367800
C1641	C164	0.949200	0.841100	0.353200
C1651	C165	0.936400	0.798900	0.368200
C1661	C166	0.907200	0.800000	0.398200
C1671	C167	0.889900	0.844600	0.410800
C1681	C168	0.952600	0.753500	0.352200
C1691	C169	0.993600	0.715900	0.309700
C1701	C170	0.954800	0.673700	0.350700
C1711	C171	0.059800	0.766900	0.234800
C1721	C172	0.026300	0.763100	0.263700
C1731	C173	0.026800	0.719300	0.278300
C1741	C174	0.060800	0.681000	0.262100
C1751	C175	0.098100	0.687400	0.233500
C1761	C176	0.905000	0.581600	0.409700
C1771	C177	0.920200	0.624600	0.395900
C1781	C178	0.942400	0.627300	0.366000
C1791	C179	0.949700	0.585500	0.350600
C1801	C180	0.934100	0.542800	0.365800
C1811	C181	0.988200	0.544700	0.959700
C1821	C182	0.941900	0.555400	0.985800
C1831	C183	0.990300	0.576000	0.009300
C1841	C184	0.088000	0.584500	0.006200
C1851	C185	0.130100	0.573800	0.979200
C1861	C186	0.939400	0.590700	0.036900
C1871	C187	0.804400	0.595600	0.063400
C1881	C188	0.937900	0.628100	0.081500
C1891	C189	0.557000	0.547700	0.050100
C1901	C190	0.651300	0.562800	0.044400
C1911	C191	0.702300	0.582700	0.068300
C1921	C192	0.657500	0.587600	0.095400
C1931	C193	0.565600	0.572300	0.099000
C1941	C194	0.998000	0.697700	0.150600
C1951	C195	0.943800	0.674500	0.129100
C1961	C196	0.990000	0.653000	0.106200
C1971	C197	0.089400	0.656100	0.105800
C1981	C198	0.136700	0.677800	0.128400
C1991	C199	0.066800	0.616900	0.867800
C2001	C200	0.050800	0.658900	0.853200
C2011	C201	0.063600	0.701100	0.868200
C2021	C202	0.092800	0.700000	0.898200
C2031	C203	0.110100	0.655400	0.910800
C2041	C204	0.047400	0.746500	0.852200
C2051	C205	0.006400	0.784100	0.809700
C2061	C206	0.045200	0.826300	0.850700
C2071	C207	0.940200	0.733100	0.734800
C2081	C208	0.973700	0.736900	0.763700
C2091	C209	0.973200	0.780700	0.778300
C2101	C210	0.939200	0.819000	0.762100
C2111	C211	0.901900	0.812600	0.733500
C2121	C212	0.095000	0.918400	0.909700
C2131	C213	0.079800	0.875400	0.895900
C2141	C214	0.057600	0.872700	0.866000
C2151	C215	0.050300	0.914500	0.850600
C2161	C216	0.065900	0.957200	0.865800
C2171	C217	0.511800	0.044700	0.040300
C2181	C218	0.558100	0.055400	0.014200
C2191	C219	0.509700	0.076000	0.990700
C2201	C220	0.412000	0.084500	0.993800
C2211	C221	0.369900	0.073800	0.020800
C2221	C222	0.560600	0.090700	0.963100
C2231	C223	0.695600	0.095600	0.936600
C2241	C224	0.562100	0.128100	0.918500
C2251	C225	0.943000	0.047700	0.949900
C2261	C226	0.848700	0.062800	0.955600
C2271	C227	0.797700	0.082700	0.931700
C2281	C228	0.842500	0.087600	0.904600
C2291	C229	0.934400	0.072300	0.901000
C2301	C230	0.502000	0.197700	0.849400
C2311	C231	0.556200	0.174500	0.870900
C2321	C232	0.510000	0.153000	0.893800
C2331	C233	0.410600	0.156100	0.894200
C2341	C234	0.363300	0.177800	0.871600
C2351	C235	0.433200	0.116900	0.132200
C2361	C236	0.449200	0.158900	0.146800
C2371	C237	0.436400	0.201100	0.131800
C2381	C238	0.407200	0.200000	0.101800
C2391	C239	0.389900	0.155400	0.089200
C2401	C240	0.452600	0.246500	0.147800
C2411	C241	0.493600	0.284100	0.190300
C2421	C242	0.454800	0.326300	0.149300
C2431	C243	0.559800	0.233100	0.265200
C2441	C244	0.526300	0.236900	0.236300
C2451	C245	0.526800	0.280700	0.221700
C2461	C246	0.560800	0.319000	0.237900
C2471	C247	0.598100	0.312600	0.266500
C2481	C248	0.405000	0.418400	0.090300
C2491	C249	0.420200	0.375400	0.104100
C2501	C250	0.442400	0.372700	0.134000
C2511	C251	0.449700	0.414500	0.149400
C2521	C252	0.434100	0.457200	0.134200
C2531	C253	0.488200	0.455300	0.540300
C2541	C254	0.441900	0.444600	0.514200
C2551	C255	0.490300	0.424000	0.490700
C2561	C256	0.588000	0.415500	0.493800
C2571	C257	0.630100	0.426200	0.520800
C2581	C258	0.439400	0.409300	0.463100
C2591	C259	0.304400	0.404400	0.436600
C2601	C260	0.437900	0.371900	0.418500
C2611	C261	0.057000	0.452300	0.449900
C2621	C262	0.151300	0.437200	0.455600
C2631	C263	0.202300	0.417300	0.431700
C2641	C264	0.157500	0.412400	0.404600
C2651	C265	0.065600	0.427700	0.401000
C2661	C266	0.498000	0.302300	0.349400
C2671	C267	0.443800	0.325500	0.370900
C2681	C268	0.490000	0.347000	0.393800
C2691	C269	0.589400	0.343900	0.394200
C2701	C270	0.636700	0.322200	0.371600
C2711	C271	0.566800	0.383100	0.632200
C2721	C272	0.550800	0.341100	0.646800
C2731	C273	0.563600	0.298900	0.631800
C2741	C274	0.592800	0.300000	0.601800
C2751	C275	0.610100	0.344600	0.589200
C2761	C276	0.547400	0.253500	0.647800
C2771	C277	0.506400	0.215900	0.690300
C2781	C278	0.545200	0.173700	0.649300
C2791	C279	0.440200	0.266900	0.765200
C2801	C280	0.473700	0.263100	0.736300
C2811	C281	0.473200	0.219300	0.721700
C2821	C282	0.439200	0.181000	0.737900
C2831	C283	0.401900	0.187400	0.766500
C2841	C284	0.595000	0.081600	0.590300
C2851	C285	0.579800	0.124600	0.604100
C2861	C286	0.557600	0.127300	0.634000
C2871	C287	0.550300	0.085500	0.649400
C2881	C288	0.565900	0.042800	0.634200
I251	I25	0.677710	0.942650	0.416990
I261	I26	0.943490	0.013660	0.383510
I271	I27	0.695370	0.993990	0.534120
I281	I28	0.695990	0.925220	0.624170
I291	I29	0.842390	0.674100	0.664280
I301	I30	0.665940	0.798040	0.687100
I311	I31	0.322290	0.557350	0.916990
I321	I32	0.056510	0.486340	0.883510
I331	I33	0.304630	0.506010	0.034120
I341	I34	0.304010	0.574780	0.124170
I351	I35	0.157610	0.825900	0.164280
I361	I36	0.334060	0.701960	0.187100
I371	I37	0.177710	0.057350	0.083010
I381	I38	0.443490	0.986340	0.116490
I391	I39	0.195370	0.006010	0.965880
I401	I40	0.195990	0.074780	0.875830
I411	I41	0.342390	0.325900	0.835720
I421	I42	0.165940	0.201960	0.812900
I431	I43	0.822290	0.442650	0.583010
I441	I44	0.556510	0.513660	0.616490
I451	I45	0.804630	0.493990	0.465880
I461	I46	0.804010	0.425220	0.375830
I471	I47	0.657610	0.174100	0.335720
I481	I48	0.834060	0.298040	0.312900
N491	N49	0.917400	0.945200	0.455600
N501	N50	0.153500	0.920700	0.539000
N511	N51	0.155600	0.878600	0.585500
N521	N52	0.009700	0.886700	0.557800
N531	N53	0.484200	0.947600	0.576400
N541	N54	0.907800	0.801500	0.650300
N551	N55	0.902800	0.885500	0.396280
N561	N56	0.978700	0.756700	0.323640
N571	N57	0.938800	0.712700	0.367000
N581	N58	0.983300	0.672700	0.321700
N591	N59	0.097500	0.730100	0.220240
N601	N60	0.912400	0.541200	0.394900
N611	N61	0.082600	0.554800	0.955600
N621	N62	0.846500	0.579300	0.039000
N631	N63	0.844400	0.621400	0.085500
N641	N64	0.990300	0.613300	0.057800
N651	N65	0.515800	0.552400	0.076400
N661	N66	0.092200	0.698500	0.150300
N671	N67	0.097200	0.614500	0.896280
N681	N68	0.021300	0.743300	0.823640
N691	N69	0.061200	0.787300	0.867000
N701	N70	0.016700	0.827300	0.821700
N711	N71	0.902500	0.769900	0.720240
N721	N72	0.087600	0.958800	0.894900
N731	N73	0.417400	0.054800	0.044400
N741	N74	0.653500	0.079300	0.961000
N751	N75	0.655600	0.121400	0.914500
N761	N76	0.509700	0.113300	0.942200
N771	N77	0.984200	0.052400	0.923600
N781	N78	0.407800	0.198500	0.849700
N791	N79	0.402800	0.114500	0.103720
N801	N80	0.478700	0.243300	0.176360
N811	N81	0.438800	0.287300	0.133000
N821	N82	0.483300	0.327300	0.178300
N831	N83	0.597500	0.269900	0.279760
N841	N84	0.412400	0.458800	0.105100
N851	N85	0.582600	0.445200	0.544400
N861	N86	0.346500	0.420700	0.461000
N871	N87	0.344400	0.378600	0.414500
N881	N88	0.490300	0.386700	0.442200
N891	N89	0.015800	0.447600	0.423600
N901	N90	0.592200	0.301500	0.349700
N911	N91	0.597200	0.385500	0.603720
N921	N92	0.521300	0.256700	0.676360
N931	N93	0.561200	0.212700	0.633000
N941	N94	0.516700	0.172700	0.678300
N951	N95	0.402500	0.230100	0.779760
N961	N96	0.587600	0.041200	0.605100
