data_NIZZAY_freeONLY_PM
_symmetry_space_group_name_H-M	'P1'
_cell_length_a	13.839000
_cell_length_b	27.910000
_cell_length_c	44.930000
_cell_angle_alpha	90.000000
_cell_angle_beta	90.000000
_cell_angle_gamma	90.000000
_symmetry_Int_Tables_number 1

loop_
_symmetry_equiv_pos_as_xyz
'x,y,z'

loop_
_atom_site_label
_atom_site_type_symbol
_atom_site_fract_x
_atom_site_fract_y
_atom_site_fract_z
Zn11	Zn1	0.837980	0.258180	0.816600
Zn21	Zn2	0.625800	0.477570	0.914110
Zn31	Zn3	0.853320	0.448190	0.080010
Zn41	Zn4	0.162020	0.241820	0.316600
Zn51	Zn5	0.374200	0.022430	0.414110
Zn61	Zn6	0.146680	0.051810	0.580010
Zn71	Zn7	0.337980	0.741820	0.683400
Zn81	Zn8	0.125800	0.522430	0.585890
Zn91	Zn9	0.353320	0.551810	0.419990
Zn101	Zn10	0.662020	0.758180	0.183400
Zn111	Zn11	0.874200	0.977570	0.085890
Zn121	Zn12	0.646680	0.948190	0.919990
H11	H1	0.046100	0.277600	0.832600
H21	H2	0.134500	0.318900	0.868900
H31	H3	0.884000	0.353200	0.908000
H41	H4	0.801800	0.316300	0.870200
H51	H5	0.476000	0.422100	0.881400
H61	H6	0.318600	0.395300	0.887100
H71	H7	0.329200	0.436000	0.973100
H81	H8	0.484600	0.465300	0.964700
H91	H9	0.046500	0.465500	0.052200
H101	H10	0.129500	0.444300	0.009700
H111	H11	0.881900	0.400300	0.973300
H121	H12	0.801900	0.422300	0.016900
H131	H13	0.079400	0.484800	0.647500
H141	H14	0.057500	0.412400	0.671900
H151	H15	0.076500	0.346100	0.592700
H161	H16	0.095600	0.419700	0.570500
H171	H17	0.899300	0.336400	0.776700
H181	H18	0.958100	0.347200	0.728600
H191	H19	0.007800	0.204500	0.724700
H201	H20	0.951000	0.198300	0.773000
H211	H21	0.130200	0.157200	0.565600
H221	H22	0.105400	0.229200	0.589900
H231	H23	0.036800	0.154800	0.664100
H241	H24	0.068800	0.085100	0.637900
H251	H25	0.953900	0.222400	0.332600
H261	H26	0.865500	0.181100	0.368900
H271	H27	0.116000	0.146800	0.408000
H281	H28	0.198200	0.183700	0.370200
H291	H29	0.524000	0.077900	0.381400
H301	H30	0.681400	0.104700	0.387100
H311	H31	0.670800	0.064000	0.473100
H321	H32	0.515400	0.034700	0.464700
H331	H33	0.953500	0.034500	0.552200
H341	H34	0.870500	0.055700	0.509700
H351	H35	0.118100	0.099700	0.473300
H361	H36	0.198100	0.077700	0.516900
H371	H37	0.920600	0.015200	0.147500
H381	H38	0.942500	0.087600	0.171900
H391	H39	0.923500	0.153900	0.092700
H401	H40	0.904400	0.080300	0.070500
H411	H41	0.100700	0.163600	0.276700
H421	H42	0.041900	0.152800	0.228600
H431	H43	0.992200	0.295500	0.224700
H441	H44	0.049000	0.301700	0.273000
H451	H45	0.869800	0.342800	0.065600
H461	H46	0.894600	0.270800	0.089900
H471	H47	0.963200	0.345200	0.164100
H481	H48	0.931200	0.414900	0.137900
H491	H49	0.546100	0.722400	0.667400
H501	H50	0.634500	0.681100	0.631100
H511	H51	0.384000	0.646800	0.592000
H521	H52	0.301800	0.683700	0.629800
H531	H53	0.976000	0.577900	0.618600
H541	H54	0.818600	0.604700	0.612900
H551	H55	0.829200	0.564000	0.526900
H561	H56	0.984600	0.534700	0.535300
H571	H57	0.546500	0.534500	0.447800
H581	H58	0.629500	0.555700	0.490300
H591	H59	0.381900	0.599700	0.526700
H601	H60	0.301900	0.577700	0.483100
H611	H61	0.579400	0.515200	0.852500
H621	H62	0.557500	0.587600	0.828100
H631	H63	0.576500	0.653900	0.907300
H641	H64	0.595600	0.580300	0.929500
H651	H65	0.399300	0.663600	0.723300
H661	H66	0.458100	0.652800	0.771400
H671	H67	0.507800	0.795500	0.775300
H681	H68	0.451000	0.801700	0.727000
H691	H69	0.630200	0.842800	0.934400
H701	H70	0.605400	0.770800	0.910100
H711	H71	0.536800	0.845200	0.835900
H721	H72	0.568800	0.914900	0.862100
H731	H73	0.453900	0.777600	0.167400
H741	H74	0.365500	0.818900	0.131100
H751	H75	0.616000	0.853200	0.092000
H761	H76	0.698200	0.816300	0.129800
H771	H77	0.024000	0.922100	0.118600
H781	H78	0.181400	0.895300	0.112900
H791	H79	0.170800	0.936000	0.026900
H801	H80	0.015400	0.965300	0.035300
H811	H81	0.453500	0.965500	0.947800
H821	H82	0.370500	0.944300	0.990300
H831	H83	0.618100	0.900300	0.026700
H841	H84	0.698100	0.922300	0.983100
H851	H85	0.420600	0.984800	0.352500
H861	H86	0.442500	0.912400	0.328100
H871	H87	0.423500	0.846100	0.407300
H881	H88	0.404400	0.919700	0.429500
H891	H89	0.600700	0.836400	0.223300
H901	H90	0.541900	0.847200	0.271400
H911	H91	0.492200	0.704500	0.275300
H921	H92	0.549000	0.698300	0.227000
H931	H93	0.369800	0.657200	0.434400
H941	H94	0.394600	0.729200	0.410100
H951	H95	0.463200	0.654800	0.335900
H961	H96	0.431200	0.585100	0.362100
C11	C1	0.012600	0.294000	0.848000
C21	C2	0.066000	0.317700	0.869900
C31	C3	0.018000	0.339200	0.892940
C41	C4	0.919200	0.338200	0.892400
C51	C5	0.870500	0.316000	0.870000
C61	C6	0.070600	0.364600	0.916610
C71	C7	0.205700	0.398700	0.934990
C81	C8	0.068700	0.402700	0.960640
C91	C9	0.445000	0.426000	0.900100
C101	C10	0.351800	0.409300	0.903400
C111	C11	0.307500	0.413300	0.930800
C121	C12	0.357500	0.433600	0.953900
C131	C13	0.450500	0.450700	0.948700
C141	C14	0.012700	0.450500	0.036300
C151	C15	0.062000	0.438600	0.011000
C161	C16	0.014400	0.418300	0.987250
C171	C17	0.917700	0.412800	0.989500
C181	C18	0.870200	0.425400	0.015900
C191	C19	0.079700	0.456000	0.636200
C201	C20	0.066100	0.413100	0.651000
C211	C21	0.065300	0.372400	0.634910
C221	C22	0.077000	0.374400	0.604400
C231	C23	0.089400	0.418300	0.591500
C241	C24	0.053900	0.324200	0.649800
C251	C25	0.019100	0.280400	0.689990
C261	C26	0.055500	0.244600	0.646850
C271	C27	0.920600	0.309300	0.765600
C281	C28	0.955800	0.316000	0.737100
C291	C29	0.987700	0.276500	0.720990
C301	C30	0.985400	0.232200	0.734850
C311	C31	0.950600	0.228600	0.763360
C321	C32	0.112500	0.156700	0.586000
C331	C33	0.097300	0.199800	0.600280
C341	C34	0.070000	0.199500	0.629900
C351	C35	0.057600	0.156200	0.643940
C361	C36	0.076000	0.115000	0.628110
C371	C37	0.987400	0.206000	0.348000
C381	C38	0.934000	0.182300	0.369900
C391	C39	0.982000	0.160800	0.392940
C401	C40	0.080800	0.161800	0.392400
C411	C41	0.129500	0.184000	0.370000
C421	C42	0.929400	0.135400	0.416610
C431	C43	0.794300	0.101300	0.434990
C441	C44	0.931300	0.097300	0.460640
C451	C45	0.555000	0.074000	0.400100
C461	C46	0.648200	0.090700	0.403400
C471	C47	0.692500	0.086700	0.430800
C481	C48	0.642500	0.066400	0.453900
C491	C49	0.549500	0.049300	0.448700
C501	C50	0.987300	0.049500	0.536300
C511	C51	0.938000	0.061400	0.511000
C521	C52	0.985600	0.081700	0.487250
C531	C53	0.082300	0.087200	0.489500
C541	C54	0.129800	0.074600	0.515900
C551	C55	0.920300	0.044000	0.136200
C561	C56	0.933900	0.086900	0.151000
C571	C57	0.934700	0.127600	0.134910
C581	C58	0.923000	0.125600	0.104400
C591	C59	0.910600	0.081700	0.091500
C601	C60	0.946100	0.175800	0.149800
C611	C61	0.980900	0.219600	0.189990
C621	C62	0.944500	0.255400	0.146850
C631	C63	0.079400	0.190700	0.265600
C641	C64	0.044200	0.184000	0.237100
C651	C65	0.012300	0.223500	0.220990
C661	C66	0.014600	0.267800	0.234850
C671	C67	0.049400	0.271400	0.263360
C681	C68	0.887500	0.343300	0.086000
C691	C69	0.902700	0.300200	0.100280
C701	C70	0.930000	0.300500	0.129900
C711	C71	0.942400	0.343800	0.143940
C721	C72	0.924000	0.385000	0.128110
C731	C73	0.512600	0.706000	0.652000
C741	C74	0.566000	0.682300	0.630100
C751	C75	0.518000	0.660800	0.607060
C761	C76	0.419200	0.661800	0.607600
C771	C77	0.370500	0.684000	0.630000
C781	C78	0.570600	0.635400	0.583390
C791	C79	0.705700	0.601300	0.565010
C801	C80	0.568700	0.597300	0.539360
C811	C81	0.945000	0.574000	0.599900
C821	C82	0.851800	0.590700	0.596600
C831	C83	0.807500	0.586700	0.569200
C841	C84	0.857500	0.566400	0.546100
C851	C85	0.950500	0.549300	0.551300
C861	C86	0.512700	0.549500	0.463700
C871	C87	0.562000	0.561400	0.489000
C881	C88	0.514400	0.581700	0.512750
C891	C89	0.417700	0.587200	0.510500
C901	C90	0.370200	0.574600	0.484100
C911	C91	0.579700	0.544000	0.863800
C921	C92	0.566100	0.586900	0.849000
C931	C93	0.565300	0.627600	0.865090
C941	C94	0.577000	0.625600	0.895600
C951	C95	0.589400	0.581700	0.908500
C961	C96	0.553900	0.675800	0.850200
C971	C97	0.519100	0.719600	0.810010
C981	C98	0.555500	0.755400	0.853150
C991	C99	0.420600	0.690700	0.734400
C1001	C100	0.455800	0.684000	0.762900
C1011	C101	0.487700	0.723500	0.779010
C1021	C102	0.485400	0.767800	0.765150
C1031	C103	0.450600	0.771400	0.736640
C1041	C104	0.612500	0.843300	0.914000
C1051	C105	0.597300	0.800200	0.899720
C1061	C106	0.570000	0.800500	0.870100
C1071	C107	0.557600	0.843800	0.856060
C1081	C108	0.576000	0.885000	0.871890
C1091	C109	0.487400	0.794000	0.152000
C1101	C110	0.434000	0.817700	0.130100
C1111	C111	0.482000	0.839200	0.107060
C1121	C112	0.580800	0.838200	0.107600
C1131	C113	0.629500	0.816000	0.130000
C1141	C114	0.429400	0.864600	0.083390
C1151	C115	0.294300	0.898700	0.065010
C1161	C116	0.431300	0.902700	0.039360
C1171	C117	0.055000	0.926000	0.099900
C1181	C118	0.148200	0.909300	0.096600
C1191	C119	0.192500	0.913300	0.069200
C1201	C120	0.142500	0.933600	0.046100
C1211	C121	0.049500	0.950700	0.051300
C1221	C122	0.487300	0.950500	0.963700
C1231	C123	0.438000	0.938600	0.989000
C1241	C124	0.485600	0.918300	0.012750
C1251	C125	0.582300	0.912800	0.010500
C1261	C126	0.629800	0.925400	0.984100
C1271	C127	0.420300	0.956000	0.363800
C1281	C128	0.433900	0.913100	0.349000
C1291	C129	0.434700	0.872400	0.365090
C1301	C130	0.423000	0.874400	0.395600
C1311	C131	0.410600	0.918300	0.408500
C1321	C132	0.446100	0.824200	0.350200
C1331	C133	0.480900	0.780400	0.310010
C1341	C134	0.444500	0.744600	0.353150
C1351	C135	0.579400	0.809300	0.234400
C1361	C136	0.544200	0.816000	0.262900
C1371	C137	0.512300	0.776500	0.279010
C1381	C138	0.514600	0.732200	0.265150
C1391	C139	0.549400	0.728600	0.236640
C1401	C140	0.387500	0.656700	0.414000
C1411	C141	0.402700	0.699800	0.399720
C1421	C142	0.430000	0.699500	0.370100
C1431	C143	0.442400	0.656200	0.356060
C1441	C144	0.424000	0.615000	0.371890
I11	I1	0.828910	0.169510	0.829370
I21	I2	0.679670	0.303870	0.810440
I31	I3	0.709760	0.424960	0.876430
I41	I4	0.700930	0.497310	0.964490
I51	I5	0.672280	0.440060	0.073360
I61	I6	0.939640	0.513640	0.108510
I71	I7	0.171090	0.330490	0.329370
I81	I8	0.320330	0.196130	0.310440
I91	I9	0.290240	0.075040	0.376430
I101	I10	0.299070	0.002690	0.464490
I111	I11	0.327720	0.059940	0.573360
I121	I12	0.060360	0.986360	0.608510
I131	I13	0.328910	0.830490	0.670630
I141	I14	0.179670	0.696130	0.689560
I151	I15	0.209760	0.575040	0.623570
I161	I16	0.200930	0.502690	0.535510
I171	I17	0.172280	0.559940	0.426640
I181	I18	0.439640	0.486360	0.391490
I191	I19	0.671090	0.669510	0.170630
I201	I20	0.820330	0.803870	0.189560
I211	I21	0.790240	0.924960	0.123570
I221	I22	0.799070	0.997310	0.035510
I231	I23	0.827720	0.940060	0.926640
I241	I24	0.560360	0.013640	0.891490
N11	N1	0.916700	0.293800	0.847830
N21	N2	0.164400	0.372400	0.912860
N31	N3	0.161700	0.414100	0.959160
N41	N4	0.018500	0.378700	0.940240
N51	N5	0.493600	0.447500	0.922140
N61	N6	0.916900	0.441500	0.039350
N71	N7	0.093200	0.459200	0.606640
N81	N8	0.030200	0.324400	0.678250
N91	N9	0.031100	0.240300	0.675630
N101	N10	0.066300	0.286000	0.632830
N111	N11	0.916000	0.266700	0.777950
N121	N12	0.103700	0.115000	0.599300
N131	N13	0.083300	0.206200	0.347830
N141	N14	0.835600	0.127600	0.412860
N151	N15	0.838300	0.085900	0.459160
N161	N16	0.981500	0.121300	0.440240
N171	N17	0.506400	0.052500	0.422140
N181	N18	0.083100	0.058500	0.539350
N191	N19	0.906800	0.040800	0.106640
N201	N20	0.969800	0.175600	0.178250
N211	N21	0.968900	0.259700	0.175630
N221	N22	0.933700	0.214000	0.132830
N231	N23	0.084000	0.233300	0.277950
N241	N24	0.896300	0.385000	0.099300
N251	N25	0.416700	0.706200	0.652170
N261	N26	0.664400	0.627600	0.587140
N271	N27	0.661700	0.585900	0.540840
N281	N28	0.518500	0.621300	0.559760
N291	N29	0.993600	0.552500	0.577860
N301	N30	0.416900	0.558500	0.460650
N311	N31	0.593200	0.540800	0.893360
N321	N32	0.530200	0.675600	0.821750
N331	N33	0.531100	0.759700	0.824370
N341	N34	0.566300	0.714000	0.867170
N351	N35	0.416000	0.733300	0.722050
N361	N36	0.603700	0.885000	0.900700
N371	N37	0.583300	0.793800	0.152170
N381	N38	0.335600	0.872400	0.087140
N391	N39	0.338300	0.914100	0.040840
N401	N40	0.481500	0.878700	0.059760
N411	N41	0.006400	0.947500	0.077860
N421	N42	0.583100	0.941500	0.960650
N431	N43	0.406800	0.959200	0.393360
N441	N44	0.469800	0.824400	0.321750
N451	N45	0.468900	0.740300	0.324370
N461	N46	0.433700	0.786000	0.367170
N471	N47	0.584000	0.766700	0.222050
N481	N48	0.396300	0.615000	0.400700
Zn131	Zn13	0.162020	0.741820	0.183400
Zn141	Zn14	0.374200	0.522430	0.085890
Zn151	Zn15	0.146680	0.551810	0.919990
Zn161	Zn16	0.837980	0.758180	0.683400
Zn171	Zn17	0.625800	0.977570	0.585890
Zn181	Zn18	0.853320	0.948190	0.419990
Zn191	Zn19	0.662020	0.258180	0.316600
Zn201	Zn20	0.874200	0.477570	0.414110
Zn211	Zn21	0.646680	0.448190	0.580010
Zn221	Zn22	0.337980	0.241820	0.816600
Zn231	Zn23	0.125800	0.022430	0.914110
Zn241	Zn24	0.353320	0.051810	0.080010
H971	H97	0.953900	0.722400	0.167400
H981	H98	0.865500	0.681100	0.131100
H991	H99	0.116000	0.646800	0.092000
H1001	H100	0.198200	0.683700	0.129800
H1011	H101	0.524000	0.577900	0.118600
H1021	H102	0.681400	0.604700	0.112900
H1031	H103	0.670800	0.564000	0.026900
H1041	H104	0.515400	0.534700	0.035300
H1051	H105	0.953500	0.534500	0.947800
H1061	H106	0.870500	0.555700	0.990300
H1071	H107	0.118100	0.599700	0.026700
H1081	H108	0.198100	0.577700	0.983100
H1091	H109	0.920600	0.515200	0.352500
H1101	H110	0.942500	0.587600	0.328100
H1111	H111	0.923500	0.653900	0.407300
H1121	H112	0.904400	0.580300	0.429500
H1131	H113	0.100700	0.663600	0.223300
H1141	H114	0.041900	0.652800	0.271400
H1151	H115	0.992200	0.795500	0.275300
H1161	H116	0.049000	0.801700	0.227000
H1171	H117	0.869800	0.842800	0.434400
H1181	H118	0.894600	0.770800	0.410100
H1191	H119	0.963200	0.845200	0.335900
H1201	H120	0.931200	0.914900	0.362100
H1211	H121	0.046100	0.777600	0.667400
H1221	H122	0.134500	0.818900	0.631100
H1231	H123	0.884000	0.853200	0.592000
H1241	H124	0.801800	0.816300	0.629800
H1251	H125	0.476000	0.922100	0.618600
H1261	H126	0.318600	0.895300	0.612900
H1271	H127	0.329200	0.936000	0.526900
H1281	H128	0.484600	0.965300	0.535300
H1291	H129	0.046500	0.965500	0.447800
H1301	H130	0.129500	0.944300	0.490300
H1311	H131	0.881900	0.900300	0.526700
H1321	H132	0.801900	0.922300	0.483100
H1331	H133	0.079400	0.984800	0.852500
H1341	H134	0.057500	0.912400	0.828100
H1351	H135	0.076500	0.846100	0.907300
H1361	H136	0.095600	0.919700	0.929500
H1371	H137	0.899300	0.836400	0.723300
H1381	H138	0.958100	0.847200	0.771400
H1391	H139	0.007800	0.704500	0.775300
H1401	H140	0.951000	0.698300	0.727000
H1411	H141	0.130200	0.657200	0.934400
H1421	H142	0.105400	0.729200	0.910100
H1431	H143	0.036800	0.654800	0.835900
H1441	H144	0.068800	0.585100	0.862100
H1451	H145	0.453900	0.277600	0.332600
H1461	H146	0.365500	0.318900	0.368900
H1471	H147	0.616000	0.353200	0.408000
H1481	H148	0.698200	0.316300	0.370200
H1491	H149	0.024000	0.422100	0.381400
H1501	H150	0.181400	0.395300	0.387100
H1511	H151	0.170800	0.436000	0.473100
H1521	H152	0.015400	0.465300	0.464700
H1531	H153	0.453500	0.465500	0.552200
H1541	H154	0.370500	0.444300	0.509700
H1551	H155	0.618100	0.400300	0.473300
H1561	H156	0.698100	0.422300	0.516900
H1571	H157	0.420600	0.484800	0.147500
H1581	H158	0.442500	0.412400	0.171900
H1591	H159	0.423500	0.346100	0.092700
H1601	H160	0.404400	0.419700	0.070500
H1611	H161	0.600700	0.336400	0.276700
H1621	H162	0.541900	0.347200	0.228600
H1631	H163	0.492200	0.204500	0.224700
H1641	H164	0.549000	0.198300	0.273000
H1651	H165	0.369800	0.157200	0.065600
H1661	H166	0.394600	0.229200	0.089900
H1671	H167	0.463200	0.154800	0.164100
H1681	H168	0.431200	0.085100	0.137900
H1691	H169	0.546100	0.222400	0.832600
H1701	H170	0.634500	0.181100	0.868900
H1711	H171	0.384000	0.146800	0.908000
H1721	H172	0.301800	0.183700	0.870200
H1731	H173	0.976000	0.077900	0.881400
H1741	H174	0.818600	0.104700	0.887100
H1751	H175	0.829200	0.064000	0.973100
H1761	H176	0.984600	0.034700	0.964700
H1771	H177	0.546500	0.034500	0.052200
H1781	H178	0.629500	0.055700	0.009700
H1791	H179	0.381900	0.099700	0.973300
H1801	H180	0.301900	0.077700	0.016900
H1811	H181	0.579400	0.015200	0.647500
H1821	H182	0.557500	0.087600	0.671900
H1831	H183	0.576500	0.153900	0.592700
H1841	H184	0.595600	0.080300	0.570500
H1851	H185	0.399300	0.163600	0.776700
H1861	H186	0.458100	0.152800	0.728600
H1871	H187	0.507800	0.295500	0.724700
H1881	H188	0.451000	0.301700	0.773000
H1891	H189	0.630200	0.342800	0.565600
H1901	H190	0.605400	0.270800	0.589900
H1911	H191	0.536800	0.345200	0.664100
H1921	H192	0.568800	0.414900	0.637900
C1451	C145	0.987400	0.706000	0.152000
C1461	C146	0.934000	0.682300	0.130100
C1471	C147	0.982000	0.660800	0.107060
C1481	C148	0.080800	0.661800	0.107600
C1491	C149	0.129500	0.684000	0.130000
C1501	C150	0.929400	0.635400	0.083390
C1511	C151	0.794300	0.601300	0.065010
C1521	C152	0.931300	0.597300	0.039360
C1531	C153	0.555000	0.574000	0.099900
C1541	C154	0.648200	0.590700	0.096600
C1551	C155	0.692500	0.586700	0.069200
C1561	C156	0.642500	0.566400	0.046100
C1571	C157	0.549500	0.549300	0.051300
C1581	C158	0.987300	0.549500	0.963700
C1591	C159	0.938000	0.561400	0.989000
C1601	C160	0.985600	0.581700	0.012750
C1611	C161	0.082300	0.587200	0.010500
C1621	C162	0.129800	0.574600	0.984100
C1631	C163	0.920300	0.544000	0.363800
C1641	C164	0.933900	0.586900	0.349000
C1651	C165	0.934700	0.627600	0.365090
C1661	C166	0.923000	0.625600	0.395600
C1671	C167	0.910600	0.581700	0.408500
C1681	C168	0.946100	0.675800	0.350200
C1691	C169	0.980900	0.719600	0.310010
C1701	C170	0.944500	0.755400	0.353150
C1711	C171	0.079400	0.690700	0.234400
C1721	C172	0.044200	0.684000	0.262900
C1731	C173	0.012300	0.723500	0.279010
C1741	C174	0.014600	0.767800	0.265150
C1751	C175	0.049400	0.771400	0.236640
C1761	C176	0.887500	0.843300	0.414000
C1771	C177	0.902700	0.800200	0.399720
C1781	C178	0.930000	0.800500	0.370100
C1791	C179	0.942400	0.843800	0.356060
C1801	C180	0.924000	0.885000	0.371890
C1811	C181	0.012600	0.794000	0.652000
C1821	C182	0.066000	0.817700	0.630100
C1831	C183	0.018000	0.839200	0.607060
C1841	C184	0.919200	0.838200	0.607600
C1851	C185	0.870500	0.816000	0.630000
C1861	C186	0.070600	0.864600	0.583390
C1871	C187	0.205700	0.898700	0.565010
C1881	C188	0.068700	0.902700	0.539360
C1891	C189	0.445000	0.926000	0.599900
C1901	C190	0.351800	0.909300	0.596600
C1911	C191	0.307500	0.913300	0.569200
C1921	C192	0.357500	0.933600	0.546100
C1931	C193	0.450500	0.950700	0.551300
C1941	C194	0.012700	0.950500	0.463700
C1951	C195	0.062000	0.938600	0.489000
C1961	C196	0.014400	0.918300	0.512750
C1971	C197	0.917700	0.912800	0.510500
C1981	C198	0.870200	0.925400	0.484100
C1991	C199	0.079700	0.956000	0.863800
C2001	C200	0.066100	0.913100	0.849000
C2011	C201	0.065300	0.872400	0.865090
C2021	C202	0.077000	0.874400	0.895600
C2031	C203	0.089400	0.918300	0.908500
C2041	C204	0.053900	0.824200	0.850200
C2051	C205	0.019100	0.780400	0.810010
C2061	C206	0.055500	0.744600	0.853150
C2071	C207	0.920600	0.809300	0.734400
C2081	C208	0.955800	0.816000	0.762900
C2091	C209	0.987700	0.776500	0.779010
C2101	C210	0.985400	0.732200	0.765150
C2111	C211	0.950600	0.728600	0.736640
C2121	C212	0.112500	0.656700	0.914000
C2131	C213	0.097300	0.699800	0.899720
C2141	C214	0.070000	0.699500	0.870100
C2151	C215	0.057600	0.656200	0.856060
C2161	C216	0.076000	0.615000	0.871890
C2171	C217	0.487400	0.294000	0.348000
C2181	C218	0.434000	0.317700	0.369900
C2191	C219	0.482000	0.339200	0.392940
C2201	C220	0.580800	0.338200	0.392400
C2211	C221	0.629500	0.316000	0.370000
C2221	C222	0.429400	0.364600	0.416610
C2231	C223	0.294300	0.398700	0.434990
C2241	C224	0.431300	0.402700	0.460640
C2251	C225	0.055000	0.426000	0.400100
C2261	C226	0.148200	0.409300	0.403400
C2271	C227	0.192500	0.413300	0.430800
C2281	C228	0.142500	0.433600	0.453900
C2291	C229	0.049500	0.450700	0.448700
C2301	C230	0.487300	0.450500	0.536300
C2311	C231	0.438000	0.438600	0.511000
C2321	C232	0.485600	0.418300	0.487250
C2331	C233	0.582300	0.412800	0.489500
C2341	C234	0.629800	0.425400	0.515900
C2351	C235	0.420300	0.456000	0.136200
C2361	C236	0.433900	0.413100	0.151000
C2371	C237	0.434700	0.372400	0.134910
C2381	C238	0.423000	0.374400	0.104400
C2391	C239	0.410600	0.418300	0.091500
C2401	C240	0.446100	0.324200	0.149800
C2411	C241	0.480900	0.280400	0.189990
C2421	C242	0.444500	0.244600	0.146850
C2431	C243	0.579400	0.309300	0.265600
C2441	C244	0.544200	0.316000	0.237100
C2451	C245	0.512300	0.276500	0.220990
C2461	C246	0.514600	0.232200	0.234850
C2471	C247	0.549400	0.228600	0.263360
C2481	C248	0.387500	0.156700	0.086000
C2491	C249	0.402700	0.199800	0.100280
C2501	C250	0.430000	0.199500	0.129900
C2511	C251	0.442400	0.156200	0.143940
C2521	C252	0.424000	0.115000	0.128110
C2531	C253	0.512600	0.206000	0.848000
C2541	C254	0.566000	0.182300	0.869900
C2551	C255	0.518000	0.160800	0.892940
C2561	C256	0.419200	0.161800	0.892400
C2571	C257	0.370500	0.184000	0.870000
C2581	C258	0.570600	0.135400	0.916610
C2591	C259	0.705700	0.101300	0.934990
C2601	C260	0.568700	0.097300	0.960640
C2611	C261	0.945000	0.074000	0.900100
C2621	C262	0.851800	0.090700	0.903400
C2631	C263	0.807500	0.086700	0.930800
C2641	C264	0.857500	0.066400	0.953900
C2651	C265	0.950500	0.049300	0.948700
C2661	C266	0.512700	0.049500	0.036300
C2671	C267	0.562000	0.061400	0.011000
C2681	C268	0.514400	0.081700	0.987250
C2691	C269	0.417700	0.087200	0.989500
C2701	C270	0.370200	0.074600	0.015900
C2711	C271	0.579700	0.044000	0.636200
C2721	C272	0.566100	0.086900	0.651000
C2731	C273	0.565300	0.127600	0.634910
C2741	C274	0.577000	0.125600	0.604400
C2751	C275	0.589400	0.081700	0.591500
C2761	C276	0.553900	0.175800	0.649800
C2771	C277	0.519100	0.219600	0.689990
C2781	C278	0.555500	0.255400	0.646850
C2791	C279	0.420600	0.190700	0.765600
C2801	C280	0.455800	0.184000	0.737100
C2811	C281	0.487700	0.223500	0.720990
C2821	C282	0.485400	0.267800	0.734850
C2831	C283	0.450600	0.271400	0.763360
C2841	C284	0.612500	0.343300	0.586000
C2851	C285	0.597300	0.300200	0.600280
C2861	C286	0.570000	0.300500	0.629900
C2871	C287	0.557600	0.343800	0.643940
C2881	C288	0.576000	0.385000	0.628110
I251	I25	0.171090	0.830490	0.170630
I261	I26	0.320330	0.696130	0.189560
I271	I27	0.290240	0.575040	0.123570
I281	I28	0.299070	0.502690	0.035510
I291	I29	0.327720	0.559940	0.926640
I301	I30	0.060360	0.486360	0.891490
I311	I31	0.828910	0.669510	0.670630
I321	I32	0.679670	0.803870	0.689560
I331	I33	0.709760	0.924960	0.623570
I341	I34	0.700930	0.997310	0.535510
I351	I35	0.672280	0.940060	0.426640
I361	I36	0.939640	0.013640	0.391490
I371	I37	0.671090	0.169510	0.329370
I381	I38	0.820330	0.303870	0.310440
I391	I39	0.790240	0.424960	0.376430
I401	I40	0.799070	0.497310	0.464490
I411	I41	0.827720	0.440060	0.573360
I421	I42	0.560360	0.513640	0.608510
I431	I43	0.328910	0.330490	0.829370
I441	I44	0.179670	0.196130	0.810440
I451	I45	0.209760	0.075040	0.876430
I461	I46	0.200930	0.002690	0.964490
I471	I47	0.172280	0.059940	0.073360
I481	I48	0.439640	0.986360	0.108510
N491	N49	0.083300	0.706200	0.152170
N501	N50	0.835600	0.627600	0.087140
N511	N51	0.838300	0.585900	0.040840
N521	N52	0.981500	0.621300	0.059760
N531	N53	0.506400	0.552500	0.077860
N541	N54	0.083100	0.558500	0.960650
N551	N55	0.906800	0.540800	0.393360
N561	N56	0.969800	0.675600	0.321750
N571	N57	0.968900	0.759700	0.324370
N581	N58	0.933700	0.714000	0.367170
N591	N59	0.084000	0.733300	0.222050
N601	N60	0.896300	0.885000	0.400700
N611	N61	0.916700	0.793800	0.652170
N621	N62	0.164400	0.872400	0.587140
N631	N63	0.161700	0.914100	0.540840
N641	N64	0.018500	0.878700	0.559760
N651	N65	0.493600	0.947500	0.577860
N661	N66	0.916900	0.941500	0.460650
N671	N67	0.093200	0.959200	0.893360
N681	N68	0.030200	0.824400	0.821750
N691	N69	0.031100	0.740300	0.824370
N701	N70	0.066300	0.786000	0.867170
N711	N71	0.916000	0.766700	0.722050
N721	N72	0.103700	0.615000	0.900700
N731	N73	0.583300	0.293800	0.347830
N741	N74	0.335600	0.372400	0.412860
N751	N75	0.338300	0.414100	0.459160
N761	N76	0.481500	0.378700	0.440240
N771	N77	0.006400	0.447500	0.422140
N781	N78	0.583100	0.441500	0.539350
N791	N79	0.406800	0.459200	0.106640
N801	N80	0.469800	0.324400	0.178250
N811	N81	0.468900	0.240300	0.175630
N821	N82	0.433700	0.286000	0.132830
N831	N83	0.584000	0.266700	0.277950
N841	N84	0.396300	0.115000	0.099300
N851	N85	0.416700	0.206200	0.847830
N861	N86	0.664400	0.127600	0.912860
N871	N87	0.661700	0.085900	0.959160
N881	N88	0.518500	0.121300	0.940240
N891	N89	0.993600	0.052500	0.922140
N901	N90	0.416900	0.058500	0.039350
N911	N91	0.593200	0.040800	0.606640
N921	N92	0.530200	0.175600	0.678250
N931	N93	0.531100	0.259700	0.675630
N941	N94	0.566300	0.214000	0.632830
N951	N95	0.416000	0.233300	0.777950
N961	N96	0.603700	0.385000	0.599300
