data_NODTIL_manual_PM
_symmetry_space_group_name_H-M	'P1'
_cell_length_a	18.044900
_cell_length_b	18.044900
_cell_length_c	18.044900
_cell_angle_alpha	60.000000
_cell_angle_beta	60.000000
_cell_angle_gamma	60.000000
_symmetry_Int_Tables_number 1

loop_
_symmetry_equiv_pos_as_xyz
'x,y,z'

loop_
_atom_site_label
_atom_site_type_symbol
_atom_site_fract_x
_atom_site_fract_y
_atom_site_fract_z
Zn11	Zn1	0.381370	0.206210	0.206210
Zn21	Zn2	0.206210	0.381370	0.206210
Zn31	Zn3	0.206210	0.206210	0.381370
Zn41	Zn4	0.206210	0.206210	0.206210
Zn51	Zn5	0.793790	0.618630	0.793790
Zn61	Zn6	0.618630	0.793790	0.793790
Zn71	Zn7	0.793790	0.793790	0.618630
Zn81	Zn8	0.793790	0.793790	0.793790
C91	C9	0.531600	0.417600	0.025400
C101	C10	0.417600	0.531600	0.025400
C111	C11	0.025400	0.025400	0.531600
C121	C12	0.025400	0.025400	0.417600
C131	C13	0.531600	0.025400	0.025400
C141	C14	0.417600	0.025400	0.025400
C151	C15	0.025400	0.531600	0.417600
C161	C16	0.025400	0.417600	0.531600
C171	C17	0.531600	0.025400	0.417600
C181	C18	0.417600	0.025400	0.531600
C191	C19	0.025400	0.417600	0.025400
C201	C20	0.025400	0.531600	0.025400
C211	C21	0.582400	0.468400	0.974600
C221	C22	0.468400	0.582400	0.974600
C231	C23	0.974600	0.974600	0.468400
C241	C24	0.974600	0.974600	0.582400
C251	C25	0.974600	0.468400	0.974600
C261	C26	0.974600	0.582400	0.974600
C271	C27	0.468400	0.974600	0.582400
C281	C28	0.582400	0.974600	0.468400
C291	C29	0.974600	0.468400	0.582400
C301	C30	0.974600	0.582400	0.468400
C311	C31	0.582400	0.974600	0.974600
C321	C32	0.468400	0.974600	0.974600
C331	C33	0.445600	0.445600	0.054400
C341	C34	0.389700	0.389700	0.110300
C351	C35	0.054400	0.054400	0.445600
C361	C36	0.110300	0.110300	0.389700
C371	C37	0.445600	0.054400	0.054400
C381	C38	0.389700	0.110300	0.110300
C391	C39	0.054400	0.445600	0.445600
C401	C40	0.110300	0.389700	0.389700
C411	C41	0.445600	0.054400	0.445600
C421	C42	0.389700	0.110300	0.389700
C431	C43	0.054400	0.445600	0.054400
C441	C44	0.110300	0.389700	0.110300
C451	C45	0.554400	0.554400	0.945600
C461	C46	0.610300	0.610300	0.889700
C471	C47	0.945600	0.945600	0.554400
C481	C48	0.889700	0.889700	0.610300
C491	C49	0.945600	0.554400	0.945600
C501	C50	0.889700	0.610300	0.889700
C511	C51	0.554400	0.945600	0.554400
C521	C52	0.610300	0.889700	0.610300
C531	C53	0.945600	0.554400	0.554400
C541	C54	0.889700	0.610300	0.610300
C551	C55	0.554400	0.945600	0.945600
C561	C56	0.610300	0.889700	0.889700
O571	O57	0.250000	0.250000	0.250000
O581	O58	0.750000	0.750000	0.750000
O591	O59	0.425500	0.305900	0.134300
O601	O60	0.305900	0.425500	0.134300
O611	O61	0.134300	0.134300	0.425500
O621	O62	0.134300	0.134300	0.305900
O631	O63	0.425500	0.134300	0.134300
O641	O64	0.305900	0.134300	0.134300
O651	O65	0.134300	0.425500	0.305900
O661	O66	0.134300	0.305900	0.425500
O671	O67	0.425500	0.134300	0.305900
O681	O68	0.305900	0.134300	0.425500
O691	O69	0.134300	0.305900	0.134300
O701	O70	0.134300	0.425500	0.134300
O711	O71	0.694100	0.574500	0.865700
O721	O72	0.574500	0.694100	0.865700
O731	O73	0.865700	0.865700	0.574500
O741	O74	0.865700	0.865700	0.694100
O751	O75	0.865700	0.574500	0.865700
O761	O76	0.865700	0.694100	0.865700
O771	O77	0.574500	0.865700	0.694100
O781	O78	0.694100	0.865700	0.574500
O791	O79	0.865700	0.574500	0.694100
O801	O80	0.865700	0.694100	0.574500
O811	O81	0.694100	0.865700	0.865700
O821	O82	0.574500	0.865700	0.865700
H831	H83	0.563980	0.340550	0.047740
H841	H84	0.340550	0.563980	0.047740
H851	H85	0.047740	0.047740	0.563980
H861	H86	0.047740	0.047740	0.340550
H871	H87	0.340550	0.047740	0.047740
H881	H88	0.047740	0.563980	0.340550
H891	H89	0.047740	0.340550	0.563980
H901	H90	0.563980	0.047740	0.340550
H911	H91	0.340550	0.047740	0.563980
H921	H92	0.047740	0.340550	0.047740
H931	H93	0.047740	0.563980	0.047740
H941	H94	0.659450	0.436020	0.952260
H951	H95	0.436020	0.659450	0.952260
H961	H96	0.952260	0.952260	0.436020
H971	H97	0.952260	0.952260	0.659450
H981	H98	0.952260	0.436020	0.952260
H991	H99	0.952260	0.659450	0.952260
H1001	H100	0.436020	0.952260	0.659450
H1011	H101	0.659450	0.952260	0.436020
H1021	H102	0.952260	0.659450	0.436020
H1031	H103	0.659450	0.952260	0.952260
H1041	H104	0.436020	0.952260	0.952260
H1051	H105	0.952260	0.436020	0.659450
H1061	H106	0.563980	0.047740	0.047740
