data_NOFQIK_freeONLY_PM
_symmetry_space_group_name_H-M	'P1'
_cell_length_a	17.040500
_cell_length_b	13.629500
_cell_length_c	7.461700
_cell_angle_alpha	90.000000
_cell_angle_beta	90.000000
_cell_angle_gamma	90.000000
_symmetry_Int_Tables_number 1

loop_
_symmetry_equiv_pos_as_xyz
'x,y,z'

loop_
_atom_site_label
_atom_site_type_symbol
_atom_site_fract_x
_atom_site_fract_y
_atom_site_fract_z
C11	C1	0.611500	0.469000	0.784000
H11	H1	0.638800	0.412600	0.738900
H21	H2	0.562600	0.448700	0.836700
H31	H3	0.643100	0.500500	0.874000
C21	C2	0.596500	0.536800	0.640000
C31	C3	0.533200	0.535900	0.514000
C41	C4	0.544100	0.612600	0.401000
C51	C5	0.499900	0.649700	0.244000
H41	H4	0.519700	0.713000	0.210200
H51	H5	0.445300	0.655000	0.274000
H61	H6	0.505900	0.605000	0.145200
N11	N1	0.643700	0.613700	0.598700
N21	N2	0.611400	0.656100	0.453000
H71	H7	0.631600	0.705800	0.399300
C61	C6	0.111500	0.969000	0.284000
H81	H8	0.138800	0.912600	0.238900
H91	H9	0.062600	0.948700	0.336700
H101	H10	0.143100	0.000500	0.374000
C71	C7	0.096500	0.036800	0.140000
C81	C8	0.033200	0.035900	0.014000
C91	C9	0.044100	0.112600	0.901000
C101	C10	0.999900	0.149700	0.744000
H111	H11	0.019700	0.213000	0.710200
H121	H12	0.945300	0.155000	0.774000
H131	H13	0.005900	0.105000	0.645200
N31	N3	0.143700	0.113700	0.098700
N41	N4	0.111400	0.156100	0.953000
H141	H14	0.131600	0.205800	0.899300
C111	C11	0.388500	0.531000	0.784000
H151	H15	0.361200	0.587400	0.738900
H161	H16	0.437400	0.551300	0.836700
H171	H17	0.356900	0.499500	0.874000
C121	C12	0.403500	0.463200	0.640000
C131	C13	0.466800	0.464100	0.514000
C141	C14	0.455900	0.387400	0.401000
C151	C15	0.500100	0.350300	0.244000
H181	H18	0.480300	0.287000	0.210200
H191	H19	0.554700	0.345000	0.274000
H201	H20	0.494100	0.395000	0.145200
N51	N5	0.356300	0.386300	0.598700
N61	N6	0.388600	0.343900	0.453000
H211	H21	0.368400	0.294200	0.399300
C161	C16	0.888500	0.031000	0.284000
H221	H22	0.861200	0.087400	0.238900
H231	H23	0.937400	0.051300	0.336700
H241	H24	0.856900	0.999500	0.374000
C171	C17	0.903500	0.963200	0.140000
C181	C18	0.966800	0.964100	0.014000
C191	C19	0.955900	0.887400	0.901000
C201	C20	0.000100	0.850300	0.744000
H251	H25	0.980300	0.787000	0.710200
H261	H26	0.054700	0.845000	0.774000
H271	H27	0.994100	0.895000	0.645200
N71	N7	0.856300	0.886300	0.098700
N81	N8	0.888600	0.843900	0.953000
H281	H28	0.868400	0.794200	0.899300
C211	C21	0.111500	0.531000	0.784000
H291	H29	0.138800	0.587400	0.738900
H301	H30	0.062600	0.551300	0.836700
H311	H31	0.143100	0.499500	0.874000
C221	C22	0.096500	0.463200	0.640000
C231	C23	0.033200	0.464100	0.514000
C241	C24	0.044100	0.387400	0.401000
C251	C25	0.999900	0.350300	0.244000
H321	H32	0.019700	0.287000	0.210200
H331	H33	0.945300	0.345000	0.274000
H341	H34	0.005900	0.395000	0.145200
N91	N9	0.143700	0.386300	0.598700
N101	N10	0.111400	0.343900	0.453000
H351	H35	0.131600	0.294200	0.399300
C261	C26	0.611500	0.031000	0.284000
H361	H36	0.638800	0.087400	0.238900
H371	H37	0.562600	0.051300	0.336700
H381	H38	0.643100	0.999500	0.374000
C271	C27	0.596500	0.963200	0.140000
C281	C28	0.533200	0.964100	0.014000
C291	C29	0.544100	0.887400	0.901000
C301	C30	0.499900	0.850300	0.744000
H391	H39	0.519700	0.787000	0.710200
H401	H40	0.445300	0.845000	0.774000
H411	H41	0.505900	0.895000	0.645200
N111	N11	0.643700	0.886300	0.098700
N121	N12	0.611400	0.843900	0.953000
H421	H42	0.631600	0.794200	0.899300
C311	C31	0.888500	0.469000	0.784000
H431	H43	0.861200	0.412600	0.738900
H441	H44	0.937400	0.448700	0.836700
H451	H45	0.856900	0.500500	0.874000
C321	C32	0.903500	0.536800	0.640000
C331	C33	0.966800	0.535900	0.514000
C341	C34	0.955900	0.612600	0.401000
C351	C35	0.000100	0.649700	0.244000
H461	H46	0.980300	0.713000	0.210200
H471	H47	0.054700	0.655000	0.274000
H481	H48	0.994100	0.605000	0.145200
N131	N13	0.856300	0.613700	0.598700
N141	N14	0.888600	0.656100	0.453000
H491	H49	0.868400	0.705800	0.399300
C361	C36	0.388500	0.969000	0.284000
H501	H50	0.361200	0.912600	0.238900
H511	H51	0.437400	0.948700	0.336700
H521	H52	0.356900	0.000500	0.374000
C371	C37	0.403500	0.036800	0.140000
C381	C38	0.466800	0.035900	0.014000
C391	C39	0.455900	0.112600	0.901000
C401	C40	0.500100	0.149700	0.744000
H531	H53	0.480300	0.213000	0.710200
H541	H54	0.554700	0.155000	0.774000
H551	H55	0.494100	0.105000	0.645200
N151	N15	0.356300	0.113700	0.098700
N161	N16	0.388600	0.156100	0.953000
H561	H56	0.368400	0.205800	0.899300
Cu11	Cu1	0.750000	0.648300	0.685300
I11	I1	0.750000	0.843440	0.546500
Cu21	Cu2	0.250000	0.148300	0.185300
I21	I2	0.250000	0.343440	0.046500
Cu31	Cu3	0.250000	0.351700	0.685300
I31	I3	0.250000	0.156560	0.546500
Cu41	Cu4	0.750000	0.851700	0.185300
I41	I4	0.750000	0.656560	0.046500
