data_NOHFOG_freeONLY_PM
_symmetry_space_group_name_H-M	'P1'
_cell_length_a	9.844200
_cell_length_b	10.879500
_cell_length_c	29.228800
_cell_angle_alpha	90.000000
_cell_angle_beta	90.000000
_cell_angle_gamma	92.177000
_symmetry_Int_Tables_number 1

loop_
_symmetry_equiv_pos_as_xyz
'x,y,z'

loop_
_atom_site_label
_atom_site_type_symbol
_atom_site_fract_x
_atom_site_fract_y
_atom_site_fract_z
Er11	Er1	0.545170	0.041560	0.918510
Er21	Er2	0.540260	0.263420	0.748460
Er31	Er3	0.454830	0.458440	0.418510
Er41	Er4	0.459740	0.236580	0.248460
Er51	Er5	0.454830	0.958440	0.081490
Er61	Er6	0.459740	0.736580	0.251540
Er71	Er7	0.545170	0.541560	0.581490
Er81	Er8	0.540260	0.763420	0.751540
H11	H1	0.865900	0.893200	0.713200
H21	H2	0.094000	0.845100	0.709300
H31	H3	0.220000	0.162600	0.893000
H41	H4	0.986700	0.164500	0.907600
H51	H5	0.943100	0.689400	0.982600
H61	H6	0.175200	0.735400	0.987200
H71	H7	0.134100	0.606800	0.213200
H81	H8	0.906000	0.654900	0.209300
H91	H9	0.780000	0.337400	0.393000
H101	H10	0.013300	0.335500	0.407600
H111	H11	0.056900	0.810600	0.482600
H121	H12	0.824800	0.764600	0.487200
H131	H13	0.134100	0.106800	0.286800
H141	H14	0.906000	0.154900	0.290700
H151	H15	0.780000	0.837400	0.107000
H161	H16	0.013300	0.835500	0.092400
H171	H17	0.056900	0.310600	0.017400
H181	H18	0.824800	0.264600	0.012800
H191	H19	0.865900	0.393200	0.786800
H201	H20	0.094000	0.345100	0.790700
H211	H21	0.220000	0.662600	0.607000
H221	H22	0.986700	0.664500	0.592400
H231	H23	0.943100	0.189400	0.517400
H241	H24	0.175200	0.235400	0.512800
C11	C1	0.924800	0.087400	0.848710
C21	C2	0.969100	0.032300	0.807020
C31	C3	0.879000	0.990500	0.771450
C41	C4	0.926000	0.922000	0.735670
C51	C5	0.064500	0.895000	0.732820
C61	C6	0.157000	0.941400	0.764290
C71	C7	0.111900	0.016800	0.801130
C81	C8	0.205400	0.075100	0.832740
C91	C9	0.158700	0.128500	0.871880
C101	C10	0.017300	0.131700	0.880260
C111	C11	0.781100	0.079100	0.864960
C121	C12	0.733000	0.029100	0.767080
C131	C13	0.353500	0.099100	0.822270
C141	C14	0.298200	0.895300	0.761380
C151	C15	0.881600	0.861300	0.989310
C161	C16	0.973800	0.770600	0.986330
C171	C17	0.114100	0.798400	0.988880
C181	C18	0.161400	0.916900	0.993820
C191	C19	0.928200	0.985800	0.998830
C201	C20	0.737000	0.827100	0.976470
C211	C21	0.311200	0.940800	0.985830
C221	C22	0.075200	0.412600	0.348710
C231	C23	0.030900	0.467700	0.307020
C241	C24	0.121000	0.509500	0.271450
C251	C25	0.074000	0.578000	0.235670
C261	C26	0.935500	0.605000	0.232820
C271	C27	0.843000	0.558600	0.264290
C281	C28	0.888100	0.483200	0.301130
C291	C29	0.794600	0.424900	0.332740
C301	C30	0.841300	0.371500	0.371880
C311	C31	0.982700	0.368300	0.380260
C321	C32	0.218900	0.420900	0.364960
C331	C33	0.267000	0.470900	0.267080
C341	C34	0.646500	0.400900	0.322270
C351	C35	0.701800	0.604700	0.261380
C361	C36	0.118400	0.638700	0.489310
C371	C37	0.026200	0.729400	0.486330
C381	C38	0.885900	0.701600	0.488880
C391	C39	0.838600	0.583100	0.493820
C401	C40	0.071800	0.514200	0.498830
C411	C41	0.263000	0.672900	0.476470
C421	C42	0.688800	0.559200	0.485830
C431	C43	0.075200	0.912600	0.151290
C441	C44	0.030900	0.967700	0.192980
C451	C45	0.121000	0.009500	0.228550
C461	C46	0.074000	0.078000	0.264330
C471	C47	0.935500	0.105000	0.267180
C481	C48	0.843000	0.058600	0.235710
C491	C49	0.888100	0.983200	0.198870
C501	C50	0.794600	0.924900	0.167260
C511	C51	0.841300	0.871500	0.128120
C521	C52	0.982700	0.868300	0.119740
C531	C53	0.218900	0.920900	0.135040
C541	C54	0.267000	0.970900	0.232920
C551	C55	0.646500	0.900900	0.177730
C561	C56	0.701800	0.104700	0.238620
C571	C57	0.118400	0.138700	0.010690
C581	C58	0.026200	0.229400	0.013670
C591	C59	0.885900	0.201600	0.011120
C601	C60	0.838600	0.083100	0.006180
C611	C61	0.071800	0.014200	0.001170
C621	C62	0.263000	0.172900	0.023530
C631	C63	0.688800	0.059200	0.014170
C641	C64	0.924800	0.587400	0.651290
C651	C65	0.969100	0.532300	0.692980
C661	C66	0.879000	0.490500	0.728550
C671	C67	0.926000	0.422000	0.764330
C681	C68	0.064500	0.395000	0.767180
C691	C69	0.157000	0.441400	0.735710
C701	C70	0.111900	0.516800	0.698870
C711	C71	0.205400	0.575100	0.667260
C721	C72	0.158700	0.628500	0.628120
C731	C73	0.017300	0.631700	0.619740
C741	C74	0.781100	0.579100	0.635040
C751	C75	0.733000	0.529100	0.732920
C761	C76	0.353500	0.599100	0.677730
C771	C77	0.298200	0.395300	0.738620
C781	C78	0.881600	0.361300	0.510690
C791	C79	0.973800	0.270600	0.513670
C801	C80	0.114100	0.298400	0.511120
C811	C81	0.161400	0.416900	0.506180
C821	C82	0.928200	0.485800	0.501170
C831	C83	0.737000	0.327100	0.523530
C841	C84	0.311200	0.440800	0.514170
O11	O1	0.477100	0.250100	0.929020
O21	O2	0.450900	0.853900	0.888520
O31	O3	0.596600	0.319900	0.824980
O41	O4	0.683500	0.263500	0.682900
O51	O5	0.459800	0.114800	0.694900
O61	O6	0.712100	0.140700	0.772510
O71	O7	0.643600	0.950700	0.754940
O81	O8	0.707900	0.984400	0.858310
O91	O9	0.735900	0.164200	0.890450
O101	O10	0.383900	0.130400	0.782210
O111	O11	0.437800	0.096300	0.854420
O121	O12	0.355400	0.888700	0.722760
O131	O13	0.355400	0.854000	0.796300
O141	O14	0.677600	0.899300	0.949870
O151	O15	0.685400	0.727400	0.990680
O161	O16	0.394000	0.883800	0.009880
O171	O17	0.341400	0.014100	0.953850
O181	O18	0.522900	0.249900	0.429020
O191	O19	0.549100	0.646100	0.388520
O201	O20	0.403400	0.180100	0.324980
O211	O21	0.316500	0.236500	0.182900
O221	O22	0.540200	0.385200	0.194900
O231	O23	0.287900	0.359300	0.272510
O241	O24	0.356400	0.549300	0.254940
O251	O25	0.292100	0.515600	0.358310
O261	O26	0.264100	0.335800	0.390450
O271	O27	0.616100	0.369600	0.282210
O281	O28	0.562200	0.403700	0.354420
O291	O29	0.644600	0.611300	0.222760
O301	O30	0.644600	0.646000	0.296300
O311	O31	0.322400	0.600700	0.449870
O321	O32	0.314600	0.772600	0.490680
O331	O33	0.606000	0.616200	0.509880
O341	O34	0.658600	0.485900	0.453850
O351	O35	0.522900	0.749900	0.070980
O361	O36	0.549100	0.146100	0.111480
O371	O37	0.403400	0.680100	0.175020
O381	O38	0.316500	0.736500	0.317100
O391	O39	0.540200	0.885200	0.305100
O401	O40	0.287900	0.859300	0.227490
O411	O41	0.356400	0.049300	0.245060
O421	O42	0.292100	0.015600	0.141690
O431	O43	0.264100	0.835800	0.109550
O441	O44	0.616100	0.869600	0.217790
O451	O45	0.562200	0.903700	0.145580
O461	O46	0.644600	0.111300	0.277240
O471	O47	0.644600	0.146000	0.203700
O481	O48	0.322400	0.100700	0.050130
O491	O49	0.314600	0.272600	0.009320
O501	O50	0.606000	0.116200	0.990120
O511	O51	0.658600	0.985900	0.046150
O521	O52	0.477100	0.750100	0.570980
O531	O53	0.450900	0.353900	0.611480
O541	O54	0.596600	0.819900	0.675020
O551	O55	0.683500	0.763500	0.817100
O561	O56	0.459800	0.614800	0.805100
O571	O57	0.712100	0.640700	0.727490
O581	O58	0.643600	0.450700	0.745060
O591	O59	0.707900	0.484400	0.641690
O601	O60	0.735900	0.664200	0.609550
O611	O61	0.383900	0.630400	0.717790
O621	O62	0.437800	0.596300	0.645580
O631	O63	0.355400	0.388700	0.777240
O641	O64	0.355400	0.354000	0.703700
O651	O65	0.677600	0.399300	0.550130
O661	O66	0.685400	0.227400	0.509320
O671	O67	0.394000	0.383800	0.490120
O681	O68	0.341400	0.514100	0.546150
