data_NOKJON_freeONLY_PM
_symmetry_space_group_name_H-M	'P1'
_cell_length_a	10.980000
_cell_length_b	13.029000
_cell_length_c	13.599000
_cell_angle_alpha	62.312000
_cell_angle_beta	70.921000
_cell_angle_gamma	72.954000
_symmetry_Int_Tables_number 1

loop_
_symmetry_equiv_pos_as_xyz
'x,y,z'

loop_
_atom_site_label
_atom_site_type_symbol
_atom_site_fract_x
_atom_site_fract_y
_atom_site_fract_z
Zn11	Zn1	0.887540	0.474440	0.646760
U11	U1	0.573530	0.379040	0.142960
U21	U2	0.676390	0.896690	0.477090
U31	U3	0.674820	0.375050	0.517180
P11	P1	0.712600	0.373700	0.902600
P21	P2	0.675400	0.160600	0.405700
P31	P3	0.619500	0.595400	0.580100
P41	P4	0.987700	0.701900	0.465700
O11	O1	0.664100	0.293600	0.869200
O21	O2	0.825900	0.425700	0.810900
O31	O3	0.597000	0.463800	0.928700
O41	O4	0.745900	0.294800	0.019700
O51	O5	0.554300	0.097700	0.459900
O61	O6	0.789100	0.056400	0.417300
O71	O7	0.681400	0.238400	0.281200
O81	O8	0.673100	0.226200	0.472700
O91	O9	0.739100	0.492900	0.584900
O101	O10	0.534900	0.566000	0.529500
O111	O11	0.662000	0.713800	0.496600
O121	O12	0.557400	0.593100	0.697200
O131	O13	0.945400	0.622600	0.593800
O141	O14	0.126200	0.724800	0.443200
O151	O15	0.982900	0.642400	0.393700
O161	O16	0.893400	0.818900	0.437100
O171	O17	0.672800	0.477000	0.117200
O181	O18	0.480000	0.281300	0.160300
O191	O19	0.669600	0.943100	0.332600
O201	O20	0.683400	0.849300	0.620500
O211	O21	0.752200	0.454500	0.374400
O221	O22	0.599800	0.297100	0.662900
Zn21	Zn2	0.112460	0.525560	0.353240
U41	U4	0.426470	0.620960	0.857040
U51	U5	0.323610	0.103310	0.522910
U61	U6	0.325180	0.624950	0.482820
P51	P5	0.287400	0.626300	0.097400
P61	P6	0.324600	0.839400	0.594300
P71	P7	0.380500	0.404600	0.419900
P81	P8	0.012300	0.298100	0.534300
O231	O23	0.335900	0.706400	0.130800
O241	O24	0.174100	0.574300	0.189100
O251	O25	0.403000	0.536200	0.071300
O261	O26	0.254100	0.705200	0.980300
O271	O27	0.445700	0.902300	0.540100
O281	O28	0.210900	0.943600	0.582700
O291	O29	0.318600	0.761600	0.718800
O301	O30	0.326900	0.773800	0.527300
O311	O31	0.260900	0.507100	0.415100
O321	O32	0.465100	0.434000	0.470500
O331	O33	0.338000	0.286200	0.503400
O341	O34	0.442600	0.406900	0.302800
O351	O35	0.054600	0.377400	0.406200
O361	O36	0.873800	0.275200	0.556800
O371	O37	0.017100	0.357600	0.606300
O381	O38	0.106600	0.181100	0.562900
O391	O39	0.327200	0.523000	0.882800
O401	O40	0.520000	0.718700	0.839700
O411	O41	0.330400	0.056900	0.667400
O421	O42	0.316600	0.150700	0.379500
O431	O43	0.247800	0.545500	0.625600
O441	O44	0.400200	0.702900	0.337100
