data_NOKPEJ_freeONLY_PM
_symmetry_space_group_name_H-M	'P1'
_cell_length_a	8.648200
_cell_length_b	10.326300
_cell_length_c	12.919700
_cell_angle_alpha	112.248000
_cell_angle_beta	108.035000
_cell_angle_gamma	93.599700
_symmetry_Int_Tables_number 1

loop_
_symmetry_equiv_pos_as_xyz
'x,y,z'

loop_
_atom_site_label
_atom_site_type_symbol
_atom_site_fract_x
_atom_site_fract_y
_atom_site_fract_z
Cd11	Cd1	0.955960	0.470520	0.213790
Cd21	Cd2	0.308650	0.289800	0.312370
Cd31	Cd3	0.242170	0.256730	0.786210
Cd41	Cd4	0.496280	0.977430	0.687630
H11	H1	0.665500	0.379700	0.371200
H21	H2	0.637300	0.383800	0.477200
H31	H3	0.342100	0.984700	0.204600
H41	H4	0.369400	0.061600	0.136200
H51	H5	0.155900	0.790900	0.458000
H61	H6	0.503700	0.610800	0.578200
H71	H7	0.076700	0.459700	0.983800
H81	H8	0.400200	0.237000	0.057200
H91	H9	0.880600	0.164300	0.395000
H101	H10	0.715600	0.110900	0.283200
H111	H11	0.007300	0.004000	0.279200
H121	H12	0.840200	0.949300	0.168200
H131	H13	0.874100	0.926800	0.382800
H141	H14	0.709700	0.869700	0.270600
H151	H15	0.794300	0.008500	0.628800
H161	H16	0.660100	0.906600	0.522800
H171	H17	0.637500	0.780100	0.795400
H181	H18	0.733200	0.925400	0.863800
H191	H19	0.197900	0.332900	0.542000
H201	H20	0.425500	0.032600	0.421800
H211	H21	0.592900	0.475900	0.016200
H221	H22	0.843000	0.179800	0.942800
H231	H23	0.985600	0.769300	0.605000
H241	H24	0.932400	0.827700	0.716800
H251	H25	0.228100	0.724800	0.720800
H261	H26	0.172000	0.781100	0.831800
H271	H27	0.991300	0.544000	0.617200
H281	H28	0.939100	0.599100	0.729400
C11	C1	0.217880	0.722680	0.466560
C21	C2	0.406480	0.625680	0.531760
C31	C3	0.146320	0.413720	0.022240
C41	C4	0.320810	0.293510	0.062020
C51	C5	0.890310	0.243410	0.274420
C61	C6	0.835720	0.128720	0.308240
C71	C7	0.887310	0.988010	0.255020
C81	C8	0.829770	0.883970	0.295740
C91	C9	0.874890	0.738990	0.252580
C101	C10	0.251320	0.256120	0.533440
C111	C11	0.374720	0.093920	0.468240
C121	C12	0.624080	0.391480	0.977760
C131	C13	0.758790	0.231490	0.937980
C141	C14	0.115890	0.968990	0.725580
C151	C15	0.027480	0.820480	0.691760
C161	C16	0.132290	0.732990	0.744980
C171	C17	0.034030	0.588230	0.704260
C181	C18	0.122310	0.486410	0.747420
N11	N1	0.294200	0.522100	0.435600
N21	N2	0.169970	0.586370	0.393540
N31	N3	0.366240	0.753740	0.555280
N41	N4	0.271080	0.339780	0.153360
N51	N5	0.156520	0.418920	0.127240
N61	N6	0.245650	0.335950	0.976300
N71	N7	0.358600	0.086500	0.564400
N81	N8	0.276430	0.192830	0.606460
N91	N9	0.310960	0.198460	0.444720
N101	N10	0.617720	0.186420	0.846640
N111	N11	0.529280	0.291680	0.872760
N121	N12	0.769350	0.359650	0.023700
O11	O1	0.004070	0.235070	0.232140
O21	O2	0.818940	0.346740	0.290680
O31	O3	0.978000	0.714400	0.201200
O41	O4	0.809460	0.646560	0.275320
O51	O5	0.597860	0.380460	0.407120
O61	O6	0.340830	0.060630	0.193260
O71	O7	0.271930	0.002930	0.767860
O81	O8	0.028260	0.056060	0.709320
O91	O9	0.276800	0.513200	0.798800
O101	O10	0.034140	0.371240	0.724680
O111	O11	0.690740	0.973340	0.592880
O121	O12	0.647570	0.867370	0.806740
