data_NOMKUX_freeONLY_PM
_symmetry_space_group_name_H-M	'P1'
_cell_length_a	43.520000
_cell_length_b	12.546000
_cell_length_c	21.894000
_cell_angle_alpha	90.000000
_cell_angle_beta	105.053000
_cell_angle_gamma	90.000000
_symmetry_Int_Tables_number 1

loop_
_symmetry_equiv_pos_as_xyz
'x,y,z'

loop_
_atom_site_label
_atom_site_type_symbol
_atom_site_fract_x
_atom_site_fract_y
_atom_site_fract_z
Ag11	Ag1	0.204640	0.886500	0.317170
Ag21	Ag2	0.052200	0.655900	0.189600
N11	N1	0.163500	0.782000	0.263600
N21	N2	0.234800	0.909000	0.236700
C11	C1	0.145500	0.803000	0.208100
H11	H1	0.153800	0.843600	0.180600
C21	C2	0.240100	0.804000	0.210400
H21	H2	0.228000	0.744400	0.214800
C31	C3	0.264800	0.797000	0.177800
H31	H3	0.271200	0.732500	0.164800
C41	C4	0.149700	0.725000	0.293900
H41	H4	0.160500	0.703900	0.334500
N31	N3	0.101800	0.720000	0.223400
N41	N4	0.279100	0.896000	0.166200
C51	C5	0.032000	0.417000	0.211700
H51	H5	0.048900	0.419400	0.247900
N51	N5	0.025000	0.507000	0.181700
C61	C6	0.121600	0.694000	0.272000
H61	H6	0.114700	0.642900	0.296300
C71	C7	0.250100	0.997000	0.226600
H71	H7	0.245800	0.064100	0.240900
C81	C8	0.017300	0.314000	0.196500
H81	H8	0.024700	0.256400	0.222700
C91	C9	0.984700	0.404000	0.114400
H91	H9	0.966900	0.405400	0.080100
C101	C10	0.113600	0.768000	0.187000
H101	H10	0.101800	0.781600	0.145800
C111	C11	0.275100	0.980000	0.190200
H111	H11	0.288000	0.037600	0.186100
C121	C12	0.999400	0.499000	0.130000
H121	H12	0.992300	0.558600	0.104800
N61	N6	0.992700	0.302000	0.143900
Ag31	Ag3	0.704640	0.386500	0.317170
Ag41	Ag4	0.552200	0.155900	0.189600
N71	N7	0.663500	0.282000	0.263600
N81	N8	0.734800	0.409000	0.236700
C131	C13	0.645500	0.303000	0.208100
H131	H13	0.653800	0.343600	0.180600
C141	C14	0.740100	0.304000	0.210400
H141	H14	0.728000	0.244400	0.214800
C151	C15	0.764800	0.297000	0.177800
H151	H15	0.771200	0.232500	0.164800
C161	C16	0.649700	0.225000	0.293900
H161	H16	0.660500	0.203900	0.334500
N91	N9	0.601800	0.220000	0.223400
N101	N10	0.779100	0.396000	0.166200
C171	C17	0.532000	0.917000	0.211700
H171	H17	0.548900	0.919400	0.247900
N111	N11	0.525000	0.007000	0.181700
C181	C18	0.621600	0.194000	0.272000
H181	H18	0.614700	0.142900	0.296300
C191	C19	0.750100	0.497000	0.226600
H191	H19	0.745800	0.564100	0.240900
C201	C20	0.517300	0.814000	0.196500
H201	H20	0.524700	0.756400	0.222700
C211	C21	0.484700	0.904000	0.114400
H211	H21	0.466900	0.905400	0.080100
C221	C22	0.613600	0.268000	0.187000
H221	H22	0.601800	0.281600	0.145800
C231	C23	0.775100	0.480000	0.190200
H231	H23	0.788000	0.537600	0.186100
C241	C24	0.499400	0.999000	0.130000
H241	H24	0.492300	0.058600	0.104800
N121	N12	0.492700	0.802000	0.143900
Ag51	Ag5	0.809200	0.630500	0.596420
Ag61	Ag6	0.965580	0.840700	0.609320
N131	N13	0.763400	0.582000	0.511600
N141	N14	0.850200	0.723000	0.584900
C251	C25	0.729700	0.438000	0.465900
H251	H25	0.720500	0.374100	0.473200
C261	C26	0.865200	0.785000	0.625100
H261	H26	0.854800	0.811100	0.654200
C271	C27	0.895200	0.819000	0.631200
H271	H27	0.902900	0.872700	0.660700
C281	C28	0.747200	0.503000	0.518900
H281	H28	0.746300	0.484400	0.559600
C291	C29	0.870800	0.693000	0.553400
H291	H29	0.863600	0.636600	0.525600
C301	C30	0.743700	0.557000	0.401000
H301	H30	0.743000	0.583400	0.361400
N151	N15	0.914300	0.783000	0.598200
C311	C31	0.987900	0.184000	0.669100
H311	H31	0.978300	0.233400	0.689500
C321	C32	0.973200	0.083000	0.656800
H321	H32	0.955000	0.068000	0.670300
N161	N16	0.726900	0.471000	0.406000
N171	N17	0.985400	0.006000	0.625300
C331	C33	0.008700	0.038000	0.602000
H331	H33	0.015500	0.992300	0.574800
C341	C34	0.763000	0.610000	0.455800
H341	H34	0.775700	0.666900	0.450000
N181	N18	0.014200	0.214000	0.654100
C351	C35	0.901200	0.728000	0.554000
H351	H35	0.910800	0.710700	0.521600
C361	C36	0.024200	0.139000	0.616000
H361	H36	0.041200	0.155700	0.599400
Ag71	Ag7	0.309200	0.130500	0.596420
Ag81	Ag8	0.465580	0.340700	0.609320
N191	N19	0.263400	0.082000	0.511600
N201	N20	0.350200	0.223000	0.584900
C371	C37	0.229700	0.938000	0.465900
H371	H37	0.220500	0.874100	0.473200
C381	C38	0.365200	0.285000	0.625100
H381	H38	0.354800	0.311100	0.654200
C391	C39	0.395200	0.319000	0.631200
H391	H39	0.402900	0.372700	0.660700
C401	C40	0.247200	0.003000	0.518900
H401	H40	0.246300	0.984400	0.559600
C411	C41	0.370800	0.193000	0.553400
H411	H41	0.363600	0.136600	0.525600
C421	C42	0.243700	0.057000	0.401000
H421	H42	0.243000	0.083400	0.361400
N211	N21	0.414300	0.283000	0.598200
C431	C43	0.487900	0.684000	0.669100
H431	H43	0.478300	0.733400	0.689500
C441	C44	0.473200	0.583000	0.656800
H441	H44	0.455000	0.568000	0.670300
N221	N22	0.226900	0.971000	0.406000
N231	N23	0.485400	0.506000	0.625300
C451	C45	0.508700	0.538000	0.602000
H451	H45	0.515500	0.492300	0.574800
C461	C46	0.263000	0.110000	0.455800
H461	H46	0.275700	0.166900	0.450000
N241	N24	0.514200	0.714000	0.654100
C471	C47	0.401200	0.228000	0.554000
H471	H47	0.410800	0.210700	0.521600
C481	C48	0.524200	0.639000	0.616000
H481	H48	0.541200	0.655700	0.599400
Ag91	Ag9	0.809200	0.369500	0.096420
Ag101	Ag10	0.965580	0.159300	0.109320
N251	N25	0.763400	0.418000	0.011600
N261	N26	0.850200	0.277000	0.084900
C491	C49	0.729700	0.562000	0.965900
H491	H49	0.720500	0.625900	0.973200
C501	C50	0.865200	0.215000	0.125100
H501	H50	0.854800	0.188900	0.154200
C511	C51	0.895200	0.181000	0.131200
H511	H51	0.902900	0.127300	0.160700
C521	C52	0.747200	0.497000	0.018900
H521	H52	0.746300	0.515600	0.059600
C531	C53	0.870800	0.307000	0.053400
H531	H53	0.863600	0.363400	0.025600
C541	C54	0.743700	0.443000	0.901000
H541	H54	0.743000	0.416600	0.861400
N271	N27	0.914300	0.217000	0.098200
C551	C55	0.987900	0.816000	0.169100
H551	H55	0.978300	0.766600	0.189500
C561	C56	0.973200	0.917000	0.156800
H561	H56	0.955000	0.932000	0.170300
N281	N28	0.726900	0.529000	0.906000
N291	N29	0.985400	0.994000	0.125300
C571	C57	0.008700	0.962000	0.102000
H571	H57	0.015500	0.007700	0.074800
C581	C58	0.763000	0.390000	0.955800
H581	H58	0.775700	0.333100	0.950000
N301	N30	0.014200	0.786000	0.154100
C591	C59	0.901200	0.272000	0.054000
H591	H59	0.910800	0.289300	0.021600
C601	C60	0.024200	0.861000	0.116000
H601	H60	0.041200	0.844300	0.099400
Ag111	Ag11	0.309200	0.869500	0.096420
Ag121	Ag12	0.465580	0.659300	0.109320
N311	N31	0.263400	0.918000	0.011600
N321	N32	0.350200	0.777000	0.084900
C611	C61	0.229700	0.062000	0.965900
H611	H61	0.220500	0.125900	0.973200
C621	C62	0.365200	0.715000	0.125100
H621	H62	0.354800	0.688900	0.154200
C631	C63	0.395200	0.681000	0.131200
H631	H63	0.402900	0.627300	0.160700
C641	C64	0.247200	0.997000	0.018900
H641	H64	0.246300	0.015600	0.059600
C651	C65	0.370800	0.807000	0.053400
H651	H65	0.363600	0.863400	0.025600
C661	C66	0.243700	0.943000	0.901000
H661	H66	0.243000	0.916600	0.861400
N331	N33	0.414300	0.717000	0.098200
C671	C67	0.487900	0.316000	0.169100
H671	H67	0.478300	0.266600	0.189500
C681	C68	0.473200	0.417000	0.156800
H681	H68	0.455000	0.432000	0.170300
N341	N34	0.226900	0.029000	0.906000
N351	N35	0.485400	0.494000	0.125300
C691	C69	0.508700	0.462000	0.102000
H691	H69	0.515500	0.507700	0.074800
C701	C70	0.263000	0.890000	0.955800
H701	H70	0.275700	0.833100	0.950000
N361	N36	0.514200	0.286000	0.154100
C711	C71	0.401200	0.772000	0.054000
H711	H71	0.410800	0.789300	0.021600
C721	C72	0.524200	0.361000	0.116000
H721	H72	0.541200	0.344300	0.099400
Ag131	Ag13	0.204640	0.113500	0.817170
Ag141	Ag14	0.052200	0.344100	0.689600
N371	N37	0.163500	0.218000	0.763600
N381	N38	0.234800	0.091000	0.736700
C731	C73	0.145500	0.197000	0.708100
H731	H73	0.153800	0.156400	0.680600
C741	C74	0.240100	0.196000	0.710400
H741	H74	0.228000	0.255600	0.714800
C751	C75	0.264800	0.203000	0.677800
H751	H75	0.271200	0.267500	0.664800
C761	C76	0.149700	0.275000	0.793900
H761	H76	0.160500	0.296100	0.834500
N391	N39	0.101800	0.280000	0.723400
N401	N40	0.279100	0.104000	0.666200
C771	C77	0.032000	0.583000	0.711700
H771	H77	0.048900	0.580600	0.747900
N411	N41	0.025000	0.493000	0.681700
C781	C78	0.121600	0.306000	0.772000
H781	H78	0.114700	0.357100	0.796300
C791	C79	0.250100	0.003000	0.726600
H791	H79	0.245800	0.935900	0.740900
C801	C80	0.017300	0.686000	0.696500
H801	H80	0.024700	0.743600	0.722700
C811	C81	0.984700	0.596000	0.614400
H811	H81	0.966900	0.594600	0.580100
C821	C82	0.113600	0.232000	0.687000
H821	H82	0.101800	0.218400	0.645800
C831	C83	0.275100	0.020000	0.690200
H831	H83	0.288000	0.962400	0.686100
C841	C84	0.999400	0.501000	0.630000
H841	H84	0.992300	0.441400	0.604800
N421	N42	0.992700	0.698000	0.643900
Ag151	Ag15	0.704640	0.613500	0.817170
Ag161	Ag16	0.552200	0.844100	0.689600
N431	N43	0.663500	0.718000	0.763600
N441	N44	0.734800	0.591000	0.736700
C851	C85	0.645500	0.697000	0.708100
H851	H85	0.653800	0.656400	0.680600
C861	C86	0.740100	0.696000	0.710400
H861	H86	0.728000	0.755600	0.714800
C871	C87	0.764800	0.703000	0.677800
H871	H87	0.771200	0.767500	0.664800
C881	C88	0.649700	0.775000	0.793900
H881	H88	0.660500	0.796100	0.834500
N451	N45	0.601800	0.780000	0.723400
N461	N46	0.779100	0.604000	0.666200
C891	C89	0.532000	0.083000	0.711700
H891	H89	0.548900	0.080600	0.747900
N471	N47	0.525000	0.993000	0.681700
C901	C90	0.621600	0.806000	0.772000
H901	H90	0.614700	0.857100	0.796300
C911	C91	0.750100	0.503000	0.726600
H911	H91	0.745800	0.435900	0.740900
C921	C92	0.517300	0.186000	0.696500
H921	H92	0.524700	0.243600	0.722700
C931	C93	0.484700	0.096000	0.614400
H931	H93	0.466900	0.094600	0.580100
C941	C94	0.613600	0.732000	0.687000
H941	H94	0.601800	0.718400	0.645800
C951	C95	0.775100	0.520000	0.690200
H951	H95	0.788000	0.462400	0.686100
C961	C96	0.499400	0.001000	0.630000
H961	H96	0.492300	0.941400	0.604800
N481	N48	0.492700	0.198000	0.643900
Ag171	Ag17	0.190800	0.630500	0.903580
Ag181	Ag18	0.034420	0.840700	0.890680
N491	N49	0.236600	0.582000	0.988400
N501	N50	0.149800	0.723000	0.915100
C971	C97	0.270300	0.438000	0.034100
H971	H97	0.279500	0.374100	0.026800
C981	C98	0.134800	0.785000	0.874900
H981	H98	0.145200	0.811100	0.845800
C991	C99	0.104800	0.819000	0.868800
H991	H99	0.097100	0.872700	0.839300
C1001	C100	0.252800	0.503000	0.981100
H1001	H100	0.253700	0.484400	0.940400
C1011	C101	0.129200	0.693000	0.946600
H1011	H101	0.136400	0.636600	0.974400
C1021	C102	0.256300	0.557000	0.099000
H1021	H102	0.257000	0.583400	0.138600
N511	N51	0.085700	0.783000	0.901800
C1031	C103	0.012100	0.184000	0.830900
H1031	H103	0.021700	0.233400	0.810500
C1041	C104	0.026800	0.083000	0.843200
H1041	H104	0.045000	0.068000	0.829700
N521	N52	0.273100	0.471000	0.094000
N531	N53	0.014600	0.006000	0.874700
C1051	C105	0.991300	0.038000	0.898000
H1051	H105	0.984500	0.992300	0.925200
C1061	C106	0.237000	0.610000	0.044200
H1061	H106	0.224300	0.666900	0.050000
N541	N54	0.985800	0.214000	0.845900
C1071	C107	0.098800	0.728000	0.946000
H1071	H107	0.089200	0.710700	0.978400
C1081	C108	0.975800	0.139000	0.884000
H1081	H108	0.958800	0.155700	0.900600
Ag191	Ag19	0.690800	0.130500	0.903580
Ag201	Ag20	0.534420	0.340700	0.890680
N551	N55	0.736600	0.082000	0.988400
N561	N56	0.649800	0.223000	0.915100
C1091	C109	0.770300	0.938000	0.034100
H1091	H109	0.779500	0.874100	0.026800
C1101	C110	0.634800	0.285000	0.874900
H1101	H110	0.645200	0.311100	0.845800
C1111	C111	0.604800	0.319000	0.868800
H1111	H111	0.597100	0.372700	0.839300
C1121	C112	0.752800	0.003000	0.981100
H1121	H112	0.753700	0.984400	0.940400
C1131	C113	0.629200	0.193000	0.946600
H1131	H113	0.636400	0.136600	0.974400
C1141	C114	0.756300	0.057000	0.099000
H1141	H114	0.757000	0.083400	0.138600
N571	N57	0.585700	0.283000	0.901800
C1151	C115	0.512100	0.684000	0.830900
H1151	H115	0.521700	0.733400	0.810500
C1161	C116	0.526800	0.583000	0.843200
H1161	H116	0.545000	0.568000	0.829700
N581	N58	0.773100	0.971000	0.094000
N591	N59	0.514600	0.506000	0.874700
C1171	C117	0.491300	0.538000	0.898000
H1171	H117	0.484500	0.492300	0.925200
C1181	C118	0.737000	0.110000	0.044200
H1181	H118	0.724300	0.166900	0.050000
N601	N60	0.485800	0.714000	0.845900
C1191	C119	0.598800	0.228000	0.946000
H1191	H119	0.589200	0.210700	0.978400
C1201	C120	0.475800	0.639000	0.884000
H1201	H120	0.458800	0.655700	0.900600
Ag211	Ag21	0.795360	0.886500	0.182830
Ag221	Ag22	0.947800	0.655900	0.310400
N611	N61	0.836500	0.782000	0.236400
N621	N62	0.765200	0.909000	0.263300
C1211	C121	0.854500	0.803000	0.291900
H1211	H121	0.846200	0.843600	0.319400
C1221	C122	0.759900	0.804000	0.289600
H1221	H122	0.772000	0.744400	0.285200
C1231	C123	0.735200	0.797000	0.322200
H1231	H123	0.728800	0.732500	0.335200
C1241	C124	0.850300	0.725000	0.206100
H1241	H124	0.839500	0.703900	0.165500
N631	N63	0.898200	0.720000	0.276600
N641	N64	0.720900	0.896000	0.333800
C1251	C125	0.968000	0.417000	0.288300
H1251	H125	0.951100	0.419400	0.252100
N651	N65	0.975000	0.507000	0.318300
C1261	C126	0.878400	0.694000	0.228000
H1261	H126	0.885300	0.642900	0.203700
C1271	C127	0.749900	0.997000	0.273400
H1271	H127	0.754200	0.064100	0.259100
C1281	C128	0.982700	0.314000	0.303500
H1281	H128	0.975300	0.256400	0.277300
C1291	C129	0.015300	0.404000	0.385600
H1291	H129	0.033100	0.405400	0.419900
C1301	C130	0.886400	0.768000	0.313000
H1301	H130	0.898200	0.781600	0.354200
C1311	C131	0.724900	0.980000	0.309800
H1311	H131	0.712000	0.037600	0.313900
C1321	C132	0.000600	0.499000	0.370000
H1321	H132	0.007700	0.558600	0.395200
N661	N66	0.007300	0.302000	0.356100
Ag231	Ag23	0.295360	0.386500	0.182830
Ag241	Ag24	0.447800	0.155900	0.310400
N671	N67	0.336500	0.282000	0.236400
N681	N68	0.265200	0.409000	0.263300
C1331	C133	0.354500	0.303000	0.291900
H1331	H133	0.346200	0.343600	0.319400
C1341	C134	0.259900	0.304000	0.289600
H1341	H134	0.272000	0.244400	0.285200
C1351	C135	0.235200	0.297000	0.322200
H1351	H135	0.228800	0.232500	0.335200
C1361	C136	0.350300	0.225000	0.206100
H1361	H136	0.339500	0.203900	0.165500
N691	N69	0.398200	0.220000	0.276600
N701	N70	0.220900	0.396000	0.333800
C1371	C137	0.468000	0.917000	0.288300
H1371	H137	0.451100	0.919400	0.252100
N711	N71	0.475000	0.007000	0.318300
C1381	C138	0.378400	0.194000	0.228000
H1381	H138	0.385300	0.142900	0.203700
C1391	C139	0.249900	0.497000	0.273400
H1391	H139	0.254200	0.564100	0.259100
C1401	C140	0.482700	0.814000	0.303500
H1401	H140	0.475300	0.756400	0.277300
C1411	C141	0.515300	0.904000	0.385600
H1411	H141	0.533100	0.905400	0.419900
C1421	C142	0.386400	0.268000	0.313000
H1421	H142	0.398200	0.281600	0.354200
C1431	C143	0.224900	0.480000	0.309800
H1431	H143	0.212000	0.537600	0.313900
C1441	C144	0.500600	0.999000	0.370000
H1441	H144	0.507700	0.058600	0.395200
N721	N72	0.507300	0.802000	0.356100
Ag251	Ag25	0.795360	0.113500	0.682830
Ag261	Ag26	0.947800	0.344100	0.810400
N731	N73	0.836500	0.218000	0.736400
N741	N74	0.765200	0.091000	0.763300
C1451	C145	0.854500	0.197000	0.791900
H1451	H145	0.846200	0.156400	0.819400
C1461	C146	0.759900	0.196000	0.789600
H1461	H146	0.772000	0.255600	0.785200
C1471	C147	0.735200	0.203000	0.822200
H1471	H147	0.728800	0.267500	0.835200
C1481	C148	0.850300	0.275000	0.706100
H1481	H148	0.839500	0.296100	0.665500
N751	N75	0.898200	0.280000	0.776600
N761	N76	0.720900	0.104000	0.833800
C1491	C149	0.968000	0.583000	0.788300
H1491	H149	0.951100	0.580600	0.752100
N771	N77	0.975000	0.493000	0.818300
C1501	C150	0.878400	0.306000	0.728000
H1501	H150	0.885300	0.357100	0.703700
C1511	C151	0.749900	0.003000	0.773400
H1511	H151	0.754200	0.935900	0.759100
C1521	C152	0.982700	0.686000	0.803500
H1521	H152	0.975300	0.743600	0.777300
C1531	C153	0.015300	0.596000	0.885600
H1531	H153	0.033100	0.594600	0.919900
C1541	C154	0.886400	0.232000	0.813000
H1541	H154	0.898200	0.218400	0.854200
C1551	C155	0.724900	0.020000	0.809800
H1551	H155	0.712000	0.962400	0.813900
C1561	C156	0.000600	0.501000	0.870000
H1561	H156	0.007700	0.441400	0.895200
N781	N78	0.007300	0.698000	0.856100
Ag271	Ag27	0.295360	0.613500	0.682830
Ag281	Ag28	0.447800	0.844100	0.810400
N791	N79	0.336500	0.718000	0.736400
N801	N80	0.265200	0.591000	0.763300
C1571	C157	0.354500	0.697000	0.791900
H1571	H157	0.346200	0.656400	0.819400
C1581	C158	0.259900	0.696000	0.789600
H1581	H158	0.272000	0.755600	0.785200
C1591	C159	0.235200	0.703000	0.822200
H1591	H159	0.228800	0.767500	0.835200
C1601	C160	0.350300	0.775000	0.706100
H1601	H160	0.339500	0.796100	0.665500
N811	N81	0.398200	0.780000	0.776600
N821	N82	0.220900	0.604000	0.833800
C1611	C161	0.468000	0.083000	0.788300
H1611	H161	0.451100	0.080600	0.752100
N831	N83	0.475000	0.993000	0.818300
C1621	C162	0.378400	0.806000	0.728000
H1621	H162	0.385300	0.857100	0.703700
C1631	C163	0.249900	0.503000	0.773400
H1631	H163	0.254200	0.435900	0.759100
C1641	C164	0.482700	0.186000	0.803500
H1641	H164	0.475300	0.243600	0.777300
C1651	C165	0.515300	0.096000	0.885600
H1651	H165	0.533100	0.094600	0.919900
C1661	C166	0.386400	0.732000	0.813000
H1661	H166	0.398200	0.718400	0.854200
C1671	C167	0.224900	0.520000	0.809800
H1671	H167	0.212000	0.462400	0.813900
C1681	C168	0.500600	0.001000	0.870000
H1681	H168	0.507700	0.941400	0.895200
N841	N84	0.507300	0.198000	0.856100
Ag291	Ag29	0.190800	0.369500	0.403580
Ag301	Ag30	0.034420	0.159300	0.390680
N851	N85	0.236600	0.418000	0.488400
N861	N86	0.149800	0.277000	0.415100
C1691	C169	0.270300	0.562000	0.534100
H1691	H169	0.279500	0.625900	0.526800
C1701	C170	0.134800	0.215000	0.374900
H1701	H170	0.145200	0.188900	0.345800
C1711	C171	0.104800	0.181000	0.368800
H1711	H171	0.097100	0.127300	0.339300
C1721	C172	0.252800	0.497000	0.481100
H1721	H172	0.253700	0.515600	0.440400
C1731	C173	0.129200	0.307000	0.446600
H1731	H173	0.136400	0.363400	0.474400
C1741	C174	0.256300	0.443000	0.599000
H1741	H174	0.257000	0.416600	0.638600
N871	N87	0.085700	0.217000	0.401800
C1751	C175	0.012100	0.816000	0.330900
H1751	H175	0.021700	0.766600	0.310500
C1761	C176	0.026800	0.917000	0.343200
H1761	H176	0.045000	0.932000	0.329700
N881	N88	0.273100	0.529000	0.594000
N891	N89	0.014600	0.994000	0.374700
C1771	C177	0.991300	0.962000	0.398000
H1771	H177	0.984500	0.007700	0.425200
C1781	C178	0.237000	0.390000	0.544200
H1781	H178	0.224300	0.333100	0.550000
N901	N90	0.985800	0.786000	0.345900
C1791	C179	0.098800	0.272000	0.446000
H1791	H179	0.089200	0.289300	0.478400
C1801	C180	0.975800	0.861000	0.384000
H1801	H180	0.958800	0.844300	0.400600
Ag311	Ag31	0.690800	0.869500	0.403580
Ag321	Ag32	0.534420	0.659300	0.390680
N911	N91	0.736600	0.918000	0.488400
N921	N92	0.649800	0.777000	0.415100
C1811	C181	0.770300	0.062000	0.534100
H1811	H181	0.779500	0.125900	0.526800
C1821	C182	0.634800	0.715000	0.374900
H1821	H182	0.645200	0.688900	0.345800
C1831	C183	0.604800	0.681000	0.368800
H1831	H183	0.597100	0.627300	0.339300
C1841	C184	0.752800	0.997000	0.481100
H1841	H184	0.753700	0.015600	0.440400
C1851	C185	0.629200	0.807000	0.446600
H1851	H185	0.636400	0.863400	0.474400
C1861	C186	0.756300	0.943000	0.599000
H1861	H186	0.757000	0.916600	0.638600
N931	N93	0.585700	0.717000	0.401800
C1871	C187	0.512100	0.316000	0.330900
H1871	H187	0.521700	0.266600	0.310500
C1881	C188	0.526800	0.417000	0.343200
H1881	H188	0.545000	0.432000	0.329700
N941	N94	0.773100	0.029000	0.594000
N951	N95	0.514600	0.494000	0.374700
C1891	C189	0.491300	0.462000	0.398000
H1891	H189	0.484500	0.507700	0.425200
C1901	C190	0.737000	0.890000	0.544200
H1901	H190	0.724300	0.833100	0.550000
N961	N96	0.485800	0.286000	0.345900
C1911	C191	0.598800	0.772000	0.446000
H1911	H191	0.589200	0.789300	0.478400
C1921	C192	0.475800	0.361000	0.384000
H1921	H192	0.458800	0.344300	0.400600
