data_NOQLOV01_charged_PM
_symmetry_space_group_name_H-M	'P1'
_cell_length_a	8.668800
_cell_length_b	9.035500
_cell_length_c	16.182800
_cell_angle_alpha	82.617900
_cell_angle_beta	74.464100
_cell_angle_gamma	61.333700
_symmetry_Int_Tables_number 1

loop_
_symmetry_equiv_pos_as_xyz
'x,y,z'

loop_
_atom_site_label
_atom_site_type_symbol
_atom_site_fract_x
_atom_site_fract_y
_atom_site_fract_z
In11	In1	0.440790	0.027170	0.629530
In21	In2	0.097490	0.972830	0.370470
In31	In3	0.320320	0.527170	0.870470
In41	In4	0.717960	0.472830	0.129530
C11	C1	0.326320	0.876600	0.508760
C21	C2	0.276420	0.847600	0.766360
C31	C3	0.239990	0.066200	0.497420
C41	C4	0.479450	0.725600	0.748500
C51	C5	0.711680	0.123400	0.491240
C61	C6	0.890380	0.152400	0.233640
C71	C7	0.803610	0.933800	0.502580
C81	C8	0.953550	0.274400	0.251500
C91	C9	0.085080	0.376600	0.991240
C101	C10	0.292780	0.347600	0.733640
C111	C11	0.987410	0.566200	0.002580
C121	C12	0.477950	0.225600	0.751500
C131	C13	0.452920	0.623400	0.008760
C141	C14	0.374020	0.652400	0.266360
C151	C15	0.556190	0.433800	0.997420
C161	C16	0.455050	0.774400	0.248500
O11	O1	0.173210	0.797820	0.816760
O21	O2	0.147520	0.128940	0.442020
O31	O3	0.296620	0.796800	0.462560
O41	O4	0.527080	0.582480	0.783360
O51	O5	0.228890	0.990320	0.730300
O61	O6	0.582460	0.776040	0.700840
O71	O7	0.258630	0.153040	0.544900
O81	O8	0.421070	0.818600	0.563060
O91	O9	0.787790	0.202180	0.183240
O101	O10	0.718480	0.871060	0.557980
O111	O11	0.555980	0.203200	0.537440
O121	O12	0.892920	0.417520	0.216640
O131	O13	0.949510	0.009680	0.269700
O141	O14	0.059340	0.223960	0.299160
O151	O15	0.956570	0.846960	0.455100
O161	O16	0.802730	0.181400	0.436940
O171	O17	0.239970	0.297820	0.683240
O181	O18	0.839540	0.628940	0.057980
O191	O19	0.009180	0.296800	0.037440
O201	O20	0.560440	0.082480	0.716640
O211	O21	0.209190	0.490320	0.769700
O221	O22	0.533300	0.276040	0.799160
O231	O23	0.053530	0.653040	0.955100
O241	O24	0.234130	0.318600	0.936940
O251	O25	0.221030	0.702180	0.316760
O261	O26	0.526460	0.371060	0.942020
O271	O27	0.343420	0.703200	0.962560
O281	O28	0.359560	0.917520	0.283360
O291	O29	0.469210	0.509680	0.230300
O301	O30	0.608500	0.723960	0.200840
O311	O31	0.661670	0.346960	0.044900
O321	O32	0.489670	0.681400	0.063060
H11	H1	0.766700	0.510400	0.427400
H21	H2	0.765300	0.662400	0.465000
H31	H3	0.704500	0.489600	0.572600
H41	H4	0.892700	0.337600	0.535000
C171	C17	0.830500	0.541000	0.457200
C181	C18	0.828700	0.459000	0.542800
N11	N1	0.016650	0.494200	0.402300
N21	N2	0.913150	0.505800	0.597700
H51	H5	0.444100	0.010400	0.072600
H61	H6	0.480300	0.162400	0.035000
H71	H7	0.527100	0.989600	0.927400
H81	H8	0.677700	0.837600	0.965000
C191	C19	0.537700	0.041000	0.042800
C201	C20	0.621500	0.959000	0.957200
N31	N3	0.668950	0.994200	0.097700
N41	N4	0.760850	0.005800	0.902300
