data_NORGOS_freeONLY_PM
_symmetry_space_group_name_H-M	'P1'
_cell_length_a	12.620500
_cell_length_b	16.558300
_cell_length_c	16.558300
_cell_angle_alpha	66.222900
_cell_angle_beta	75.282100
_cell_angle_gamma	104.718000
_symmetry_Int_Tables_number 1

loop_
_symmetry_equiv_pos_as_xyz
'x,y,z'

loop_
_atom_site_label
_atom_site_type_symbol
_atom_site_fract_x
_atom_site_fract_y
_atom_site_fract_z
Ba11	Ba1	0.293970	0.293970	0.412060
Ba21	Ba2	0.000000	0.706030	0.706030
Ba31	Ba3	0.706030	0.412060	0.293970
Ba41	Ba4	0.293970	0.587940	0.706030
Ba51	Ba5	0.706030	0.706030	0.587940
Ba61	Ba6	0.000000	0.293970	0.293970
Co11	Co1	0.268360	0.381670	0.000000
Co21	Co2	0.731640	0.618330	0.000000
Co31	Co3	0.113310	0.381670	0.618330
Co41	Co4	0.268360	0.000000	0.618330
Co51	Co5	0.731640	0.000000	0.381670
Co61	Co6	0.886690	0.618330	0.381670
H11	H1	0.964100	0.939800	0.835000
H21	H2	0.923000	0.485000	0.847000
H31	H3	0.035900	0.835000	0.939800
H41	H4	0.130300	0.630600	0.580700
H51	H5	0.215500	0.798900	0.149200
H61	H6	0.344000	0.178000	0.294000
H71	H7	0.524000	0.804000	0.546000
H81	H8	0.732000	0.483000	0.955000
H91	H9	0.416600	0.051900	0.798900
H101	H10	0.362000	0.528000	0.294000
H111	H11	0.975700	0.774800	0.060200
H121	H12	0.799100	0.774800	0.165000
H131	H13	0.923000	0.153000	0.515000
H141	H14	0.687000	0.438000	0.045000
H151	H15	0.524000	0.454000	0.196000
H161	H16	0.364700	0.948100	0.850800
H171	H17	0.280000	0.804000	0.650000
H181	H18	0.558400	0.200700	0.049100
H191	H19	0.607500	0.049100	0.750200
H201	H20	0.930000	0.454000	0.350000
H211	H21	0.200900	0.165000	0.774800
H221	H22	0.583400	0.948100	0.201100
H231	H23	0.230000	0.668000	0.847000
H241	H24	0.799100	0.835000	0.225200
H251	H25	0.392500	0.750200	0.049100
H261	H26	0.711000	0.580700	0.788700
H271	H27	0.656000	0.294000	0.178000
H281	H28	0.770000	0.847000	0.668000
H291	H29	0.687000	0.955000	0.562000
H301	H30	0.784500	0.149200	0.798900
H311	H31	0.732000	0.045000	0.517000
H321	H32	0.344000	0.706000	0.822000
H331	H33	0.364700	0.149200	0.051900
H341	H34	0.869700	0.369400	0.419300
H351	H35	0.416600	0.201100	0.948100
H361	H36	0.438000	0.668000	0.485000
H371	H37	0.975700	0.939800	0.225200
H381	H38	0.357700	0.799300	0.249800
H391	H39	0.638000	0.294000	0.528000
H401	H40	0.268000	0.955000	0.483000
H411	H41	0.607500	0.249800	0.950900
H421	H42	0.869700	0.580700	0.630600
H431	H43	0.784500	0.201100	0.850800
H441	H44	0.441600	0.799300	0.950900
H451	H45	0.476000	0.196000	0.454000
H461	H46	0.070000	0.350000	0.454000
H471	H47	0.289000	0.788700	0.580700
H481	H48	0.635300	0.051900	0.149200
H491	H49	0.035900	0.060200	0.165000
H501	H50	0.215500	0.850800	0.201100
H511	H51	0.280000	0.350000	0.196000
H521	H52	0.313000	0.562000	0.955000
H531	H53	0.499700	0.369400	0.211300
H541	H54	0.392500	0.950900	0.249800
H551	H55	0.751000	0.483000	0.562000
H561	H56	0.642300	0.200700	0.750200
H571	H57	0.476000	0.546000	0.804000
H581	H58	0.441600	0.049100	0.200700
H591	H59	0.834000	0.178000	0.528000
H601	H60	0.558400	0.950900	0.799300
H611	H61	0.499700	0.788700	0.630600
H621	H62	0.438000	0.515000	0.332000
H631	H63	0.024300	0.225200	0.939800
H641	H64	0.249000	0.517000	0.438000
H651	H65	0.200900	0.225200	0.835000
H661	H66	0.070000	0.546000	0.650000
H671	H67	0.834000	0.472000	0.822000
H681	H68	0.930000	0.650000	0.546000
H691	H69	0.656000	0.822000	0.706000
H701	H70	0.289000	0.419300	0.211300
H711	H71	0.638000	0.472000	0.706000
H721	H72	0.720000	0.650000	0.804000
H731	H73	0.362000	0.706000	0.472000
H741	H74	0.130300	0.419300	0.369400
H751	H75	0.500300	0.211300	0.369400
H761	H76	0.711000	0.211300	0.419300
H771	H77	0.249000	0.562000	0.483000
H781	H78	0.357700	0.750200	0.200700
H791	H79	0.024300	0.060200	0.774800
H801	H80	0.562000	0.485000	0.668000
H811	H81	0.500300	0.630600	0.788700
H821	H82	0.313000	0.045000	0.438000
H831	H83	0.166000	0.528000	0.178000
H841	H84	0.268000	0.517000	0.045000
H851	H85	0.720000	0.196000	0.350000
H861	H86	0.077000	0.515000	0.153000
H871	H87	0.642300	0.249800	0.799300
H881	H88	0.635300	0.850800	0.948100
H891	H89	0.077000	0.847000	0.485000
H901	H90	0.770000	0.332000	0.153000
H911	H91	0.166000	0.822000	0.472000
H921	H92	0.751000	0.438000	0.517000
H931	H93	0.964100	0.165000	0.060200
H941	H94	0.583400	0.798900	0.051900
H951	H95	0.230000	0.153000	0.332000
H961	H96	0.562000	0.332000	0.515000
C11	C1	0.415550	0.731850	0.000000
C21	C2	0.689050	0.594710	0.314760
C31	C3	0.832600	0.212500	0.787500
C41	C4	0.128650	0.000000	0.299650
C51	C5	0.796400	0.775650	0.224350
C61	C6	0.379900	0.000000	0.787500
C71	C7	0.584450	0.268150	0.000000
C81	C8	0.419040	0.299080	0.092160
C91	C9	0.003810	0.909470	0.685240
C101	C10	0.475450	0.291550	0.000000
C111	C11	0.119960	0.608760	0.299080
C121	C12	0.905660	0.909470	0.405290
C131	C13	0.979250	0.000000	0.224350
C141	C14	0.683700	0.268150	0.731850
C151	C15	0.428300	0.299650	0.700350
C161	C16	0.584450	0.000000	0.731850
C171	C17	0.580960	0.700920	0.907840
C181	C18	0.004200	0.689100	0.000000
C191	C19	0.620100	0.000000	0.212500
C201	C20	0.524550	0.708450	0.000000
C211	C21	0.003810	0.314760	0.090530
C221	C22	0.571700	0.700350	0.299650
C231	C23	0.871350	0.299650	0.000000
C241	C24	0.020750	0.224350	0.000000
C251	C25	0.183900	0.708450	0.291550
C261	C26	0.995800	0.310900	0.000000
C271	C27	0.816100	0.291550	0.708450
C281	C28	0.315100	0.310900	0.689100
C291	C29	0.488800	0.608760	0.092160
C301	C30	0.094340	0.405290	0.909470
C311	C31	0.689050	0.685240	0.405290
C321	C32	0.871350	0.000000	0.700350
C331	C33	0.419040	0.907840	0.700920
C341	C34	0.316300	0.731850	0.268150
C351	C35	0.996190	0.090530	0.314760
C361	C36	0.379900	0.212500	0.000000
C371	C37	0.475450	0.000000	0.708450
C381	C38	0.119960	0.700920	0.391240
C391	C39	0.004200	0.000000	0.310900
C401	C40	0.880040	0.391240	0.700920
C411	C41	0.979250	0.775650	0.000000
C421	C42	0.511200	0.391240	0.907840
C431	C43	0.310950	0.314760	0.594710
C441	C44	0.995800	0.000000	0.689100
C451	C45	0.580960	0.092160	0.299080
C461	C46	0.905660	0.594710	0.090530
C471	C47	0.128650	0.700350	0.000000
C481	C48	0.415550	0.000000	0.268150
C491	C49	0.880040	0.299080	0.608760
C501	C50	0.203600	0.224350	0.775650
C511	C51	0.511200	0.092160	0.608760
C521	C52	0.020750	0.000000	0.775650
C531	C53	0.310950	0.405290	0.685240
C541	C54	0.524550	0.000000	0.291550
C551	C55	0.167400	0.787500	0.212500
C561	C56	0.488800	0.907840	0.391240
C571	C57	0.684900	0.689100	0.310900
C581	C58	0.094340	0.090530	0.594710
C591	C59	0.996190	0.685240	0.909470
C601	C60	0.620100	0.787500	0.000000
O11	O1	0.920530	0.318640	0.145050
O21	O2	0.216380	0.315140	0.581200
O31	O3	0.325020	0.898730	0.683470
O41	O4	0.615360	0.435800	0.850520
O51	O5	0.065580	0.145050	0.536310
O61	O6	0.292700	0.509800	0.000000
O71	O7	0.573710	0.582200	0.101270
O81	O8	0.534120	0.713680	0.850520
O91	O9	0.797580	0.896340	0.418800
O101	O10	0.707300	0.490200	0.000000
O111	O11	0.601890	0.681360	0.463690
O121	O12	0.109220	0.361190	0.400330
O131	O13	0.065580	0.463690	0.854950
O141	O14	0.934420	0.536310	0.145050
O151	O15	0.674980	0.101270	0.316530
O161	O16	0.398110	0.463690	0.681360
O171	O17	0.674980	0.683470	0.898730
O181	O18	0.251970	0.761520	0.638810
O191	O19	0.509550	0.761520	0.599670
O201	O20	0.098760	0.896340	0.684860
O211	O21	0.873270	0.506270	0.838960
O221	O22	0.920530	0.854950	0.681360
O231	O23	0.534120	0.149480	0.286320
O241	O24	0.712230	0.345230	0.161040
O251	O25	0.901240	0.684860	0.896340
O261	O26	0.820440	0.286320	0.564200
O271	O27	0.384640	0.850520	0.435800
O281	O28	0.509550	0.400330	0.238480
O291	O29	0.890780	0.400330	0.361190
O301	O30	0.287770	0.161040	0.345230
O311	O31	0.179560	0.564200	0.286320
O321	O32	0.426290	0.101270	0.582200
O331	O33	0.991510	0.316530	0.582200
O341	O34	0.098760	0.315140	0.103660
O351	O35	0.465880	0.286320	0.149480
O361	O36	0.367000	0.654770	0.506270
O371	O37	0.783620	0.684860	0.418800
O381	O38	0.384640	0.564200	0.149480
O391	O39	0.008490	0.582200	0.316530
O401	O40	0.079470	0.681360	0.854950
O411	O41	0.901240	0.103660	0.315140
O421	O42	0.873270	0.161040	0.493730
O431	O43	0.601890	0.536310	0.318640
O441	O44	0.287770	0.654770	0.838960
O451	O45	0.202420	0.103660	0.581200
O461	O46	0.991510	0.417800	0.683470
O471	O47	0.490450	0.599670	0.761520
O481	O48	0.934420	0.854950	0.463690
O491	O49	0.782900	0.490200	0.509800
O501	O50	0.426290	0.417800	0.898730
O511	O51	0.398110	0.318640	0.536310
O521	O52	0.465880	0.850520	0.713680
O531	O53	0.890780	0.638810	0.599670
O541	O54	0.633000	0.345230	0.493730
O551	O55	0.202420	0.418800	0.896340
O561	O56	0.216380	0.418800	0.684860
O571	O57	0.783620	0.581200	0.315140
O581	O58	0.292700	0.000000	0.490200
O591	O59	0.707300	0.000000	0.509800
O601	O60	0.615360	0.149480	0.564200
O611	O61	0.490450	0.238480	0.400330
O621	O62	0.325020	0.316530	0.101270
O631	O63	0.820440	0.435800	0.713680
O641	O64	0.712230	0.838960	0.654770
O651	O65	0.748030	0.638810	0.761520
O661	O66	0.748030	0.238480	0.361190
O671	O67	0.633000	0.506270	0.654770
O681	O68	0.217100	0.509800	0.490200
O691	O69	0.251970	0.361190	0.238480
O701	O70	0.573710	0.898730	0.417800
O711	O71	0.079470	0.145050	0.318640
O721	O72	0.008490	0.683470	0.417800
O731	O73	0.797580	0.581200	0.103660
O741	O74	0.109220	0.599670	0.638810
O751	O75	0.126730	0.493730	0.161040
O761	O76	0.126730	0.838960	0.506270
O771	O77	0.179560	0.713680	0.435800
O781	O78	0.367000	0.493730	0.345230
