data_NOSTUM_freeONLY_PM
_symmetry_space_group_name_H-M	'P1'
_cell_length_a	13.510400
_cell_length_b	14.110700
_cell_length_c	8.800000
_cell_angle_alpha	90.000000
_cell_angle_beta	114.617000
_cell_angle_gamma	90.000000
_symmetry_Int_Tables_number 1

loop_
_symmetry_equiv_pos_as_xyz
'x,y,z'

loop_
_atom_site_label
_atom_site_type_symbol
_atom_site_fract_x
_atom_site_fract_y
_atom_site_fract_z
O11	O1	0.091860	0.575970	0.115420
O21	O2	0.105150	0.524470	0.885400
O31	O3	0.193280	0.624810	0.734950
H11	H1	0.151000	0.584500	0.739800
O41	O4	0.098820	0.683740	0.405200
C11	C1	0.122470	0.584600	0.001450
C21	C2	0.187960	0.669900	0.998660
C31	C3	0.218460	0.735080	0.129850
H21	H2	0.197100	0.725300	0.216400
C41	C4	0.219850	0.685690	0.867200
H31	H3	0.066000	0.737500	0.373000
H41	H4	0.136000	0.665700	0.352000
O51	O5	0.591860	0.075970	0.115420
O61	O6	0.605150	0.024470	0.885400
O71	O7	0.693280	0.124810	0.734950
H51	H5	0.651000	0.084500	0.739800
O81	O8	0.598820	0.183740	0.405200
C51	C5	0.622470	0.084600	0.001450
C61	C6	0.687960	0.169900	0.998660
C71	C7	0.718460	0.235080	0.129850
H61	H6	0.697100	0.225300	0.216400
C81	C8	0.719850	0.185690	0.867200
H71	H7	0.566000	0.237500	0.373000
H81	H8	0.636000	0.165700	0.352000
O91	O9	0.908140	0.575970	0.384580
O101	O10	0.894850	0.524470	0.614600
O111	O11	0.806720	0.624810	0.765050
H91	H9	0.849000	0.584500	0.760200
O121	O12	0.901180	0.683740	0.094800
C91	C9	0.877530	0.584600	0.498550
C101	C10	0.812040	0.669900	0.501340
C111	C11	0.781540	0.735080	0.370150
H101	H10	0.802900	0.725300	0.283600
C121	C12	0.780150	0.685690	0.632800
H111	H11	0.934000	0.737500	0.127000
H121	H12	0.864000	0.665700	0.148000
O131	O13	0.408140	0.075970	0.384580
O141	O14	0.394850	0.024470	0.614600
O151	O15	0.306720	0.124810	0.765050
H131	H13	0.349000	0.084500	0.760200
O161	O16	0.401180	0.183740	0.094800
C131	C13	0.377530	0.084600	0.498550
C141	C14	0.312040	0.169900	0.501340
C151	C15	0.281540	0.235080	0.370150
H141	H14	0.302900	0.225300	0.283600
C161	C16	0.280150	0.185690	0.632800
H151	H15	0.434000	0.237500	0.127000
H161	H16	0.364000	0.165700	0.148000
O171	O17	0.908140	0.424030	0.884580
O181	O18	0.894850	0.475530	0.114600
O191	O19	0.806720	0.375190	0.265050
H171	H17	0.849000	0.415500	0.260200
O201	O20	0.901180	0.316260	0.594800
C171	C17	0.877530	0.415400	0.998550
C181	C18	0.812040	0.330100	0.001340
C191	C19	0.781540	0.264920	0.870150
H181	H18	0.802900	0.274700	0.783600
C201	C20	0.780150	0.314310	0.132800
H191	H19	0.934000	0.262500	0.627000
H201	H20	0.864000	0.334300	0.648000
O211	O21	0.408140	0.924030	0.884580
O221	O22	0.394850	0.975530	0.114600
O231	O23	0.306720	0.875190	0.265050
H211	H21	0.349000	0.915500	0.260200
O241	O24	0.401180	0.816260	0.594800
C211	C21	0.377530	0.915400	0.998550
C221	C22	0.312040	0.830100	0.001340
C231	C23	0.281540	0.764920	0.870150
H221	H22	0.302900	0.774700	0.783600
C241	C24	0.280150	0.814310	0.132800
H231	H23	0.434000	0.762500	0.627000
H241	H24	0.364000	0.834300	0.648000
O251	O25	0.091860	0.424030	0.615420
O261	O26	0.105150	0.475530	0.385400
O271	O27	0.193280	0.375190	0.234950
H251	H25	0.151000	0.415500	0.239800
O281	O28	0.098820	0.316260	0.905200
C251	C25	0.122470	0.415400	0.501450
C261	C26	0.187960	0.330100	0.498660
C271	C27	0.218460	0.264920	0.629850
H261	H26	0.197100	0.274700	0.716400
C281	C28	0.219850	0.314310	0.367200
H271	H27	0.066000	0.262500	0.873000
H281	H28	0.136000	0.334300	0.852000
O291	O29	0.591860	0.924030	0.615420
O301	O30	0.605150	0.975530	0.385400
O311	O31	0.693280	0.875190	0.234950
H291	H29	0.651000	0.915500	0.239800
O321	O32	0.598820	0.816260	0.905200
C291	C29	0.622470	0.915400	0.501450
C301	C30	0.687960	0.830100	0.498660
C311	C31	0.718460	0.764920	0.629850
H301	H30	0.697100	0.774700	0.716400
C321	C32	0.719850	0.814310	0.367200
H311	H31	0.566000	0.762500	0.873000
H321	H32	0.636000	0.834300	0.852000
Mg11	Mg1	0.000000	0.578670	0.250000
Mg21	Mg2	0.500000	0.078670	0.250000
Mg31	Mg3	0.000000	0.421330	0.750000
Mg41	Mg4	0.500000	0.921330	0.750000
