data_NOSTUM01_freeONLY_PM
_symmetry_space_group_name_H-M	'P1'
_cell_length_a	13.741000
_cell_length_b	13.972000
_cell_length_c	8.804500
_cell_angle_alpha	90.000000
_cell_angle_beta	113.760000
_cell_angle_gamma	90.000000
_symmetry_Int_Tables_number 1

loop_
_symmetry_equiv_pos_as_xyz
'x,y,z'

loop_
_atom_site_label
_atom_site_type_symbol
_atom_site_fract_x
_atom_site_fract_y
_atom_site_fract_z
O11	O1	0.091910	0.576990	0.115640
O21	O2	0.102060	0.526140	0.884890
O31	O3	0.189380	0.627010	0.732760
H11	H1	0.147200	0.586900	0.737900
O41	O4	0.095200	0.684470	0.403300
C11	C1	0.120890	0.585760	0.001000
C21	C2	0.186950	0.670770	0.998500
C31	C3	0.220130	0.734560	0.130400
H21	H2	0.200200	0.724400	0.218200
C41	C4	0.217660	0.687040	0.866400
H31	H3	0.070700	0.740300	0.367000
H41	H4	0.118100	0.675000	0.506800
O51	O5	0.591910	0.076990	0.115640
O61	O6	0.602060	0.026140	0.884890
O71	O7	0.689380	0.127010	0.732760
H51	H5	0.647200	0.086900	0.737900
O81	O8	0.595200	0.184470	0.403300
C51	C5	0.620890	0.085760	0.001000
C61	C6	0.686950	0.170770	0.998500
C71	C7	0.720130	0.234560	0.130400
H61	H6	0.700200	0.224400	0.218200
C81	C8	0.717660	0.187040	0.866400
H71	H7	0.570700	0.240300	0.367000
H81	H8	0.618100	0.175000	0.506800
O91	O9	0.908090	0.576990	0.384360
O101	O10	0.897940	0.526140	0.615110
O111	O11	0.810620	0.627010	0.767240
H91	H9	0.852800	0.586900	0.762100
O121	O12	0.904800	0.684470	0.096700
C91	C9	0.879110	0.585760	0.499000
C101	C10	0.813050	0.670770	0.501500
C111	C11	0.779870	0.734560	0.369600
H101	H10	0.799800	0.724400	0.281800
C121	C12	0.782340	0.687040	0.633600
H111	H11	0.929300	0.740300	0.133000
H121	H12	0.881900	0.675000	0.993200
O131	O13	0.408090	0.076990	0.384360
O141	O14	0.397940	0.026140	0.615110
O151	O15	0.310620	0.127010	0.767240
H131	H13	0.352800	0.086900	0.762100
O161	O16	0.404800	0.184470	0.096700
C131	C13	0.379110	0.085760	0.499000
C141	C14	0.313050	0.170770	0.501500
C151	C15	0.279870	0.234560	0.369600
H141	H14	0.299800	0.224400	0.281800
C161	C16	0.282340	0.187040	0.633600
H151	H15	0.429300	0.240300	0.133000
H161	H16	0.381900	0.175000	0.993200
O171	O17	0.908090	0.423010	0.884360
O181	O18	0.897940	0.473860	0.115110
O191	O19	0.810620	0.372990	0.267240
H171	H17	0.852800	0.413100	0.262100
O201	O20	0.904800	0.315530	0.596700
C171	C17	0.879110	0.414240	0.999000
C181	C18	0.813050	0.329230	0.001500
C191	C19	0.779870	0.265440	0.869600
H181	H18	0.799800	0.275600	0.781800
C201	C20	0.782340	0.312960	0.133600
H191	H19	0.929300	0.259700	0.633000
H201	H20	0.881900	0.325000	0.493200
O211	O21	0.408090	0.923010	0.884360
O221	O22	0.397940	0.973860	0.115110
O231	O23	0.310620	0.872990	0.267240
H211	H21	0.352800	0.913100	0.262100
O241	O24	0.404800	0.815530	0.596700
C211	C21	0.379110	0.914240	0.999000
C221	C22	0.313050	0.829230	0.001500
C231	C23	0.279870	0.765440	0.869600
H221	H22	0.299800	0.775600	0.781800
C241	C24	0.282340	0.812960	0.133600
H231	H23	0.429300	0.759700	0.633000
H241	H24	0.381900	0.825000	0.493200
O251	O25	0.091910	0.423010	0.615640
O261	O26	0.102060	0.473860	0.384890
O271	O27	0.189380	0.372990	0.232760
H251	H25	0.147200	0.413100	0.237900
O281	O28	0.095200	0.315530	0.903300
C251	C25	0.120890	0.414240	0.501000
C261	C26	0.186950	0.329230	0.498500
C271	C27	0.220130	0.265440	0.630400
H261	H26	0.200200	0.275600	0.718200
C281	C28	0.217660	0.312960	0.366400
H271	H27	0.070700	0.259700	0.867000
H281	H28	0.118100	0.325000	0.006800
O291	O29	0.591910	0.923010	0.615640
O301	O30	0.602060	0.973860	0.384890
O311	O31	0.689380	0.872990	0.232760
H291	H29	0.647200	0.913100	0.237900
O321	O32	0.595200	0.815530	0.903300
C291	C29	0.620890	0.914240	0.501000
C301	C30	0.686950	0.829230	0.498500
C311	C31	0.720130	0.765440	0.630400
H301	H30	0.700200	0.775600	0.718200
C321	C32	0.717660	0.812960	0.366400
H311	H31	0.570700	0.759700	0.867000
H321	H32	0.618100	0.825000	0.006800
Mg11	Mg1	0.000000	0.577800	0.250000
Mg21	Mg2	0.500000	0.077800	0.250000
Mg31	Mg3	0.000000	0.422200	0.750000
Mg41	Mg4	0.500000	0.922200	0.750000
