data_NOWGIR_freeONLY_PM
_symmetry_space_group_name_H-M	'P1'
_cell_length_a	10.191200
_cell_length_b	13.700800
_cell_length_c	24.471000
_cell_angle_alpha	81.030200
_cell_angle_beta	77.981300
_cell_angle_gamma	68.166000
_symmetry_Int_Tables_number 1

loop_
_symmetry_equiv_pos_as_xyz
'x,y,z'

loop_
_atom_site_label
_atom_site_type_symbol
_atom_site_fract_x
_atom_site_fract_y
_atom_site_fract_z
Ag11	Ag1	0.568960	0.051470	0.346450
Ag21	Ag2	0.944230	0.566000	0.121720
Ag31	Ag3	0.291740	0.967580	0.837160
Ag41	Ag4	0.203190	0.009550	0.390290
Ag51	Ag5	0.396970	0.509550	0.890290
Ag61	Ag6	0.035670	0.268550	0.827170
Ag71	Ag7	0.868610	0.768550	0.327170
Ag81	Ag8	0.903520	0.467580	0.337160
Ag91	Ag9	0.678840	0.272610	0.814370
Ag101	Ag10	0.234180	0.772610	0.314370
Ag111	Ag11	0.033120	0.551470	0.846450
Ag121	Ag12	0.657390	0.070830	0.512470
Ag131	Ag13	0.759310	0.570830	0.012470
Ag141	Ag14	0.368050	0.066000	0.621720
H11	H1	0.293300	0.582700	0.768500
H21	H2	0.699400	0.938800	0.762000
H31	H3	0.984500	0.088200	0.481800
H41	H4	0.268800	0.881700	0.726100
H51	H5	0.502900	0.581200	0.316800
H61	H6	0.445500	0.588200	0.981800
H71	H7	0.960100	0.232900	0.338100
H81	H8	0.383900	0.705500	0.713700
H91	H9	0.196900	0.205500	0.213700
H101	H10	0.612400	0.455800	0.403600
H111	H11	0.783500	0.701100	0.223900
H121	H12	0.590100	0.924800	0.695000
H131	H13	0.790100	0.424800	0.195000
H141	H14	0.355500	0.082700	0.268500
H151	H15	0.405700	0.309800	0.331600
H161	H16	0.760000	0.024100	0.623900
H171	H17	0.599100	0.081200	0.816800
H181	H18	0.468900	0.732900	0.838100
H191	H19	0.178100	0.976600	0.619400
H201	H20	0.528200	0.955800	0.903600
H211	H21	0.952900	0.809800	0.831600
H221	H22	0.599800	0.438800	0.262000
H231	H23	0.497000	0.335300	0.432900
H241	H24	0.123400	0.381700	0.226100
H251	H25	0.399100	0.480600	0.169000
H261	H26	0.734800	0.835300	0.932900
H271	H27	0.225900	0.476600	0.119400
H281	H28	0.951300	0.980600	0.669000
H291	H29	0.592000	0.524100	0.123900
H301	H30	0.615700	0.162200	0.410600
H311	H31	0.811500	0.662200	0.910600
H321	H32	0.291500	0.201100	0.723900
C11	C1	0.522300	0.527600	0.103800
C21	C2	0.558000	0.885700	0.895900
C31	C3	0.374600	0.147500	0.732500
C41	C4	0.255300	0.364000	0.281400
C51	C5	0.693200	0.568900	0.860900
C61	C6	0.638700	0.492000	0.255000
C71	C7	0.662600	0.210500	0.400900
C81	C8	0.522400	0.753600	0.857400
C91	C9	0.430200	0.157500	0.777300
C101	C10	0.099300	0.864000	0.781400
C111	C11	0.682200	0.814200	0.913400
C121	C12	0.590200	0.314200	0.413400
C131	C13	0.025900	0.977100	0.792300
C141	C14	0.432700	0.567800	0.020000
C151	C15	0.204700	0.477100	0.292300
C161	C16	0.803000	0.178200	0.374200
C171	C17	0.233900	0.228200	0.239000
C181	C18	0.660400	0.385700	0.395900
C191	C19	0.552000	0.985100	0.714500
C201	C20	0.748400	0.485100	0.214500
C211	C21	0.554500	0.078100	0.787900
C221	C22	0.745400	0.647500	0.232500
C231	C23	0.298900	0.728200	0.739000
C241	C24	0.644600	0.678200	0.874200
C251	C25	0.726000	0.710500	0.900900
C261	C26	0.042700	0.788300	0.809100
C271	C27	0.635000	0.657500	0.277300
C281	C28	0.371200	0.253300	0.809500
C291	C29	0.298600	0.502400	0.102400
C301	C30	0.192600	0.332200	0.245400
C311	C31	0.979500	0.067800	0.520000
C321	C32	0.877000	0.068900	0.360900
C331	C33	0.614300	0.992000	0.755000
C341	C34	0.566000	0.753300	0.309500
C351	C35	0.241200	0.654300	0.770900
C361	C36	0.309500	0.548200	0.043800
C371	C37	0.866600	0.253600	0.357400
C381	C38	0.579500	0.578100	0.287900
C391	C39	0.229800	0.832200	0.745400
C401	C40	0.333600	0.154300	0.270900
C411	C41	0.406300	0.500700	0.130700
C421	C42	0.098500	0.048200	0.543800
C431	C43	0.096600	0.002400	0.602400
C441	C44	0.962300	0.000700	0.630700
C451	C45	0.846300	0.027600	0.603800
C461	C46	0.359900	0.288300	0.309100
C471	C47	0.239200	0.053900	0.513500
C481	C48	0.193400	0.553900	0.013500
N11	N1	0.831900	0.513800	0.849000
N21	N2	0.432200	0.065200	0.700400
N31	N3	0.799600	0.356100	0.367500
N41	N4	0.015500	0.015100	0.356100
N51	N5	0.209600	0.556100	0.958700
N61	N6	0.905900	0.918600	0.337000
N71	N7	0.415100	0.887100	0.346700
N81	N8	0.233100	0.300400	0.823800
N91	N9	0.805300	0.013800	0.349000
N101	N10	0.275600	0.056100	0.458700
N111	N11	0.446000	0.063400	0.496000
N121	N12	0.613300	0.515100	0.856100
N131	N13	0.351100	0.387100	0.846700
N141	N14	0.535900	0.558900	0.048700
N151	N15	0.033500	0.915800	0.341400
N161	N16	0.406000	0.064900	0.446100
N171	N17	0.115300	0.683300	0.804300
N181	N18	0.994300	0.129400	0.813000
N191	N19	0.838500	0.418600	0.837000
N201	N20	0.340700	0.057400	0.536800
N211	N21	0.856500	0.058900	0.548700
N221	N22	0.094300	0.033100	0.806300
N231	N23	0.083000	0.564900	0.946100
N241	N24	0.994600	0.563400	0.996000
N251	N25	0.063300	0.629400	0.313000
N261	N26	0.802200	0.565200	0.200400
N271	N27	0.709300	0.415800	0.841400
N281	N28	0.889200	0.033600	0.790000
N291	N29	0.193500	0.628900	0.303900
N301	N30	0.287200	0.533600	0.290000
N311	N31	0.430100	0.799500	0.321700
N321	N32	0.476800	0.856100	0.867500
N331	N33	0.223100	0.386500	0.848300
N341	N34	0.642700	0.800400	0.323800
N351	N35	0.873700	0.128900	0.803900
N361	N36	0.448700	0.299500	0.821700
N371	N37	0.542100	0.886500	0.348300
N381	N38	0.065100	0.557400	0.036800
N391	N39	0.066300	0.533100	0.306300
N401	N40	0.397100	0.183300	0.304300
