data_NOZZOT_charged_PM
_symmetry_space_group_name_H-M	'P1'
_cell_length_a	14.097000
_cell_length_b	14.201500
_cell_length_c	14.264900
_cell_angle_alpha	115.663000
_cell_angle_beta	113.627000
_cell_angle_gamma	97.603000
_symmetry_Int_Tables_number 1

loop_
_symmetry_equiv_pos_as_xyz
'x,y,z'

loop_
_atom_site_label
_atom_site_type_symbol
_atom_site_fract_x
_atom_site_fract_y
_atom_site_fract_z
Cd11	Cd1	0.994350	0.113370	0.813050
Cd21	Cd2	0.005650	0.886630	0.186950
Cd31	Cd3	0.000000	0.000000	0.000000
Si11	Si1	0.736490	0.351640	0.315610
Si21	Si2	0.263510	0.648360	0.684390
H11	H1	0.441500	0.863500	0.811200
H21	H2	0.365200	0.064200	0.085700
H31	H3	0.556600	0.437400	0.234300
H41	H4	0.000500	0.766300	0.456900
H51	H5	0.949500	0.416900	0.131400
H61	H6	0.177000	0.243500	0.530900
H71	H7	0.558500	0.136500	0.188800
H81	H8	0.050500	0.583100	0.868600
H91	H9	0.797500	0.091200	0.008500
H101	H10	0.077300	0.321000	0.274800
H111	H11	0.647300	0.253900	0.421700
H121	H12	0.284300	0.807500	0.446500
H131	H13	0.443400	0.562600	0.765700
H141	H14	0.202500	0.908800	0.991500
H151	H15	0.634800	0.935800	0.914300
H161	H16	0.922700	0.679000	0.725200
H171	H17	0.715700	0.192500	0.553500
H181	H18	0.853300	0.489800	0.576100
H191	H19	0.930600	0.294100	0.410800
H201	H20	0.721400	0.147300	0.131700
H211	H21	0.278600	0.852700	0.868300
H221	H22	0.069400	0.705900	0.589200
H231	H23	0.251200	0.433600	0.681100
H241	H24	0.823000	0.756500	0.469100
H251	H25	0.146700	0.510200	0.423900
H261	H26	0.999500	0.233700	0.543100
H271	H27	0.880000	0.473500	0.261900
H281	H28	0.362600	0.360000	0.115600
H291	H29	0.120000	0.526500	0.738100
H301	H30	0.352700	0.746100	0.578300
H311	H31	0.637400	0.640000	0.884400
H321	H32	0.748800	0.566400	0.318900
C11	C1	0.153840	0.456680	0.446630
C21	C2	0.793190	0.506480	0.430420
C31	C3	0.420410	0.704400	0.774590
C41	C4	0.769200	0.202710	0.133500
C51	C5	0.579590	0.295600	0.225410
C61	C6	0.781610	0.844290	0.980830
C71	C7	0.402310	0.315270	0.133600
C81	C8	0.218390	0.155710	0.019170
C91	C9	0.785060	0.588730	0.401530
C101	C10	0.088060	0.828050	0.349500
C111	C11	0.118870	0.263590	0.387770
C121	C12	0.886540	0.274200	0.440000
C131	C13	0.480780	0.816250	0.822500
C141	C14	0.072270	0.761800	0.481100
C151	C15	0.344330	0.204980	0.090980
C161	C16	0.519220	0.183750	0.177500
C171	C17	0.207020	0.683220	0.788680
C181	C18	0.861950	0.395630	0.209690
C191	C19	0.118230	0.751350	0.941040
C201	C20	0.171160	0.297750	0.509020
C211	C21	0.881770	0.248650	0.058960
C221	C22	0.111600	0.343690	0.357480
C231	C23	0.280550	0.749650	0.553600
C241	C24	0.865220	0.208660	0.562750
C251	C25	0.596190	0.860390	0.886200
C261	C26	0.932860	0.212220	0.981420
C271	C27	0.881130	0.736410	0.612230
C281	C28	0.218250	0.718080	0.597390
C291	C29	0.928520	0.858510	0.711840
C301	C30	0.911940	0.171950	0.650500
C311	C31	0.138050	0.604370	0.790310
C321	C32	0.813650	0.168920	0.059200
C331	C33	0.760060	0.213870	0.525300
C341	C34	0.214940	0.411270	0.598470
C351	C35	0.781750	0.281920	0.402610
C361	C36	0.888400	0.656310	0.642520
C371	C37	0.719450	0.250350	0.446400
C381	C38	0.071480	0.141490	0.288160
C391	C39	0.095330	0.637810	0.866900
C401	C40	0.846160	0.543320	0.553370
C411	C41	0.239940	0.786130	0.474700
C421	C42	0.792980	0.316780	0.211320
C431	C43	0.186350	0.831080	0.940800
C441	C44	0.134780	0.791340	0.437250
C451	C45	0.655670	0.795020	0.909020
C461	C46	0.230800	0.797290	0.866500
C471	C47	0.067140	0.787780	0.018580
C481	C48	0.927730	0.238200	0.518900
C491	C49	0.597690	0.684730	0.866400
C501	C50	0.518360	0.360740	0.202400
C511	C51	0.904670	0.362190	0.133100
C521	C52	0.481640	0.639260	0.797600
C531	C53	0.206810	0.493520	0.569580
C541	C54	0.403810	0.139610	0.113800
C551	C55	0.113460	0.725800	0.560000
C561	C56	0.828840	0.702250	0.490980
O11	O1	0.009970	0.174420	0.688860
O21	O2	0.059780	0.069260	0.315340
O31	O3	0.171290	0.092040	0.038780
O41	O4	0.981210	0.279790	0.967210
O51	O5	0.828710	0.907960	0.961220
O61	O6	0.018790	0.720210	0.032790
O71	O7	0.940220	0.930740	0.684660
O81	O8	0.149150	0.861100	0.316220
O91	O9	0.826700	0.816590	0.055620
O101	O10	0.850850	0.138900	0.683780
O111	O11	0.990030	0.825580	0.311140
O121	O12	0.077890	0.891950	0.070760
O131	O13	0.922110	0.108050	0.929240
O141	O14	0.951340	0.876830	0.813580
O151	O15	0.048660	0.123170	0.186420
O161	O16	0.173300	0.183410	0.944380
Cd41	Cd4	0.500000	0.000000	0.500000
H331	H33	0.685200	0.721700	0.663400
H341	H34	0.745900	0.865000	0.190300
H351	H35	0.225700	0.074800	0.538700
H361	H36	0.788100	0.837100	0.355000
H371	H37	0.534500	0.028700	0.739300
H381	H38	0.319200	0.022600	0.280300
H391	H39	0.596100	0.334800	0.617300
H401	H40	0.341000	0.812000	0.279000
H411	H41	0.278000	0.863000	0.315000
H421	H42	0.211900	0.162900	0.645000
H431	H43	0.380500	0.143900	0.873700
H441	H44	0.456100	0.569800	0.365200
H451	H45	0.607700	0.408600	0.561000
H461	H46	0.392300	0.591400	0.439000
H471	H47	0.362600	0.388000	0.467500
H481	H48	0.774300	0.925200	0.461300
H491	H49	0.254100	0.135000	0.809700
H501	H50	0.738200	0.900200	0.660100
H511	H51	0.148900	0.030800	0.580000
H521	H52	0.637400	0.612000	0.532500
H531	H53	0.314800	0.278300	0.336600
H541	H54	0.422500	0.382800	0.391900
H551	H55	0.465600	0.026500	0.804800
H561	H56	0.619500	0.856100	0.126300
H571	H57	0.703000	0.881500	0.746200
H581	H58	0.719100	0.976300	0.212300
H591	H59	0.280900	0.023700	0.787700
H601	H60	0.680800	0.977400	0.719700
H611	H61	0.722000	0.137000	0.685000
H621	H62	0.261800	0.099800	0.339900
H631	H63	0.534400	0.973500	0.195200
H641	H64	0.403900	0.665200	0.382700
H651	H65	0.659000	0.188000	0.721000
H661	H66	0.465500	0.971300	0.260700
H671	H67	0.851100	0.969200	0.420000
H681	H68	0.543900	0.430200	0.634800
H691	H69	0.577500	0.617200	0.608100
H701	H70	0.543900	0.144100	0.842100
H711	H71	0.456100	0.855900	0.157900
H721	H72	0.297000	0.118500	0.253800
C571	C57	0.693400	0.901900	0.199600
C581	C58	0.617400	0.661100	0.588800
C591	C59	0.429750	0.180900	0.422600
C601	C60	0.602400	0.930200	0.319900
C611	C61	0.493800	0.067000	0.774800
C621	C62	0.682800	0.901700	0.685200
C631	C63	0.570250	0.819100	0.577400
C641	C64	0.559200	0.372800	0.579300
C651	C65	0.397600	0.069800	0.680100
C661	C66	0.440800	0.627200	0.420700
C671	C67	0.783000	0.911200	0.392200
C681	C68	0.217000	0.088800	0.607800
C691	C69	0.306600	0.098100	0.800400
C701	C70	0.382600	0.338900	0.411200
C711	C71	0.506200	0.933000	0.225200
C721	C72	0.317200	0.098300	0.314800
N11	N1	0.454240	0.290640	0.467200
N21	N2	0.545760	0.709360	0.532800
N31	N3	0.686900	0.914100	0.303200
N41	N4	0.313100	0.085900	0.696800
O171	O17	0.396200	0.056820	0.587080
O181	O18	0.603800	0.943180	0.412920
O191	O19	0.342200	0.875740	0.322600
O201	O20	0.657800	0.124260	0.677400
O211	O21	0.500730	0.147880	0.471940
O221	O22	0.499270	0.852120	0.528060
