data_NUCBIY_freeONLY_PM
_symmetry_space_group_name_H-M	'P1'
_cell_length_a	22.345800
_cell_length_b	29.769100
_cell_length_c	33.373400
_cell_angle_alpha	90.000000
_cell_angle_beta	90.000000
_cell_angle_gamma	90.000000
_symmetry_Int_Tables_number 1

loop_
_symmetry_equiv_pos_as_xyz
'x,y,z'

loop_
_atom_site_label
_atom_site_type_symbol
_atom_site_fract_x
_atom_site_fract_y
_atom_site_fract_z
O11	O1	0.857100	0.322300	0.637500
O21	O2	0.790200	0.290900	0.597170
N11	N1	0.901500	0.502500	0.440400
H11	H1	0.895300	0.529200	0.431700
N21	N2	0.940700	0.472800	0.423300
C11	C1	0.850800	0.349100	0.570900
C21	C2	0.835000	0.339800	0.531700
H21	H2	0.813400	0.314000	0.525600
C31	C3	0.938900	0.436200	0.446400
C41	C4	0.851800	0.369700	0.501100
H31	H3	0.842300	0.362900	0.474700
C51	C5	0.898100	0.441400	0.477100
C61	C6	0.882400	0.409200	0.509700
C71	C7	0.874400	0.485000	0.471900
C81	C8	0.897800	0.418100	0.549400
H41	H4	0.918000	0.444500	0.555800
C91	C9	0.883300	0.388100	0.579000
H51	H5	0.895400	0.393800	0.605200
C101	C10	0.832200	0.318500	0.605000
C111	C11	0.978100	0.396500	0.438200
H61	H6	0.978400	0.390500	0.409900
H71	H7	0.962800	0.370800	0.452200
H81	H8	0.018000	0.402800	0.447100
C121	C12	0.828200	0.510100	0.495300
H91	H9	0.847200	0.533000	0.510900
H101	H10	0.807500	0.489700	0.512700
H111	H11	0.800200	0.523700	0.477100
O31	O3	0.857100	0.822300	0.137500
O41	O4	0.790200	0.790900	0.097170
N31	N3	0.901500	0.002500	0.940400
H121	H12	0.895300	0.029200	0.931700
N41	N4	0.940700	0.972800	0.923300
C131	C13	0.850800	0.849100	0.070900
C141	C14	0.835000	0.839800	0.031700
H131	H13	0.813400	0.814000	0.025600
C151	C15	0.938900	0.936200	0.946400
C161	C16	0.851800	0.869700	0.001100
H141	H14	0.842300	0.862900	0.974700
C171	C17	0.898100	0.941400	0.977100
C181	C18	0.882400	0.909200	0.009700
C191	C19	0.874400	0.985000	0.971900
C201	C20	0.897800	0.918100	0.049400
H151	H15	0.918000	0.944500	0.055800
C211	C21	0.883300	0.888100	0.079000
H161	H16	0.895400	0.893800	0.105200
C221	C22	0.832200	0.818500	0.105000
C231	C23	0.978100	0.896500	0.938200
H171	H17	0.978400	0.890500	0.909900
H181	H18	0.962800	0.870800	0.952200
H191	H19	0.018000	0.902800	0.947100
C241	C24	0.828200	0.010100	0.995300
H201	H20	0.847200	0.033000	0.010900
H211	H21	0.807500	0.989700	0.012700
H221	H22	0.800200	0.023700	0.977100
O51	O5	0.357100	0.322300	0.137500
O61	O6	0.290200	0.290900	0.097170
N51	N5	0.401500	0.502500	0.940400
H231	H23	0.395300	0.529200	0.931700
N61	N6	0.440700	0.472800	0.923300
C251	C25	0.350800	0.349100	0.070900
C261	C26	0.335000	0.339800	0.031700
H241	H24	0.313400	0.314000	0.025600
C271	C27	0.438900	0.436200	0.946400
C281	C28	0.351800	0.369700	0.001100
H251	H25	0.342300	0.362900	0.974700
C291	C29	0.398100	0.441400	0.977100
C301	C30	0.382400	0.409200	0.009700
C311	C31	0.374400	0.485000	0.971900
C321	C32	0.397800	0.418100	0.049400
H261	H26	0.418000	0.444500	0.055800
C331	C33	0.383300	0.388100	0.079000
H271	H27	0.395400	0.393800	0.105200
C341	C34	0.332200	0.318500	0.105000
C351	C35	0.478100	0.396500	0.938200
H281	H28	0.478400	0.390500	0.909900
H291	H29	0.462800	0.370800	0.952200
H301	H30	0.518000	0.402800	0.947100
C361	C36	0.328200	0.510100	0.995300
H311	H31	0.347200	0.533000	0.010900
H321	H32	0.307500	0.489700	0.012700
H331	H33	0.300200	0.523700	0.977100
O71	O7	0.357100	0.822300	0.637500
O81	O8	0.290200	0.790900	0.597170
N71	N7	0.401500	0.002500	0.440400
H341	H34	0.395300	0.029200	0.431700
N81	N8	0.440700	0.972800	0.423300
C371	C37	0.350800	0.849100	0.570900
C381	C38	0.335000	0.839800	0.531700
H351	H35	0.313400	0.814000	0.525600
C391	C39	0.438900	0.936200	0.446400
C401	C40	0.351800	0.869700	0.501100
H361	H36	0.342300	0.862900	0.474700
C411	C41	0.398100	0.941400	0.477100
C421	C42	0.382400	0.909200	0.509700
C431	C43	0.374400	0.985000	0.471900
C441	C44	0.397800	0.918100	0.549400
H371	H37	0.418000	0.944500	0.555800
C451	C45	0.383300	0.888100	0.579000
H381	H38	0.395400	0.893800	0.605200
C461	C46	0.332200	0.818500	0.605000
C471	C47	0.478100	0.896500	0.438200
H391	H39	0.478400	0.890500	0.409900
H401	H40	0.462800	0.870800	0.452200
H411	H41	0.518000	0.902800	0.447100
C481	C48	0.328200	0.010100	0.495300
H421	H42	0.347200	0.033000	0.510900
H431	H43	0.307500	0.989700	0.512700
H441	H44	0.300200	0.023700	0.477100
O91	O9	0.142900	0.677700	0.637500
O101	O10	0.209800	0.709100	0.597170
N91	N9	0.098500	0.497500	0.440400
H451	H45	0.104700	0.470800	0.431700
N101	N10	0.059300	0.527200	0.423300
C491	C49	0.149200	0.650900	0.570900
C501	C50	0.165000	0.660200	0.531700
H461	H46	0.186600	0.686000	0.525600
C511	C51	0.061100	0.563800	0.446400
C521	C52	0.148200	0.630300	0.501100
H471	H47	0.157700	0.637100	0.474700
C531	C53	0.101900	0.558600	0.477100
C541	C54	0.117600	0.590800	0.509700
C551	C55	0.125600	0.515000	0.471900
C561	C56	0.102200	0.581900	0.549400
H481	H48	0.082000	0.555500	0.555800
C571	C57	0.116700	0.611900	0.579000
H491	H49	0.104600	0.606200	0.605200
C581	C58	0.167800	0.681500	0.605000
C591	C59	0.021900	0.603500	0.438200
H501	H50	0.021600	0.609500	0.409900
H511	H51	0.037200	0.629200	0.452200
H521	H52	0.982000	0.597200	0.447100
C601	C60	0.171800	0.489900	0.495300
H531	H53	0.152800	0.467000	0.510900
H541	H54	0.192500	0.510300	0.512700
H551	H55	0.199800	0.476300	0.477100
O111	O11	0.142900	0.177700	0.137500
O121	O12	0.209800	0.209100	0.097170
N111	N11	0.098500	0.997500	0.940400
H561	H56	0.104700	0.970800	0.931700
N121	N12	0.059300	0.027200	0.923300
C611	C61	0.149200	0.150900	0.070900
C621	C62	0.165000	0.160200	0.031700
H571	H57	0.186600	0.186000	0.025600
C631	C63	0.061100	0.063800	0.946400
C641	C64	0.148200	0.130300	0.001100
H581	H58	0.157700	0.137100	0.974700
C651	C65	0.101900	0.058600	0.977100
C661	C66	0.117600	0.090800	0.009700
C671	C67	0.125600	0.015000	0.971900
C681	C68	0.102200	0.081900	0.049400
H591	H59	0.082000	0.055500	0.055800
C691	C69	0.116700	0.111900	0.079000
H601	H60	0.104600	0.106200	0.105200
C701	C70	0.167800	0.181500	0.105000
C711	C71	0.021900	0.103500	0.938200
H611	H61	0.021600	0.109500	0.909900
H621	H62	0.037200	0.129200	0.952200
H631	H63	0.982000	0.097200	0.947100
C721	C72	0.171800	0.989900	0.995300
H641	H64	0.152800	0.967000	0.010900
H651	H65	0.192500	0.010300	0.012700
H661	H66	0.199800	0.976300	0.977100
O131	O13	0.642900	0.677700	0.137500
O141	O14	0.709800	0.709100	0.097170
N131	N13	0.598500	0.497500	0.940400
H671	H67	0.604700	0.470800	0.931700
N141	N14	0.559300	0.527200	0.923300
C731	C73	0.649200	0.650900	0.070900
C741	C74	0.665000	0.660200	0.031700
H681	H68	0.686600	0.686000	0.025600
C751	C75	0.561100	0.563800	0.946400
C761	C76	0.648200	0.630300	0.001100
H691	H69	0.657700	0.637100	0.974700
C771	C77	0.601900	0.558600	0.977100
C781	C78	0.617600	0.590800	0.009700
C791	C79	0.625600	0.515000	0.971900
C801	C80	0.602200	0.581900	0.049400
H701	H70	0.582000	0.555500	0.055800
C811	C81	0.616700	0.611900	0.079000
H711	H71	0.604600	0.606200	0.105200
C821	C82	0.667800	0.681500	0.105000
C831	C83	0.521900	0.603500	0.938200
H721	H72	0.521600	0.609500	0.909900
H731	H73	0.537200	0.629200	0.952200
H741	H74	0.482000	0.597200	0.947100
C841	C84	0.671800	0.489900	0.995300
H751	H75	0.652800	0.467000	0.010900
H761	H76	0.692500	0.510300	0.012700
H771	H77	0.699800	0.476300	0.977100
O151	O15	0.642900	0.177700	0.637500
O161	O16	0.709800	0.209100	0.597170
N151	N15	0.598500	0.997500	0.440400
H781	H78	0.604700	0.970800	0.431700
N161	N16	0.559300	0.027200	0.423300
C851	C85	0.649200	0.150900	0.570900
C861	C86	0.665000	0.160200	0.531700
H791	H79	0.686600	0.186000	0.525600
C871	C87	0.561100	0.063800	0.446400
C881	C88	0.648200	0.130300	0.501100
H801	H80	0.657700	0.137100	0.474700
C891	C89	0.601900	0.058600	0.477100
C901	C90	0.617600	0.090800	0.509700
C911	C91	0.625600	0.015000	0.471900
C921	C92	0.602200	0.081900	0.549400
H811	H81	0.582000	0.055500	0.555800
C931	C93	0.616700	0.111900	0.579000
H821	H82	0.604600	0.106200	0.605200
C941	C94	0.667800	0.181500	0.605000
C951	C95	0.521900	0.103500	0.438200
H831	H83	0.521600	0.109500	0.409900
H841	H84	0.537200	0.129200	0.452200
H851	H85	0.482000	0.097200	0.447100
C961	C96	0.671800	0.989900	0.495300
H861	H86	0.652800	0.967000	0.510900
H871	H87	0.692500	0.010300	0.512700
H881	H88	0.699800	0.976300	0.477100
O171	O17	0.107100	0.927700	0.887500
O181	O18	0.040200	0.959100	0.847170
N171	N17	0.151500	0.747500	0.690400
H891	H89	0.145300	0.720800	0.681700
N181	N18	0.190700	0.777200	0.673300
C971	C97	0.100800	0.900900	0.820900
C981	C98	0.085000	0.910200	0.781700
H901	H90	0.063400	0.936000	0.775600
C991	C99	0.188900	0.813800	0.696400
C1001	C100	0.101800	0.880300	0.751100
H911	H91	0.092300	0.887100	0.724700
C1011	C101	0.148100	0.808600	0.727100
C1021	C102	0.132400	0.840800	0.759700
C1031	C103	0.124400	0.765000	0.721900
C1041	C104	0.147800	0.831900	0.799400
H921	H92	0.168000	0.805500	0.805800
C1051	C105	0.133300	0.861900	0.829000
H931	H93	0.145400	0.856200	0.855200
C1061	C106	0.082200	0.931500	0.855000
C1071	C107	0.228100	0.853500	0.688200
H941	H94	0.228400	0.859500	0.659900
H951	H95	0.212800	0.879200	0.702200
H961	H96	0.268000	0.847200	0.697100
C1081	C108	0.078200	0.739900	0.745300
H971	H97	0.097200	0.717000	0.760900
H981	H98	0.057500	0.760300	0.762700
H991	H99	0.050200	0.726300	0.727100
O191	O19	0.107100	0.427700	0.387500
O201	O20	0.040200	0.459100	0.347170
N191	N19	0.151500	0.247500	0.190400
H1001	H100	0.145300	0.220800	0.181700
N201	N20	0.190700	0.277200	0.173300
C1091	C109	0.100800	0.400900	0.320900
C1101	C110	0.085000	0.410200	0.281700
H1011	H101	0.063400	0.436000	0.275600
C1111	C111	0.188900	0.313800	0.196400
C1121	C112	0.101800	0.380300	0.251100
H1021	H102	0.092300	0.387100	0.224700
C1131	C113	0.148100	0.308600	0.227100
C1141	C114	0.132400	0.340800	0.259700
C1151	C115	0.124400	0.265000	0.221900
C1161	C116	0.147800	0.331900	0.299400
H1031	H103	0.168000	0.305500	0.305800
C1171	C117	0.133300	0.361900	0.329000
H1041	H104	0.145400	0.356200	0.355200
C1181	C118	0.082200	0.431500	0.355000
C1191	C119	0.228100	0.353500	0.188200
H1051	H105	0.228400	0.359500	0.159900
H1061	H106	0.212800	0.379200	0.202200
H1071	H107	0.268000	0.347200	0.197100
C1201	C120	0.078200	0.239900	0.245300
H1081	H108	0.097200	0.217000	0.260900
H1091	H109	0.057500	0.260300	0.262700
H1101	H110	0.050200	0.226300	0.227100
O211	O21	0.607100	0.927700	0.387500
O221	O22	0.540200	0.959100	0.347170
N211	N21	0.651500	0.747500	0.190400
H1111	H111	0.645300	0.720800	0.181700
N221	N22	0.690700	0.777200	0.173300
C1211	C121	0.600800	0.900900	0.320900
C1221	C122	0.585000	0.910200	0.281700
H1121	H112	0.563400	0.936000	0.275600
C1231	C123	0.688900	0.813800	0.196400
C1241	C124	0.601800	0.880300	0.251100
H1131	H113	0.592300	0.887100	0.224700
C1251	C125	0.648100	0.808600	0.227100
C1261	C126	0.632400	0.840800	0.259700
C1271	C127	0.624400	0.765000	0.221900
C1281	C128	0.647800	0.831900	0.299400
H1141	H114	0.668000	0.805500	0.305800
C1291	C129	0.633300	0.861900	0.329000
H1151	H115	0.645400	0.856200	0.355200
C1301	C130	0.582200	0.931500	0.355000
C1311	C131	0.728100	0.853500	0.188200
H1161	H116	0.728400	0.859500	0.159900
H1171	H117	0.712800	0.879200	0.202200
H1181	H118	0.768000	0.847200	0.197100
C1321	C132	0.578200	0.739900	0.245300
H1191	H119	0.597200	0.717000	0.260900
H1201	H120	0.557500	0.760300	0.262700
H1211	H121	0.550200	0.726300	0.227100
O231	O23	0.607100	0.427700	0.887500
O241	O24	0.540200	0.459100	0.847170
N231	N23	0.651500	0.247500	0.690400
H1221	H122	0.645300	0.220800	0.681700
N241	N24	0.690700	0.277200	0.673300
C1331	C133	0.600800	0.400900	0.820900
C1341	C134	0.585000	0.410200	0.781700
H1231	H123	0.563400	0.436000	0.775600
C1351	C135	0.688900	0.313800	0.696400
C1361	C136	0.601800	0.380300	0.751100
H1241	H124	0.592300	0.387100	0.724700
C1371	C137	0.648100	0.308600	0.727100
C1381	C138	0.632400	0.340800	0.759700
C1391	C139	0.624400	0.265000	0.721900
C1401	C140	0.647800	0.331900	0.799400
H1251	H125	0.668000	0.305500	0.805800
C1411	C141	0.633300	0.361900	0.829000
H1261	H126	0.645400	0.356200	0.855200
C1421	C142	0.582200	0.431500	0.855000
C1431	C143	0.728100	0.353500	0.688200
H1271	H127	0.728400	0.359500	0.659900
H1281	H128	0.712800	0.379200	0.702200
H1291	H129	0.768000	0.347200	0.697100
C1441	C144	0.578200	0.239900	0.745300
H1301	H130	0.597200	0.217000	0.760900
H1311	H131	0.557500	0.260300	0.762700
H1321	H132	0.550200	0.226300	0.727100
O251	O25	0.392900	0.572300	0.887500
O261	O26	0.459800	0.540900	0.847170
N251	N25	0.348500	0.752500	0.690400
H1331	H133	0.354700	0.779200	0.681700
N261	N26	0.309300	0.722800	0.673300
C1451	C145	0.399200	0.599100	0.820900
C1461	C146	0.415000	0.589800	0.781700
H1341	H134	0.436600	0.564000	0.775600
C1471	C147	0.311100	0.686200	0.696400
C1481	C148	0.398200	0.619700	0.751100
H1351	H135	0.407700	0.612900	0.724700
C1491	C149	0.351900	0.691400	0.727100
C1501	C150	0.367600	0.659200	0.759700
C1511	C151	0.375600	0.735000	0.721900
C1521	C152	0.352200	0.668100	0.799400
H1361	H136	0.332000	0.694500	0.805800
C1531	C153	0.366700	0.638100	0.829000
H1371	H137	0.354600	0.643800	0.855200
C1541	C154	0.417800	0.568500	0.855000
C1551	C155	0.271900	0.646500	0.688200
H1381	H138	0.271600	0.640500	0.659900
H1391	H139	0.287200	0.620800	0.702200
H1401	H140	0.232000	0.652800	0.697100
C1561	C156	0.421800	0.760100	0.745300
H1411	H141	0.402800	0.783000	0.760900
H1421	H142	0.442500	0.739700	0.762700
H1431	H143	0.449800	0.773700	0.727100
O271	O27	0.392900	0.072300	0.387500
O281	O28	0.459800	0.040900	0.347170
N271	N27	0.348500	0.252500	0.190400
H1441	H144	0.354700	0.279200	0.181700
N281	N28	0.309300	0.222800	0.173300
C1571	C157	0.399200	0.099100	0.320900
C1581	C158	0.415000	0.089800	0.281700
H1451	H145	0.436600	0.064000	0.275600
C1591	C159	0.311100	0.186200	0.196400
C1601	C160	0.398200	0.119700	0.251100
H1461	H146	0.407700	0.112900	0.224700
C1611	C161	0.351900	0.191400	0.227100
C1621	C162	0.367600	0.159200	0.259700
C1631	C163	0.375600	0.235000	0.221900
C1641	C164	0.352200	0.168100	0.299400
H1471	H147	0.332000	0.194500	0.305800
C1651	C165	0.366700	0.138100	0.329000
H1481	H148	0.354600	0.143800	0.355200
C1661	C166	0.417800	0.068500	0.355000
C1671	C167	0.271900	0.146500	0.188200
H1491	H149	0.271600	0.140500	0.159900
H1501	H150	0.287200	0.120800	0.202200
H1511	H151	0.232000	0.152800	0.197100
C1681	C168	0.421800	0.260100	0.245300
H1521	H152	0.402800	0.283000	0.260900
H1531	H153	0.442500	0.239700	0.262700
H1541	H154	0.449800	0.273700	0.227100
O291	O29	0.892900	0.572300	0.387500
O301	O30	0.959800	0.540900	0.347170
N291	N29	0.848500	0.752500	0.190400
H1551	H155	0.854700	0.779200	0.181700
N301	N30	0.809300	0.722800	0.173300
C1691	C169	0.899200	0.599100	0.320900
C1701	C170	0.915000	0.589800	0.281700
H1561	H156	0.936600	0.564000	0.275600
C1711	C171	0.811100	0.686200	0.196400
C1721	C172	0.898200	0.619700	0.251100
H1571	H157	0.907700	0.612900	0.224700
C1731	C173	0.851900	0.691400	0.227100
C1741	C174	0.867600	0.659200	0.259700
C1751	C175	0.875600	0.735000	0.221900
C1761	C176	0.852200	0.668100	0.299400
H1581	H158	0.832000	0.694500	0.305800
C1771	C177	0.866700	0.638100	0.329000
H1591	H159	0.854600	0.643800	0.355200
C1781	C178	0.917800	0.568500	0.355000
C1791	C179	0.771900	0.646500	0.188200
H1601	H160	0.771600	0.640500	0.159900
H1611	H161	0.787200	0.620800	0.202200
H1621	H162	0.732000	0.652800	0.197100
C1801	C180	0.921800	0.760100	0.245300
H1631	H163	0.902800	0.783000	0.260900
H1641	H164	0.942500	0.739700	0.262700
H1651	H165	0.949800	0.773700	0.227100
O311	O31	0.892900	0.072300	0.887500
O321	O32	0.959800	0.040900	0.847170
N311	N31	0.848500	0.252500	0.690400
H1661	H166	0.854700	0.279200	0.681700
N321	N32	0.809300	0.222800	0.673300
C1811	C181	0.899200	0.099100	0.820900
C1821	C182	0.915000	0.089800	0.781700
H1671	H167	0.936600	0.064000	0.775600
C1831	C183	0.811100	0.186200	0.696400
C1841	C184	0.898200	0.119700	0.751100
H1681	H168	0.907700	0.112900	0.724700
C1851	C185	0.851900	0.191400	0.727100
C1861	C186	0.867600	0.159200	0.759700
C1871	C187	0.875600	0.235000	0.721900
C1881	C188	0.852200	0.168100	0.799400
H1691	H169	0.832000	0.194500	0.805800
C1891	C189	0.866700	0.138100	0.829000
H1701	H170	0.854600	0.143800	0.855200
C1901	C190	0.917800	0.068500	0.855000
C1911	C191	0.771900	0.146500	0.688200
H1711	H171	0.771600	0.140500	0.659900
H1721	H172	0.787200	0.120800	0.702200
H1731	H173	0.732000	0.152800	0.697100
C1921	C192	0.921800	0.260100	0.745300
H1741	H174	0.902800	0.283000	0.760900
H1751	H175	0.942500	0.239700	0.762700
H1761	H176	0.949800	0.273700	0.727100
Zn11	Zn1	0.000000	0.500000	0.383460
Zn21	Zn2	0.000000	0.000000	0.883460
Zn31	Zn3	0.500000	0.500000	0.883460
Zn41	Zn4	0.500000	0.000000	0.383460
Zn51	Zn5	0.250000	0.750000	0.633460
Zn61	Zn6	0.250000	0.250000	0.133460
Zn71	Zn7	0.750000	0.750000	0.133460
Zn81	Zn8	0.750000	0.250000	0.633460
O331	O33	0.293900	0.708800	0.285300
O341	O34	0.385200	0.738500	0.290300
N331	N33	0.386200	0.540000	0.477900
H1771	H177	0.370100	0.525300	0.497300
N341	N34	0.444900	0.536900	0.467900
C1931	C193	0.360400	0.677100	0.331900
C1941	C194	0.324300	0.640000	0.338000
H1781	H178	0.291600	0.635200	0.321400
C1951	C195	0.452300	0.564800	0.437100
C1961	C196	0.336400	0.609900	0.368600
H1791	H179	0.311400	0.585300	0.372500
C1971	C197	0.398100	0.585000	0.426500
C1981	C198	0.385700	0.616300	0.393600
C1991	C199	0.356200	0.568500	0.454400
C2001	C200	0.422400	0.652700	0.386200
H1801	H180	0.455800	0.657200	0.402300
C2011	C201	0.410900	0.682400	0.355700
H1811	H181	0.437000	0.706100	0.350900
C2021	C202	0.346300	0.711100	0.300300
C2031	C203	0.512300	0.570300	0.417600
H1821	H182	0.517300	0.600900	0.409300
H1831	H183	0.514900	0.550800	0.394800
H1841	H184	0.543200	0.562600	0.436500
C2041	C204	0.291900	0.579300	0.460400
H1851	H185	0.268000	0.560700	0.443200
H1861	H186	0.285000	0.610300	0.454100
H1871	H187	0.281100	0.573700	0.487800
O351	O35	0.293900	0.208800	0.785300
O361	O36	0.385200	0.238500	0.790300
N351	N35	0.386200	0.040000	0.977900
H1881	H188	0.370100	0.025300	0.997300
N361	N36	0.444900	0.036900	0.967900
C2051	C205	0.360400	0.177100	0.831900
C2061	C206	0.324300	0.140000	0.838000
H1891	H189	0.291600	0.135200	0.821400
C2071	C207	0.452300	0.064800	0.937100
C2081	C208	0.336400	0.109900	0.868600
H1901	H190	0.311400	0.085300	0.872500
C2091	C209	0.398100	0.085000	0.926500
C2101	C210	0.385700	0.116300	0.893600
C2111	C211	0.356200	0.068500	0.954400
C2121	C212	0.422400	0.152700	0.886200
H1911	H191	0.455800	0.157200	0.902300
C2131	C213	0.410900	0.182400	0.855700
H1921	H192	0.437000	0.206100	0.850900
C2141	C214	0.346300	0.211100	0.800300
C2151	C215	0.512300	0.070300	0.917600
H1931	H193	0.517300	0.100900	0.909300
H1941	H194	0.514900	0.050800	0.894800
H1951	H195	0.543200	0.062600	0.936500
C2161	C216	0.291900	0.079300	0.960400
H1961	H196	0.268000	0.060700	0.943200
H1971	H197	0.285000	0.110300	0.954100
H1981	H198	0.281100	0.073700	0.987800
O371	O37	0.793900	0.708800	0.785300
O381	O38	0.885200	0.738500	0.790300
N371	N37	0.886200	0.540000	0.977900
H1991	H199	0.870100	0.525300	0.997300
N381	N38	0.944900	0.536900	0.967900
C2171	C217	0.860400	0.677100	0.831900
C2181	C218	0.824300	0.640000	0.838000
H2001	H200	0.791600	0.635200	0.821400
C2191	C219	0.952300	0.564800	0.937100
C2201	C220	0.836400	0.609900	0.868600
H2011	H201	0.811400	0.585300	0.872500
C2211	C221	0.898100	0.585000	0.926500
C2221	C222	0.885700	0.616300	0.893600
C2231	C223	0.856200	0.568500	0.954400
C2241	C224	0.922400	0.652700	0.886200
H2021	H202	0.955800	0.657200	0.902300
C2251	C225	0.910900	0.682400	0.855700
H2031	H203	0.937000	0.706100	0.850900
C2261	C226	0.846300	0.711100	0.800300
C2271	C227	0.012300	0.570300	0.917600
H2041	H204	0.017300	0.600900	0.909300
H2051	H205	0.014900	0.550800	0.894800
H2061	H206	0.043200	0.562600	0.936500
C2281	C228	0.791900	0.579300	0.960400
H2071	H207	0.768000	0.560700	0.943200
H2081	H208	0.785000	0.610300	0.954100
H2091	H209	0.781100	0.573700	0.987800
O391	O39	0.793900	0.208800	0.285300
O401	O40	0.885200	0.238500	0.290300
N391	N39	0.886200	0.040000	0.477900
H2101	H210	0.870100	0.025300	0.497300
N401	N40	0.944900	0.036900	0.467900
C2291	C229	0.860400	0.177100	0.331900
C2301	C230	0.824300	0.140000	0.338000
H2111	H211	0.791600	0.135200	0.321400
C2311	C231	0.952300	0.064800	0.437100
C2321	C232	0.836400	0.109900	0.368600
H2121	H212	0.811400	0.085300	0.372500
C2331	C233	0.898100	0.085000	0.426500
C2341	C234	0.885700	0.116300	0.393600
C2351	C235	0.856200	0.068500	0.454400
C2361	C236	0.922400	0.152700	0.386200
H2131	H213	0.955800	0.157200	0.402300
C2371	C237	0.910900	0.182400	0.355700
H2141	H214	0.937000	0.206100	0.350900
C2381	C238	0.846300	0.211100	0.300300
C2391	C239	0.012300	0.070300	0.417600
H2151	H215	0.017300	0.100900	0.409300
H2161	H216	0.014900	0.050800	0.394800
H2171	H217	0.043200	0.062600	0.436500
C2401	C240	0.791900	0.079300	0.460400
H2181	H218	0.768000	0.060700	0.443200
H2191	H219	0.785000	0.110300	0.454100
H2201	H220	0.781100	0.073700	0.487800
O411	O41	0.706100	0.291200	0.285300
O421	O42	0.614800	0.261500	0.290300
N411	N41	0.613800	0.460000	0.477900
H2211	H221	0.629900	0.474700	0.497300
N421	N42	0.555100	0.463100	0.467900
C2411	C241	0.639600	0.322900	0.331900
C2421	C242	0.675700	0.360000	0.338000
H2221	H222	0.708400	0.364800	0.321400
C2431	C243	0.547700	0.435200	0.437100
C2441	C244	0.663600	0.390100	0.368600
H2231	H223	0.688600	0.414700	0.372500
C2451	C245	0.601900	0.415000	0.426500
C2461	C246	0.614300	0.383700	0.393600
C2471	C247	0.643800	0.431500	0.454400
C2481	C248	0.577600	0.347300	0.386200
H2241	H224	0.544200	0.342800	0.402300
C2491	C249	0.589100	0.317600	0.355700
H2251	H225	0.563000	0.293900	0.350900
C2501	C250	0.653700	0.288900	0.300300
C2511	C251	0.487700	0.429700	0.417600
H2261	H226	0.482700	0.399100	0.409300
H2271	H227	0.485100	0.449200	0.394800
H2281	H228	0.456800	0.437400	0.436500
C2521	C252	0.708100	0.420700	0.460400
H2291	H229	0.732000	0.439300	0.443200
H2301	H230	0.715000	0.389700	0.454100
H2311	H231	0.718900	0.426300	0.487800
O431	O43	0.706100	0.791200	0.785300
O441	O44	0.614800	0.761500	0.790300
N431	N43	0.613800	0.960000	0.977900
H2321	H232	0.629900	0.974700	0.997300
N441	N44	0.555100	0.963100	0.967900
C2531	C253	0.639600	0.822900	0.831900
C2541	C254	0.675700	0.860000	0.838000
H2331	H233	0.708400	0.864800	0.821400
C2551	C255	0.547700	0.935200	0.937100
C2561	C256	0.663600	0.890100	0.868600
H2341	H234	0.688600	0.914700	0.872500
C2571	C257	0.601900	0.915000	0.926500
C2581	C258	0.614300	0.883700	0.893600
C2591	C259	0.643800	0.931500	0.954400
C2601	C260	0.577600	0.847300	0.886200
H2351	H235	0.544200	0.842800	0.902300
C2611	C261	0.589100	0.817600	0.855700
H2361	H236	0.563000	0.793900	0.850900
C2621	C262	0.653700	0.788900	0.800300
C2631	C263	0.487700	0.929700	0.917600
H2371	H237	0.482700	0.899100	0.909300
H2381	H238	0.485100	0.949200	0.894800
H2391	H239	0.456800	0.937400	0.936500
C2641	C264	0.708100	0.920700	0.960400
H2401	H240	0.732000	0.939300	0.943200
H2411	H241	0.715000	0.889700	0.954100
H2421	H242	0.718900	0.926300	0.987800
O451	O45	0.206100	0.291200	0.785300
O461	O46	0.114800	0.261500	0.790300
N451	N45	0.113800	0.460000	0.977900
H2431	H243	0.129900	0.474700	0.997300
N461	N46	0.055100	0.463100	0.967900
C2651	C265	0.139600	0.322900	0.831900
C2661	C266	0.175700	0.360000	0.838000
H2441	H244	0.208400	0.364800	0.821400
C2671	C267	0.047700	0.435200	0.937100
C2681	C268	0.163600	0.390100	0.868600
H2451	H245	0.188600	0.414700	0.872500
C2691	C269	0.101900	0.415000	0.926500
C2701	C270	0.114300	0.383700	0.893600
C2711	C271	0.143800	0.431500	0.954400
C2721	C272	0.077600	0.347300	0.886200
H2461	H246	0.044200	0.342800	0.902300
C2731	C273	0.089100	0.317600	0.855700
H2471	H247	0.063000	0.293900	0.850900
C2741	C274	0.153700	0.288900	0.800300
C2751	C275	0.987700	0.429700	0.917600
H2481	H248	0.982700	0.399100	0.909300
H2491	H249	0.985100	0.449200	0.894800
H2501	H250	0.956800	0.437400	0.936500
C2761	C276	0.208100	0.420700	0.960400
H2511	H251	0.232000	0.439300	0.943200
H2521	H252	0.215000	0.389700	0.954100
H2531	H253	0.218900	0.426300	0.987800
O471	O47	0.206100	0.791200	0.285300
O481	O48	0.114800	0.761500	0.290300
N471	N47	0.113800	0.960000	0.477900
H2541	H254	0.129900	0.974700	0.497300
N481	N48	0.055100	0.963100	0.467900
C2771	C277	0.139600	0.822900	0.331900
C2781	C278	0.175700	0.860000	0.338000
H2551	H255	0.208400	0.864800	0.321400
C2791	C279	0.047700	0.935200	0.437100
C2801	C280	0.163600	0.890100	0.368600
H2561	H256	0.188600	0.914700	0.372500
C2811	C281	0.101900	0.915000	0.426500
C2821	C282	0.114300	0.883700	0.393600
C2831	C283	0.143800	0.931500	0.454400
C2841	C284	0.077600	0.847300	0.386200
H2571	H257	0.044200	0.842800	0.402300
C2851	C285	0.089100	0.817600	0.355700
H2581	H258	0.063000	0.793900	0.350900
C2861	C286	0.153700	0.788900	0.300300
C2871	C287	0.987700	0.929700	0.417600
H2591	H259	0.982700	0.899100	0.409300
H2601	H260	0.985100	0.949200	0.394800
H2611	H261	0.956800	0.937400	0.436500
C2881	C288	0.208100	0.920700	0.460400
H2621	H262	0.232000	0.939300	0.443200
H2631	H263	0.215000	0.889700	0.454100
H2641	H264	0.218900	0.926300	0.487800
O491	O49	0.543900	0.541200	0.535300
O501	O50	0.635200	0.511500	0.540300
N491	N49	0.636200	0.710000	0.727900
H2651	H265	0.620100	0.724700	0.747300
N501	N50	0.694900	0.713100	0.717900
C2891	C289	0.610400	0.572900	0.581900
C2901	C290	0.574300	0.610000	0.588000
H2661	H266	0.541600	0.614800	0.571400
C2911	C291	0.702300	0.685200	0.687100
C2921	C292	0.586400	0.640100	0.618600
H2671	H267	0.561400	0.664700	0.622500
C2931	C293	0.648100	0.665000	0.676500
C2941	C294	0.635700	0.633700	0.643600
C2951	C295	0.606200	0.681500	0.704400
C2961	C296	0.672400	0.597300	0.636200
H2681	H268	0.705800	0.592800	0.652300
C2971	C297	0.660900	0.567600	0.605700
H2691	H269	0.687000	0.543900	0.600900
C2981	C298	0.596300	0.538900	0.550300
C2991	C299	0.762300	0.679700	0.667600
H2701	H270	0.767300	0.649100	0.659300
H2711	H271	0.764900	0.699200	0.644800
H2721	H272	0.793200	0.687400	0.686500
C3001	C300	0.541900	0.670700	0.710400
H2731	H273	0.518000	0.689300	0.693200
H2741	H274	0.535000	0.639700	0.704100
H2751	H275	0.531100	0.676300	0.737800
O511	O51	0.543900	0.041200	0.035300
O521	O52	0.635200	0.011500	0.040300
N511	N51	0.636200	0.210000	0.227900
H2761	H276	0.620100	0.224700	0.247300
N521	N52	0.694900	0.213100	0.217900
C3011	C301	0.610400	0.072900	0.081900
C3021	C302	0.574300	0.110000	0.088000
H2771	H277	0.541600	0.114800	0.071400
C3031	C303	0.702300	0.185200	0.187100
C3041	C304	0.586400	0.140100	0.118600
H2781	H278	0.561400	0.164700	0.122500
C3051	C305	0.648100	0.165000	0.176500
C3061	C306	0.635700	0.133700	0.143600
C3071	C307	0.606200	0.181500	0.204400
C3081	C308	0.672400	0.097300	0.136200
H2791	H279	0.705800	0.092800	0.152300
C3091	C309	0.660900	0.067600	0.105700
H2801	H280	0.687000	0.043900	0.100900
C3101	C310	0.596300	0.038900	0.050300
C3111	C311	0.762300	0.179700	0.167600
H2811	H281	0.767300	0.149100	0.159300
H2821	H282	0.764900	0.199200	0.144800
H2831	H283	0.793200	0.187400	0.186500
C3121	C312	0.541900	0.170700	0.210400
H2841	H284	0.518000	0.189300	0.193200
H2851	H285	0.535000	0.139700	0.204100
H2861	H286	0.531100	0.176300	0.237800
O531	O53	0.043900	0.541200	0.035300
O541	O54	0.135200	0.511500	0.040300
N531	N53	0.136200	0.710000	0.227900
H2871	H287	0.120100	0.724700	0.247300
N541	N54	0.194900	0.713100	0.217900
C3131	C313	0.110400	0.572900	0.081900
C3141	C314	0.074300	0.610000	0.088000
H2881	H288	0.041600	0.614800	0.071400
C3151	C315	0.202300	0.685200	0.187100
C3161	C316	0.086400	0.640100	0.118600
H2891	H289	0.061400	0.664700	0.122500
C3171	C317	0.148100	0.665000	0.176500
C3181	C318	0.135700	0.633700	0.143600
C3191	C319	0.106200	0.681500	0.204400
C3201	C320	0.172400	0.597300	0.136200
H2901	H290	0.205800	0.592800	0.152300
C3211	C321	0.160900	0.567600	0.105700
H2911	H291	0.187000	0.543900	0.100900
C3221	C322	0.096300	0.538900	0.050300
C3231	C323	0.262300	0.679700	0.167600
H2921	H292	0.267300	0.649100	0.159300
H2931	H293	0.264900	0.699200	0.144800
H2941	H294	0.293200	0.687400	0.186500
C3241	C324	0.041900	0.670700	0.210400
H2951	H295	0.018000	0.689300	0.193200
H2961	H296	0.035000	0.639700	0.204100
H2971	H297	0.031100	0.676300	0.237800
O551	O55	0.043900	0.041200	0.535300
O561	O56	0.135200	0.011500	0.540300
N551	N55	0.136200	0.210000	0.727900
H2981	H298	0.120100	0.224700	0.747300
N561	N56	0.194900	0.213100	0.717900
C3251	C325	0.110400	0.072900	0.581900
C3261	C326	0.074300	0.110000	0.588000
H2991	H299	0.041600	0.114800	0.571400
C3271	C327	0.202300	0.185200	0.687100
C3281	C328	0.086400	0.140100	0.618600
H3001	H300	0.061400	0.164700	0.622500
C3291	C329	0.148100	0.165000	0.676500
C3301	C330	0.135700	0.133700	0.643600
C3311	C331	0.106200	0.181500	0.704400
C3321	C332	0.172400	0.097300	0.636200
H3011	H301	0.205800	0.092800	0.652300
C3331	C333	0.160900	0.067600	0.605700
H3021	H302	0.187000	0.043900	0.600900
C3341	C334	0.096300	0.038900	0.550300
C3351	C335	0.262300	0.179700	0.667600
H3031	H303	0.267300	0.149100	0.659300
H3041	H304	0.264900	0.199200	0.644800
H3051	H305	0.293200	0.187400	0.686500
C3361	C336	0.041900	0.170700	0.710400
H3061	H306	0.018000	0.189300	0.693200
H3071	H307	0.035000	0.139700	0.704100
H3081	H308	0.031100	0.176300	0.737800
O571	O57	0.956100	0.958800	0.535300
O581	O58	0.864800	0.988500	0.540300
N571	N57	0.863800	0.790000	0.727900
H3091	H309	0.879900	0.775300	0.747300
N581	N58	0.805100	0.786900	0.717900
C3371	C337	0.889600	0.927100	0.581900
C3381	C338	0.925700	0.890000	0.588000
H3101	H310	0.958400	0.885200	0.571400
C3391	C339	0.797700	0.814800	0.687100
C3401	C340	0.913600	0.859900	0.618600
H3111	H311	0.938600	0.835300	0.622500
C3411	C341	0.851900	0.835000	0.676500
C3421	C342	0.864300	0.866300	0.643600
C3431	C343	0.893800	0.818500	0.704400
C3441	C344	0.827600	0.902700	0.636200
H3121	H312	0.794200	0.907200	0.652300
C3451	C345	0.839100	0.932400	0.605700
H3131	H313	0.813000	0.956100	0.600900
C3461	C346	0.903700	0.961100	0.550300
C3471	C347	0.737700	0.820300	0.667600
H3141	H314	0.732700	0.850900	0.659300
H3151	H315	0.735100	0.800800	0.644800
H3161	H316	0.706800	0.812600	0.686500
C3481	C348	0.958100	0.829300	0.710400
H3171	H317	0.982000	0.810700	0.693200
H3181	H318	0.965000	0.860300	0.704100
H3191	H319	0.968900	0.823700	0.737800
O591	O59	0.956100	0.458800	0.035300
O601	O60	0.864800	0.488500	0.040300
N591	N59	0.863800	0.290000	0.227900
H3201	H320	0.879900	0.275300	0.247300
N601	N60	0.805100	0.286900	0.217900
C3491	C349	0.889600	0.427100	0.081900
C3501	C350	0.925700	0.390000	0.088000
H3211	H321	0.958400	0.385200	0.071400
C3511	C351	0.797700	0.314800	0.187100
C3521	C352	0.913600	0.359900	0.118600
H3221	H322	0.938600	0.335300	0.122500
C3531	C353	0.851900	0.335000	0.176500
C3541	C354	0.864300	0.366300	0.143600
C3551	C355	0.893800	0.318500	0.204400
C3561	C356	0.827600	0.402700	0.136200
H3231	H323	0.794200	0.407200	0.152300
C3571	C357	0.839100	0.432400	0.105700
H3241	H324	0.813000	0.456100	0.100900
C3581	C358	0.903700	0.461100	0.050300
C3591	C359	0.737700	0.320300	0.167600
H3251	H325	0.732700	0.350900	0.159300
H3261	H326	0.735100	0.300800	0.144800
H3271	H327	0.706800	0.312600	0.186500
C3601	C360	0.958100	0.329300	0.210400
H3281	H328	0.982000	0.310700	0.193200
H3291	H329	0.965000	0.360300	0.204100
H3301	H330	0.968900	0.323700	0.237800
O611	O61	0.456100	0.958800	0.035300
O621	O62	0.364800	0.988500	0.040300
N611	N61	0.363800	0.790000	0.227900
H3311	H331	0.379900	0.775300	0.247300
N621	N62	0.305100	0.786900	0.217900
C3611	C361	0.389600	0.927100	0.081900
C3621	C362	0.425700	0.890000	0.088000
H3321	H332	0.458400	0.885200	0.071400
C3631	C363	0.297700	0.814800	0.187100
C3641	C364	0.413600	0.859900	0.118600
H3331	H333	0.438600	0.835300	0.122500
C3651	C365	0.351900	0.835000	0.176500
C3661	C366	0.364300	0.866300	0.143600
C3671	C367	0.393800	0.818500	0.204400
C3681	C368	0.327600	0.902700	0.136200
H3341	H334	0.294200	0.907200	0.152300
C3691	C369	0.339100	0.932400	0.105700
H3351	H335	0.313000	0.956100	0.100900
C3701	C370	0.403700	0.961100	0.050300
C3711	C371	0.237700	0.820300	0.167600
H3361	H336	0.232700	0.850900	0.159300
H3371	H337	0.235100	0.800800	0.144800
H3381	H338	0.206800	0.812600	0.186500
C3721	C372	0.458100	0.829300	0.210400
H3391	H339	0.482000	0.810700	0.193200
H3401	H340	0.465000	0.860300	0.204100
H3411	H341	0.468900	0.823700	0.237800
O631	O63	0.456100	0.458800	0.535300
O641	O64	0.364800	0.488500	0.540300
N631	N63	0.363800	0.290000	0.727900
H3421	H342	0.379900	0.275300	0.747300
N641	N64	0.305100	0.286900	0.717900
C3731	C373	0.389600	0.427100	0.581900
C3741	C374	0.425700	0.390000	0.588000
H3431	H343	0.458400	0.385200	0.571400
C3751	C375	0.297700	0.314800	0.687100
C3761	C376	0.413600	0.359900	0.618600
H3441	H344	0.438600	0.335300	0.622500
C3771	C377	0.351900	0.335000	0.676500
C3781	C378	0.364300	0.366300	0.643600
C3791	C379	0.393800	0.318500	0.704400
C3801	C380	0.327600	0.402700	0.636200
H3451	H345	0.294200	0.407200	0.652300
C3811	C381	0.339100	0.432400	0.605700
H3461	H346	0.313000	0.456100	0.600900
C3821	C382	0.403700	0.461100	0.550300
C3831	C383	0.237700	0.320300	0.667600
H3471	H347	0.232700	0.350900	0.659300
H3481	H348	0.235100	0.300800	0.644800
H3491	H349	0.206800	0.312600	0.686500
C3841	C384	0.458100	0.329300	0.710400
H3501	H350	0.482000	0.310700	0.693200
H3511	H351	0.465000	0.360300	0.704100
H3521	H352	0.468900	0.323700	0.737800
Zn91	Zn9	0.500000	0.500000	0.500500
Zn101	Zn10	0.500000	0.000000	0.000500
Zn111	Zn11	0.000000	0.500000	0.000500
Zn121	Zn12	0.000000	0.000000	0.500500
Zn131	Zn13	0.750000	0.750000	0.750500
Zn141	Zn14	0.750000	0.250000	0.250500
Zn151	Zn15	0.250000	0.750000	0.250500
Zn161	Zn16	0.250000	0.250000	0.750500
Zn171	Zn17	0.752060	0.504890	0.687070
O651	O65	0.949600	0.290000	0.900020
O661	O66	0.624400	0.265100	0.481500
O671	O67	0.867400	0.248800	0.886100
O681	O68	0.534900	0.298200	0.472730
N651	N65	0.854600	0.446700	0.698700
H3531	H353	0.867900	0.456700	0.676200
N661	N66	0.635100	0.467600	0.665700
H3541	H354	0.620300	0.480900	0.686300
N671	N67	0.804300	0.461700	0.716700
N681	N68	0.693800	0.470800	0.653900
C3851	C385	0.886100	0.314800	0.848700
C3861	C386	0.601800	0.330800	0.518800
C3871	C387	0.928900	0.345900	0.835300
H3551	H355	0.966800	0.346100	0.846800
C3881	C388	0.565400	0.367200	0.526300
H3561	H356	0.530800	0.370600	0.511100
C3891	C389	0.798300	0.437300	0.750300
C3901	C390	0.698800	0.445400	0.621400
C3911	C391	0.915500	0.376100	0.805400
H3571	H357	0.943900	0.397100	0.797600
C3921	C392	0.578200	0.398600	0.555200
H3581	H358	0.552600	0.422800	0.559100
C3931	C393	0.845500	0.407500	0.753200
C3941	C394	0.642300	0.425300	0.611100
C3951	C395	0.859700	0.375500	0.786600
C3961	C396	0.630400	0.394100	0.579300
C3971	C397	0.881200	0.414400	0.719900
C3981	C398	0.603500	0.440900	0.641000
C3991	C399	0.817300	0.344400	0.799600
H3591	H359	0.779800	0.343600	0.787500
C4001	C400	0.667700	0.357900	0.571400
H3601	H360	0.702700	0.354800	0.586200
C4011	C401	0.830500	0.314700	0.830300
H3611	H361	0.801500	0.294400	0.838800
C4021	C402	0.654700	0.326000	0.542200
H3621	H362	0.680300	0.301800	0.538000
C4031	C403	0.901100	0.282100	0.880600
C4041	C404	0.586500	0.295600	0.488800
C4051	C405	0.746600	0.444000	0.778100
H3631	H363	0.761200	0.452700	0.804000
H3641	H364	0.724500	0.416500	0.780400
H3651	H365	0.721000	0.467200	0.767800
C4061	C406	0.755700	0.443300	0.599200
H3661	H366	0.782700	0.423300	0.612600
H3671	H367	0.773100	0.472800	0.597900
H3681	H368	0.748300	0.432600	0.572500
C4071	C407	0.937100	0.391300	0.704900
H3691	H369	0.968400	0.413100	0.701400
H3701	H370	0.928900	0.377100	0.679700
H3711	H371	0.949600	0.369100	0.724000
C4081	C408	0.539000	0.432100	0.647900
H3721	H372	0.515900	0.445700	0.626900
H3731	H373	0.527300	0.444700	0.673200
H3741	H374	0.532000	0.400300	0.648100
Zn181	Zn18	0.752060	0.004890	0.187070
O691	O69	0.949600	0.790000	0.400020
O701	O70	0.624400	0.765100	0.981500
O711	O71	0.867400	0.748800	0.386100
O721	O72	0.534900	0.798200	0.972730
N691	N69	0.854600	0.946700	0.198700
H3751	H375	0.867900	0.956700	0.176200
N701	N70	0.635100	0.967600	0.165700
H3761	H376	0.620300	0.980900	0.186300
N711	N71	0.804300	0.961700	0.216700
N721	N72	0.693800	0.970800	0.153900
C4091	C409	0.886100	0.814800	0.348700
C4101	C410	0.601800	0.830800	0.018800
C4111	C411	0.928900	0.845900	0.335300
H3771	H377	0.966800	0.846100	0.346800
C4121	C412	0.565400	0.867200	0.026300
H3781	H378	0.530800	0.870600	0.011100
C4131	C413	0.798300	0.937300	0.250300
C4141	C414	0.698800	0.945400	0.121400
C4151	C415	0.915500	0.876100	0.305400
H3791	H379	0.943900	0.897100	0.297600
C4161	C416	0.578200	0.898600	0.055200
H3801	H380	0.552600	0.922800	0.059100
C4171	C417	0.845500	0.907500	0.253200
C4181	C418	0.642300	0.925300	0.111100
C4191	C419	0.859700	0.875500	0.286600
C4201	C420	0.630400	0.894100	0.079300
C4211	C421	0.881200	0.914400	0.219900
C4221	C422	0.603500	0.940900	0.141000
C4231	C423	0.817300	0.844400	0.299600
H3811	H381	0.779800	0.843600	0.287500
C4241	C424	0.667700	0.857900	0.071400
H3821	H382	0.702700	0.854800	0.086200
C4251	C425	0.830500	0.814700	0.330300
H3831	H383	0.801500	0.794400	0.338800
C4261	C426	0.654700	0.826000	0.042200
H3841	H384	0.680300	0.801800	0.038000
C4271	C427	0.901100	0.782100	0.380600
C4281	C428	0.586500	0.795600	0.988800
C4291	C429	0.746600	0.944000	0.278100
H3851	H385	0.761200	0.952700	0.304000
H3861	H386	0.724500	0.916500	0.280400
H3871	H387	0.721000	0.967200	0.267800
C4301	C430	0.755700	0.943300	0.099200
H3881	H388	0.782700	0.923300	0.112600
H3891	H389	0.773100	0.972800	0.097900
H3901	H390	0.748300	0.932600	0.072500
C4311	C431	0.937100	0.891300	0.204900
H3911	H391	0.968400	0.913100	0.201400
H3921	H392	0.928900	0.877100	0.179700
H3931	H393	0.949600	0.869100	0.224000
C4321	C432	0.539000	0.932100	0.147900
H3941	H394	0.515900	0.945700	0.126900
H3951	H395	0.527300	0.944700	0.173200
H3961	H396	0.532000	0.900300	0.148100
Zn191	Zn19	0.252060	0.504890	0.187070
O731	O73	0.449600	0.290000	0.400020
O741	O74	0.124400	0.265100	0.981500
O751	O75	0.367400	0.248800	0.386100
O761	O76	0.034900	0.298200	0.972730
N731	N73	0.354600	0.446700	0.198700
H3971	H397	0.367900	0.456700	0.176200
N741	N74	0.135100	0.467600	0.165700
H3981	H398	0.120300	0.480900	0.186300
N751	N75	0.304300	0.461700	0.216700
N761	N76	0.193800	0.470800	0.153900
C4331	C433	0.386100	0.314800	0.348700
C4341	C434	0.101800	0.330800	0.018800
C4351	C435	0.428900	0.345900	0.335300
H3991	H399	0.466800	0.346100	0.346800
C4361	C436	0.065400	0.367200	0.026300
H4001	H400	0.030800	0.370600	0.011100
C4371	C437	0.298300	0.437300	0.250300
C4381	C438	0.198800	0.445400	0.121400
C4391	C439	0.415500	0.376100	0.305400
H4011	H401	0.443900	0.397100	0.297600
C4401	C440	0.078200	0.398600	0.055200
H4021	H402	0.052600	0.422800	0.059100
C4411	C441	0.345500	0.407500	0.253200
C4421	C442	0.142300	0.425300	0.111100
C4431	C443	0.359700	0.375500	0.286600
C4441	C444	0.130400	0.394100	0.079300
C4451	C445	0.381200	0.414400	0.219900
C4461	C446	0.103500	0.440900	0.141000
C4471	C447	0.317300	0.344400	0.299600
H4031	H403	0.279800	0.343600	0.287500
C4481	C448	0.167700	0.357900	0.071400
H4041	H404	0.202700	0.354800	0.086200
C4491	C449	0.330500	0.314700	0.330300
H4051	H405	0.301500	0.294400	0.338800
C4501	C450	0.154700	0.326000	0.042200
H4061	H406	0.180300	0.301800	0.038000
C4511	C451	0.401100	0.282100	0.380600
C4521	C452	0.086500	0.295600	0.988800
C4531	C453	0.246600	0.444000	0.278100
H4071	H407	0.261200	0.452700	0.304000
H4081	H408	0.224500	0.416500	0.280400
H4091	H409	0.221000	0.467200	0.267800
C4541	C454	0.255700	0.443300	0.099200
H4101	H410	0.282700	0.423300	0.112600
H4111	H411	0.273100	0.472800	0.097900
H4121	H412	0.248300	0.432600	0.072500
C4551	C455	0.437100	0.391300	0.204900
H4131	H413	0.468400	0.413100	0.201400
H4141	H414	0.428900	0.377100	0.179700
H4151	H415	0.449600	0.369100	0.224000
C4561	C456	0.039000	0.432100	0.147900
H4161	H416	0.015900	0.445700	0.126900
H4171	H417	0.027300	0.444700	0.173200
H4181	H418	0.032000	0.400300	0.148100
Zn201	Zn20	0.252060	0.004890	0.687070
O771	O77	0.449600	0.790000	0.900020
O781	O78	0.124400	0.765100	0.481500
O791	O79	0.367400	0.748800	0.886100
O801	O80	0.034900	0.798200	0.472730
N771	N77	0.354600	0.946700	0.698700
H4191	H419	0.367900	0.956700	0.676200
N781	N78	0.135100	0.967600	0.665700
H4201	H420	0.120300	0.980900	0.686300
N791	N79	0.304300	0.961700	0.716700
N801	N80	0.193800	0.970800	0.653900
C4571	C457	0.386100	0.814800	0.848700
C4581	C458	0.101800	0.830800	0.518800
C4591	C459	0.428900	0.845900	0.835300
H4211	H421	0.466800	0.846100	0.846800
C4601	C460	0.065400	0.867200	0.526300
H4221	H422	0.030800	0.870600	0.511100
C4611	C461	0.298300	0.937300	0.750300
C4621	C462	0.198800	0.945400	0.621400
C4631	C463	0.415500	0.876100	0.805400
H4231	H423	0.443900	0.897100	0.797600
C4641	C464	0.078200	0.898600	0.555200
H4241	H424	0.052600	0.922800	0.559100
C4651	C465	0.345500	0.907500	0.753200
C4661	C466	0.142300	0.925300	0.611100
C4671	C467	0.359700	0.875500	0.786600
C4681	C468	0.130400	0.894100	0.579300
C4691	C469	0.381200	0.914400	0.719900
C4701	C470	0.103500	0.940900	0.641000
C4711	C471	0.317300	0.844400	0.799600
H4251	H425	0.279800	0.843600	0.787500
C4721	C472	0.167700	0.857900	0.571400
H4261	H426	0.202700	0.854800	0.586200
C4731	C473	0.330500	0.814700	0.830300
H4271	H427	0.301500	0.794400	0.838800
C4741	C474	0.154700	0.826000	0.542200
H4281	H428	0.180300	0.801800	0.538000
C4751	C475	0.401100	0.782100	0.880600
C4761	C476	0.086500	0.795600	0.488800
C4771	C477	0.246600	0.944000	0.778100
H4291	H429	0.261200	0.952700	0.804000
H4301	H430	0.224500	0.916500	0.780400
H4311	H431	0.221000	0.967200	0.767800
C4781	C478	0.255700	0.943300	0.599200
H4321	H432	0.282700	0.923300	0.612600
H4331	H433	0.273100	0.972800	0.597900
H4341	H434	0.248300	0.932600	0.572500
C4791	C479	0.437100	0.891300	0.704900
H4351	H435	0.468400	0.913100	0.701400
H4361	H436	0.428900	0.877100	0.679700
H4371	H437	0.449600	0.869100	0.724000
C4801	C480	0.039000	0.932100	0.647900
H4381	H438	0.015900	0.945700	0.626900
H4391	H439	0.027300	0.944700	0.673200
H4401	H440	0.032000	0.900300	0.648100
Zn211	Zn21	0.497940	0.754890	0.937070
O811	O81	0.300400	0.540000	0.150020
O821	O82	0.625600	0.515100	0.731500
O831	O83	0.382600	0.498800	0.136100
O841	O84	0.715100	0.548200	0.722730
N811	N81	0.395400	0.696700	0.948700
H4411	H441	0.382100	0.706700	0.926200
N821	N82	0.614900	0.717600	0.915700
H4421	H442	0.629700	0.730900	0.936300
N831	N83	0.445700	0.711700	0.966700
N841	N84	0.556200	0.720800	0.903900
C4811	C481	0.363900	0.564800	0.098700
C4821	C482	0.648200	0.580800	0.768800
C4831	C483	0.321100	0.595900	0.085300
H4431	H443	0.283200	0.596100	0.096800
C4841	C484	0.684600	0.617200	0.776300
H4441	H444	0.719200	0.620600	0.761100
C4851	C485	0.451700	0.687300	0.000300
C4861	C486	0.551200	0.695400	0.871400
C4871	C487	0.334500	0.626100	0.055400
H4451	H445	0.306100	0.647100	0.047600
C4881	C488	0.671800	0.648600	0.805200
H4461	H446	0.697400	0.672800	0.809100
C4891	C489	0.404500	0.657500	0.003200
C4901	C490	0.607700	0.675300	0.861100
C4911	C491	0.390300	0.625500	0.036600
C4921	C492	0.619600	0.644100	0.829300
C4931	C493	0.368800	0.664400	0.969900
C4941	C494	0.646500	0.690900	0.891000
C4951	C495	0.432700	0.594400	0.049600
H4471	H447	0.470200	0.593600	0.037500
C4961	C496	0.582300	0.607900	0.821400
H4481	H448	0.547300	0.604800	0.836200
C4971	C497	0.419500	0.564700	0.080300
H4491	H449	0.448500	0.544400	0.088800
C4981	C498	0.595300	0.576000	0.792200
H4501	H450	0.569700	0.551800	0.788000
C4991	C499	0.348900	0.532100	0.130600
C5001	C500	0.663500	0.545600	0.738800
C5011	C501	0.503400	0.694000	0.028100
H4511	H451	0.488800	0.702700	0.054000
H4521	H452	0.525500	0.666500	0.030400
H4531	H453	0.529000	0.717200	0.017800
C5021	C502	0.494300	0.693300	0.849200
H4541	H454	0.467300	0.673300	0.862600
H4551	H455	0.476900	0.722800	0.847900
H4561	H456	0.501700	0.682600	0.822500
C5031	C503	0.312900	0.641300	0.954900
H4571	H457	0.281600	0.663100	0.951400
H4581	H458	0.321100	0.627100	0.929700
H4591	H459	0.300400	0.619100	0.974000
C5041	C504	0.711000	0.682100	0.897900
H4601	H460	0.734100	0.695700	0.876900
H4611	H461	0.722700	0.694700	0.923200
H4621	H462	0.718000	0.650300	0.898100
Zn221	Zn22	0.497940	0.254890	0.437070
O851	O85	0.300400	0.040000	0.650020
O861	O86	0.625600	0.015100	0.231500
O871	O87	0.382600	0.998800	0.636100
O881	O88	0.715100	0.048200	0.222730
N851	N85	0.395400	0.196700	0.448700
H4631	H463	0.382100	0.206700	0.426200
N861	N86	0.614900	0.217600	0.415700
H4641	H464	0.629700	0.230900	0.436300
N871	N87	0.445700	0.211700	0.466700
N881	N88	0.556200	0.220800	0.403900
C5051	C505	0.363900	0.064800	0.598700
C5061	C506	0.648200	0.080800	0.268800
C5071	C507	0.321100	0.095900	0.585300
H4651	H465	0.283200	0.096100	0.596800
C5081	C508	0.684600	0.117200	0.276300
H4661	H466	0.719200	0.120600	0.261100
C5091	C509	0.451700	0.187300	0.500300
C5101	C510	0.551200	0.195400	0.371400
C5111	C511	0.334500	0.126100	0.555400
H4671	H467	0.306100	0.147100	0.547600
C5121	C512	0.671800	0.148600	0.305200
H4681	H468	0.697400	0.172800	0.309100
C5131	C513	0.404500	0.157500	0.503200
C5141	C514	0.607700	0.175300	0.361100
C5151	C515	0.390300	0.125500	0.536600
C5161	C516	0.619600	0.144100	0.329300
C5171	C517	0.368800	0.164400	0.469900
C5181	C518	0.646500	0.190900	0.391000
C5191	C519	0.432700	0.094400	0.549600
H4691	H469	0.470200	0.093600	0.537500
C5201	C520	0.582300	0.107900	0.321400
H4701	H470	0.547300	0.104800	0.336200
C5211	C521	0.419500	0.064700	0.580300
H4711	H471	0.448500	0.044400	0.588800
C5221	C522	0.595300	0.076000	0.292200
H4721	H472	0.569700	0.051800	0.288000
C5231	C523	0.348900	0.032100	0.630600
C5241	C524	0.663500	0.045600	0.238800
C5251	C525	0.503400	0.194000	0.528100
H4731	H473	0.488800	0.202700	0.554000
H4741	H474	0.525500	0.166500	0.530400
H4751	H475	0.529000	0.217200	0.517800
C5261	C526	0.494300	0.193300	0.349200
H4761	H476	0.467300	0.173300	0.362600
H4771	H477	0.476900	0.222800	0.347900
H4781	H478	0.501700	0.182600	0.322500
C5271	C527	0.312900	0.141300	0.454900
H4791	H479	0.281600	0.163100	0.451400
H4801	H480	0.321100	0.127100	0.429700
H4811	H481	0.300400	0.119100	0.474000
C5281	C528	0.711000	0.182100	0.397900
H4821	H482	0.734100	0.195700	0.376900
H4831	H483	0.722700	0.194700	0.423200
H4841	H484	0.718000	0.150300	0.398100
Zn231	Zn23	0.997940	0.754890	0.437070
O891	O89	0.800400	0.540000	0.650020
O901	O90	0.125600	0.515100	0.231500
O911	O91	0.882600	0.498800	0.636100
O921	O92	0.215100	0.548200	0.222730
N891	N89	0.895400	0.696700	0.448700
H4851	H485	0.882100	0.706700	0.426200
N901	N90	0.114900	0.717600	0.415700
H4861	H486	0.129700	0.730900	0.436300
N911	N91	0.945700	0.711700	0.466700
N921	N92	0.056200	0.720800	0.403900
C5291	C529	0.863900	0.564800	0.598700
C5301	C530	0.148200	0.580800	0.268800
C5311	C531	0.821100	0.595900	0.585300
H4871	H487	0.783200	0.596100	0.596800
C5321	C532	0.184600	0.617200	0.276300
H4881	H488	0.219200	0.620600	0.261100
C5331	C533	0.951700	0.687300	0.500300
C5341	C534	0.051200	0.695400	0.371400
C5351	C535	0.834500	0.626100	0.555400
H4891	H489	0.806100	0.647100	0.547600
C5361	C536	0.171800	0.648600	0.305200
H4901	H490	0.197400	0.672800	0.309100
C5371	C537	0.904500	0.657500	0.503200
C5381	C538	0.107700	0.675300	0.361100
C5391	C539	0.890300	0.625500	0.536600
C5401	C540	0.119600	0.644100	0.329300
C5411	C541	0.868800	0.664400	0.469900
C5421	C542	0.146500	0.690900	0.391000
C5431	C543	0.932700	0.594400	0.549600
H4911	H491	0.970200	0.593600	0.537500
C5441	C544	0.082300	0.607900	0.321400
H4921	H492	0.047300	0.604800	0.336200
C5451	C545	0.919500	0.564700	0.580300
H4931	H493	0.948500	0.544400	0.588800
C5461	C546	0.095300	0.576000	0.292200
H4941	H494	0.069700	0.551800	0.288000
C5471	C547	0.848900	0.532100	0.630600
C5481	C548	0.163500	0.545600	0.238800
C5491	C549	0.003400	0.694000	0.528100
H4951	H495	0.988800	0.702700	0.554000
H4961	H496	0.025500	0.666500	0.530400
H4971	H497	0.029000	0.717200	0.517800
C5501	C550	0.994300	0.693300	0.349200
H4981	H498	0.967300	0.673300	0.362600
H4991	H499	0.976900	0.722800	0.347900
H5001	H500	0.001700	0.682600	0.322500
C5511	C551	0.812900	0.641300	0.454900
H5011	H501	0.781600	0.663100	0.451400
H5021	H502	0.821100	0.627100	0.429700
H5031	H503	0.800400	0.619100	0.474000
C5521	C552	0.211000	0.682100	0.397900
H5041	H504	0.234100	0.695700	0.376900
H5051	H505	0.222700	0.694700	0.423200
H5061	H506	0.218000	0.650300	0.398100
Zn241	Zn24	0.997940	0.254890	0.937070
O931	O93	0.800400	0.040000	0.150020
O941	O94	0.125600	0.015100	0.731500
O951	O95	0.882600	0.998800	0.136100
O961	O96	0.215100	0.048200	0.722730
N931	N93	0.895400	0.196700	0.948700
H5071	H507	0.882100	0.206700	0.926200
N941	N94	0.114900	0.217600	0.915700
H5081	H508	0.129700	0.230900	0.936300
N951	N95	0.945700	0.211700	0.966700
N961	N96	0.056200	0.220800	0.903900
C5531	C553	0.863900	0.064800	0.098700
C5541	C554	0.148200	0.080800	0.768800
C5551	C555	0.821100	0.095900	0.085300
H5091	H509	0.783200	0.096100	0.096800
C5561	C556	0.184600	0.117200	0.776300
H5101	H510	0.219200	0.120600	0.761100
C5571	C557	0.951700	0.187300	0.000300
C5581	C558	0.051200	0.195400	0.871400
C5591	C559	0.834500	0.126100	0.055400
H5111	H511	0.806100	0.147100	0.047600
C5601	C560	0.171800	0.148600	0.805200
H5121	H512	0.197400	0.172800	0.809100
C5611	C561	0.904500	0.157500	0.003200
C5621	C562	0.107700	0.175300	0.861100
C5631	C563	0.890300	0.125500	0.036600
C5641	C564	0.119600	0.144100	0.829300
C5651	C565	0.868800	0.164400	0.969900
C5661	C566	0.146500	0.190900	0.891000
C5671	C567	0.932700	0.094400	0.049600
H5131	H513	0.970200	0.093600	0.037500
C5681	C568	0.082300	0.107900	0.821400
H5141	H514	0.047300	0.104800	0.836200
C5691	C569	0.919500	0.064700	0.080300
H5151	H515	0.948500	0.044400	0.088800
C5701	C570	0.095300	0.076000	0.792200
H5161	H516	0.069700	0.051800	0.788000
C5711	C571	0.848900	0.032100	0.130600
C5721	C572	0.163500	0.045600	0.738800
C5731	C573	0.003400	0.194000	0.028100
H5171	H517	0.988800	0.202700	0.054000
H5181	H518	0.025500	0.166500	0.030400
H5191	H519	0.029000	0.217200	0.017800
C5741	C574	0.994300	0.193300	0.849200
H5201	H520	0.967300	0.173300	0.862600
H5211	H521	0.976900	0.222800	0.847900
H5221	H522	0.001700	0.182600	0.822500
C5751	C575	0.812900	0.141300	0.954900
H5231	H523	0.781600	0.163100	0.951400
H5241	H524	0.821100	0.127100	0.929700
H5251	H525	0.800400	0.119100	0.974000
C5761	C576	0.211000	0.182100	0.897900
H5261	H526	0.234100	0.195700	0.876900
H5271	H527	0.222700	0.194700	0.923200
H5281	H528	0.218000	0.150300	0.898100
Zn251	Zn25	0.247940	0.495110	0.687070
O971	O97	0.050400	0.710000	0.900020
O981	O98	0.375600	0.734900	0.481500
O991	O99	0.132600	0.751200	0.886100
O1001	O100	0.465100	0.701800	0.472730
N971	N97	0.145400	0.553300	0.698700
H5291	H529	0.132100	0.543300	0.676200
N981	N98	0.364900	0.532400	0.665700
H5301	H530	0.379700	0.519100	0.686300
N991	N99	0.195700	0.538300	0.716700
N1001	N100	0.306200	0.529200	0.653900
C5771	C577	0.113900	0.685200	0.848700
C5781	C578	0.398200	0.669200	0.518800
C5791	C579	0.071100	0.654100	0.835300
H5311	H531	0.033200	0.653900	0.846800
C5801	C580	0.434600	0.632800	0.526300
H5321	H532	0.469200	0.629400	0.511100
C5811	C581	0.201700	0.562700	0.750300
C5821	C582	0.301200	0.554600	0.621400
C5831	C583	0.084500	0.623900	0.805400
H5331	H533	0.056100	0.602900	0.797600
C5841	C584	0.421800	0.601400	0.555200
H5341	H534	0.447400	0.577200	0.559100
C5851	C585	0.154500	0.592500	0.753200
C5861	C586	0.357700	0.574700	0.611100
C5871	C587	0.140300	0.624500	0.786600
C5881	C588	0.369600	0.605900	0.579300
C5891	C589	0.118800	0.585600	0.719900
C5901	C590	0.396500	0.559100	0.641000
C5911	C591	0.182700	0.655600	0.799600
H5351	H535	0.220200	0.656400	0.787500
C5921	C592	0.332300	0.642100	0.571400
H5361	H536	0.297300	0.645200	0.586200
C5931	C593	0.169500	0.685300	0.830300
H5371	H537	0.198500	0.705600	0.838800
C5941	C594	0.345300	0.674000	0.542200
H5381	H538	0.319700	0.698200	0.538000
C5951	C595	0.098900	0.717900	0.880600
C5961	C596	0.413500	0.704400	0.488800
C5971	C597	0.253400	0.556000	0.778100
H5391	H539	0.238800	0.547300	0.804000
H5401	H540	0.275500	0.583500	0.780400
H5411	H541	0.279000	0.532800	0.767800
C5981	C598	0.244300	0.556700	0.599200
H5421	H542	0.217300	0.576700	0.612600
H5431	H543	0.226900	0.527200	0.597900
H5441	H544	0.251700	0.567400	0.572500
C5991	C599	0.062900	0.608700	0.704900
H5451	H545	0.031600	0.586900	0.701400
H5461	H546	0.071100	0.622900	0.679700
H5471	H547	0.050400	0.630900	0.724000
C6001	C600	0.461000	0.567900	0.647900
H5481	H548	0.484100	0.554300	0.626900
H5491	H549	0.472700	0.555300	0.673200
H5501	H550	0.468000	0.599700	0.648100
Zn261	Zn26	0.247940	0.995110	0.187070
O1011	O101	0.050400	0.210000	0.400020
O1021	O102	0.375600	0.234900	0.981500
O1031	O103	0.132600	0.251200	0.386100
O1041	O104	0.465100	0.201800	0.972730
N1011	N101	0.145400	0.053300	0.198700
H5511	H551	0.132100	0.043300	0.176200
N1021	N102	0.364900	0.032400	0.165700
H5521	H552	0.379700	0.019100	0.186300
N1031	N103	0.195700	0.038300	0.216700
N1041	N104	0.306200	0.029200	0.153900
C6011	C601	0.113900	0.185200	0.348700
C6021	C602	0.398200	0.169200	0.018800
C6031	C603	0.071100	0.154100	0.335300
H5531	H553	0.033200	0.153900	0.346800
C6041	C604	0.434600	0.132800	0.026300
H5541	H554	0.469200	0.129400	0.011100
C6051	C605	0.201700	0.062700	0.250300
C6061	C606	0.301200	0.054600	0.121400
C6071	C607	0.084500	0.123900	0.305400
H5551	H555	0.056100	0.102900	0.297600
C6081	C608	0.421800	0.101400	0.055200
H5561	H556	0.447400	0.077200	0.059100
C6091	C609	0.154500	0.092500	0.253200
C6101	C610	0.357700	0.074700	0.111100
C6111	C611	0.140300	0.124500	0.286600
C6121	C612	0.369600	0.105900	0.079300
C6131	C613	0.118800	0.085600	0.219900
C6141	C614	0.396500	0.059100	0.141000
C6151	C615	0.182700	0.155600	0.299600
H5571	H557	0.220200	0.156400	0.287500
C6161	C616	0.332300	0.142100	0.071400
H5581	H558	0.297300	0.145200	0.086200
C6171	C617	0.169500	0.185300	0.330300
H5591	H559	0.198500	0.205600	0.338800
C6181	C618	0.345300	0.174000	0.042200
H5601	H560	0.319700	0.198200	0.038000
C6191	C619	0.098900	0.217900	0.380600
C6201	C620	0.413500	0.204400	0.988800
C6211	C621	0.253400	0.056000	0.278100
H5611	H561	0.238800	0.047300	0.304000
H5621	H562	0.275500	0.083500	0.280400
H5631	H563	0.279000	0.032800	0.267800
C6221	C622	0.244300	0.056700	0.099200
H5641	H564	0.217300	0.076700	0.112600
H5651	H565	0.226900	0.027200	0.097900
H5661	H566	0.251700	0.067400	0.072500
C6231	C623	0.062900	0.108700	0.204900
H5671	H567	0.031600	0.086900	0.201400
H5681	H568	0.071100	0.122900	0.179700
H5691	H569	0.050400	0.130900	0.224000
C6241	C624	0.461000	0.067900	0.147900
H5701	H570	0.484100	0.054300	0.126900
H5711	H571	0.472700	0.055300	0.173200
H5721	H572	0.468000	0.099700	0.148100
Zn271	Zn27	0.747940	0.495110	0.187070
O1051	O105	0.550400	0.710000	0.400020
O1061	O106	0.875600	0.734900	0.981500
O1071	O107	0.632600	0.751200	0.386100
O1081	O108	0.965100	0.701800	0.972730
N1051	N105	0.645400	0.553300	0.198700
H5731	H573	0.632100	0.543300	0.176200
N1061	N106	0.864900	0.532400	0.165700
H5741	H574	0.879700	0.519100	0.186300
N1071	N107	0.695700	0.538300	0.216700
N1081	N108	0.806200	0.529200	0.153900
C6251	C625	0.613900	0.685200	0.348700
C6261	C626	0.898200	0.669200	0.018800
C6271	C627	0.571100	0.654100	0.335300
H5751	H575	0.533200	0.653900	0.346800
C6281	C628	0.934600	0.632800	0.026300
H5761	H576	0.969200	0.629400	0.011100
C6291	C629	0.701700	0.562700	0.250300
C6301	C630	0.801200	0.554600	0.121400
C6311	C631	0.584500	0.623900	0.305400
H5771	H577	0.556100	0.602900	0.297600
C6321	C632	0.921800	0.601400	0.055200
H5781	H578	0.947400	0.577200	0.059100
C6331	C633	0.654500	0.592500	0.253200
C6341	C634	0.857700	0.574700	0.111100
C6351	C635	0.640300	0.624500	0.286600
C6361	C636	0.869600	0.605900	0.079300
C6371	C637	0.618800	0.585600	0.219900
C6381	C638	0.896500	0.559100	0.141000
C6391	C639	0.682700	0.655600	0.299600
H5791	H579	0.720200	0.656400	0.287500
C6401	C640	0.832300	0.642100	0.071400
H5801	H580	0.797300	0.645200	0.086200
C6411	C641	0.669500	0.685300	0.330300
H5811	H581	0.698500	0.705600	0.338800
C6421	C642	0.845300	0.674000	0.042200
H5821	H582	0.819700	0.698200	0.038000
C6431	C643	0.598900	0.717900	0.380600
C6441	C644	0.913500	0.704400	0.988800
C6451	C645	0.753400	0.556000	0.278100
H5831	H583	0.738800	0.547300	0.304000
H5841	H584	0.775500	0.583500	0.280400
H5851	H585	0.779000	0.532800	0.267800
C6461	C646	0.744300	0.556700	0.099200
H5861	H586	0.717300	0.576700	0.112600
H5871	H587	0.726900	0.527200	0.097900
H5881	H588	0.751700	0.567400	0.072500
C6471	C647	0.562900	0.608700	0.204900
H5891	H589	0.531600	0.586900	0.201400
H5901	H590	0.571100	0.622900	0.179700
H5911	H591	0.550400	0.630900	0.224000
C6481	C648	0.961000	0.567900	0.147900
H5921	H592	0.984100	0.554300	0.126900
H5931	H593	0.972700	0.555300	0.173200
H5941	H594	0.968000	0.599700	0.148100
Zn281	Zn28	0.747940	0.995110	0.687070
O1091	O109	0.550400	0.210000	0.900020
O1101	O110	0.875600	0.234900	0.481500
O1111	O111	0.632600	0.251200	0.886100
O1121	O112	0.965100	0.201800	0.472730
N1091	N109	0.645400	0.053300	0.698700
H5951	H595	0.632100	0.043300	0.676200
N1101	N110	0.864900	0.032400	0.665700
H5961	H596	0.879700	0.019100	0.686300
N1111	N111	0.695700	0.038300	0.716700
N1121	N112	0.806200	0.029200	0.653900
C6491	C649	0.613900	0.185200	0.848700
C6501	C650	0.898200	0.169200	0.518800
C6511	C651	0.571100	0.154100	0.835300
H5971	H597	0.533200	0.153900	0.846800
C6521	C652	0.934600	0.132800	0.526300
H5981	H598	0.969200	0.129400	0.511100
C6531	C653	0.701700	0.062700	0.750300
C6541	C654	0.801200	0.054600	0.621400
C6551	C655	0.584500	0.123900	0.805400
H5991	H599	0.556100	0.102900	0.797600
C6561	C656	0.921800	0.101400	0.555200
H6001	H600	0.947400	0.077200	0.559100
C6571	C657	0.654500	0.092500	0.753200
C6581	C658	0.857700	0.074700	0.611100
C6591	C659	0.640300	0.124500	0.786600
C6601	C660	0.869600	0.105900	0.579300
C6611	C661	0.618800	0.085600	0.719900
C6621	C662	0.896500	0.059100	0.641000
C6631	C663	0.682700	0.155600	0.799600
H6011	H601	0.720200	0.156400	0.787500
C6641	C664	0.832300	0.142100	0.571400
H6021	H602	0.797300	0.145200	0.586200
C6651	C665	0.669500	0.185300	0.830300
H6031	H603	0.698500	0.205600	0.838800
C6661	C666	0.845300	0.174000	0.542200
H6041	H604	0.819700	0.198200	0.538000
C6671	C667	0.598900	0.217900	0.880600
C6681	C668	0.913500	0.204400	0.488800
C6691	C669	0.753400	0.056000	0.778100
H6051	H605	0.738800	0.047300	0.804000
H6061	H606	0.775500	0.083500	0.780400
H6071	H607	0.779000	0.032800	0.767800
C6701	C670	0.744300	0.056700	0.599200
H6081	H608	0.717300	0.076700	0.612600
H6091	H609	0.726900	0.027200	0.597900
H6101	H610	0.751700	0.067400	0.572500
C6711	C671	0.562900	0.108700	0.704900
H6111	H611	0.531600	0.086900	0.701400
H6121	H612	0.571100	0.122900	0.679700
H6131	H613	0.550400	0.130900	0.724000
C6721	C672	0.961000	0.067900	0.647900
H6141	H614	0.984100	0.054300	0.626900
H6151	H615	0.972700	0.055300	0.673200
H6161	H616	0.968000	0.099700	0.648100
Zn291	Zn29	0.002060	0.745110	0.937070
O1131	O113	0.199600	0.960000	0.150020
O1141	O114	0.874400	0.984900	0.731500
O1151	O115	0.117400	0.001200	0.136100
O1161	O116	0.784900	0.951800	0.722730
N1131	N113	0.104600	0.803300	0.948700
H6171	H617	0.117900	0.793300	0.926200
N1141	N114	0.885100	0.782400	0.915700
H6181	H618	0.870300	0.769100	0.936300
N1151	N115	0.054300	0.788300	0.966700
N1161	N116	0.943800	0.779200	0.903900
C6731	C673	0.136100	0.935200	0.098700
C6741	C674	0.851800	0.919200	0.768800
C6751	C675	0.178900	0.904100	0.085300
H6191	H619	0.216800	0.903900	0.096800
C6761	C676	0.815400	0.882800	0.776300
H6201	H620	0.780800	0.879400	0.761100
C6771	C677	0.048300	0.812700	0.000300
C6781	C678	0.948800	0.804600	0.871400
C6791	C679	0.165500	0.873900	0.055400
H6211	H621	0.193900	0.852900	0.047600
C6801	C680	0.828200	0.851400	0.805200
H6221	H622	0.802600	0.827200	0.809100
C6811	C681	0.095500	0.842500	0.003200
C6821	C682	0.892300	0.824700	0.861100
C6831	C683	0.109700	0.874500	0.036600
C6841	C684	0.880400	0.855900	0.829300
C6851	C685	0.131200	0.835600	0.969900
C6861	C686	0.853500	0.809100	0.891000
C6871	C687	0.067300	0.905600	0.049600
H6231	H623	0.029800	0.906400	0.037500
C6881	C688	0.917700	0.892100	0.821400
H6241	H624	0.952700	0.895200	0.836200
C6891	C689	0.080500	0.935300	0.080300
H6251	H625	0.051500	0.955600	0.088800
C6901	C690	0.904700	0.924000	0.792200
H6261	H626	0.930300	0.948200	0.788000
C6911	C691	0.151100	0.967900	0.130600
C6921	C692	0.836500	0.954400	0.738800
C6931	C693	0.996600	0.806000	0.028100
H6271	H627	0.011200	0.797300	0.054000
H6281	H628	0.974500	0.833500	0.030400
H6291	H629	0.971000	0.782800	0.017800
C6941	C694	0.005700	0.806700	0.849200
H6301	H630	0.032700	0.826700	0.862600
H6311	H631	0.023100	0.777200	0.847900
H6321	H632	0.998300	0.817400	0.822500
C6951	C695	0.187100	0.858700	0.954900
H6331	H633	0.218400	0.836900	0.951400
H6341	H634	0.178900	0.872900	0.929700
H6351	H635	0.199600	0.880900	0.974000
C6961	C696	0.789000	0.817900	0.897900
H6361	H636	0.765900	0.804300	0.876900
H6371	H637	0.777300	0.805300	0.923200
H6381	H638	0.782000	0.849700	0.898100
Zn301	Zn30	0.002060	0.245110	0.437070
O1171	O117	0.199600	0.460000	0.650020
O1181	O118	0.874400	0.484900	0.231500
O1191	O119	0.117400	0.501200	0.636100
O1201	O120	0.784900	0.451800	0.222730
N1171	N117	0.104600	0.303300	0.448700
H6391	H639	0.117900	0.293300	0.426200
N1181	N118	0.885100	0.282400	0.415700
H6401	H640	0.870300	0.269100	0.436300
N1191	N119	0.054300	0.288300	0.466700
N1201	N120	0.943800	0.279200	0.403900
C6971	C697	0.136100	0.435200	0.598700
C6981	C698	0.851800	0.419200	0.268800
C6991	C699	0.178900	0.404100	0.585300
H6411	H641	0.216800	0.403900	0.596800
C7001	C700	0.815400	0.382800	0.276300
H6421	H642	0.780800	0.379400	0.261100
C7011	C701	0.048300	0.312700	0.500300
C7021	C702	0.948800	0.304600	0.371400
C7031	C703	0.165500	0.373900	0.555400
H6431	H643	0.193900	0.352900	0.547600
C7041	C704	0.828200	0.351400	0.305200
H6441	H644	0.802600	0.327200	0.309100
C7051	C705	0.095500	0.342500	0.503200
C7061	C706	0.892300	0.324700	0.361100
C7071	C707	0.109700	0.374500	0.536600
C7081	C708	0.880400	0.355900	0.329300
C7091	C709	0.131200	0.335600	0.469900
C7101	C710	0.853500	0.309100	0.391000
C7111	C711	0.067300	0.405600	0.549600
H6451	H645	0.029800	0.406400	0.537500
C7121	C712	0.917700	0.392100	0.321400
H6461	H646	0.952700	0.395200	0.336200
C7131	C713	0.080500	0.435300	0.580300
H6471	H647	0.051500	0.455600	0.588800
C7141	C714	0.904700	0.424000	0.292200
H6481	H648	0.930300	0.448200	0.288000
C7151	C715	0.151100	0.467900	0.630600
C7161	C716	0.836500	0.454400	0.238800
C7171	C717	0.996600	0.306000	0.528100
H6491	H649	0.011200	0.297300	0.554000
H6501	H650	0.974500	0.333500	0.530400
H6511	H651	0.971000	0.282800	0.517800
C7181	C718	0.005700	0.306700	0.349200
H6521	H652	0.032700	0.326700	0.362600
H6531	H653	0.023100	0.277200	0.347900
H6541	H654	0.998300	0.317400	0.322500
C7191	C719	0.187100	0.358700	0.454900
H6551	H655	0.218400	0.336900	0.451400
H6561	H656	0.178900	0.372900	0.429700
H6571	H657	0.199600	0.380900	0.474000
C7201	C720	0.789000	0.317900	0.397900
H6581	H658	0.765900	0.304300	0.376900
H6591	H659	0.777300	0.305300	0.423200
H6601	H660	0.782000	0.349700	0.398100
Zn311	Zn31	0.502060	0.745110	0.437070
O1211	O121	0.699600	0.960000	0.650020
O1221	O122	0.374400	0.984900	0.231500
O1231	O123	0.617400	0.001200	0.636100
O1241	O124	0.284900	0.951800	0.222730
N1211	N121	0.604600	0.803300	0.448700
H6611	H661	0.617900	0.793300	0.426200
N1221	N122	0.385100	0.782400	0.415700
H6621	H662	0.370300	0.769100	0.436300
N1231	N123	0.554300	0.788300	0.466700
N1241	N124	0.443800	0.779200	0.403900
C7211	C721	0.636100	0.935200	0.598700
C7221	C722	0.351800	0.919200	0.268800
C7231	C723	0.678900	0.904100	0.585300
H6631	H663	0.716800	0.903900	0.596800
C7241	C724	0.315400	0.882800	0.276300
H6641	H664	0.280800	0.879400	0.261100
C7251	C725	0.548300	0.812700	0.500300
C7261	C726	0.448800	0.804600	0.371400
C7271	C727	0.665500	0.873900	0.555400
H6651	H665	0.693900	0.852900	0.547600
C7281	C728	0.328200	0.851400	0.305200
H6661	H666	0.302600	0.827200	0.309100
C7291	C729	0.595500	0.842500	0.503200
C7301	C730	0.392300	0.824700	0.361100
C7311	C731	0.609700	0.874500	0.536600
C7321	C732	0.380400	0.855900	0.329300
C7331	C733	0.631200	0.835600	0.469900
C7341	C734	0.353500	0.809100	0.391000
C7351	C735	0.567300	0.905600	0.549600
H6671	H667	0.529800	0.906400	0.537500
C7361	C736	0.417700	0.892100	0.321400
H6681	H668	0.452700	0.895200	0.336200
C7371	C737	0.580500	0.935300	0.580300
H6691	H669	0.551500	0.955600	0.588800
C7381	C738	0.404700	0.924000	0.292200
H6701	H670	0.430300	0.948200	0.288000
C7391	C739	0.651100	0.967900	0.630600
C7401	C740	0.336500	0.954400	0.238800
C7411	C741	0.496600	0.806000	0.528100
H6711	H671	0.511200	0.797300	0.554000
H6721	H672	0.474500	0.833500	0.530400
H6731	H673	0.471000	0.782800	0.517800
C7421	C742	0.505700	0.806700	0.349200
H6741	H674	0.532700	0.826700	0.362600
H6751	H675	0.523100	0.777200	0.347900
H6761	H676	0.498300	0.817400	0.322500
C7431	C743	0.687100	0.858700	0.454900
H6771	H677	0.718400	0.836900	0.451400
H6781	H678	0.678900	0.872900	0.429700
H6791	H679	0.699600	0.880900	0.474000
C7441	C744	0.289000	0.817900	0.397900
H6801	H680	0.265900	0.804300	0.376900
H6811	H681	0.277300	0.805300	0.423200
H6821	H682	0.282000	0.849700	0.398100
Zn321	Zn32	0.502060	0.245110	0.937070
O1251	O125	0.699600	0.460000	0.150020
O1261	O126	0.374400	0.484900	0.731500
O1271	O127	0.617400	0.501200	0.136100
O1281	O128	0.284900	0.451800	0.722730
N1251	N125	0.604600	0.303300	0.948700
H6831	H683	0.617900	0.293300	0.926200
N1261	N126	0.385100	0.282400	0.915700
H6841	H684	0.370300	0.269100	0.936300
N1271	N127	0.554300	0.288300	0.966700
N1281	N128	0.443800	0.279200	0.903900
C7451	C745	0.636100	0.435200	0.098700
C7461	C746	0.351800	0.419200	0.768800
C7471	C747	0.678900	0.404100	0.085300
H6851	H685	0.716800	0.403900	0.096800
C7481	C748	0.315400	0.382800	0.776300
H6861	H686	0.280800	0.379400	0.761100
C7491	C749	0.548300	0.312700	0.000300
C7501	C750	0.448800	0.304600	0.871400
C7511	C751	0.665500	0.373900	0.055400
H6871	H687	0.693900	0.352900	0.047600
C7521	C752	0.328200	0.351400	0.805200
H6881	H688	0.302600	0.327200	0.809100
C7531	C753	0.595500	0.342500	0.003200
C7541	C754	0.392300	0.324700	0.861100
C7551	C755	0.609700	0.374500	0.036600
C7561	C756	0.380400	0.355900	0.829300
C7571	C757	0.631200	0.335600	0.969900
C7581	C758	0.353500	0.309100	0.891000
C7591	C759	0.567300	0.405600	0.049600
H6891	H689	0.529800	0.406400	0.037500
C7601	C760	0.417700	0.392100	0.821400
H6901	H690	0.452700	0.395200	0.836200
C7611	C761	0.580500	0.435300	0.080300
H6911	H691	0.551500	0.455600	0.088800
C7621	C762	0.404700	0.424000	0.792200
H6921	H692	0.430300	0.448200	0.788000
C7631	C763	0.651100	0.467900	0.130600
C7641	C764	0.336500	0.454400	0.738800
C7651	C765	0.496600	0.306000	0.028100
H6931	H693	0.511200	0.297300	0.054000
H6941	H694	0.474500	0.333500	0.030400
H6951	H695	0.471000	0.282800	0.017800
C7661	C766	0.505700	0.306700	0.849200
H6961	H696	0.532700	0.326700	0.862600
H6971	H697	0.523100	0.277200	0.847900
H6981	H698	0.498300	0.317400	0.822500
C7671	C767	0.687100	0.358700	0.954900
H6991	H699	0.718400	0.336900	0.951400
H7001	H700	0.678900	0.372900	0.929700
H7011	H701	0.699600	0.380900	0.974000
C7681	C768	0.289000	0.317900	0.897900
H7021	H702	0.265900	0.304300	0.876900
H7031	H703	0.277300	0.305300	0.923200
H7041	H704	0.282000	0.349700	0.898100
