data_NUCREJ_freeONLY_PM
_symmetry_space_group_name_H-M	'P1'
_cell_length_a	11.321000
_cell_length_b	11.321000
_cell_length_c	19.872000
_cell_angle_alpha	90.000000
_cell_angle_beta	90.000000
_cell_angle_gamma	120.000000
_symmetry_Int_Tables_number 1

loop_
_symmetry_equiv_pos_as_xyz
'x,y,z'

loop_
_atom_site_label
_atom_site_type_symbol
_atom_site_fract_x
_atom_site_fract_y
_atom_site_fract_z
Zn11	Zn1	0.110150	0.408380	0.778260
Zn21	Zn2	0.298230	0.889850	0.111590
Zn31	Zn3	0.591620	0.701770	0.444930
Zn41	Zn4	0.701770	0.591620	0.221740
Zn51	Zn5	0.408380	0.110150	0.888410
Zn61	Zn6	0.889850	0.298230	0.555070
Zn71	Zn7	0.621770	0.000000	0.500000
Zn81	Zn8	0.378230	0.378230	0.833330
Zn91	Zn9	0.000000	0.621770	0.166670
H11	H1	0.157500	0.710000	0.764500
H21	H2	0.203000	0.837500	0.661100
H31	H3	0.086900	0.179100	0.531700
H41	H4	0.318400	0.273900	0.571700
H51	H5	0.467800	0.474900	0.657800
H61	H6	0.422300	0.583300	0.668500
H71	H7	0.150000	0.720300	0.530800
H81	H8	0.209200	0.624000	0.522800
H91	H9	0.552500	0.842500	0.097830
H101	H10	0.634500	0.797000	0.994430
H111	H11	0.092200	0.913100	0.865030
H121	H12	0.955500	0.681600	0.905030
H131	H13	0.007100	0.532200	0.991130
H141	H14	0.161000	0.577700	0.001830
H151	H15	0.570300	0.850000	0.864130
H161	H16	0.414800	0.790800	0.856130
H171	H17	0.290000	0.447500	0.431170
H181	H18	0.162500	0.365500	0.327770
H191	H19	0.820900	0.907800	0.198370
H201	H20	0.726100	0.044500	0.238370
H211	H21	0.525100	0.992900	0.324470
H221	H22	0.416700	0.839000	0.335170
H231	H23	0.279700	0.429700	0.197470
H241	H24	0.376000	0.585200	0.189470
H251	H25	0.447500	0.290000	0.235500
H261	H26	0.365500	0.162500	0.338900
H271	H27	0.907800	0.820900	0.468300
H281	H28	0.044500	0.726100	0.428300
H291	H29	0.992900	0.525100	0.342200
H301	H30	0.839000	0.416700	0.331500
H311	H31	0.429700	0.279700	0.469200
H321	H32	0.585200	0.376000	0.477200
H331	H33	0.710000	0.157500	0.902170
H341	H34	0.837500	0.203000	0.005570
H351	H35	0.179100	0.086900	0.134970
H361	H36	0.273900	0.318400	0.094970
H371	H37	0.474900	0.467800	0.008870
H381	H38	0.583300	0.422300	0.998170
H391	H39	0.720300	0.150000	0.135870
H401	H40	0.624000	0.209200	0.143870
H411	H41	0.842500	0.552500	0.568830
H421	H42	0.797000	0.634500	0.672230
H431	H43	0.913100	0.092200	0.801630
H441	H44	0.681600	0.955500	0.761630
H451	H45	0.532200	0.007100	0.675530
H461	H46	0.577700	0.161000	0.664830
H471	H47	0.850000	0.570300	0.802530
H481	H48	0.790800	0.414800	0.810530
C11	C1	0.168000	0.680500	0.722400
C21	C2	0.192300	0.750900	0.665700
C31	C3	0.180000	0.555500	0.644900
C41	C4	0.186700	0.446500	0.610000
C51	C5	0.134600	0.259300	0.556400
C61	C6	0.262500	0.311400	0.578000
C71	C7	0.430600	0.525100	0.635300
C81	C8	0.529900	0.614000	0.581800
C91	C9	0.224100	0.706500	0.545100
C101	C10	0.378800	0.804100	0.535600
C111	C11	0.512500	0.832000	0.055730
C121	C12	0.558600	0.807700	0.999030
C131	C13	0.375500	0.820000	0.978230
C141	C14	0.259800	0.813300	0.943330
C151	C15	0.124700	0.865400	0.889730
C161	C16	0.048900	0.737500	0.911330
C171	C17	0.094500	0.569400	0.968630
C181	C18	0.084100	0.470100	0.915130
C191	C19	0.482400	0.775900	0.878430
C201	C20	0.425300	0.621200	0.868930
C211	C21	0.319500	0.487500	0.389070
C221	C22	0.249100	0.441400	0.332370
C231	C23	0.444500	0.624500	0.311570
C241	C24	0.553500	0.740200	0.276670
C251	C25	0.740700	0.875300	0.223070
C261	C26	0.688600	0.951100	0.244670
C271	C27	0.474900	0.905500	0.301970
C281	C28	0.386000	0.915900	0.248470
C291	C29	0.293500	0.517600	0.211770
C301	C30	0.195900	0.574700	0.202270
C311	C31	0.487500	0.319500	0.277600
C321	C32	0.441400	0.249100	0.334300
C331	C33	0.624500	0.444500	0.355100
C341	C34	0.740200	0.553500	0.390000
C351	C35	0.875300	0.740700	0.443600
C361	C36	0.951100	0.688600	0.422000
C371	C37	0.905500	0.474900	0.364700
C381	C38	0.915900	0.386000	0.418200
C391	C39	0.517600	0.293500	0.454900
C401	C40	0.574700	0.195900	0.464400
C411	C41	0.680500	0.168000	0.944270
C421	C42	0.750900	0.192300	0.000970
C431	C43	0.555500	0.180000	0.021770
C441	C44	0.446500	0.186700	0.056670
C451	C45	0.259300	0.134600	0.110270
C461	C46	0.311400	0.262500	0.088670
C471	C47	0.525100	0.430600	0.031370
C481	C48	0.614000	0.529900	0.084870
C491	C49	0.706500	0.224100	0.121570
C501	C50	0.804100	0.378800	0.131070
C511	C51	0.832000	0.512500	0.610930
C521	C52	0.807700	0.558600	0.667630
C531	C53	0.820000	0.375500	0.688430
C541	C54	0.813300	0.259800	0.723330
C551	C55	0.865400	0.124700	0.776930
C561	C56	0.737500	0.048900	0.755330
C571	C57	0.569400	0.094500	0.698030
C581	C58	0.470100	0.084100	0.751530
C591	C59	0.775900	0.482400	0.788230
C601	C60	0.621200	0.425300	0.797730
N11	N1	0.160800	0.559600	0.710000
N21	N2	0.198500	0.670900	0.614700
N31	N3	0.083000	0.342500	0.576300
N41	N4	0.296500	0.429300	0.610700
N51	N5	0.398800	0.839200	0.043330
N61	N6	0.472400	0.801500	0.948030
N71	N7	0.259500	0.917000	0.909630
N81	N8	0.132800	0.703500	0.944030
N91	N9	0.440400	0.601200	0.376670
N101	N10	0.329100	0.527600	0.281370
N111	N11	0.657500	0.740500	0.242970
N121	N12	0.570700	0.867200	0.277370
N131	N13	0.601200	0.440400	0.290000
N141	N14	0.527600	0.329100	0.385300
N151	N15	0.740500	0.657500	0.423700
N161	N16	0.867200	0.570700	0.389300
N171	N17	0.559600	0.160800	0.956670
N181	N18	0.670900	0.198500	0.051970
N191	N19	0.342500	0.083000	0.090370
N201	N20	0.429300	0.296500	0.055970
N211	N21	0.839200	0.398800	0.623330
N221	N22	0.801500	0.472400	0.718630
N231	N23	0.917000	0.259500	0.757030
N241	N24	0.703500	0.132800	0.722630
O11	O1	0.483100	0.594700	0.522000
O21	O2	0.645500	0.697900	0.599200
O31	O3	0.673100	0.893200	0.442900
O41	O4	0.463300	0.841000	0.584600
O51	O5	0.421600	0.854100	0.477500
O61	O6	0.111600	0.516900	0.855330
O71	O7	0.052400	0.354500	0.932530
O81	O8	0.220100	0.326900	0.776230
O91	O9	0.377700	0.536700	0.917930
O101	O10	0.432500	0.578400	0.810830
O111	O11	0.405300	0.888400	0.188670
O121	O12	0.302100	0.947600	0.265870
O131	O13	0.106800	0.779900	0.109570
O141	O14	0.159000	0.622300	0.251270
O151	O15	0.145900	0.567500	0.144170
O161	O16	0.888400	0.405300	0.478000
O171	O17	0.947600	0.302100	0.400800
O181	O18	0.779900	0.106800	0.557100
O191	O19	0.622300	0.159000	0.415400
O201	O20	0.567500	0.145900	0.522500
O211	O21	0.594700	0.483100	0.144670
O221	O22	0.697900	0.645500	0.067470
O231	O23	0.893200	0.673100	0.223770
O241	O24	0.841000	0.463300	0.082070
O251	O25	0.854100	0.421600	0.189170
O261	O26	0.516900	0.111600	0.811330
O271	O27	0.354500	0.052400	0.734130
O281	O28	0.326900	0.220100	0.890430
O291	O29	0.536700	0.377700	0.748730
O301	O30	0.578400	0.432500	0.855830
