data_NUDLIJ_freeONLY_PM
_symmetry_space_group_name_H-M	'P1'
_cell_length_a	10.860900
_cell_length_b	14.308800
_cell_length_c	17.019800
_cell_angle_alpha	90.000000
_cell_angle_beta	105.940000
_cell_angle_gamma	90.000000
_symmetry_Int_Tables_number 1

loop_
_symmetry_equiv_pos_as_xyz
'x,y,z'

loop_
_atom_site_label
_atom_site_type_symbol
_atom_site_fract_x
_atom_site_fract_y
_atom_site_fract_z
Mg11	Mg1	0.949620	0.470790	0.908530
Mg21	Mg2	0.249750	0.590830	0.999510
Mg31	Mg3	0.451950	0.531120	0.909900
N11	N1	0.875180	0.567410	0.804060
O11	O1	0.769370	0.509520	0.916530
O21	O2	0.587870	0.586200	0.860650
O31	O3	0.645600	0.851680	0.661600
O41	O4	0.765140	0.802900	0.581310
C11	C1	0.763660	0.608010	0.804950
C21	C2	0.709720	0.682010	0.754390
H11	H1	0.631000	0.709100	0.758600
C31	C3	0.772780	0.714410	0.698740
C41	C4	0.885330	0.670380	0.694810
H21	H2	0.928000	0.688200	0.657300
C51	C5	0.933260	0.597940	0.748900
H31	H3	0.009000	0.567100	0.749400
C61	C6	0.700500	0.565610	0.865560
C71	C7	0.723460	0.796260	0.642970
O51	O5	0.446900	0.579220	0.021750
H41	H4	0.476000	0.625800	0.035100
O61	O6	0.049180	0.580220	0.978640
H51	H5	0.021000	0.627800	0.963700
N21	N2	0.379920	0.429580	0.807280
O71	O7	0.267640	0.490360	0.915270
O81	O8	0.083230	0.420570	0.854340
O91	O9	0.148020	0.145530	0.663690
O101	O10	0.275770	0.191110	0.587470
C81	C8	0.263240	0.394130	0.802970
C91	C9	0.208490	0.320600	0.751780
H61	H6	0.125000	0.298000	0.751600
C101	C10	0.278000	0.281610	0.702670
C111	C11	0.397200	0.319070	0.705060
H71	H7	0.442000	0.296700	0.670600
C121	C12	0.444070	0.392670	0.758230
H81	H8	0.525000	0.419900	0.763100
C131	C13	0.198170	0.438220	0.861620
C141	C14	0.228500	0.198950	0.646710
Mg41	Mg4	0.550380	0.970790	0.591470
Mg51	Mg5	0.250250	0.090830	0.500490
Mg61	Mg6	0.048050	0.031120	0.590100
N31	N3	0.624820	0.067410	0.695940
O111	O11	0.730630	0.009520	0.583470
O121	O12	0.912130	0.086200	0.639350
O131	O13	0.854400	0.351680	0.838400
O141	O14	0.734860	0.302900	0.918690
C151	C15	0.736340	0.108010	0.695050
C161	C16	0.790280	0.182010	0.745610
H91	H9	0.869000	0.209100	0.741400
C171	C17	0.727220	0.214410	0.801260
C181	C18	0.614670	0.170380	0.805190
H101	H10	0.572000	0.188200	0.842700
C191	C19	0.566740	0.097940	0.751100
H111	H11	0.491000	0.067100	0.750600
C201	C20	0.799500	0.065610	0.634440
C211	C21	0.776540	0.296260	0.857030
O151	O15	0.053100	0.079220	0.478250
H121	H12	0.024000	0.125800	0.464900
O161	O16	0.450820	0.080220	0.521360
H131	H13	0.479000	0.127800	0.536300
N41	N4	0.120080	0.929580	0.692720
O171	O17	0.232360	0.990360	0.584730
O181	O18	0.416770	0.920570	0.645660
O191	O19	0.351980	0.645530	0.836310
O201	O20	0.224230	0.691110	0.912530
C221	C22	0.236760	0.894130	0.697030
C231	C23	0.291510	0.820600	0.748220
H141	H14	0.375000	0.798000	0.748400
C241	C24	0.222000	0.781610	0.797330
C251	C25	0.102800	0.819070	0.794940
H151	H15	0.058000	0.796700	0.829400
C261	C26	0.055930	0.892670	0.741770
H161	H16	0.975000	0.919900	0.736900
C271	C27	0.301830	0.938220	0.638380
C281	C28	0.271500	0.698950	0.853290
Mg71	Mg7	0.050380	0.529210	0.091470
Mg81	Mg8	0.750250	0.409170	0.000490
Mg91	Mg9	0.548050	0.468880	0.090100
N51	N5	0.124820	0.432590	0.195940
O211	O21	0.230630	0.490480	0.083470
O221	O22	0.412130	0.413800	0.139350
O231	O23	0.354400	0.148320	0.338400
O241	O24	0.234860	0.197100	0.418690
C291	C29	0.236340	0.391990	0.195050
C301	C30	0.290280	0.317990	0.245610
H171	H17	0.369000	0.290900	0.241400
C311	C31	0.227220	0.285590	0.301260
C321	C32	0.114670	0.329620	0.305190
H181	H18	0.072000	0.311800	0.342700
C331	C33	0.066740	0.402060	0.251100
H191	H19	0.991000	0.432900	0.250600
C341	C34	0.299500	0.434390	0.134440
C351	C35	0.276540	0.203740	0.357030
O251	O25	0.553100	0.420780	0.978250
H201	H20	0.524000	0.374200	0.964900
O261	O26	0.950820	0.419780	0.021360
H211	H21	0.979000	0.372200	0.036300
N61	N6	0.620080	0.570420	0.192720
O271	O27	0.732360	0.509640	0.084730
O281	O28	0.916770	0.579430	0.145660
O291	O29	0.851980	0.854470	0.336310
O301	O30	0.724230	0.808890	0.412530
C361	C36	0.736760	0.605870	0.197030
C371	C37	0.791510	0.679400	0.248220
H221	H22	0.875000	0.702000	0.248400
C381	C38	0.722000	0.718390	0.297330
C391	C39	0.602800	0.680930	0.294940
H231	H23	0.558000	0.703300	0.329400
C401	C40	0.555930	0.607330	0.241770
H241	H24	0.475000	0.580100	0.236900
C411	C41	0.801830	0.561780	0.138380
C421	C42	0.771500	0.801050	0.353290
Mg101	Mg10	0.449620	0.029210	0.408530
Mg111	Mg11	0.749750	0.909170	0.499510
Mg121	Mg12	0.951950	0.968880	0.409900
N71	N7	0.375180	0.932590	0.304060
O311	O31	0.269370	0.990480	0.416530
O321	O32	0.087870	0.913800	0.360650
O331	O33	0.145600	0.648320	0.161600
O341	O34	0.265140	0.697100	0.081310
C431	C43	0.263660	0.891990	0.304950
C441	C44	0.209720	0.817990	0.254390
H251	H25	0.131000	0.790900	0.258600
C451	C45	0.272780	0.785590	0.198740
C461	C46	0.385330	0.829620	0.194810
H261	H26	0.428000	0.811800	0.157300
C471	C47	0.433260	0.902060	0.248900
H271	H27	0.509000	0.932900	0.249400
C481	C48	0.200500	0.934390	0.365560
C491	C49	0.223460	0.703740	0.142970
O351	O35	0.946900	0.920780	0.521750
H281	H28	0.976000	0.874200	0.535100
O361	O36	0.549180	0.919780	0.478640
H291	H29	0.521000	0.872200	0.463700
N81	N8	0.879920	0.070420	0.307280
O371	O37	0.767640	0.009640	0.415270
O381	O38	0.583230	0.079430	0.354340
O391	O39	0.648020	0.354470	0.163690
O401	O40	0.775770	0.308890	0.087470
C501	C50	0.763240	0.105870	0.302970
C511	C51	0.708490	0.179400	0.251780
H301	H30	0.625000	0.202000	0.251600
C521	C52	0.778000	0.218390	0.202670
C531	C53	0.897200	0.180930	0.205060
H311	H31	0.942000	0.203300	0.170600
C541	C54	0.944070	0.107330	0.258230
H321	H32	0.025000	0.080100	0.263100
C551	C55	0.698170	0.061780	0.361620
C561	C56	0.728500	0.301050	0.146710
