data_NUDMUW_freeONLY_PM
_symmetry_space_group_name_H-M	'P1'
_cell_length_a	18.166700
_cell_length_b	12.517500
_cell_length_c	11.021000
_cell_angle_alpha	90.000000
_cell_angle_beta	102.672000
_cell_angle_gamma	90.000000
_symmetry_Int_Tables_number 1

loop_
_symmetry_equiv_pos_as_xyz
'x,y,z'

loop_
_atom_site_label
_atom_site_type_symbol
_atom_site_fract_x
_atom_site_fract_y
_atom_site_fract_z
Mg11	Mg1	0.084270	0.036320	0.040190
N11	N1	0.184110	0.931870	0.110370
O11	O1	0.075270	0.983680	0.218890
O21	O2	0.132100	0.909950	0.399360
O31	O3	0.354820	0.666030	0.370180
O41	O4	0.416920	0.711390	0.224040
O51	O5	0.979190	0.088400	0.054210
H11	H1	0.962100	0.149000	0.028000
C11	C1	0.188750	0.892010	0.226100
C21	C2	0.245130	0.824500	0.283800
H21	H2	0.246100	0.802000	0.355000
C31	C3	0.300730	0.795470	0.221800
C41	C4	0.297610	0.838200	0.104600
H31	H3	0.333500	0.821000	0.061000
C51	C5	0.238570	0.904800	0.052400
H41	H4	0.232200	0.932000	0.971000
C61	C6	0.126930	0.930490	0.287600
C71	C7	0.363310	0.717650	0.277500
Mg21	Mg2	0.584270	0.536320	0.040190
N21	N2	0.684110	0.431870	0.110370
O61	O6	0.575270	0.483680	0.218890
O71	O7	0.632100	0.409950	0.399360
O81	O8	0.854820	0.166030	0.370180
O91	O9	0.916920	0.211390	0.224040
O101	O10	0.479190	0.588400	0.054210
H51	H5	0.462100	0.649000	0.028000
C81	C8	0.688750	0.392010	0.226100
C91	C9	0.745130	0.324500	0.283800
H61	H6	0.746100	0.302000	0.355000
C101	C10	0.800730	0.295470	0.221800
C111	C11	0.797610	0.338200	0.104600
H71	H7	0.833500	0.321000	0.061000
C121	C12	0.738570	0.404800	0.052400
H81	H8	0.732200	0.432000	0.971000
C131	C13	0.626930	0.430490	0.287600
C141	C14	0.863310	0.217650	0.277500
Mg31	Mg3	0.915730	0.036320	0.459810
N31	N3	0.815890	0.931870	0.389630
O111	O11	0.924730	0.983680	0.281110
O121	O12	0.867900	0.909950	0.100640
O131	O13	0.645180	0.666030	0.129820
O141	O14	0.583080	0.711390	0.275960
O151	O15	0.020810	0.088400	0.445790
H91	H9	0.037900	0.149000	0.472000
C151	C15	0.811250	0.892010	0.273900
C161	C16	0.754870	0.824500	0.216200
H101	H10	0.753900	0.802000	0.145000
C171	C17	0.699270	0.795470	0.278200
C181	C18	0.702390	0.838200	0.395400
H111	H11	0.666500	0.821000	0.439000
C191	C19	0.761430	0.904800	0.447600
H121	H12	0.767800	0.932000	0.529000
C201	C20	0.873070	0.930490	0.212400
C211	C21	0.636690	0.717650	0.222500
Mg41	Mg4	0.415730	0.536320	0.459810
N41	N4	0.315890	0.431870	0.389630
O161	O16	0.424730	0.483680	0.281110
O171	O17	0.367900	0.409950	0.100640
O181	O18	0.145180	0.166030	0.129820
O191	O19	0.083080	0.211390	0.275960
O201	O20	0.520810	0.588400	0.445790
H131	H13	0.537900	0.649000	0.472000
C221	C22	0.311250	0.392010	0.273900
C231	C23	0.254870	0.324500	0.216200
H141	H14	0.253900	0.302000	0.145000
C241	C24	0.199270	0.295470	0.278200
C251	C25	0.202390	0.338200	0.395400
H151	H15	0.166500	0.321000	0.439000
C261	C26	0.261430	0.404800	0.447600
H161	H16	0.267800	0.432000	0.529000
C271	C27	0.373070	0.430490	0.212400
C281	C28	0.136690	0.217650	0.222500
Mg51	Mg5	0.915730	0.963680	0.959810
N51	N5	0.815890	0.068130	0.889630
O211	O21	0.924730	0.016320	0.781110
O221	O22	0.867900	0.090050	0.600640
O231	O23	0.645180	0.333970	0.629820
O241	O24	0.583080	0.288610	0.775960
O251	O25	0.020810	0.911600	0.945790
H171	H17	0.037900	0.851000	0.972000
C291	C29	0.811250	0.107990	0.773900
C301	C30	0.754870	0.175500	0.716200
H181	H18	0.753900	0.198000	0.645000
C311	C31	0.699270	0.204530	0.778200
C321	C32	0.702390	0.161800	0.895400
H191	H19	0.666500	0.179000	0.939000
C331	C33	0.761430	0.095200	0.947600
H201	H20	0.767800	0.068000	0.029000
C341	C34	0.873070	0.069510	0.712400
C351	C35	0.636690	0.282350	0.722500
Mg61	Mg6	0.415730	0.463680	0.959810
N61	N6	0.315890	0.568130	0.889630
O261	O26	0.424730	0.516320	0.781110
O271	O27	0.367900	0.590050	0.600640
O281	O28	0.145180	0.833970	0.629820
O291	O29	0.083080	0.788610	0.775960
O301	O30	0.520810	0.411600	0.945790
H211	H21	0.537900	0.351000	0.972000
C361	C36	0.311250	0.607990	0.773900
C371	C37	0.254870	0.675500	0.716200
H221	H22	0.253900	0.698000	0.645000
C381	C38	0.199270	0.704530	0.778200
C391	C39	0.202390	0.661800	0.895400
H231	H23	0.166500	0.679000	0.939000
C401	C40	0.261430	0.595200	0.947600
H241	H24	0.267800	0.568000	0.029000
C411	C41	0.373070	0.569510	0.712400
C421	C42	0.136690	0.782350	0.722500
Mg71	Mg7	0.084270	0.963680	0.540190
N71	N7	0.184110	0.068130	0.610370
O311	O31	0.075270	0.016320	0.718890
O321	O32	0.132100	0.090050	0.899360
O331	O33	0.354820	0.333970	0.870180
O341	O34	0.416920	0.288610	0.724040
O351	O35	0.979190	0.911600	0.554210
H251	H25	0.962100	0.851000	0.528000
C431	C43	0.188750	0.107990	0.726100
C441	C44	0.245130	0.175500	0.783800
H261	H26	0.246100	0.198000	0.855000
C451	C45	0.300730	0.204530	0.721800
C461	C46	0.297610	0.161800	0.604600
H271	H27	0.333500	0.179000	0.561000
C471	C47	0.238570	0.095200	0.552400
H281	H28	0.232200	0.068000	0.471000
C481	C48	0.126930	0.069510	0.787600
C491	C49	0.363310	0.282350	0.777500
Mg81	Mg8	0.584270	0.463680	0.540190
N81	N8	0.684110	0.568130	0.610370
O361	O36	0.575270	0.516320	0.718890
O371	O37	0.632100	0.590050	0.899360
O381	O38	0.854820	0.833970	0.870180
O391	O39	0.916920	0.788610	0.724040
O401	O40	0.479190	0.411600	0.554210
H291	H29	0.462100	0.351000	0.528000
C501	C50	0.688750	0.607990	0.726100
C511	C51	0.745130	0.675500	0.783800
H301	H30	0.746100	0.698000	0.855000
C521	C52	0.800730	0.704530	0.721800
C531	C53	0.797610	0.661800	0.604600
H311	H31	0.833500	0.679000	0.561000
C541	C54	0.738570	0.595200	0.552400
H321	H32	0.732200	0.568000	0.471000
C551	C55	0.626930	0.569510	0.787600
C561	C56	0.863310	0.782350	0.777500
Mg91	Mg9	0.000000	0.099150	0.250000
Mg101	Mg10	0.500000	0.599150	0.250000
Mg111	Mg11	0.000000	0.900850	0.750000
Mg121	Mg12	0.500000	0.400850	0.750000
