data_NUFBOH_freeONLY_PM
_symmetry_space_group_name_H-M	'P1'
_cell_length_a	18.343900
_cell_length_b	8.809000
_cell_length_c	23.438800
_cell_angle_alpha	90.000000
_cell_angle_beta	101.965000
_cell_angle_gamma	90.000000
_symmetry_Int_Tables_number 1

loop_
_symmetry_equiv_pos_as_xyz
'x,y,z'

loop_
_atom_site_label
_atom_site_type_symbol
_atom_site_fract_x
_atom_site_fract_y
_atom_site_fract_z
Zn11	Zn1	0.423470	0.703360	0.696660
O11	O1	0.439290	0.821600	0.622340
O21	O2	0.595600	0.595100	0.728670
O31	O3	0.815660	0.129700	0.652660
C11	C1	0.548610	0.299700	0.619710
H11	H1	0.496000	0.310500	0.609500
O41	O4	0.824190	0.350100	0.697560
O51	O5	0.483940	0.527500	0.676400
O61	O6	0.533260	0.973500	0.661520
C21	C2	0.583510	0.187500	0.593220
C31	C3	0.488640	0.917200	0.619090
C41	C4	0.667720	0.379900	0.675840
H21	H2	0.696500	0.445800	0.703900
C51	C5	0.553790	0.516400	0.691090
C61	C6	0.660760	0.172200	0.608080
H31	H3	0.684800	0.096400	0.589800
C71	C7	0.702860	0.267600	0.649670
C81	C8	0.543690	0.118100	0.489190
H41	H4	0.574100	0.200000	0.481700
C91	C9	0.590320	0.396400	0.661090
C101	C10	0.539590	0.087100	0.546920
C111	C11	0.494890	0.965900	0.557920
C121	C12	0.785910	0.247600	0.667210
H51	H5	0.490000	0.911000	0.778000
Zn21	Zn2	0.923470	0.203360	0.696660
O71	O7	0.939290	0.321600	0.622340
O81	O8	0.095600	0.095100	0.728670
O91	O9	0.315660	0.629700	0.652660
C131	C13	0.048610	0.799700	0.619710
H61	H6	0.996000	0.810500	0.609500
O101	O10	0.324190	0.850100	0.697560
O111	O11	0.983940	0.027500	0.676400
O121	O12	0.033260	0.473500	0.661520
C141	C14	0.083510	0.687500	0.593220
C151	C15	0.988640	0.417200	0.619090
C161	C16	0.167720	0.879900	0.675840
H71	H7	0.196500	0.945800	0.703900
C171	C17	0.053790	0.016400	0.691090
C181	C18	0.160760	0.672200	0.608080
H81	H8	0.184800	0.596400	0.589800
C191	C19	0.202860	0.767600	0.649670
C201	C20	0.043690	0.618100	0.489190
H91	H9	0.074100	0.700000	0.481700
C211	C21	0.090320	0.896400	0.661090
C221	C22	0.039590	0.587100	0.546920
C231	C23	0.994890	0.465900	0.557920
C241	C24	0.285910	0.747600	0.667210
H101	H10	0.990000	0.411000	0.778000
Zn31	Zn3	0.576530	0.703360	0.803340
O131	O13	0.560710	0.821600	0.877660
O141	O14	0.404400	0.595100	0.771330
O151	O15	0.184340	0.129700	0.847340
C251	C25	0.451390	0.299700	0.880290
H111	H11	0.504000	0.310500	0.890500
O161	O16	0.175810	0.350100	0.802440
O171	O17	0.516060	0.527500	0.823600
O181	O18	0.466740	0.973500	0.838480
C261	C26	0.416490	0.187500	0.906780
C271	C27	0.511360	0.917200	0.880910
C281	C28	0.332280	0.379900	0.824160
H121	H12	0.303500	0.445800	0.796100
C291	C29	0.446210	0.516400	0.808910
C301	C30	0.339240	0.172200	0.891920
H131	H13	0.315200	0.096400	0.910200
C311	C31	0.297140	0.267600	0.850330
C321	C32	0.456310	0.118100	0.010810
H141	H14	0.425900	0.200000	0.018300
C331	C33	0.409680	0.396400	0.838910
C341	C34	0.460410	0.087100	0.953080
C351	C35	0.505110	0.965900	0.942080
C361	C36	0.214090	0.247600	0.832790
H151	H15	0.510000	0.911000	0.722000
Zn41	Zn4	0.076530	0.203360	0.803340
O191	O19	0.060710	0.321600	0.877660
O201	O20	0.904400	0.095100	0.771330
O211	O21	0.684340	0.629700	0.847340
C371	C37	0.951390	0.799700	0.880290
H161	H16	0.004000	0.810500	0.890500
O221	O22	0.675810	0.850100	0.802440
O231	O23	0.016060	0.027500	0.823600
O241	O24	0.966740	0.473500	0.838480
C381	C38	0.916490	0.687500	0.906780
C391	C39	0.011360	0.417200	0.880910
C401	C40	0.832280	0.879900	0.824160
H171	H17	0.803500	0.945800	0.796100
C411	C41	0.946210	0.016400	0.808910
C421	C42	0.839240	0.672200	0.891920
H181	H18	0.815200	0.596400	0.910200
C431	C43	0.797140	0.767600	0.850330
C441	C44	0.956310	0.618100	0.010810
H191	H19	0.925900	0.700000	0.018300
C451	C45	0.909680	0.896400	0.838910
C461	C46	0.960410	0.587100	0.953080
C471	C47	0.005110	0.465900	0.942080
C481	C48	0.714090	0.747600	0.832790
H201	H20	0.010000	0.411000	0.722000
Zn51	Zn5	0.576530	0.296640	0.303340
O251	O25	0.560710	0.178400	0.377660
O261	O26	0.404400	0.404900	0.271330
O271	O27	0.184340	0.870300	0.347340
C491	C49	0.451390	0.700300	0.380290
H211	H21	0.504000	0.689500	0.390500
O281	O28	0.175810	0.649900	0.302440
O291	O29	0.516060	0.472500	0.323600
O301	O30	0.466740	0.026500	0.338480
C501	C50	0.416490	0.812500	0.406780
C511	C51	0.511360	0.082800	0.380910
C521	C52	0.332280	0.620100	0.324160
H221	H22	0.303500	0.554200	0.296100
C531	C53	0.446210	0.483600	0.308910
C541	C54	0.339240	0.827800	0.391920
H231	H23	0.315200	0.903600	0.410200
C551	C55	0.297140	0.732400	0.350330
C561	C56	0.456310	0.881900	0.510810
H241	H24	0.425900	0.800000	0.518300
C571	C57	0.409680	0.603600	0.338910
C581	C58	0.460410	0.912900	0.453080
C591	C59	0.505110	0.034100	0.442080
C601	C60	0.214090	0.752400	0.332790
H251	H25	0.510000	0.089000	0.222000
Zn61	Zn6	0.076530	0.796640	0.303340
O311	O31	0.060710	0.678400	0.377660
O321	O32	0.904400	0.904900	0.271330
O331	O33	0.684340	0.370300	0.347340
C611	C61	0.951390	0.200300	0.380290
H261	H26	0.004000	0.189500	0.390500
O341	O34	0.675810	0.149900	0.302440
O351	O35	0.016060	0.972500	0.323600
O361	O36	0.966740	0.526500	0.338480
C621	C62	0.916490	0.312500	0.406780
C631	C63	0.011360	0.582800	0.380910
C641	C64	0.832280	0.120100	0.324160
H271	H27	0.803500	0.054200	0.296100
C651	C65	0.946210	0.983600	0.308910
C661	C66	0.839240	0.327800	0.391920
H281	H28	0.815200	0.403600	0.410200
C671	C67	0.797140	0.232400	0.350330
C681	C68	0.956310	0.381900	0.510810
H291	H29	0.925900	0.300000	0.518300
C691	C69	0.909680	0.103600	0.338910
C701	C70	0.960410	0.412900	0.453080
C711	C71	0.005110	0.534100	0.442080
C721	C72	0.714090	0.252400	0.332790
H301	H30	0.010000	0.589000	0.222000
Zn71	Zn7	0.423470	0.296640	0.196660
O371	O37	0.439290	0.178400	0.122340
O381	O38	0.595600	0.404900	0.228670
O391	O39	0.815660	0.870300	0.152660
C731	C73	0.548610	0.700300	0.119710
H311	H31	0.496000	0.689500	0.109500
O401	O40	0.824190	0.649900	0.197560
O411	O41	0.483940	0.472500	0.176400
O421	O42	0.533260	0.026500	0.161520
C741	C74	0.583510	0.812500	0.093220
C751	C75	0.488640	0.082800	0.119090
C761	C76	0.667720	0.620100	0.175840
H321	H32	0.696500	0.554200	0.203900
C771	C77	0.553790	0.483600	0.191090
C781	C78	0.660760	0.827800	0.108080
H331	H33	0.684800	0.903600	0.089800
C791	C79	0.702860	0.732400	0.149670
C801	C80	0.543690	0.881900	0.989190
H341	H34	0.574100	0.800000	0.981700
C811	C81	0.590320	0.603600	0.161090
C821	C82	0.539590	0.912900	0.046920
C831	C83	0.494890	0.034100	0.057920
C841	C84	0.785910	0.752400	0.167210
H351	H35	0.490000	0.089000	0.278000
Zn81	Zn8	0.923470	0.796640	0.196660
O431	O43	0.939290	0.678400	0.122340
O441	O44	0.095600	0.904900	0.228670
O451	O45	0.315660	0.370300	0.152660
C851	C85	0.048610	0.200300	0.119710
H361	H36	0.996000	0.189500	0.109500
O461	O46	0.324190	0.149900	0.197560
O471	O47	0.983940	0.972500	0.176400
O481	O48	0.033260	0.526500	0.161520
C861	C86	0.083510	0.312500	0.093220
C871	C87	0.988640	0.582800	0.119090
C881	C88	0.167720	0.120100	0.175840
H371	H37	0.196500	0.054200	0.203900
C891	C89	0.053790	0.983600	0.191090
C901	C90	0.160760	0.327800	0.108080
H381	H38	0.184800	0.403600	0.089800
C911	C91	0.202860	0.232400	0.149670
C921	C92	0.043690	0.381900	0.989190
H391	H39	0.074100	0.300000	0.981700
C931	C93	0.090320	0.103600	0.161090
C941	C94	0.039590	0.412900	0.046920
C951	C95	0.994890	0.534100	0.057920
C961	C96	0.285910	0.252400	0.167210
H401	H40	0.990000	0.589000	0.278000
O491	O49	0.500000	0.844100	0.750000
O501	O50	0.000000	0.344100	0.750000
O511	O51	0.500000	0.155900	0.250000
O521	O52	0.000000	0.655900	0.250000
