data_NUGRIR_freeONLY_PM
_symmetry_space_group_name_H-M	'P1'
_cell_length_a	26.064300
_cell_length_b	26.064300
_cell_length_c	26.064300
_cell_angle_alpha	109.471000
_cell_angle_beta	109.471000
_cell_angle_gamma	109.471000
_symmetry_Int_Tables_number 1

loop_
_symmetry_equiv_pos_as_xyz
'x,y,z'

loop_
_atom_site_label
_atom_site_type_symbol
_atom_site_fract_x
_atom_site_fract_y
_atom_site_fract_z
Cu11	Cu1	0.440180	0.675890	0.876610
Cu21	Cu2	0.299280	0.563570	0.623390
Cu31	Cu3	0.200720	0.824110	0.264290
Cu41	Cu4	0.059820	0.936430	0.235710
Cu51	Cu5	0.764290	0.200720	0.324110
Cu61	Cu6	0.735710	0.059820	0.436430
Cu71	Cu7	0.376610	0.440180	0.175890
Cu81	Cu8	0.123390	0.299280	0.063570
Cu91	Cu9	0.563570	0.123390	0.799280
Cu101	Cu10	0.675890	0.376610	0.940180
Cu111	Cu11	0.936430	0.735710	0.559820
Cu121	Cu12	0.824110	0.764290	0.700720
Cu131	Cu13	0.063570	0.799280	0.123390
Cu141	Cu14	0.175890	0.940180	0.376610
Cu151	Cu15	0.436430	0.559820	0.735710
Cu161	Cu16	0.324110	0.700720	0.764290
Cu171	Cu17	0.940180	0.876610	0.675890
Cu181	Cu18	0.799280	0.623390	0.563570
Cu191	Cu19	0.700720	0.264290	0.824110
Cu201	Cu20	0.559820	0.235710	0.936430
Cu211	Cu21	0.264290	0.324110	0.200720
Cu221	Cu22	0.235710	0.436430	0.059820
Cu231	Cu23	0.876610	0.175890	0.440180
Cu241	Cu24	0.623390	0.063570	0.299280
Cu251	Cu25	0.463710	0.713710	0.750000
Cu261	Cu26	0.036290	0.786290	0.250000
Cu271	Cu27	0.750000	0.036290	0.286290
Cu281	Cu28	0.250000	0.463710	0.213710
Cu291	Cu29	0.713710	0.250000	0.963710
Cu301	Cu30	0.786290	0.750000	0.536290
Cu311	Cu31	0.213710	0.963710	0.250000
Cu321	Cu32	0.286290	0.536290	0.750000
Cu331	Cu33	0.963710	0.750000	0.713710
Cu341	Cu34	0.536290	0.250000	0.786290
Cu351	Cu35	0.250000	0.286290	0.036290
Cu361	Cu36	0.750000	0.213710	0.463710
H11	H1	0.485700	0.577700	0.903000
H21	H2	0.382700	0.638700	0.955400
H31	H3	0.395900	0.571600	0.000700
H41	H4	0.547000	0.830000	0.893600
H51	H5	0.507500	0.837100	0.739800
H61	H6	0.567700	0.945200	0.826300
H71	H7	0.174700	0.582700	0.597000
H81	H8	0.183300	0.427300	0.544600
H91	H9	0.070900	0.395200	0.499300
H101	H10	0.436400	0.653400	0.606400
H111	H11	0.597300	0.767700	0.760200
H121	H12	0.618900	0.741400	0.673700
H131	H13	0.325300	0.922300	0.408000
H141	H14	0.316700	0.861300	0.244000
H151	H15	0.429100	0.928400	0.324300
H161	H16	0.063600	0.670000	0.217000
H171	H17	0.902700	0.662900	0.170400
H181	H18	0.881100	0.554800	0.122500
H191	H19	0.014300	0.917300	0.092000
H201	H20	0.117300	0.072700	0.256000
H211	H21	0.104100	0.104800	0.175700
H221	H22	0.953000	0.846600	0.283000
H231	H23	0.992500	0.732300	0.329600
H241	H24	0.932300	0.758600	0.377500
H251	H25	0.908000	0.325300	0.422300
H261	H26	0.744000	0.316700	0.361300
H271	H27	0.824300	0.429100	0.428400
H281	H28	0.717000	0.063600	0.170000
H291	H29	0.670400	0.902700	0.162900
H301	H30	0.622500	0.881100	0.054800
H311	H31	0.592000	0.014300	0.417300
H321	H32	0.756000	0.117300	0.572700
H331	H33	0.675700	0.104100	0.604800
H341	H34	0.783000	0.953000	0.346600
H351	H35	0.829600	0.992500	0.232300
H361	H36	0.877500	0.932300	0.258600
H371	H37	0.403000	0.485700	0.077700
H381	H38	0.455400	0.382700	0.138700
H391	H39	0.500700	0.395900	0.071600
H401	H40	0.393600	0.547000	0.330000
H411	H41	0.239800	0.507500	0.337100
H421	H42	0.326300	0.567700	0.445200
H431	H43	0.097000	0.174700	0.082700
H441	H44	0.044600	0.183300	0.927300
H451	H45	0.999300	0.070900	0.895200
H461	H46	0.106400	0.436400	0.153400
H471	H47	0.260200	0.597300	0.267700
H481	H48	0.173700	0.618900	0.241400
H491	H49	0.582700	0.097000	0.674700
H501	H50	0.427300	0.044600	0.683300
H511	H51	0.395200	0.999300	0.570900
H521	H52	0.653400	0.106400	0.936400
H531	H53	0.767700	0.260200	0.097300
H541	H54	0.741400	0.173700	0.118900
H551	H55	0.577700	0.403000	0.985700
H561	H56	0.638700	0.455400	0.882700
H571	H57	0.571600	0.500700	0.895900
H581	H58	0.830000	0.393600	0.047000
H591	H59	0.837100	0.239800	0.007500
H601	H60	0.945200	0.326300	0.067700
H611	H61	0.917300	0.592000	0.514300
H621	H62	0.072700	0.756000	0.617300
H631	H63	0.104800	0.675700	0.604100
H641	H64	0.846600	0.783000	0.453000
H651	H65	0.732300	0.829600	0.492500
H661	H66	0.758600	0.877500	0.432300
H671	H67	0.922300	0.908000	0.825300
H681	H68	0.861300	0.744000	0.816700
H691	H69	0.928400	0.824300	0.929100
H701	H70	0.670000	0.717000	0.563600
H711	H71	0.662900	0.670400	0.402700
H721	H72	0.554800	0.622500	0.381100
H731	H73	0.082700	0.674700	0.097000
H741	H74	0.927300	0.683300	0.044600
H751	H75	0.895200	0.570900	0.999300
H761	H76	0.153400	0.936400	0.106400
H771	H77	0.267700	0.097300	0.260200
H781	H78	0.241400	0.118900	0.173700
H791	H79	0.077700	0.985700	0.403000
H801	H80	0.138700	0.882700	0.455400
H811	H81	0.071600	0.895900	0.500700
H821	H82	0.330000	0.047000	0.393600
H831	H83	0.337100	0.007500	0.239800
H841	H84	0.445200	0.067700	0.326300
H851	H85	0.417300	0.514300	0.592000
H861	H86	0.572700	0.617300	0.756000
H871	H87	0.604800	0.604100	0.675700
H881	H88	0.346600	0.453000	0.783000
H891	H89	0.232300	0.492500	0.829600
H901	H90	0.258600	0.432300	0.877500
H911	H91	0.422300	0.825300	0.908000
H921	H92	0.361300	0.816700	0.744000
H931	H93	0.428400	0.929100	0.824300
H941	H94	0.170000	0.563600	0.717000
H951	H95	0.162900	0.402700	0.670400
H961	H96	0.054800	0.381100	0.622500
H971	H97	0.985700	0.903000	0.577700
H981	H98	0.882700	0.955400	0.638700
H991	H99	0.895900	0.000700	0.571600
H1001	H100	0.047000	0.893600	0.830000
H1011	H101	0.007500	0.739800	0.837100
H1021	H102	0.067700	0.826300	0.945200
H1031	H103	0.674700	0.597000	0.582700
H1041	H104	0.683300	0.544600	0.427300
H1051	H105	0.570900	0.499300	0.395200
H1061	H106	0.936400	0.606400	0.653400
H1071	H107	0.097300	0.760200	0.767700
H1081	H108	0.118900	0.673700	0.741400
H1091	H109	0.825300	0.408000	0.922300
H1101	H110	0.816700	0.244000	0.861300
H1111	H111	0.929100	0.324300	0.928400
H1121	H112	0.563600	0.217000	0.670000
H1131	H113	0.402700	0.170400	0.662900
H1141	H114	0.381100	0.122500	0.554800
H1151	H115	0.514300	0.092000	0.917300
H1161	H116	0.617300	0.256000	0.072700
H1171	H117	0.604100	0.175700	0.104800
H1181	H118	0.453000	0.283000	0.846600
H1191	H119	0.492500	0.329600	0.732300
H1201	H120	0.432300	0.377500	0.758600
H1211	H121	0.408000	0.422300	0.325300
H1221	H122	0.244000	0.361300	0.316700
H1231	H123	0.324300	0.428400	0.429100
H1241	H124	0.217000	0.170000	0.063600
H1251	H125	0.170400	0.162900	0.902700
H1261	H126	0.122500	0.054800	0.881100
H1271	H127	0.092000	0.417300	0.014300
H1281	H128	0.256000	0.572700	0.117300
H1291	H129	0.175700	0.604800	0.104100
H1301	H130	0.283000	0.346600	0.953000
H1311	H131	0.329600	0.232300	0.992500
H1321	H132	0.377500	0.258600	0.932300
H1331	H133	0.903000	0.077700	0.485700
H1341	H134	0.955400	0.138700	0.382700
H1351	H135	0.000700	0.071600	0.395900
H1361	H136	0.893600	0.330000	0.547000
H1371	H137	0.739800	0.337100	0.507500
H1381	H138	0.826300	0.445200	0.567700
H1391	H139	0.597000	0.082700	0.174700
H1401	H140	0.544600	0.927300	0.183300
H1411	H141	0.499300	0.895200	0.070900
H1421	H142	0.606400	0.153400	0.436400
H1431	H143	0.760200	0.267700	0.597300
H1441	H144	0.673700	0.241400	0.618900
W11	W1	0.375000	0.625000	0.750000
W21	W2	0.125000	0.875000	0.250000
W31	W3	0.750000	0.125000	0.375000
W41	W4	0.250000	0.375000	0.125000
W51	W5	0.625000	0.250000	0.875000
W61	W6	0.875000	0.750000	0.625000
C11	C1	0.463600	0.586600	0.922800
C21	C2	0.406000	0.618900	0.951100
C31	C3	0.413400	0.582600	0.977600
C41	C4	0.475000	0.529100	0.976700
C51	C5	0.543900	0.845400	0.865900
C61	C6	0.522000	0.849600	0.782200
C71	C7	0.556200	0.908700	0.828900
C81	C8	0.607500	0.953300	0.944600
C91	C9	0.163800	0.540800	0.577200
C101	C10	0.167800	0.454900	0.548900
C111	C11	0.105000	0.435800	0.522400
C121	C12	0.052400	0.498300	0.523300
C131	C13	0.479500	0.678000	0.634100
C141	C14	0.567400	0.739800	0.717800
C151	C15	0.579800	0.727300	0.671100
C161	C16	0.508700	0.662900	0.555400
C171	C17	0.336200	0.913400	0.377000
C181	C18	0.332200	0.881100	0.287100
C191	C19	0.395000	0.917400	0.330800
C201	C20	0.447600	0.970900	0.445900
C211	C21	0.020500	0.654600	0.198500
C221	C22	0.932600	0.650400	0.172400
C231	C23	0.920200	0.591300	0.147500
C241	C24	0.991300	0.546700	0.154200
C251	C25	0.036400	0.959200	0.123000
C261	C26	0.094000	0.045100	0.212900
C271	C27	0.086600	0.064200	0.169200
C281	C28	0.025000	0.001700	0.054100
C291	C29	0.956100	0.822000	0.301500
C301	C30	0.978000	0.760200	0.327600
C311	C31	0.943800	0.772700	0.352500
C321	C32	0.892500	0.837100	0.345800
C331	C33	0.877000	0.336200	0.413400
C341	C34	0.787100	0.332200	0.381100
C351	C35	0.830800	0.395000	0.417400
C361	C36	0.945900	0.447600	0.470900
C371	C37	0.698500	0.020500	0.154600
C381	C38	0.672400	0.932600	0.150400
C391	C39	0.647500	0.920200	0.091300
C401	C40	0.654200	0.991300	0.046700
C411	C41	0.623000	0.036400	0.459200
C421	C42	0.712900	0.094000	0.545100
C431	C43	0.669200	0.086600	0.564200
C441	C44	0.554100	0.025000	0.501700
C451	C45	0.801500	0.956100	0.322000
C461	C46	0.827600	0.978000	0.260200
C471	C47	0.852500	0.943800	0.272700
C481	C48	0.845800	0.892500	0.337100
C491	C49	0.422800	0.463600	0.086600
C501	C50	0.451100	0.406000	0.118900
C511	C51	0.477600	0.413400	0.082600
C521	C52	0.476700	0.475000	0.029100
C531	C53	0.365900	0.543900	0.345400
C541	C54	0.282200	0.522000	0.349600
C551	C55	0.328900	0.556200	0.408700
C561	C56	0.444600	0.607500	0.453300
C571	C57	0.077200	0.163800	0.040800
C581	C58	0.048900	0.167800	0.954900
C591	C59	0.022400	0.105000	0.935800
C601	C60	0.023300	0.052400	0.998300
C611	C61	0.134100	0.479500	0.178000
C621	C62	0.217800	0.567400	0.239800
C631	C63	0.171100	0.579800	0.227300
C641	C64	0.055400	0.508700	0.162900
C651	C65	0.540800	0.077200	0.663800
C661	C66	0.454900	0.048900	0.667800
C671	C67	0.435800	0.022400	0.605000
C681	C68	0.498300	0.023300	0.552400
C691	C69	0.678000	0.134100	0.979500
C701	C70	0.739800	0.217800	0.067400
C711	C71	0.727300	0.171100	0.079800
C721	C72	0.662900	0.055400	0.008700
C731	C73	0.586600	0.422800	0.963600
C741	C74	0.618900	0.451100	0.906000
C751	C75	0.582600	0.477600	0.913400
C761	C76	0.529100	0.476700	0.975000
C771	C77	0.845400	0.365900	0.043900
C781	C78	0.849600	0.282200	0.022000
C791	C79	0.908700	0.328900	0.056200
C801	C80	0.953300	0.444600	0.107500
C811	C81	0.959200	0.623000	0.536400
C821	C82	0.045100	0.712900	0.594000
C831	C83	0.064200	0.669200	0.586600
C841	C84	0.001700	0.554100	0.525000
C851	C85	0.822000	0.801500	0.456100
C861	C86	0.760200	0.827600	0.478000
C871	C87	0.772700	0.852500	0.443800
C881	C88	0.837100	0.845800	0.392500
C891	C89	0.913400	0.877000	0.836200
C901	C90	0.881100	0.787100	0.832200
C911	C91	0.917400	0.830800	0.895000
C921	C92	0.970900	0.945900	0.947600
C931	C93	0.654600	0.698500	0.520500
C941	C94	0.650400	0.672400	0.432600
C951	C95	0.591300	0.647500	0.420200
C961	C96	0.546700	0.654200	0.491300
C971	C97	0.040800	0.663800	0.077200
C981	C98	0.954900	0.667800	0.048900
C991	C99	0.935800	0.605000	0.022400
C1001	C100	0.998300	0.552400	0.023300
C1011	C101	0.178000	0.979500	0.134100
C1021	C102	0.239800	0.067400	0.217800
C1031	C103	0.227300	0.079800	0.171100
C1041	C104	0.162900	0.008700	0.055400
C1051	C105	0.086600	0.963600	0.422800
C1061	C106	0.118900	0.906000	0.451100
C1071	C107	0.082600	0.913400	0.477600
C1081	C108	0.029100	0.975000	0.476700
C1091	C109	0.345400	0.043900	0.365900
C1101	C110	0.349600	0.022000	0.282200
C1111	C111	0.408700	0.056200	0.328900
C1121	C112	0.453300	0.107500	0.444600
C1131	C113	0.459200	0.536400	0.623000
C1141	C114	0.545100	0.594000	0.712900
C1151	C115	0.564200	0.586600	0.669200
C1161	C116	0.501700	0.525000	0.554100
C1171	C117	0.322000	0.456100	0.801500
C1181	C118	0.260200	0.478000	0.827600
C1191	C119	0.272700	0.443800	0.852500
C1201	C120	0.337100	0.392500	0.845800
C1211	C121	0.413400	0.836200	0.877000
C1221	C122	0.381100	0.832200	0.787100
C1231	C123	0.417400	0.895000	0.830800
C1241	C124	0.470900	0.947600	0.945900
C1251	C125	0.154600	0.520500	0.698500
C1261	C126	0.150400	0.432600	0.672400
C1271	C127	0.091300	0.420200	0.647500
C1281	C128	0.046700	0.491300	0.654200
C1291	C129	0.963600	0.922800	0.586600
C1301	C130	0.906000	0.951100	0.618900
C1311	C131	0.913400	0.977600	0.582600
C1321	C132	0.975000	0.976700	0.529100
C1331	C133	0.043900	0.865900	0.845400
C1341	C134	0.022000	0.782200	0.849600
C1351	C135	0.056200	0.828900	0.908700
C1361	C136	0.107500	0.944600	0.953300
C1371	C137	0.663800	0.577200	0.540800
C1381	C138	0.667800	0.548900	0.454900
C1391	C139	0.605000	0.522400	0.435800
C1401	C140	0.552400	0.523300	0.498300
C1411	C141	0.979500	0.634100	0.678000
C1421	C142	0.067400	0.717800	0.739800
C1431	C143	0.079800	0.671100	0.727300
C1441	C144	0.008700	0.555400	0.662900
C1451	C145	0.836200	0.377000	0.913400
C1461	C146	0.832200	0.287100	0.881100
C1471	C147	0.895000	0.330800	0.917400
C1481	C148	0.947600	0.445900	0.970900
C1491	C149	0.520500	0.198500	0.654600
C1501	C150	0.432600	0.172400	0.650400
C1511	C151	0.420200	0.147500	0.591300
C1521	C152	0.491300	0.154200	0.546700
C1531	C153	0.536400	0.123000	0.959200
C1541	C154	0.594000	0.212900	0.045100
C1551	C155	0.586600	0.169200	0.064200
C1561	C156	0.525000	0.054100	0.001700
C1571	C157	0.456100	0.301500	0.822000
C1581	C158	0.478000	0.327600	0.760200
C1591	C159	0.443800	0.352500	0.772700
C1601	C160	0.392500	0.345800	0.837100
C1611	C161	0.377000	0.413400	0.336200
C1621	C162	0.287100	0.381100	0.332200
C1631	C163	0.330800	0.417400	0.395000
C1641	C164	0.445900	0.470900	0.447600
C1651	C165	0.198500	0.154600	0.020500
C1661	C166	0.172400	0.150400	0.932600
C1671	C167	0.147500	0.091300	0.920200
C1681	C168	0.154200	0.046700	0.991300
C1691	C169	0.123000	0.459200	0.036400
C1701	C170	0.212900	0.545100	0.094000
C1711	C171	0.169200	0.564200	0.086600
C1721	C172	0.054100	0.501700	0.025000
C1731	C173	0.301500	0.322000	0.956100
C1741	C174	0.327600	0.260200	0.978000
C1751	C175	0.352500	0.272700	0.943800
C1761	C176	0.345800	0.337100	0.892500
C1771	C177	0.922800	0.086600	0.463600
C1781	C178	0.951100	0.118900	0.406000
C1791	C179	0.977600	0.082600	0.413400
C1801	C180	0.976700	0.029100	0.475000
C1811	C181	0.865900	0.345400	0.543900
C1821	C182	0.782200	0.349600	0.522000
C1831	C183	0.828900	0.408700	0.556200
C1841	C184	0.944600	0.453300	0.607500
C1851	C185	0.577200	0.040800	0.163800
C1861	C186	0.548900	0.954900	0.167800
C1871	C187	0.522400	0.935800	0.105000
C1881	C188	0.523300	0.998300	0.052400
C1891	C189	0.634100	0.178000	0.479500
C1901	C190	0.717800	0.239800	0.567400
C1911	C191	0.671100	0.227300	0.579800
C1921	C192	0.555400	0.162900	0.508700
S11	S1	0.479610	0.664840	0.809130
S21	S2	0.355710	0.670480	0.690870
S31	S3	0.144290	0.835160	0.314770
S41	S4	0.020390	0.829520	0.185230
S51	S5	0.814770	0.144290	0.335160
S61	S6	0.685230	0.020390	0.329520
S71	S7	0.309130	0.479610	0.164840
S81	S8	0.190870	0.355710	0.170480
S91	S9	0.670480	0.190870	0.855710
S101	S10	0.664840	0.309130	0.979610
S111	S11	0.829520	0.685230	0.520390
S121	S12	0.835160	0.814770	0.644290
S131	S13	0.170480	0.855710	0.190870
S141	S14	0.164840	0.979610	0.309130
S151	S15	0.329520	0.520390	0.685230
S161	S16	0.335160	0.644290	0.814770
S171	S17	0.979610	0.809130	0.664840
S181	S18	0.855710	0.690870	0.670480
S191	S19	0.644290	0.314770	0.835160
S201	S20	0.520390	0.185230	0.829520
S211	S21	0.314770	0.335160	0.144290
S221	S22	0.185230	0.329520	0.020390
S231	S23	0.809130	0.164840	0.479610
S241	S24	0.690870	0.170480	0.355710
Br11	Br1	0.494300	0.781870	0.963830
Br21	Br2	0.318040	0.530470	0.536170
Br31	Br3	0.181960	0.718130	0.212430
Br41	Br4	0.005700	0.969530	0.287570
Br51	Br5	0.712430	0.181960	0.218130
Br61	Br6	0.787570	0.005700	0.469530
Br71	Br7	0.463830	0.494300	0.281870
Br81	Br8	0.036170	0.318040	0.030470
Br91	Br9	0.530470	0.036170	0.818040
Br101	Br10	0.781870	0.463830	0.994300
Br111	Br11	0.969530	0.787570	0.505700
Br121	Br12	0.718130	0.712430	0.681960
Br131	Br13	0.030470	0.818040	0.036170
Br141	Br14	0.281870	0.994300	0.463830
Br151	Br15	0.469530	0.505700	0.787570
Br161	Br16	0.218130	0.681960	0.712430
Br171	Br17	0.994300	0.963830	0.781870
Br181	Br18	0.818040	0.536170	0.530470
Br191	Br19	0.681960	0.212430	0.718130
Br201	Br20	0.505700	0.287570	0.969530
Br211	Br21	0.212430	0.218130	0.181960
Br221	Br22	0.287570	0.469530	0.005700
Br231	Br23	0.963830	0.281870	0.494300
Br241	Br24	0.536170	0.030470	0.318040
N11	N1	0.436300	0.622800	0.917700
N21	N2	0.452800	0.566200	0.961200
N31	N3	0.509900	0.514600	0.955700
N41	N4	0.511500	0.810600	0.805300
N51	N5	0.571000	0.903700	0.882900
N61	N6	0.613300	0.938800	0.986700
N71	N7	0.205100	0.518600	0.582300
N81	N8	0.105000	0.491600	0.538800
N91	N9	0.058900	0.554200	0.544300
N101	N10	0.505300	0.706200	0.694700
N111	N11	0.520800	0.688100	0.617100
N121	N12	0.452100	0.626600	0.513300
N131	N13	0.294900	0.877200	0.313500
N141	N14	0.395000	0.933800	0.386600
N151	N15	0.441100	0.985400	0.495300
N161	N16	0.994700	0.689400	0.200900
N171	N17	0.979200	0.596300	0.167300
N181	N18	0.047900	0.561200	0.174500
N191	N19	0.063700	0.981400	0.186500
N201	N20	0.047200	0.008400	0.113400
N211	N21	0.990100	0.945800	0.004700
N221	N22	0.988500	0.793800	0.299100
N231	N23	0.929000	0.811900	0.332700
N241	N24	0.886700	0.873400	0.325500
N251	N25	0.813500	0.294900	0.377200
N261	N26	0.886600	0.395000	0.433800
N271	N27	0.995300	0.441100	0.485400
N281	N28	0.700900	0.994700	0.189400
N291	N29	0.667300	0.979200	0.096300
N301	N30	0.674500	0.047900	0.061200
N311	N31	0.686500	0.063700	0.481400
N321	N32	0.613400	0.047200	0.508400
N331	N33	0.504700	0.990100	0.445800
N341	N34	0.799100	0.988500	0.293800
N351	N35	0.832700	0.929000	0.311900
N361	N36	0.825500	0.886700	0.373400
N371	N37	0.417700	0.436300	0.122800
N381	N38	0.461200	0.452800	0.066200
N391	N39	0.455700	0.509900	0.014600
N401	N40	0.305300	0.511500	0.310600
N411	N41	0.382900	0.571000	0.403700
N421	N42	0.486700	0.613300	0.438800
N431	N43	0.082300	0.205100	0.018600
N441	N44	0.038800	0.105000	0.991600
N451	N45	0.044300	0.058900	0.054200
N461	N46	0.194700	0.505300	0.206200
N471	N47	0.117100	0.520800	0.188100
N481	N48	0.013300	0.452100	0.126600
N491	N49	0.518600	0.082300	0.705100
N501	N50	0.491600	0.038800	0.605000
N511	N51	0.554200	0.044300	0.558900
N521	N52	0.706200	0.194700	0.005300
N531	N53	0.688100	0.117100	0.020800
N541	N54	0.626600	0.013300	0.952100
N551	N55	0.622800	0.417700	0.936300
N561	N56	0.566200	0.461200	0.952800
N571	N57	0.514600	0.455700	0.009900
N581	N58	0.810600	0.305300	0.011500
N591	N59	0.903700	0.382900	0.071000
N601	N60	0.938800	0.486700	0.113300
N611	N61	0.981400	0.686500	0.563700
N621	N62	0.008400	0.613400	0.547200
N631	N63	0.945800	0.504700	0.490100
N641	N64	0.793800	0.799100	0.488500
N651	N65	0.811900	0.832700	0.429000
N661	N66	0.873400	0.825500	0.386700
N671	N67	0.877200	0.813500	0.794900
N681	N68	0.933800	0.886600	0.895000
N691	N69	0.985400	0.995300	0.941100
N701	N70	0.689400	0.700900	0.494700
N711	N71	0.596300	0.667300	0.479200
N721	N72	0.561200	0.674500	0.547900
N731	N73	0.018600	0.705100	0.082300
N741	N74	0.991600	0.605000	0.038800
N751	N75	0.054200	0.558900	0.044300
N761	N76	0.206200	0.005300	0.194700
N771	N77	0.188100	0.020800	0.117100
N781	N78	0.126600	0.952100	0.013300
N791	N79	0.122800	0.936300	0.417700
N801	N80	0.066200	0.952800	0.461200
N811	N81	0.014600	0.009900	0.455700
N821	N82	0.310600	0.011500	0.305300
N831	N83	0.403700	0.071000	0.382900
N841	N84	0.438800	0.113300	0.486700
N851	N85	0.481400	0.563700	0.686500
N861	N86	0.508400	0.547200	0.613400
N871	N87	0.445800	0.490100	0.504700
N881	N88	0.293800	0.488500	0.799100
N891	N89	0.311900	0.429000	0.832700
N901	N90	0.373400	0.386700	0.825500
N911	N91	0.377200	0.794900	0.813500
N921	N92	0.433800	0.895000	0.886600
N931	N93	0.485400	0.941100	0.995300
N941	N94	0.189400	0.494700	0.700900
N951	N95	0.096300	0.479200	0.667300
N961	N96	0.061200	0.547900	0.674500
N971	N97	0.936300	0.917700	0.622800
N981	N98	0.952800	0.961200	0.566200
N991	N99	0.009900	0.955700	0.514600
N1001	N100	0.011500	0.805300	0.810600
N1011	N101	0.071000	0.882900	0.903700
N1021	N102	0.113300	0.986700	0.938800
N1031	N103	0.705100	0.582300	0.518600
N1041	N104	0.605000	0.538800	0.491600
N1051	N105	0.558900	0.544300	0.554200
N1061	N106	0.005300	0.694700	0.706200
N1071	N107	0.020800	0.617100	0.688100
N1081	N108	0.952100	0.513300	0.626600
N1091	N109	0.794900	0.313500	0.877200
N1101	N110	0.895000	0.386600	0.933800
N1111	N111	0.941100	0.495300	0.985400
N1121	N112	0.494700	0.200900	0.689400
N1131	N113	0.479200	0.167300	0.596300
N1141	N114	0.547900	0.174500	0.561200
N1151	N115	0.563700	0.186500	0.981400
N1161	N116	0.547200	0.113400	0.008400
N1171	N117	0.490100	0.004700	0.945800
N1181	N118	0.488500	0.299100	0.793800
N1191	N119	0.429000	0.332700	0.811900
N1201	N120	0.386700	0.325500	0.873400
N1211	N121	0.313500	0.377200	0.294900
N1221	N122	0.386600	0.433800	0.395000
N1231	N123	0.495300	0.485400	0.441100
N1241	N124	0.200900	0.189400	0.994700
N1251	N125	0.167300	0.096300	0.979200
N1261	N126	0.174500	0.061200	0.047900
N1271	N127	0.186500	0.481400	0.063700
N1281	N128	0.113400	0.508400	0.047200
N1291	N129	0.004700	0.445800	0.990100
N1301	N130	0.299100	0.293800	0.988500
N1311	N131	0.332700	0.311900	0.929000
N1321	N132	0.325500	0.373400	0.886700
N1331	N133	0.917700	0.122800	0.436300
N1341	N134	0.961200	0.066200	0.452800
N1351	N135	0.955700	0.014600	0.509900
N1361	N136	0.805300	0.310600	0.511500
N1371	N137	0.882900	0.403700	0.571000
N1381	N138	0.986700	0.438800	0.613300
N1391	N139	0.582300	0.018600	0.205100
N1401	N140	0.538800	0.991600	0.105000
N1411	N141	0.544300	0.054200	0.058900
N1421	N142	0.694700	0.206200	0.505300
N1431	N143	0.617100	0.188100	0.520800
N1441	N144	0.513300	0.126600	0.452100
