data_NUVXOT_freeONLY_PM
_symmetry_space_group_name_H-M	'P1'
_cell_length_a	20.123000
_cell_length_b	20.123000
_cell_length_c	20.123000
_cell_angle_alpha	90.000000
_cell_angle_beta	90.000000
_cell_angle_gamma	90.000000
_symmetry_Int_Tables_number 1

loop_
_symmetry_equiv_pos_as_xyz
'x,y,z'

loop_
_atom_site_label
_atom_site_type_symbol
_atom_site_fract_x
_atom_site_fract_y
_atom_site_fract_z
Zn11	Zn1	0.355810	0.250610	0.230740
O11	O1	0.446700	0.282700	0.242300
O21	O2	0.453200	0.207200	0.163800
C11	C1	0.479600	0.250000	0.199300
C21	C2	0.599900	0.231800	0.157800
H11	H1	0.591800	0.197300	0.128100
C31	C3	0.551300	0.263400	0.195800
C41	C4	0.587200	0.310000	0.231900
H21	H2	0.569000	0.339100	0.262800
N11	N1	0.651000	0.307000	0.216100
N21	N2	0.659000	0.257600	0.169800
Zn21	Zn2	0.144190	0.749390	0.730740
O31	O3	0.053300	0.717300	0.742300
O41	O4	0.046800	0.792800	0.663800
C51	C5	0.020400	0.750000	0.699300
C61	C6	0.900100	0.768200	0.657800
H31	H3	0.908200	0.802700	0.628100
C71	C7	0.948700	0.736600	0.695800
C81	C8	0.912800	0.690000	0.731900
H41	H4	0.931000	0.660900	0.762800
N31	N3	0.849000	0.693000	0.716100
N41	N4	0.841000	0.742400	0.669800
Zn31	Zn3	0.644190	0.750610	0.269260
O51	O5	0.553300	0.782700	0.257700
O61	O6	0.546800	0.707200	0.336200
C91	C9	0.520400	0.750000	0.300700
C101	C10	0.400100	0.731800	0.342200
H51	H5	0.408200	0.697300	0.371900
C111	C11	0.448700	0.763400	0.304200
C121	C12	0.412800	0.810000	0.268100
H61	H6	0.431000	0.839100	0.237200
N51	N5	0.349000	0.807000	0.283900
N61	N6	0.341000	0.757600	0.330200
Zn41	Zn4	0.855810	0.249390	0.769260
O71	O7	0.946700	0.217300	0.757700
O81	O8	0.953200	0.292800	0.836200
C131	C13	0.979600	0.250000	0.800700
C141	C14	0.099900	0.268200	0.842200
H71	H7	0.091800	0.302700	0.871900
C151	C15	0.051300	0.236600	0.804200
C161	C16	0.087200	0.190000	0.768100
H81	H8	0.069000	0.160900	0.737200
N71	N7	0.151000	0.193000	0.783900
N81	N8	0.159000	0.242400	0.830200
Zn51	Zn5	0.230740	0.355810	0.250610
O91	O9	0.242300	0.446700	0.282700
O101	O10	0.163800	0.453200	0.207200
C171	C17	0.199300	0.479600	0.250000
C181	C18	0.157800	0.599900	0.231800
H91	H9	0.128100	0.591800	0.197300
C191	C19	0.195800	0.551300	0.263400
C201	C20	0.231900	0.587200	0.310000
H101	H10	0.262800	0.569000	0.339100
N91	N9	0.216100	0.651000	0.307000
N101	N10	0.169800	0.659000	0.257600
Zn61	Zn6	0.730740	0.144190	0.749390
O111	O11	0.742300	0.053300	0.717300
O121	O12	0.663800	0.046800	0.792800
C211	C21	0.699300	0.020400	0.750000
C221	C22	0.657800	0.900100	0.768200
H111	H11	0.628100	0.908200	0.802700
C231	C23	0.695800	0.948700	0.736600
C241	C24	0.731900	0.912800	0.690000
H121	H12	0.762800	0.931000	0.660900
N111	N11	0.716100	0.849000	0.693000
N121	N12	0.669800	0.841000	0.742400
Zn71	Zn7	0.269260	0.644190	0.750610
O131	O13	0.257700	0.553300	0.782700
O141	O14	0.336200	0.546800	0.707200
C251	C25	0.300700	0.520400	0.750000
C261	C26	0.342200	0.400100	0.731800
H131	H13	0.371900	0.408200	0.697300
C271	C27	0.304200	0.448700	0.763400
C281	C28	0.268100	0.412800	0.810000
H141	H14	0.237200	0.431000	0.839100
N131	N13	0.283900	0.349000	0.807000
N141	N14	0.330200	0.341000	0.757600
Zn81	Zn8	0.769260	0.855810	0.249390
O151	O15	0.757700	0.946700	0.217300
O161	O16	0.836200	0.953200	0.292800
C291	C29	0.800700	0.979600	0.250000
C301	C30	0.842200	0.099900	0.268200
H151	H15	0.871900	0.091800	0.302700
C311	C31	0.804200	0.051300	0.236600
C321	C32	0.768100	0.087200	0.190000
H161	H16	0.737200	0.069000	0.160900
N151	N15	0.783900	0.151000	0.193000
N161	N16	0.830200	0.159000	0.242400
Zn91	Zn9	0.250610	0.230740	0.355810
O171	O17	0.282700	0.242300	0.446700
O181	O18	0.207200	0.163800	0.453200
C331	C33	0.250000	0.199300	0.479600
C341	C34	0.231800	0.157800	0.599900
H171	H17	0.197300	0.128100	0.591800
C351	C35	0.263400	0.195800	0.551300
C361	C36	0.310000	0.231900	0.587200
H181	H18	0.339100	0.262800	0.569000
N171	N17	0.307000	0.216100	0.651000
N181	N18	0.257600	0.169800	0.659000
Zn101	Zn10	0.749390	0.730740	0.144190
O191	O19	0.717300	0.742300	0.053300
O201	O20	0.792800	0.663800	0.046800
C371	C37	0.750000	0.699300	0.020400
C381	C38	0.768200	0.657800	0.900100
H191	H19	0.802700	0.628100	0.908200
C391	C39	0.736600	0.695800	0.948700
C401	C40	0.690000	0.731900	0.912800
H201	H20	0.660900	0.762800	0.931000
N191	N19	0.693000	0.716100	0.849000
N201	N20	0.742400	0.669800	0.841000
Zn111	Zn11	0.750610	0.269260	0.644190
O211	O21	0.782700	0.257700	0.553300
O221	O22	0.707200	0.336200	0.546800
C411	C41	0.750000	0.300700	0.520400
C421	C42	0.731800	0.342200	0.400100
H211	H21	0.697300	0.371900	0.408200
C431	C43	0.763400	0.304200	0.448700
C441	C44	0.810000	0.268100	0.412800
H221	H22	0.839100	0.237200	0.431000
N211	N21	0.807000	0.283900	0.349000
N221	N22	0.757600	0.330200	0.341000
Zn121	Zn12	0.249390	0.769260	0.855810
O231	O23	0.217300	0.757700	0.946700
O241	O24	0.292800	0.836200	0.953200
C451	C45	0.250000	0.800700	0.979600
C461	C46	0.268200	0.842200	0.099900
H231	H23	0.302700	0.871900	0.091800
C471	C47	0.236600	0.804200	0.051300
C481	C48	0.190000	0.768100	0.087200
H241	H24	0.160900	0.737200	0.069000
N231	N23	0.193000	0.783900	0.151000
N241	N24	0.242400	0.830200	0.159000
Zn131	Zn13	0.644190	0.749390	0.769260
O251	O25	0.553300	0.717300	0.757700
O261	O26	0.546800	0.792800	0.836200
C491	C49	0.520400	0.750000	0.800700
C501	C50	0.400100	0.768200	0.842200
H251	H25	0.408200	0.802700	0.871900
C511	C51	0.448700	0.736600	0.804200
C521	C52	0.412800	0.690000	0.768100
H261	H26	0.431000	0.660900	0.737200
N251	N25	0.349000	0.693000	0.783900
N261	N26	0.341000	0.742400	0.830200
Zn141	Zn14	0.855810	0.250610	0.269260
O271	O27	0.946700	0.282700	0.257700
O281	O28	0.953200	0.207200	0.336200
C531	C53	0.979600	0.250000	0.300700
C541	C54	0.099900	0.231800	0.342200
H271	H27	0.091800	0.197300	0.371900
C551	C55	0.051300	0.263400	0.304200
C561	C56	0.087200	0.310000	0.268100
H281	H28	0.069000	0.339100	0.237200
N271	N27	0.151000	0.307000	0.283900
N281	N28	0.159000	0.257600	0.330200
Zn151	Zn15	0.355810	0.249390	0.730740
O291	O29	0.446700	0.217300	0.742300
O301	O30	0.453200	0.292800	0.663800
C571	C57	0.479600	0.250000	0.699300
C581	C58	0.599900	0.268200	0.657800
H291	H29	0.591800	0.302700	0.628100
C591	C59	0.551300	0.236600	0.695800
C601	C60	0.587200	0.190000	0.731900
H301	H30	0.569000	0.160900	0.762800
N291	N29	0.651000	0.193000	0.716100
N301	N30	0.659000	0.242400	0.669800
Zn161	Zn16	0.144190	0.750610	0.230740
O311	O31	0.053300	0.782700	0.242300
O321	O32	0.046800	0.707200	0.163800
C611	C61	0.020400	0.750000	0.199300
C621	C62	0.900100	0.731800	0.157800
H311	H31	0.908200	0.697300	0.128100
C631	C63	0.948700	0.763400	0.195800
C641	C64	0.912800	0.810000	0.231900
H321	H32	0.931000	0.839100	0.262800
N311	N31	0.849000	0.807000	0.216100
N321	N32	0.841000	0.757600	0.169800
Zn171	Zn17	0.769260	0.644190	0.749390
O331	O33	0.757700	0.553300	0.717300
O341	O34	0.836200	0.546800	0.792800
C651	C65	0.800700	0.520400	0.750000
C661	C66	0.842200	0.400100	0.768200
H331	H33	0.871900	0.408200	0.802700
C671	C67	0.804200	0.448700	0.736600
C681	C68	0.768100	0.412800	0.690000
H341	H34	0.737200	0.431000	0.660900
N331	N33	0.783900	0.349000	0.693000
N341	N34	0.830200	0.341000	0.742400
Zn181	Zn18	0.269260	0.855810	0.250610
O351	O35	0.257700	0.946700	0.282700
O361	O36	0.336200	0.953200	0.207200
C691	C69	0.300700	0.979600	0.250000
C701	C70	0.342200	0.099900	0.231800
H351	H35	0.371900	0.091800	0.197300
C711	C71	0.304200	0.051300	0.263400
C721	C72	0.268100	0.087200	0.310000
H361	H36	0.237200	0.069000	0.339100
N351	N35	0.283900	0.151000	0.307000
N361	N36	0.330200	0.159000	0.257600
Zn191	Zn19	0.730740	0.355810	0.249390
O371	O37	0.742300	0.446700	0.217300
O381	O38	0.663800	0.453200	0.292800
C731	C73	0.699300	0.479600	0.250000
C741	C74	0.657800	0.599900	0.268200
H371	H37	0.628100	0.591800	0.302700
C751	C75	0.695800	0.551300	0.236600
C761	C76	0.731900	0.587200	0.190000
H381	H38	0.762800	0.569000	0.160900
N371	N37	0.716100	0.651000	0.193000
N381	N38	0.669800	0.659000	0.242400
Zn201	Zn20	0.230740	0.144190	0.750610
O391	O39	0.242300	0.053300	0.782700
O401	O40	0.163800	0.046800	0.707200
C771	C77	0.199300	0.020400	0.750000
C781	C78	0.157800	0.900100	0.731800
H391	H39	0.128100	0.908200	0.697300
C791	C79	0.195800	0.948700	0.763400
C801	C80	0.231900	0.912800	0.810000
H401	H40	0.262800	0.931000	0.839100
N391	N39	0.216100	0.849000	0.807000
N401	N40	0.169800	0.841000	0.757600
Zn211	Zn21	0.749390	0.769260	0.644190
O411	O41	0.717300	0.757700	0.553300
O421	O42	0.792800	0.836200	0.546800
C811	C81	0.750000	0.800700	0.520400
C821	C82	0.768200	0.842200	0.400100
H411	H41	0.802700	0.871900	0.408200
C831	C83	0.736600	0.804200	0.448700
C841	C84	0.690000	0.768100	0.412800
H421	H42	0.660900	0.737200	0.431000
N411	N41	0.693000	0.783900	0.349000
N421	N42	0.742400	0.830200	0.341000
Zn221	Zn22	0.250610	0.269260	0.855810
O431	O43	0.282700	0.257700	0.946700
O441	O44	0.207200	0.336200	0.953200
C851	C85	0.250000	0.300700	0.979600
C861	C86	0.231800	0.342200	0.099900
H431	H43	0.197300	0.371900	0.091800
C871	C87	0.263400	0.304200	0.051300
C881	C88	0.310000	0.268100	0.087200
H441	H44	0.339100	0.237200	0.069000
N431	N43	0.307000	0.283900	0.151000
N441	N44	0.257600	0.330200	0.159000
Zn231	Zn23	0.249390	0.730740	0.355810
O451	O45	0.217300	0.742300	0.446700
O461	O46	0.292800	0.663800	0.453200
C891	C89	0.250000	0.699300	0.479600
C901	C90	0.268200	0.657800	0.599900
H451	H45	0.302700	0.628100	0.591800
C911	C91	0.236600	0.695800	0.551300
C921	C92	0.190000	0.731900	0.587200
H461	H46	0.160900	0.762800	0.569000
N451	N45	0.193000	0.716100	0.651000
N461	N46	0.242400	0.669800	0.659000
Zn241	Zn24	0.750610	0.230740	0.144190
O471	O47	0.782700	0.242300	0.053300
O481	O48	0.707200	0.163800	0.046800
C931	C93	0.750000	0.199300	0.020400
C941	C94	0.731800	0.157800	0.900100
H471	H47	0.697300	0.128100	0.908200
C951	C95	0.763400	0.195800	0.948700
C961	C96	0.810000	0.231900	0.912800
H481	H48	0.839100	0.262800	0.931000
N471	N47	0.807000	0.216100	0.849000
N481	N48	0.757600	0.169800	0.841000
O491	O49	0.300030	0.300030	0.300030
O501	O50	0.199970	0.699970	0.800030
O511	O51	0.699970	0.800030	0.199970
O521	O52	0.800030	0.199970	0.699970
O531	O53	0.699970	0.699970	0.699970
O541	O54	0.800030	0.300030	0.199970
O551	O55	0.300030	0.199970	0.800030
O561	O56	0.199970	0.800030	0.300030
