data_NUWPOM_freeONLY_PM
_symmetry_space_group_name_H-M	'P1'
_cell_length_a	23.144200
_cell_length_b	23.144200
_cell_length_c	7.223300
_cell_angle_alpha	90.000000
_cell_angle_beta	90.000000
_cell_angle_gamma	120.000000
_symmetry_Int_Tables_number 1

loop_
_symmetry_equiv_pos_as_xyz
'x,y,z'

loop_
_atom_site_label
_atom_site_type_symbol
_atom_site_fract_x
_atom_site_fract_y
_atom_site_fract_z
Mg11	Mg1	0.284700	0.119300	0.926300
Mg21	Mg2	0.280000	0.314900	0.336700
O11	O1	0.185900	0.093700	0.908200
O21	O2	0.295900	0.184500	0.153200
O31	O3	0.320700	0.225700	0.873200
O41	O4	0.318900	0.287300	0.115100
O51	O5	0.266000	0.237400	0.503500
O61	O6	0.188500	0.276600	0.173200
C11	C1	0.304600	0.230800	0.042300
Mg31	Mg3	0.951370	0.452630	0.259630
Mg41	Mg4	0.946670	0.648230	0.670030
O71	O7	0.852570	0.427030	0.241530
O81	O8	0.962570	0.517830	0.486530
O91	O9	0.987370	0.559030	0.206530
O101	O10	0.985570	0.620630	0.448430
O111	O11	0.932670	0.570730	0.836830
O121	O12	0.855170	0.609930	0.506530
C21	C2	0.971270	0.564130	0.375630
Mg51	Mg5	0.618030	0.785970	0.592970
Mg61	Mg6	0.613330	0.981570	0.003370
O131	O13	0.519230	0.760370	0.574870
O141	O14	0.629230	0.851170	0.819870
O151	O15	0.654030	0.892370	0.539870
O161	O16	0.652230	0.953970	0.781770
O171	O17	0.599330	0.904070	0.170170
O181	O18	0.521830	0.943270	0.839870
C31	C3	0.637930	0.897470	0.708970
Mg71	Mg7	0.880700	0.165400	0.926300
Mg81	Mg8	0.685100	0.965100	0.336700
O191	O19	0.906300	0.092200	0.908200
O201	O20	0.815500	0.111400	0.153200
O211	O21	0.774300	0.095000	0.873200
O221	O22	0.712700	0.031600	0.115100
O231	O23	0.762600	0.028600	0.503500
O241	O24	0.723400	0.911900	0.173200
C41	C4	0.769200	0.073800	0.042300
Mg91	Mg9	0.547370	0.498730	0.259630
Mg101	Mg10	0.351770	0.298430	0.670030
O251	O25	0.572970	0.425530	0.241530
O261	O26	0.482170	0.444730	0.486530
O271	O27	0.440970	0.428330	0.206530
O281	O28	0.379370	0.364930	0.448430
O291	O29	0.429270	0.361930	0.836830
O301	O30	0.390070	0.245230	0.506530
C51	C5	0.435870	0.407130	0.375630
Mg111	Mg11	0.214030	0.832070	0.592970
Mg121	Mg12	0.018430	0.631770	0.003370
O311	O31	0.239630	0.758870	0.574870
O321	O32	0.148830	0.778070	0.819870
O331	O33	0.107630	0.761670	0.539870
O341	O34	0.046030	0.698270	0.781770
O351	O35	0.095930	0.695270	0.170170
O361	O36	0.056730	0.578570	0.839870
C61	C6	0.102530	0.740470	0.708970
Mg131	Mg13	0.834600	0.715300	0.926300
Mg141	Mg14	0.034900	0.720000	0.336700
O371	O37	0.907800	0.814100	0.908200
O381	O38	0.888600	0.704100	0.153200
O391	O39	0.905000	0.679300	0.873200
O401	O40	0.968400	0.681100	0.115100
O411	O41	0.971400	0.734000	0.503500
O421	O42	0.088100	0.811500	0.173200
C71	C7	0.926200	0.695400	0.042300
Mg151	Mg15	0.501270	0.048630	0.259630
Mg161	Mg16	0.701570	0.053330	0.670030
O431	O43	0.574470	0.147430	0.241530
O441	O44	0.555270	0.037430	0.486530
O451	O45	0.571670	0.012630	0.206530
O461	O46	0.635070	0.014430	0.448430
O471	O47	0.638070	0.067330	0.836830
O481	O48	0.754770	0.144830	0.506530
C81	C8	0.592870	0.028730	0.375630
Mg171	Mg17	0.167930	0.381970	0.592970
Mg181	Mg18	0.368230	0.386670	0.003370
O491	O49	0.241130	0.480770	0.574870
O501	O50	0.221930	0.370770	0.819870
O511	O51	0.238330	0.345970	0.539870
O521	O52	0.301730	0.347770	0.781770
O531	O53	0.304730	0.400670	0.170170
O541	O54	0.421430	0.478170	0.839870
C91	C9	0.259530	0.362070	0.708970
Mg191	Mg19	0.880700	0.715300	0.426300
Mg201	Mg20	0.685100	0.720000	0.836700
O551	O55	0.906300	0.814100	0.408200
O561	O56	0.815500	0.704100	0.653200
O571	O57	0.774300	0.679300	0.373200
O581	O58	0.712700	0.681100	0.615100
O591	O59	0.762600	0.734000	0.003500
O601	O60	0.723400	0.811500	0.673200
C101	C10	0.769200	0.695400	0.542300
Mg211	Mg21	0.547370	0.048630	0.759630
Mg221	Mg22	0.351770	0.053330	0.170030
O611	O61	0.572970	0.147430	0.741530
O621	O62	0.482170	0.037430	0.986530
O631	O63	0.440970	0.012630	0.706530
O641	O64	0.379370	0.014430	0.948430
O651	O65	0.429270	0.067330	0.336830
O661	O66	0.390070	0.144830	0.006530
C111	C11	0.435870	0.028730	0.875630
Mg231	Mg23	0.214030	0.381970	0.092970
Mg241	Mg24	0.018430	0.386670	0.503370
O671	O67	0.239630	0.480770	0.074870
O681	O68	0.148830	0.370770	0.319870
O691	O69	0.107630	0.345970	0.039870
O701	O70	0.046030	0.347770	0.281770
O711	O71	0.095930	0.400670	0.670170
O721	O72	0.056730	0.478170	0.339870
C121	C12	0.102530	0.362070	0.208970
Mg251	Mg25	0.834600	0.119300	0.426300
Mg261	Mg26	0.034900	0.314900	0.836700
O731	O73	0.907800	0.093700	0.408200
O741	O74	0.888600	0.184500	0.653200
O751	O75	0.905000	0.225700	0.373200
O761	O76	0.968400	0.287300	0.615100
O771	O77	0.971400	0.237400	0.003500
O781	O78	0.088100	0.276600	0.673200
C131	C13	0.926200	0.230800	0.542300
Mg271	Mg27	0.501270	0.452630	0.759630
Mg281	Mg28	0.701570	0.648230	0.170030
O791	O79	0.574470	0.427030	0.741530
O801	O80	0.555270	0.517830	0.986530
O811	O81	0.571670	0.559030	0.706530
O821	O82	0.635070	0.620630	0.948430
O831	O83	0.638070	0.570730	0.336830
O841	O84	0.754770	0.609930	0.006530
C141	C14	0.592870	0.564130	0.875630
Mg291	Mg29	0.167930	0.785970	0.092970
Mg301	Mg30	0.368230	0.981570	0.503370
O851	O85	0.241130	0.760370	0.074870
O861	O86	0.221930	0.851170	0.319870
O871	O87	0.238330	0.892370	0.039870
O881	O88	0.301730	0.953970	0.281770
O891	O89	0.304730	0.904070	0.670170
O901	O90	0.421430	0.943270	0.339870
C151	C15	0.259530	0.897470	0.208970
Mg311	Mg31	0.284700	0.165400	0.426300
Mg321	Mg32	0.280000	0.965100	0.836700
O911	O91	0.185900	0.092200	0.408200
O921	O92	0.295900	0.111400	0.653200
O931	O93	0.320700	0.095000	0.373200
O941	O94	0.318900	0.031600	0.615100
O951	O95	0.266000	0.028600	0.003500
O961	O96	0.188500	0.911900	0.673200
C161	C16	0.304600	0.073800	0.542300
Mg331	Mg33	0.951370	0.498730	0.759630
Mg341	Mg34	0.946670	0.298430	0.170030
O971	O97	0.852570	0.425530	0.741530
O981	O98	0.962570	0.444730	0.986530
O991	O99	0.987370	0.428330	0.706530
O1001	O100	0.985570	0.364930	0.948430
O1011	O101	0.932670	0.361930	0.336830
O1021	O102	0.855170	0.245230	0.006530
C171	C17	0.971270	0.407130	0.875630
Mg351	Mg35	0.618030	0.832070	0.092970
Mg361	Mg36	0.613330	0.631770	0.503370
O1031	O103	0.519230	0.758870	0.074870
O1041	O104	0.629230	0.778070	0.319870
O1051	O105	0.654030	0.761670	0.039870
O1061	O106	0.652230	0.698270	0.281770
O1071	O107	0.599330	0.695270	0.670170
O1081	O108	0.521830	0.578570	0.339870
C181	C18	0.637930	0.740470	0.208970
