data_NUWVIM_freeONLY_PM
_symmetry_space_group_name_H-M	'P1'
_cell_length_a	22.694000
_cell_length_b	29.694000
_cell_length_c	33.408000
_cell_angle_alpha	90.000000
_cell_angle_beta	90.000000
_cell_angle_gamma	90.000000
_symmetry_Int_Tables_number 1

loop_
_symmetry_equiv_pos_as_xyz
'x,y,z'

loop_
_atom_site_label
_atom_site_type_symbol
_atom_site_fract_x
_atom_site_fract_y
_atom_site_fract_z
O11	O1	0.539200	0.040300	0.799400
O21	O2	0.607200	0.071200	0.758600
N11	N1	0.692700	0.221700	0.973200
N21	N2	0.653600	0.250100	0.955400
H11	H1	0.646100	0.277300	0.964500
C11	C1	0.582700	0.066900	0.791300
C21	C2	0.602600	0.097200	0.826100
C31	C3	0.636500	0.134500	0.817500
H21	H2	0.649900	0.139300	0.790900
C41	C4	0.651300	0.164900	0.846900
H31	H3	0.672400	0.191400	0.839900
C51	C5	0.635800	0.157600	0.886300
C61	C6	0.604300	0.119400	0.894800
H41	H4	0.594400	0.112500	0.921700
C71	C7	0.586300	0.090300	0.863900
H51	H5	0.562100	0.065100	0.870100
C81	C8	0.650100	0.190600	0.919300
C91	C9	0.691100	0.184700	0.949400
C101	C10	0.628100	0.233400	0.923400
C111	C11	0.728200	0.145400	0.959400
H61	H6	0.749900	0.151500	0.984200
H71	H7	0.756100	0.139900	0.937600
H81	H8	0.703100	0.118900	0.963100
C121	C12	0.581900	0.259300	0.899200
H91	H9	0.592700	0.291300	0.898300
H101	H10	0.543300	0.256100	0.912000
H111	H11	0.580200	0.247300	0.872000
O31	O3	0.539200	0.540300	0.299400
O41	O4	0.607200	0.571200	0.258600
N31	N3	0.692700	0.721700	0.473200
N41	N4	0.653600	0.750100	0.455400
H121	H12	0.646100	0.777300	0.464500
C131	C13	0.582700	0.566900	0.291300
C141	C14	0.602600	0.597200	0.326100
C151	C15	0.636500	0.634500	0.317500
H131	H13	0.649900	0.639300	0.290900
C161	C16	0.651300	0.664900	0.346900
H141	H14	0.672400	0.691400	0.339900
C171	C17	0.635800	0.657600	0.386300
C181	C18	0.604300	0.619400	0.394800
H151	H15	0.594400	0.612500	0.421700
C191	C19	0.586300	0.590300	0.363900
H161	H16	0.562100	0.565100	0.370100
C201	C20	0.650100	0.690600	0.419300
C211	C21	0.691100	0.684700	0.449400
C221	C22	0.628100	0.733400	0.423400
C231	C23	0.728200	0.645400	0.459400
H171	H17	0.749900	0.651500	0.484200
H181	H18	0.756100	0.639900	0.437600
H191	H19	0.703100	0.618900	0.463100
C241	C24	0.581900	0.759300	0.399200
H201	H20	0.592700	0.791300	0.398300
H211	H21	0.543300	0.756100	0.412000
H221	H22	0.580200	0.747300	0.372000
O51	O5	0.039200	0.040300	0.299400
O61	O6	0.107200	0.071200	0.258600
N51	N5	0.192700	0.221700	0.473200
N61	N6	0.153600	0.250100	0.455400
H231	H23	0.146100	0.277300	0.464500
C251	C25	0.082700	0.066900	0.291300
C261	C26	0.102600	0.097200	0.326100
C271	C27	0.136500	0.134500	0.317500
H241	H24	0.149900	0.139300	0.290900
C281	C28	0.151300	0.164900	0.346900
H251	H25	0.172400	0.191400	0.339900
C291	C29	0.135800	0.157600	0.386300
C301	C30	0.104300	0.119400	0.394800
H261	H26	0.094400	0.112500	0.421700
C311	C31	0.086300	0.090300	0.363900
H271	H27	0.062100	0.065100	0.370100
C321	C32	0.150100	0.190600	0.419300
C331	C33	0.191100	0.184700	0.449400
C341	C34	0.128100	0.233400	0.423400
C351	C35	0.228200	0.145400	0.459400
H281	H28	0.249900	0.151500	0.484200
H291	H29	0.256100	0.139900	0.437600
H301	H30	0.203100	0.118900	0.463100
C361	C36	0.081900	0.259300	0.399200
H311	H31	0.092700	0.291300	0.398300
H321	H32	0.043300	0.256100	0.412000
H331	H33	0.080200	0.247300	0.372000
O71	O7	0.039200	0.540300	0.799400
O81	O8	0.107200	0.571200	0.758600
N71	N7	0.192700	0.721700	0.973200
N81	N8	0.153600	0.750100	0.955400
H341	H34	0.146100	0.777300	0.964500
C371	C37	0.082700	0.566900	0.791300
C381	C38	0.102600	0.597200	0.826100
C391	C39	0.136500	0.634500	0.817500
H351	H35	0.149900	0.639300	0.790900
C401	C40	0.151300	0.664900	0.846900
H361	H36	0.172400	0.691400	0.839900
C411	C41	0.135800	0.657600	0.886300
C421	C42	0.104300	0.619400	0.894800
H371	H37	0.094400	0.612500	0.921700
C431	C43	0.086300	0.590300	0.863900
H381	H38	0.062100	0.565100	0.870100
C441	C44	0.150100	0.690600	0.919300
C451	C45	0.191100	0.684700	0.949400
C461	C46	0.128100	0.733400	0.923400
C471	C47	0.228200	0.645400	0.959400
H391	H39	0.249900	0.651500	0.984200
H401	H40	0.256100	0.639900	0.937600
H411	H41	0.203100	0.618900	0.963100
C481	C48	0.081900	0.759300	0.899200
H421	H42	0.092700	0.791300	0.898300
H431	H43	0.043300	0.756100	0.912000
H441	H44	0.080200	0.747300	0.872000
O91	O9	0.460800	0.959700	0.799400
O101	O10	0.392800	0.928800	0.758600
N91	N9	0.307300	0.778300	0.973200
N101	N10	0.346400	0.749900	0.955400
H451	H45	0.353900	0.722700	0.964500
C491	C49	0.417300	0.933100	0.791300
C501	C50	0.397400	0.902800	0.826100
C511	C51	0.363500	0.865500	0.817500
H461	H46	0.350100	0.860700	0.790900
C521	C52	0.348700	0.835100	0.846900
H471	H47	0.327600	0.808600	0.839900
C531	C53	0.364200	0.842400	0.886300
C541	C54	0.395700	0.880600	0.894800
H481	H48	0.405600	0.887500	0.921700
C551	C55	0.413700	0.909700	0.863900
H491	H49	0.437900	0.934900	0.870100
C561	C56	0.349900	0.809400	0.919300
C571	C57	0.308900	0.815300	0.949400
C581	C58	0.371900	0.766600	0.923400
C591	C59	0.271800	0.854600	0.959400
H501	H50	0.250100	0.848500	0.984200
H511	H51	0.243900	0.860100	0.937600
H521	H52	0.296900	0.881100	0.963100
C601	C60	0.418100	0.740700	0.899200
H531	H53	0.407300	0.708700	0.898300
H541	H54	0.456700	0.743900	0.912000
H551	H55	0.419800	0.752700	0.872000
O111	O11	0.460800	0.459700	0.299400
O121	O12	0.392800	0.428800	0.258600
N111	N11	0.307300	0.278300	0.473200
N121	N12	0.346400	0.249900	0.455400
H561	H56	0.353900	0.222700	0.464500
C611	C61	0.417300	0.433100	0.291300
C621	C62	0.397400	0.402800	0.326100
C631	C63	0.363500	0.365500	0.317500
H571	H57	0.350100	0.360700	0.290900
C641	C64	0.348700	0.335100	0.346900
H581	H58	0.327600	0.308600	0.339900
C651	C65	0.364200	0.342400	0.386300
C661	C66	0.395700	0.380600	0.394800
H591	H59	0.405600	0.387500	0.421700
C671	C67	0.413700	0.409700	0.363900
H601	H60	0.437900	0.434900	0.370100
C681	C68	0.349900	0.309400	0.419300
C691	C69	0.308900	0.315300	0.449400
C701	C70	0.371900	0.266600	0.423400
C711	C71	0.271800	0.354600	0.459400
H611	H61	0.250100	0.348500	0.484200
H621	H62	0.243900	0.360100	0.437600
H631	H63	0.296900	0.381100	0.463100
C721	C72	0.418100	0.240700	0.399200
H641	H64	0.407300	0.208700	0.398300
H651	H65	0.456700	0.243900	0.412000
H661	H66	0.419800	0.252700	0.372000
O131	O13	0.960800	0.959700	0.299400
O141	O14	0.892800	0.928800	0.258600
N131	N13	0.807300	0.778300	0.473200
N141	N14	0.846400	0.749900	0.455400
H671	H67	0.853900	0.722700	0.464500
C731	C73	0.917300	0.933100	0.291300
C741	C74	0.897400	0.902800	0.326100
C751	C75	0.863500	0.865500	0.317500
H681	H68	0.850100	0.860700	0.290900
C761	C76	0.848700	0.835100	0.346900
H691	H69	0.827600	0.808600	0.339900
C771	C77	0.864200	0.842400	0.386300
C781	C78	0.895700	0.880600	0.394800
H701	H70	0.905600	0.887500	0.421700
C791	C79	0.913700	0.909700	0.363900
H711	H71	0.937900	0.934900	0.370100
C801	C80	0.849900	0.809400	0.419300
C811	C81	0.808900	0.815300	0.449400
C821	C82	0.871900	0.766600	0.423400
C831	C83	0.771800	0.854600	0.459400
H721	H72	0.750100	0.848500	0.484200
H731	H73	0.743900	0.860100	0.437600
H741	H74	0.796900	0.881100	0.463100
C841	C84	0.918100	0.740700	0.399200
H751	H75	0.907300	0.708700	0.398300
H761	H76	0.956700	0.743900	0.412000
H771	H77	0.919800	0.752700	0.372000
O151	O15	0.960800	0.459700	0.799400
O161	O16	0.892800	0.428800	0.758600
N151	N15	0.807300	0.278300	0.973200
N161	N16	0.846400	0.249900	0.955400
H781	H78	0.853900	0.222700	0.964500
C851	C85	0.917300	0.433100	0.791300
C861	C86	0.897400	0.402800	0.826100
C871	C87	0.863500	0.365500	0.817500
H791	H79	0.850100	0.360700	0.790900
C881	C88	0.848700	0.335100	0.846900
H801	H80	0.827600	0.308600	0.839900
C891	C89	0.864200	0.342400	0.886300
C901	C90	0.895700	0.380600	0.894800
H811	H81	0.905600	0.387500	0.921700
C911	C91	0.913700	0.409700	0.863900
H821	H82	0.937900	0.434900	0.870100
C921	C92	0.849900	0.309400	0.919300
C931	C93	0.808900	0.315300	0.949400
C941	C94	0.871900	0.266600	0.923400
C951	C95	0.771800	0.354600	0.959400
H831	H83	0.750100	0.348500	0.984200
H841	H84	0.743900	0.360100	0.937600
H851	H85	0.796900	0.381100	0.963100
C961	C96	0.918100	0.240700	0.899200
H861	H86	0.907300	0.208700	0.898300
H871	H87	0.956700	0.243900	0.912000
H881	H88	0.919800	0.252700	0.872000
O171	O17	0.789200	0.209700	0.049400
O181	O18	0.857200	0.178800	0.008600
N171	N17	0.942700	0.028300	0.223200
N181	N18	0.903600	0.999900	0.205400
H891	H89	0.896100	0.972700	0.214500
C971	C97	0.832700	0.183100	0.041300
C981	C98	0.852600	0.152800	0.076100
C991	C99	0.886500	0.115500	0.067500
H901	H90	0.899900	0.110700	0.040900
C1001	C100	0.901300	0.085100	0.096900
H911	H91	0.922400	0.058600	0.089900
C1011	C101	0.885800	0.092400	0.136300
C1021	C102	0.854300	0.130600	0.144800
H921	H92	0.844400	0.137500	0.171700
C1031	C103	0.836300	0.159700	0.113900
H931	H93	0.812100	0.184900	0.120100
C1041	C104	0.900100	0.059400	0.169300
C1051	C105	0.941100	0.065300	0.199400
C1061	C106	0.878100	0.016600	0.173400
C1071	C107	0.978200	0.104600	0.209400
H941	H94	0.999900	0.098500	0.234200
H951	H95	0.006100	0.110100	0.187600
H961	H96	0.953100	0.131100	0.213100
C1081	C108	0.831900	0.990700	0.149200
H971	H97	0.842700	0.958700	0.148300
H981	H98	0.793300	0.993900	0.162000
H991	H99	0.830200	0.002700	0.122000
O191	O19	0.789200	0.709700	0.549400
O201	O20	0.857200	0.678800	0.508600
N191	N19	0.942700	0.528300	0.723200
N201	N20	0.903600	0.499900	0.705400
H1001	H100	0.896100	0.472700	0.714500
C1091	C109	0.832700	0.683100	0.541300
C1101	C110	0.852600	0.652800	0.576100
C1111	C111	0.886500	0.615500	0.567500
H1011	H101	0.899900	0.610700	0.540900
C1121	C112	0.901300	0.585100	0.596900
H1021	H102	0.922400	0.558600	0.589900
C1131	C113	0.885800	0.592400	0.636300
C1141	C114	0.854300	0.630600	0.644800
H1031	H103	0.844400	0.637500	0.671700
C1151	C115	0.836300	0.659700	0.613900
H1041	H104	0.812100	0.684900	0.620100
C1161	C116	0.900100	0.559400	0.669300
C1171	C117	0.941100	0.565300	0.699400
C1181	C118	0.878100	0.516600	0.673400
C1191	C119	0.978200	0.604600	0.709400
H1051	H105	0.999900	0.598500	0.734200
H1061	H106	0.006100	0.610100	0.687600
H1071	H107	0.953100	0.631100	0.713100
C1201	C120	0.831900	0.490700	0.649200
H1081	H108	0.842700	0.458700	0.648300
H1091	H109	0.793300	0.493900	0.662000
H1101	H110	0.830200	0.502700	0.622000
O211	O21	0.289200	0.209700	0.549400
O221	O22	0.357200	0.178800	0.508600
N211	N21	0.442700	0.028300	0.723200
N221	N22	0.403600	0.999900	0.705400
H1111	H111	0.396100	0.972700	0.714500
C1211	C121	0.332700	0.183100	0.541300
C1221	C122	0.352600	0.152800	0.576100
C1231	C123	0.386500	0.115500	0.567500
H1121	H112	0.399900	0.110700	0.540900
C1241	C124	0.401300	0.085100	0.596900
H1131	H113	0.422400	0.058600	0.589900
C1251	C125	0.385800	0.092400	0.636300
C1261	C126	0.354300	0.130600	0.644800
H1141	H114	0.344400	0.137500	0.671700
C1271	C127	0.336300	0.159700	0.613900
H1151	H115	0.312100	0.184900	0.620100
C1281	C128	0.400100	0.059400	0.669300
C1291	C129	0.441100	0.065300	0.699400
C1301	C130	0.378100	0.016600	0.673400
C1311	C131	0.478200	0.104600	0.709400
H1161	H116	0.499900	0.098500	0.734200
H1171	H117	0.506100	0.110100	0.687600
H1181	H118	0.453100	0.131100	0.713100
C1321	C132	0.331900	0.990700	0.649200
H1191	H119	0.342700	0.958700	0.648300
H1201	H120	0.293300	0.993900	0.662000
H1211	H121	0.330200	0.002700	0.622000
O231	O23	0.289200	0.709700	0.049400
O241	O24	0.357200	0.678800	0.008600
N231	N23	0.442700	0.528300	0.223200
N241	N24	0.403600	0.499900	0.205400
H1221	H122	0.396100	0.472700	0.214500
C1331	C133	0.332700	0.683100	0.041300
C1341	C134	0.352600	0.652800	0.076100
C1351	C135	0.386500	0.615500	0.067500
H1231	H123	0.399900	0.610700	0.040900
C1361	C136	0.401300	0.585100	0.096900
H1241	H124	0.422400	0.558600	0.089900
C1371	C137	0.385800	0.592400	0.136300
C1381	C138	0.354300	0.630600	0.144800
H1251	H125	0.344400	0.637500	0.171700
C1391	C139	0.336300	0.659700	0.113900
H1261	H126	0.312100	0.684900	0.120100
C1401	C140	0.400100	0.559400	0.169300
C1411	C141	0.441100	0.565300	0.199400
C1421	C142	0.378100	0.516600	0.173400
C1431	C143	0.478200	0.604600	0.209400
H1271	H127	0.499900	0.598500	0.234200
H1281	H128	0.506100	0.610100	0.187600
H1291	H129	0.453100	0.631100	0.213100
C1441	C144	0.331900	0.490700	0.149200
H1301	H130	0.342700	0.458700	0.148300
H1311	H131	0.293300	0.493900	0.162000
H1321	H132	0.330200	0.502700	0.122000
O251	O25	0.710800	0.290300	0.049400
O261	O26	0.642800	0.321200	0.008600
N251	N25	0.557300	0.471700	0.223200
N261	N26	0.596400	0.500100	0.205400
H1331	H133	0.603900	0.527300	0.214500
C1451	C145	0.667300	0.316900	0.041300
C1461	C146	0.647400	0.347200	0.076100
C1471	C147	0.613500	0.384500	0.067500
H1341	H134	0.600100	0.389300	0.040900
C1481	C148	0.598700	0.414900	0.096900
H1351	H135	0.577600	0.441400	0.089900
C1491	C149	0.614200	0.407600	0.136300
C1501	C150	0.645700	0.369400	0.144800
H1361	H136	0.655600	0.362500	0.171700
C1511	C151	0.663700	0.340300	0.113900
H1371	H137	0.687900	0.315100	0.120100
C1521	C152	0.599900	0.440600	0.169300
C1531	C153	0.558900	0.434700	0.199400
C1541	C154	0.621900	0.483400	0.173400
C1551	C155	0.521800	0.395400	0.209400
H1381	H138	0.500100	0.401500	0.234200
H1391	H139	0.493900	0.389900	0.187600
H1401	H140	0.546900	0.368900	0.213100
C1561	C156	0.668100	0.509300	0.149200
H1411	H141	0.657300	0.541300	0.148300
H1421	H142	0.706700	0.506100	0.162000
H1431	H143	0.669800	0.497300	0.122000
O271	O27	0.710800	0.790300	0.549400
O281	O28	0.642800	0.821200	0.508600
N271	N27	0.557300	0.971700	0.723200
N281	N28	0.596400	0.000100	0.705400
H1441	H144	0.603900	0.027300	0.714500
C1571	C157	0.667300	0.816900	0.541300
C1581	C158	0.647400	0.847200	0.576100
C1591	C159	0.613500	0.884500	0.567500
H1451	H145	0.600100	0.889300	0.540900
C1601	C160	0.598700	0.914900	0.596900
H1461	H146	0.577600	0.941400	0.589900
C1611	C161	0.614200	0.907600	0.636300
C1621	C162	0.645700	0.869400	0.644800
H1471	H147	0.655600	0.862500	0.671700
C1631	C163	0.663700	0.840300	0.613900
H1481	H148	0.687900	0.815100	0.620100
C1641	C164	0.599900	0.940600	0.669300
C1651	C165	0.558900	0.934700	0.699400
C1661	C166	0.621900	0.983400	0.673400
C1671	C167	0.521800	0.895400	0.709400
H1491	H149	0.500100	0.901500	0.734200
H1501	H150	0.493900	0.889900	0.687600
H1511	H151	0.546900	0.868900	0.713100
C1681	C168	0.668100	0.009300	0.649200
H1521	H152	0.657300	0.041300	0.648300
H1531	H153	0.706700	0.006100	0.662000
H1541	H154	0.669800	0.997300	0.622000
O291	O29	0.210800	0.290300	0.549400
O301	O30	0.142800	0.321200	0.508600
N291	N29	0.057300	0.471700	0.723200
N301	N30	0.096400	0.500100	0.705400
H1551	H155	0.103900	0.527300	0.714500
C1691	C169	0.167300	0.316900	0.541300
C1701	C170	0.147400	0.347200	0.576100
C1711	C171	0.113500	0.384500	0.567500
H1561	H156	0.100100	0.389300	0.540900
C1721	C172	0.098700	0.414900	0.596900
H1571	H157	0.077600	0.441400	0.589900
C1731	C173	0.114200	0.407600	0.636300
C1741	C174	0.145700	0.369400	0.644800
H1581	H158	0.155600	0.362500	0.671700
C1751	C175	0.163700	0.340300	0.613900
H1591	H159	0.187900	0.315100	0.620100
C1761	C176	0.099900	0.440600	0.669300
C1771	C177	0.058900	0.434700	0.699400
C1781	C178	0.121900	0.483400	0.673400
C1791	C179	0.021800	0.395400	0.709400
H1601	H160	0.000100	0.401500	0.734200
H1611	H161	0.993900	0.389900	0.687600
H1621	H162	0.046900	0.368900	0.713100
C1801	C180	0.168100	0.509300	0.649200
H1631	H163	0.157300	0.541300	0.648300
H1641	H164	0.206700	0.506100	0.662000
H1651	H165	0.169800	0.497300	0.622000
O311	O31	0.210800	0.790300	0.049400
O321	O32	0.142800	0.821200	0.008600
N311	N31	0.057300	0.971700	0.223200
N321	N32	0.096400	0.000100	0.205400
H1661	H166	0.103900	0.027300	0.214500
C1811	C181	0.167300	0.816900	0.041300
C1821	C182	0.147400	0.847200	0.076100
C1831	C183	0.113500	0.884500	0.067500
H1671	H167	0.100100	0.889300	0.040900
C1841	C184	0.098700	0.914900	0.096900
H1681	H168	0.077600	0.941400	0.089900
C1851	C185	0.114200	0.907600	0.136300
C1861	C186	0.145700	0.869400	0.144800
H1691	H169	0.155600	0.862500	0.171700
C1871	C187	0.163700	0.840300	0.113900
H1701	H170	0.187900	0.815100	0.120100
C1881	C188	0.099900	0.940600	0.169300
C1891	C189	0.058900	0.934700	0.199400
C1901	C190	0.121900	0.983400	0.173400
C1911	C191	0.021800	0.895400	0.209400
H1711	H171	0.000100	0.901500	0.234200
H1721	H172	0.993900	0.889900	0.187600
H1731	H173	0.046900	0.868900	0.213100
C1921	C192	0.168100	0.009300	0.149200
H1741	H174	0.157300	0.041300	0.148300
H1751	H175	0.206700	0.006100	0.162000
H1761	H176	0.169800	0.997300	0.122000
Zn11	Zn1	0.500000	0.000000	0.762880
Zn21	Zn2	0.500000	0.500000	0.262880
Zn31	Zn3	0.000000	0.000000	0.262880
Zn41	Zn4	0.000000	0.500000	0.762880
Zn51	Zn5	0.750000	0.250000	0.012880
Zn61	Zn6	0.750000	0.750000	0.512880
Zn71	Zn7	0.250000	0.250000	0.512880
Zn81	Zn8	0.250000	0.750000	0.012880
Zn91	Zn9	0.497590	0.254550	0.718210
O331	O33	0.537400	0.293500	0.755600
O341	O34	0.618700	0.253000	0.767700
O351	O35	0.456500	0.295200	0.681400
O361	O36	0.371400	0.260600	0.669900
N331	N33	0.650400	0.447100	0.954200
H1771	H177	0.637600	0.455200	0.978000
N341	N34	0.699400	0.463900	0.936900
N351	N35	0.367200	0.463000	0.486400
H1781	H178	0.381900	0.477400	0.465600
N361	N36	0.309400	0.467700	0.498700
C1931	C193	0.586900	0.287000	0.772900
C1941	C194	0.607000	0.321800	0.802800
C1951	C195	0.570800	0.357000	0.814400
H1791	H179	0.533600	0.360500	0.801600
C1961	C196	0.586700	0.386600	0.843400
H1801	H180	0.560500	0.410100	0.850800
C1971	C197	0.641700	0.382800	0.862300
C1981	C198	0.680000	0.347500	0.850800
H1811	H181	0.717100	0.344100	0.863500
C1991	C199	0.662700	0.317400	0.820100
H1821	H182	0.688800	0.294400	0.811400
C2001	C200	0.654800	0.412800	0.896900
C2011	C201	0.704300	0.442400	0.901600
C2021	C202	0.623300	0.416500	0.930700
C2031	C203	0.754300	0.450200	0.873900
H1831	H183	0.789900	0.457100	0.889400
H1841	H184	0.745100	0.475600	0.856200
H1851	H185	0.761100	0.423100	0.857800
C2041	C204	0.569700	0.392600	0.944900
H1861	H186	0.554100	0.373800	0.923200
H1871	H187	0.539900	0.414700	0.952900
H1881	H188	0.579800	0.373600	0.967800
C2051	C205	0.407600	0.290400	0.664100
C2061	C206	0.396800	0.323500	0.631200
C2071	C207	0.436600	0.358400	0.623400
H1891	H189	0.472200	0.360400	0.638300
C2081	C208	0.424300	0.390200	0.593800
H1901	H190	0.451500	0.413800	0.588800
C2091	C209	0.371600	0.387700	0.571100
C2101	C210	0.332300	0.350700	0.579300
H1911	H191	0.297500	0.347200	0.563800
C2111	C211	0.344200	0.321200	0.608600
H1921	H192	0.316600	0.298100	0.614400
C2121	C212	0.359900	0.419700	0.539200
C2131	C213	0.305700	0.441200	0.530700
C2141	C214	0.398500	0.434800	0.508600
C2151	C215	0.249300	0.437100	0.553400
H1931	H193	0.229100	0.466200	0.553600
H1941	H194	0.257800	0.427800	0.580900
H1951	H195	0.224100	0.414500	0.540500
C2161	C216	0.460300	0.425800	0.500900
H1961	H196	0.469400	0.433000	0.473000
H1971	H197	0.468400	0.393800	0.505800
H1981	H198	0.484600	0.444200	0.518700
Zn101	Zn10	0.497590	0.754550	0.218210
O371	O37	0.537400	0.793500	0.255600
O381	O38	0.618700	0.753000	0.267700
O391	O39	0.456500	0.795200	0.181400
O401	O40	0.371400	0.760600	0.169900
N371	N37	0.650400	0.947100	0.454200
H1991	H199	0.637600	0.955200	0.478000
N381	N38	0.699400	0.963900	0.436900
N391	N39	0.367200	0.963000	0.986400
H2001	H200	0.381900	0.977400	0.965600
N401	N40	0.309400	0.967700	0.998700
C2171	C217	0.586900	0.787000	0.272900
C2181	C218	0.607000	0.821800	0.302800
C2191	C219	0.570800	0.857000	0.314400
H2011	H201	0.533600	0.860500	0.301600
C2201	C220	0.586700	0.886600	0.343400
H2021	H202	0.560500	0.910100	0.350800
C2211	C221	0.641700	0.882800	0.362300
C2221	C222	0.680000	0.847500	0.350800
H2031	H203	0.717100	0.844100	0.363500
C2231	C223	0.662700	0.817400	0.320100
H2041	H204	0.688800	0.794400	0.311400
C2241	C224	0.654800	0.912800	0.396900
C2251	C225	0.704300	0.942400	0.401600
C2261	C226	0.623300	0.916500	0.430700
C2271	C227	0.754300	0.950200	0.373900
H2051	H205	0.789900	0.957100	0.389400
H2061	H206	0.745100	0.975600	0.356200
H2071	H207	0.761100	0.923100	0.357800
C2281	C228	0.569700	0.892600	0.444900
H2081	H208	0.554100	0.873800	0.423200
H2091	H209	0.539900	0.914700	0.452900
H2101	H210	0.579800	0.873600	0.467800
C2291	C229	0.407600	0.790400	0.164100
C2301	C230	0.396800	0.823500	0.131200
C2311	C231	0.436600	0.858400	0.123400
H2111	H211	0.472200	0.860400	0.138300
C2321	C232	0.424300	0.890200	0.093800
H2121	H212	0.451500	0.913800	0.088800
C2331	C233	0.371600	0.887700	0.071100
C2341	C234	0.332300	0.850700	0.079300
H2131	H213	0.297500	0.847200	0.063800
C2351	C235	0.344200	0.821200	0.108600
H2141	H214	0.316600	0.798100	0.114400
C2361	C236	0.359900	0.919700	0.039200
C2371	C237	0.305700	0.941200	0.030700
C2381	C238	0.398500	0.934800	0.008600
C2391	C239	0.249300	0.937100	0.053400
H2151	H215	0.229100	0.966200	0.053600
H2161	H216	0.257800	0.927800	0.080900
H2171	H217	0.224100	0.914500	0.040500
C2401	C240	0.460300	0.925800	0.000900
H2181	H218	0.469400	0.933000	0.973000
H2191	H219	0.468400	0.893800	0.005800
H2201	H220	0.484600	0.944200	0.018700
Zn111	Zn11	0.997590	0.254550	0.218210
O411	O41	0.037400	0.293500	0.255600
O421	O42	0.118700	0.253000	0.267700
O431	O43	0.956500	0.295200	0.181400
O441	O44	0.871400	0.260600	0.169900
N411	N41	0.150400	0.447100	0.454200
H2211	H221	0.137600	0.455200	0.478000
N421	N42	0.199400	0.463900	0.436900
N431	N43	0.867200	0.463000	0.986400
H2221	H222	0.881900	0.477400	0.965600
N441	N44	0.809400	0.467700	0.998700
C2411	C241	0.086900	0.287000	0.272900
C2421	C242	0.107000	0.321800	0.302800
C2431	C243	0.070800	0.357000	0.314400
H2231	H223	0.033600	0.360500	0.301600
C2441	C244	0.086700	0.386600	0.343400
H2241	H224	0.060500	0.410100	0.350800
C2451	C245	0.141700	0.382800	0.362300
C2461	C246	0.180000	0.347500	0.350800
H2251	H225	0.217100	0.344100	0.363500
C2471	C247	0.162700	0.317400	0.320100
H2261	H226	0.188800	0.294400	0.311400
C2481	C248	0.154800	0.412800	0.396900
C2491	C249	0.204300	0.442400	0.401600
C2501	C250	0.123300	0.416500	0.430700
C2511	C251	0.254300	0.450200	0.373900
H2271	H227	0.289900	0.457100	0.389400
H2281	H228	0.245100	0.475600	0.356200
H2291	H229	0.261100	0.423100	0.357800
C2521	C252	0.069700	0.392600	0.444900
H2301	H230	0.054100	0.373800	0.423200
H2311	H231	0.039900	0.414700	0.452900
H2321	H232	0.079800	0.373600	0.467800
C2531	C253	0.907600	0.290400	0.164100
C2541	C254	0.896800	0.323500	0.131200
C2551	C255	0.936600	0.358400	0.123400
H2331	H233	0.972200	0.360400	0.138300
C2561	C256	0.924300	0.390200	0.093800
H2341	H234	0.951500	0.413800	0.088800
C2571	C257	0.871600	0.387700	0.071100
C2581	C258	0.832300	0.350700	0.079300
H2351	H235	0.797500	0.347200	0.063800
C2591	C259	0.844200	0.321200	0.108600
H2361	H236	0.816600	0.298100	0.114400
C2601	C260	0.859900	0.419700	0.039200
C2611	C261	0.805700	0.441200	0.030700
C2621	C262	0.898500	0.434800	0.008600
C2631	C263	0.749300	0.437100	0.053400
H2371	H237	0.729100	0.466200	0.053600
H2381	H238	0.757800	0.427800	0.080900
H2391	H239	0.724100	0.414500	0.040500
C2641	C264	0.960300	0.425800	0.000900
H2401	H240	0.969400	0.433000	0.973000
H2411	H241	0.968400	0.393800	0.005800
H2421	H242	0.984600	0.444200	0.018700
Zn121	Zn12	0.997590	0.754550	0.718210
O451	O45	0.037400	0.793500	0.755600
O461	O46	0.118700	0.753000	0.767700
O471	O47	0.956500	0.795200	0.681400
O481	O48	0.871400	0.760600	0.669900
N451	N45	0.150400	0.947100	0.954200
H2431	H243	0.137600	0.955200	0.978000
N461	N46	0.199400	0.963900	0.936900
N471	N47	0.867200	0.963000	0.486400
H2441	H244	0.881900	0.977400	0.465600
N481	N48	0.809400	0.967700	0.498700
C2651	C265	0.086900	0.787000	0.772900
C2661	C266	0.107000	0.821800	0.802800
C2671	C267	0.070800	0.857000	0.814400
H2451	H245	0.033600	0.860500	0.801600
C2681	C268	0.086700	0.886600	0.843400
H2461	H246	0.060500	0.910100	0.850800
C2691	C269	0.141700	0.882800	0.862300
C2701	C270	0.180000	0.847500	0.850800
H2471	H247	0.217100	0.844100	0.863500
C2711	C271	0.162700	0.817400	0.820100
H2481	H248	0.188800	0.794400	0.811400
C2721	C272	0.154800	0.912800	0.896900
C2731	C273	0.204300	0.942400	0.901600
C2741	C274	0.123300	0.916500	0.930700
C2751	C275	0.254300	0.950200	0.873900
H2491	H249	0.289900	0.957100	0.889400
H2501	H250	0.245100	0.975600	0.856200
H2511	H251	0.261100	0.923100	0.857800
C2761	C276	0.069700	0.892600	0.944900
H2521	H252	0.054100	0.873800	0.923200
H2531	H253	0.039900	0.914700	0.952900
H2541	H254	0.079800	0.873600	0.967800
C2771	C277	0.907600	0.790400	0.664100
C2781	C278	0.896800	0.823500	0.631200
C2791	C279	0.936600	0.858400	0.623400
H2551	H255	0.972200	0.860400	0.638300
C2801	C280	0.924300	0.890200	0.593800
H2561	H256	0.951500	0.913800	0.588800
C2811	C281	0.871600	0.887700	0.571100
C2821	C282	0.832300	0.850700	0.579300
H2571	H257	0.797500	0.847200	0.563800
C2831	C283	0.844200	0.821200	0.608600
H2581	H258	0.816600	0.798100	0.614400
C2841	C284	0.859900	0.919700	0.539200
C2851	C285	0.805700	0.941200	0.530700
C2861	C286	0.898500	0.934800	0.508600
C2871	C287	0.749300	0.937100	0.553400
H2591	H259	0.729100	0.966200	0.553600
H2601	H260	0.757800	0.927800	0.580900
H2611	H261	0.724100	0.914500	0.540500
C2881	C288	0.960300	0.925800	0.500900
H2621	H262	0.969400	0.933000	0.473000
H2631	H263	0.968400	0.893800	0.505800
H2641	H264	0.984600	0.944200	0.518700
Zn131	Zn13	0.752410	0.504550	0.968210
O491	O49	0.712600	0.543500	0.005600
O501	O50	0.631300	0.503000	0.017700
O511	O51	0.793500	0.545200	0.931400
O521	O52	0.878600	0.510600	0.919900
N491	N49	0.599600	0.697100	0.204200
H2651	H265	0.612400	0.705200	0.228000
N501	N50	0.550600	0.713900	0.186900
N511	N51	0.882800	0.713000	0.736400
H2661	H266	0.868100	0.727400	0.715600
N521	N52	0.940600	0.717700	0.748700
C2891	C289	0.663100	0.537000	0.022900
C2901	C290	0.643000	0.571800	0.052800
C2911	C291	0.679200	0.607000	0.064400
H2671	H267	0.716400	0.610500	0.051600
C2921	C292	0.663300	0.636600	0.093400
H2681	H268	0.689500	0.660100	0.100800
C2931	C293	0.608300	0.632800	0.112300
C2941	C294	0.570000	0.597500	0.100800
H2691	H269	0.532900	0.594100	0.113500
C2951	C295	0.587300	0.567400	0.070100
H2701	H270	0.561200	0.544400	0.061400
C2961	C296	0.595200	0.662800	0.146900
C2971	C297	0.545700	0.692400	0.151600
C2981	C298	0.626700	0.666500	0.180700
C2991	C299	0.495700	0.700200	0.123900
H2711	H271	0.460100	0.707100	0.139400
H2721	H272	0.504900	0.725600	0.106200
H2731	H273	0.488900	0.673100	0.107800
C3001	C300	0.680300	0.642600	0.194900
H2741	H274	0.695900	0.623800	0.173200
H2751	H275	0.710100	0.664700	0.202900
H2761	H276	0.670200	0.623600	0.217800
C3011	C301	0.842400	0.540400	0.914100
C3021	C302	0.853200	0.573500	0.881200
C3031	C303	0.813400	0.608400	0.873400
H2771	H277	0.777800	0.610400	0.888300
C3041	C304	0.825700	0.640200	0.843800
H2781	H278	0.798500	0.663800	0.838800
C3051	C305	0.878400	0.637700	0.821100
C3061	C306	0.917700	0.600700	0.829300
H2791	H279	0.952500	0.597200	0.813800
C3071	C307	0.905800	0.571200	0.858600
H2801	H280	0.933400	0.548100	0.864400
C3081	C308	0.890100	0.669700	0.789200
C3091	C309	0.944300	0.691200	0.780700
C3101	C310	0.851500	0.684800	0.758600
C3111	C311	0.000700	0.687100	0.803400
H2811	H281	0.020900	0.716200	0.803600
H2821	H282	0.992200	0.677800	0.830900
H2831	H283	0.025900	0.664500	0.790500
C3121	C312	0.789700	0.675800	0.750900
H2841	H284	0.780600	0.683000	0.723000
H2851	H285	0.781600	0.643800	0.755800
H2861	H286	0.765400	0.694200	0.768700
Zn141	Zn14	0.752410	0.004550	0.468210
O531	O53	0.712600	0.043500	0.505600
O541	O54	0.631300	0.003000	0.517700
O551	O55	0.793500	0.045200	0.431400
O561	O56	0.878600	0.010600	0.419900
N531	N53	0.599600	0.197100	0.704200
H2871	H287	0.612400	0.205200	0.728000
N541	N54	0.550600	0.213900	0.686900
N551	N55	0.882800	0.213000	0.236400
H2881	H288	0.868100	0.227400	0.215600
N561	N56	0.940600	0.217700	0.248700
C3131	C313	0.663100	0.037000	0.522900
C3141	C314	0.643000	0.071800	0.552800
C3151	C315	0.679200	0.107000	0.564400
H2891	H289	0.716400	0.110500	0.551600
C3161	C316	0.663300	0.136600	0.593400
H2901	H290	0.689500	0.160100	0.600800
C3171	C317	0.608300	0.132800	0.612300
C3181	C318	0.570000	0.097500	0.600800
H2911	H291	0.532900	0.094100	0.613500
C3191	C319	0.587300	0.067400	0.570100
H2921	H292	0.561200	0.044400	0.561400
C3201	C320	0.595200	0.162800	0.646900
C3211	C321	0.545700	0.192400	0.651600
C3221	C322	0.626700	0.166500	0.680700
C3231	C323	0.495700	0.200200	0.623900
H2931	H293	0.460100	0.207100	0.639400
H2941	H294	0.504900	0.225600	0.606200
H2951	H295	0.488900	0.173100	0.607800
C3241	C324	0.680300	0.142600	0.694900
H2961	H296	0.695900	0.123800	0.673200
H2971	H297	0.710100	0.164700	0.702900
H2981	H298	0.670200	0.123600	0.717800
C3251	C325	0.842400	0.040400	0.414100
C3261	C326	0.853200	0.073500	0.381200
C3271	C327	0.813400	0.108400	0.373400
H2991	H299	0.777800	0.110400	0.388300
C3281	C328	0.825700	0.140200	0.343800
H3001	H300	0.798500	0.163800	0.338800
C3291	C329	0.878400	0.137700	0.321100
C3301	C330	0.917700	0.100700	0.329300
H3011	H301	0.952500	0.097200	0.313800
C3311	C331	0.905800	0.071200	0.358600
H3021	H302	0.933400	0.048100	0.364400
C3321	C332	0.890100	0.169700	0.289200
C3331	C333	0.944300	0.191200	0.280700
C3341	C334	0.851500	0.184800	0.258600
C3351	C335	0.000700	0.187100	0.303400
H3031	H303	0.020900	0.216200	0.303600
H3041	H304	0.992200	0.177800	0.330900
H3051	H305	0.025900	0.164500	0.290500
C3361	C336	0.789700	0.175800	0.250900
H3061	H306	0.780600	0.183000	0.223000
H3071	H307	0.781600	0.143800	0.255800
H3081	H308	0.765400	0.194200	0.268700
Zn151	Zn15	0.252410	0.504550	0.468210
O571	O57	0.212600	0.543500	0.505600
O581	O58	0.131300	0.503000	0.517700
O591	O59	0.293500	0.545200	0.431400
O601	O60	0.378600	0.510600	0.419900
N571	N57	0.099600	0.697100	0.704200
H3091	H309	0.112400	0.705200	0.728000
N581	N58	0.050600	0.713900	0.686900
N591	N59	0.382800	0.713000	0.236400
H3101	H310	0.368100	0.727400	0.215600
N601	N60	0.440600	0.717700	0.248700
C3371	C337	0.163100	0.537000	0.522900
C3381	C338	0.143000	0.571800	0.552800
C3391	C339	0.179200	0.607000	0.564400
H3111	H311	0.216400	0.610500	0.551600
C3401	C340	0.163300	0.636600	0.593400
H3121	H312	0.189500	0.660100	0.600800
C3411	C341	0.108300	0.632800	0.612300
C3421	C342	0.070000	0.597500	0.600800
H3131	H313	0.032900	0.594100	0.613500
C3431	C343	0.087300	0.567400	0.570100
H3141	H314	0.061200	0.544400	0.561400
C3441	C344	0.095200	0.662800	0.646900
C3451	C345	0.045700	0.692400	0.651600
C3461	C346	0.126700	0.666500	0.680700
C3471	C347	0.995700	0.700200	0.623900
H3151	H315	0.960100	0.707100	0.639400
H3161	H316	0.004900	0.725600	0.606200
H3171	H317	0.988900	0.673100	0.607800
C3481	C348	0.180300	0.642600	0.694900
H3181	H318	0.195900	0.623800	0.673200
H3191	H319	0.210100	0.664700	0.702900
H3201	H320	0.170200	0.623600	0.717800
C3491	C349	0.342400	0.540400	0.414100
C3501	C350	0.353200	0.573500	0.381200
C3511	C351	0.313400	0.608400	0.373400
H3211	H321	0.277800	0.610400	0.388300
C3521	C352	0.325700	0.640200	0.343800
H3221	H322	0.298500	0.663800	0.338800
C3531	C353	0.378400	0.637700	0.321100
C3541	C354	0.417700	0.600700	0.329300
H3231	H323	0.452500	0.597200	0.313800
C3551	C355	0.405800	0.571200	0.358600
H3241	H324	0.433400	0.548100	0.364400
C3561	C356	0.390100	0.669700	0.289200
C3571	C357	0.444300	0.691200	0.280700
C3581	C358	0.351500	0.684800	0.258600
C3591	C359	0.500700	0.687100	0.303400
H3251	H325	0.520900	0.716200	0.303600
H3261	H326	0.492200	0.677800	0.330900
H3271	H327	0.525900	0.664500	0.290500
C3601	C360	0.289700	0.675800	0.250900
H3281	H328	0.280600	0.683000	0.223000
H3291	H329	0.281600	0.643800	0.255800
H3301	H330	0.265400	0.694200	0.268700
Zn161	Zn16	0.252410	0.004550	0.968210
O611	O61	0.212600	0.043500	0.005600
O621	O62	0.131300	0.003000	0.017700
O631	O63	0.293500	0.045200	0.931400
O641	O64	0.378600	0.010600	0.919900
N611	N61	0.099600	0.197100	0.204200
H3311	H331	0.112400	0.205200	0.228000
N621	N62	0.050600	0.213900	0.186900
N631	N63	0.382800	0.213000	0.736400
H3321	H332	0.368100	0.227400	0.715600
N641	N64	0.440600	0.217700	0.748700
C3611	C361	0.163100	0.037000	0.022900
C3621	C362	0.143000	0.071800	0.052800
C3631	C363	0.179200	0.107000	0.064400
H3331	H333	0.216400	0.110500	0.051600
C3641	C364	0.163300	0.136600	0.093400
H3341	H334	0.189500	0.160100	0.100800
C3651	C365	0.108300	0.132800	0.112300
C3661	C366	0.070000	0.097500	0.100800
H3351	H335	0.032900	0.094100	0.113500
C3671	C367	0.087300	0.067400	0.070100
H3361	H336	0.061200	0.044400	0.061400
C3681	C368	0.095200	0.162800	0.146900
C3691	C369	0.045700	0.192400	0.151600
C3701	C370	0.126700	0.166500	0.180700
C3711	C371	0.995700	0.200200	0.123900
H3371	H337	0.960100	0.207100	0.139400
H3381	H338	0.004900	0.225600	0.106200
H3391	H339	0.988900	0.173100	0.107800
C3721	C372	0.180300	0.142600	0.194900
H3401	H340	0.195900	0.123800	0.173200
H3411	H341	0.210100	0.164700	0.202900
H3421	H342	0.170200	0.123600	0.217800
C3731	C373	0.342400	0.040400	0.914100
C3741	C374	0.353200	0.073500	0.881200
C3751	C375	0.313400	0.108400	0.873400
H3431	H343	0.277800	0.110400	0.888300
C3761	C376	0.325700	0.140200	0.843800
H3441	H344	0.298500	0.163800	0.838800
C3771	C377	0.378400	0.137700	0.821100
C3781	C378	0.417700	0.100700	0.829300
H3451	H345	0.452500	0.097200	0.813800
C3791	C379	0.405800	0.071200	0.858600
H3461	H346	0.433400	0.048100	0.864400
C3801	C380	0.390100	0.169700	0.789200
C3811	C381	0.444300	0.191200	0.780700
C3821	C382	0.351500	0.184800	0.758600
C3831	C383	0.500700	0.187100	0.803400
H3471	H347	0.520900	0.216200	0.803600
H3481	H348	0.492200	0.177800	0.830900
H3491	H349	0.525900	0.164500	0.790500
C3841	C384	0.289700	0.175800	0.750900
H3501	H350	0.280600	0.183000	0.723000
H3511	H351	0.281600	0.143800	0.755800
H3521	H352	0.265400	0.194200	0.768700
O651	O65	0.787500	0.205300	0.578300
O661	O66	0.872400	0.239000	0.588500
N651	N65	0.885700	0.037200	0.773000
H3531	H353	0.870500	0.021800	0.793000
N661	N66	0.943500	0.035500	0.762400
C3851	C385	0.837400	0.208900	0.595500
C3861	C386	0.851500	0.174500	0.627200
C3871	C387	0.815200	0.136600	0.634900
H3541	H354	0.780400	0.132600	0.619600
C3881	C388	0.829500	0.105400	0.664200
H3551	H355	0.806100	0.079100	0.667900
C3891	C389	0.879400	0.113400	0.688600
C3901	C390	0.917800	0.147600	0.680400
H3561	H356	0.953300	0.150800	0.695200
C3911	C391	0.903400	0.178300	0.649300
H3571	H357	0.929900	0.202100	0.643400
C3921	C392	0.893500	0.081200	0.720800
C3931	C393	0.948500	0.061300	0.731400
C3941	C394	0.855700	0.063900	0.750700
C3951	C395	0.007200	0.066700	0.709600
H3581	H358	0.037700	0.049200	0.723400
H3591	H359	0.018500	0.098600	0.709300
H3601	H360	0.003300	0.055900	0.682000
C3961	C396	0.789800	0.072900	0.756600
H3611	H361	0.781300	0.075900	0.785200
H3621	H362	0.767100	0.047800	0.745500
H3631	H363	0.778900	0.100800	0.742800
O671	O67	0.787500	0.705300	0.078300
O681	O68	0.872400	0.739000	0.088500
N671	N67	0.885700	0.537200	0.273000
H3641	H364	0.870500	0.521800	0.293000
N681	N68	0.943500	0.535500	0.262400
C3971	C397	0.837400	0.708900	0.095500
C3981	C398	0.851500	0.674500	0.127200
C3991	C399	0.815200	0.636600	0.134900
H3651	H365	0.780400	0.632600	0.119600
C4001	C400	0.829500	0.605400	0.164200
H3661	H366	0.806100	0.579100	0.167900
C4011	C401	0.879400	0.613400	0.188600
C4021	C402	0.917800	0.647600	0.180400
H3671	H367	0.953300	0.650800	0.195200
C4031	C403	0.903400	0.678300	0.149300
H3681	H368	0.929900	0.702100	0.143400
C4041	C404	0.893500	0.581200	0.220800
C4051	C405	0.948500	0.561300	0.231400
C4061	C406	0.855700	0.563900	0.250700
C4071	C407	0.007200	0.566700	0.209600
H3691	H369	0.037700	0.549200	0.223400
H3701	H370	0.018500	0.598600	0.209300
H3711	H371	0.003300	0.555900	0.182000
C4081	C408	0.789800	0.572900	0.256600
H3721	H372	0.781300	0.575900	0.285200
H3731	H373	0.767100	0.547800	0.245500
H3741	H374	0.778900	0.600800	0.242800
O691	O69	0.287500	0.205300	0.078300
O701	O70	0.372400	0.239000	0.088500
N691	N69	0.385700	0.037200	0.273000
H3751	H375	0.370500	0.021800	0.293000
N701	N70	0.443500	0.035500	0.262400
C4091	C409	0.337400	0.208900	0.095500
C4101	C410	0.351500	0.174500	0.127200
C4111	C411	0.315200	0.136600	0.134900
H3761	H376	0.280400	0.132600	0.119600
C4121	C412	0.329500	0.105400	0.164200
H3771	H377	0.306100	0.079100	0.167900
C4131	C413	0.379400	0.113400	0.188600
C4141	C414	0.417800	0.147600	0.180400
H3781	H378	0.453300	0.150800	0.195200
C4151	C415	0.403400	0.178300	0.149300
H3791	H379	0.429900	0.202100	0.143400
C4161	C416	0.393500	0.081200	0.220800
C4171	C417	0.448500	0.061300	0.231400
C4181	C418	0.355700	0.063900	0.250700
C4191	C419	0.507200	0.066700	0.209600
H3801	H380	0.537700	0.049200	0.223400
H3811	H381	0.518500	0.098600	0.209300
H3821	H382	0.503300	0.055900	0.182000
C4201	C420	0.289800	0.072900	0.256600
H3831	H383	0.281300	0.075900	0.285200
H3841	H384	0.267100	0.047800	0.245500
H3851	H385	0.278900	0.100800	0.242800
O711	O71	0.287500	0.705300	0.578300
O721	O72	0.372400	0.739000	0.588500
N711	N71	0.385700	0.537200	0.773000
H3861	H386	0.370500	0.521800	0.793000
N721	N72	0.443500	0.535500	0.762400
C4211	C421	0.337400	0.708900	0.595500
C4221	C422	0.351500	0.674500	0.627200
C4231	C423	0.315200	0.636600	0.634900
H3871	H387	0.280400	0.632600	0.619600
C4241	C424	0.329500	0.605400	0.664200
H3881	H388	0.306100	0.579100	0.667900
C4251	C425	0.379400	0.613400	0.688600
C4261	C426	0.417800	0.647600	0.680400
H3891	H389	0.453300	0.650800	0.695200
C4271	C427	0.403400	0.678300	0.649300
H3901	H390	0.429900	0.702100	0.643400
C4281	C428	0.393500	0.581200	0.720800
C4291	C429	0.448500	0.561300	0.731400
C4301	C430	0.355700	0.563900	0.750700
C4311	C431	0.507200	0.566700	0.709600
H3911	H391	0.537700	0.549200	0.723400
H3921	H392	0.518500	0.598600	0.709300
H3931	H393	0.503300	0.555900	0.682000
C4321	C432	0.289800	0.572900	0.756600
H3941	H394	0.281300	0.575900	0.785200
H3951	H395	0.267100	0.547800	0.745500
H3961	H396	0.278900	0.600800	0.742800
O731	O73	0.212500	0.794700	0.578300
O741	O74	0.127600	0.761000	0.588500
N731	N73	0.114300	0.962800	0.773000
H3971	H397	0.129500	0.978200	0.793000
N741	N74	0.056500	0.964500	0.762400
C4331	C433	0.162600	0.791100	0.595500
C4341	C434	0.148500	0.825500	0.627200
C4351	C435	0.184800	0.863400	0.634900
H3981	H398	0.219600	0.867400	0.619600
C4361	C436	0.170500	0.894600	0.664200
H3991	H399	0.193900	0.920900	0.667900
C4371	C437	0.120600	0.886600	0.688600
C4381	C438	0.082200	0.852400	0.680400
H4001	H400	0.046700	0.849200	0.695200
C4391	C439	0.096600	0.821700	0.649300
H4011	H401	0.070100	0.797900	0.643400
C4401	C440	0.106500	0.918800	0.720800
C4411	C441	0.051500	0.938700	0.731400
C4421	C442	0.144300	0.936100	0.750700
C4431	C443	0.992800	0.933300	0.709600
H4021	H402	0.962300	0.950800	0.723400
H4031	H403	0.981500	0.901400	0.709300
H4041	H404	0.996700	0.944100	0.682000
C4441	C444	0.210200	0.927100	0.756600
H4051	H405	0.218700	0.924100	0.785200
H4061	H406	0.232900	0.952200	0.745500
H4071	H407	0.221100	0.899200	0.742800
O751	O75	0.212500	0.294700	0.078300
O761	O76	0.127600	0.261000	0.088500
N751	N75	0.114300	0.462800	0.273000
H4081	H408	0.129500	0.478200	0.293000
N761	N76	0.056500	0.464500	0.262400
C4451	C445	0.162600	0.291100	0.095500
C4461	C446	0.148500	0.325500	0.127200
C4471	C447	0.184800	0.363400	0.134900
H4091	H409	0.219600	0.367400	0.119600
C4481	C448	0.170500	0.394600	0.164200
H4101	H410	0.193900	0.420900	0.167900
C4491	C449	0.120600	0.386600	0.188600
C4501	C450	0.082200	0.352400	0.180400
H4111	H411	0.046700	0.349200	0.195200
C4511	C451	0.096600	0.321700	0.149300
H4121	H412	0.070100	0.297900	0.143400
C4521	C452	0.106500	0.418800	0.220800
C4531	C453	0.051500	0.438700	0.231400
C4541	C454	0.144300	0.436100	0.250700
C4551	C455	0.992800	0.433300	0.209600
H4131	H413	0.962300	0.450800	0.223400
H4141	H414	0.981500	0.401400	0.209300
H4151	H415	0.996700	0.444100	0.182000
C4561	C456	0.210200	0.427100	0.256600
H4161	H416	0.218700	0.424100	0.285200
H4171	H417	0.232900	0.452200	0.245500
H4181	H418	0.221100	0.399200	0.242800
O771	O77	0.712500	0.794700	0.078300
O781	O78	0.627600	0.761000	0.088500
N771	N77	0.614300	0.962800	0.273000
H4191	H419	0.629500	0.978200	0.293000
N781	N78	0.556500	0.964500	0.262400
C4571	C457	0.662600	0.791100	0.095500
C4581	C458	0.648500	0.825500	0.127200
C4591	C459	0.684800	0.863400	0.134900
H4201	H420	0.719600	0.867400	0.119600
C4601	C460	0.670500	0.894600	0.164200
H4211	H421	0.693900	0.920900	0.167900
C4611	C461	0.620600	0.886600	0.188600
C4621	C462	0.582200	0.852400	0.180400
H4221	H422	0.546700	0.849200	0.195200
C4631	C463	0.596600	0.821700	0.149300
H4231	H423	0.570100	0.797900	0.143400
C4641	C464	0.606500	0.918800	0.220800
C4651	C465	0.551500	0.938700	0.231400
C4661	C466	0.644300	0.936100	0.250700
C4671	C467	0.492800	0.933300	0.209600
H4241	H424	0.462300	0.950800	0.223400
H4251	H425	0.481500	0.901400	0.209300
H4261	H426	0.496700	0.944100	0.182000
C4681	C468	0.710200	0.927100	0.256600
H4271	H427	0.718700	0.924100	0.285200
H4281	H428	0.732900	0.952200	0.245500
H4291	H429	0.721100	0.899200	0.242800
O791	O79	0.712500	0.294700	0.578300
O801	O80	0.627600	0.261000	0.588500
N791	N79	0.614300	0.462800	0.773000
H4301	H430	0.629500	0.478200	0.793000
N801	N80	0.556500	0.464500	0.762400
C4691	C469	0.662600	0.291100	0.595500
C4701	C470	0.648500	0.325500	0.627200
C4711	C471	0.684800	0.363400	0.634900
H4311	H431	0.719600	0.367400	0.619600
C4721	C472	0.670500	0.394600	0.664200
H4321	H432	0.693900	0.420900	0.667900
C4731	C473	0.620600	0.386600	0.688600
C4741	C474	0.582200	0.352400	0.680400
H4331	H433	0.546700	0.349200	0.695200
C4751	C475	0.596600	0.321700	0.649300
H4341	H434	0.570100	0.297900	0.643400
C4761	C476	0.606500	0.418800	0.720800
C4771	C477	0.551500	0.438700	0.731400
C4781	C478	0.644300	0.436100	0.750700
C4791	C479	0.492800	0.433300	0.709600
H4351	H435	0.462300	0.450800	0.723400
H4361	H436	0.481500	0.401400	0.709300
H4371	H437	0.496700	0.444100	0.682000
C4801	C480	0.710200	0.427100	0.756600
H4381	H438	0.718700	0.424100	0.785200
H4391	H439	0.732900	0.452200	0.745500
H4401	H440	0.721100	0.399200	0.742800
O811	O81	0.037500	0.044700	0.828300
O821	O82	0.122400	0.011000	0.838500
N811	N81	0.135700	0.212800	0.023000
H4411	H441	0.120500	0.228200	0.043000
N821	N82	0.193500	0.214500	0.012400
C4811	C481	0.087400	0.041100	0.845500
C4821	C482	0.101500	0.075500	0.877200
C4831	C483	0.065200	0.113400	0.884900
H4421	H442	0.030400	0.117400	0.869600
C4841	C484	0.079500	0.144600	0.914200
H4431	H443	0.056100	0.170900	0.917900
C4851	C485	0.129400	0.136600	0.938600
C4861	C486	0.167800	0.102400	0.930400
H4441	H444	0.203300	0.099200	0.945200
C4871	C487	0.153400	0.071700	0.899300
H4451	H445	0.179900	0.047900	0.893400
C4881	C488	0.143500	0.168800	0.970800
C4891	C489	0.198500	0.188700	0.981400
C4901	C490	0.105700	0.186100	0.000700
C4911	C491	0.257200	0.183300	0.959600
H4461	H446	0.287700	0.200800	0.973400
H4471	H447	0.268500	0.151400	0.959300
H4481	H448	0.253300	0.194100	0.932000
C4921	C492	0.039800	0.177100	0.006600
H4491	H449	0.031300	0.174100	0.035200
H4501	H450	0.017100	0.202200	0.995500
H4511	H451	0.028900	0.149200	0.992800
O831	O83	0.037500	0.544700	0.328300
O841	O84	0.122400	0.511000	0.338500
N831	N83	0.135700	0.712800	0.523000
H4521	H452	0.120500	0.728200	0.543000
N841	N84	0.193500	0.714500	0.512400
C4931	C493	0.087400	0.541100	0.345500
C4941	C494	0.101500	0.575500	0.377200
C4951	C495	0.065200	0.613400	0.384900
H4531	H453	0.030400	0.617400	0.369600
C4961	C496	0.079500	0.644600	0.414200
H4541	H454	0.056100	0.670900	0.417900
C4971	C497	0.129400	0.636600	0.438600
C4981	C498	0.167800	0.602400	0.430400
H4551	H455	0.203300	0.599200	0.445200
C4991	C499	0.153400	0.571700	0.399300
H4561	H456	0.179900	0.547900	0.393400
C5001	C500	0.143500	0.668800	0.470800
C5011	C501	0.198500	0.688700	0.481400
C5021	C502	0.105700	0.686100	0.500700
C5031	C503	0.257200	0.683300	0.459600
H4571	H457	0.287700	0.700800	0.473400
H4581	H458	0.268500	0.651400	0.459300
H4591	H459	0.253300	0.694100	0.432000
C5041	C504	0.039800	0.677100	0.506600
H4601	H460	0.031300	0.674100	0.535200
H4611	H461	0.017100	0.702200	0.495500
H4621	H462	0.028900	0.649200	0.492800
O851	O85	0.537500	0.044700	0.328300
O861	O86	0.622400	0.011000	0.338500
N851	N85	0.635700	0.212800	0.523000
H4631	H463	0.620500	0.228200	0.543000
N861	N86	0.693500	0.214500	0.512400
C5051	C505	0.587400	0.041100	0.345500
C5061	C506	0.601500	0.075500	0.377200
C5071	C507	0.565200	0.113400	0.384900
H4641	H464	0.530400	0.117400	0.369600
C5081	C508	0.579500	0.144600	0.414200
H4651	H465	0.556100	0.170900	0.417900
C5091	C509	0.629400	0.136600	0.438600
C5101	C510	0.667800	0.102400	0.430400
H4661	H466	0.703300	0.099200	0.445200
C5111	C511	0.653400	0.071700	0.399300
H4671	H467	0.679900	0.047900	0.393400
C5121	C512	0.643500	0.168800	0.470800
C5131	C513	0.698500	0.188700	0.481400
C5141	C514	0.605700	0.186100	0.500700
C5151	C515	0.757200	0.183300	0.459600
H4681	H468	0.787700	0.200800	0.473400
H4691	H469	0.768500	0.151400	0.459300
H4701	H470	0.753300	0.194100	0.432000
C5161	C516	0.539800	0.177100	0.506600
H4711	H471	0.531300	0.174100	0.535200
H4721	H472	0.517100	0.202200	0.495500
H4731	H473	0.528900	0.149200	0.492800
O871	O87	0.537500	0.544700	0.828300
O881	O88	0.622400	0.511000	0.838500
N871	N87	0.635700	0.712800	0.023000
H4741	H474	0.620500	0.728200	0.043000
N881	N88	0.693500	0.714500	0.012400
C5171	C517	0.587400	0.541100	0.845500
C5181	C518	0.601500	0.575500	0.877200
C5191	C519	0.565200	0.613400	0.884900
H4751	H475	0.530400	0.617400	0.869600
C5201	C520	0.579500	0.644600	0.914200
H4761	H476	0.556100	0.670900	0.917900
C5211	C521	0.629400	0.636600	0.938600
C5221	C522	0.667800	0.602400	0.930400
H4771	H477	0.703300	0.599200	0.945200
C5231	C523	0.653400	0.571700	0.899300
H4781	H478	0.679900	0.547900	0.893400
C5241	C524	0.643500	0.668800	0.970800
C5251	C525	0.698500	0.688700	0.981400
C5261	C526	0.605700	0.686100	0.000700
C5271	C527	0.757200	0.683300	0.959600
H4791	H479	0.787700	0.700800	0.973400
H4801	H480	0.768500	0.651400	0.959300
H4811	H481	0.753300	0.694100	0.932000
C5281	C528	0.539800	0.677100	0.006600
H4821	H482	0.531300	0.674100	0.035200
H4831	H483	0.517100	0.702200	0.995500
H4841	H484	0.528900	0.649200	0.992800
O891	O89	0.462500	0.455300	0.828300
O901	O90	0.377600	0.489000	0.838500
N891	N89	0.364300	0.287200	0.023000
H4851	H485	0.379500	0.271800	0.043000
N901	N90	0.306500	0.285500	0.012400
C5291	C529	0.412600	0.458900	0.845500
C5301	C530	0.398500	0.424500	0.877200
C5311	C531	0.434800	0.386600	0.884900
H4861	H486	0.469600	0.382600	0.869600
C5321	C532	0.420500	0.355400	0.914200
H4871	H487	0.443900	0.329100	0.917900
C5331	C533	0.370600	0.363400	0.938600
C5341	C534	0.332200	0.397600	0.930400
H4881	H488	0.296700	0.400800	0.945200
C5351	C535	0.346600	0.428300	0.899300
H4891	H489	0.320100	0.452100	0.893400
C5361	C536	0.356500	0.331200	0.970800
C5371	C537	0.301500	0.311300	0.981400
C5381	C538	0.394300	0.313900	0.000700
C5391	C539	0.242800	0.316700	0.959600
H4901	H490	0.212300	0.299200	0.973400
H4911	H491	0.231500	0.348600	0.959300
H4921	H492	0.246700	0.305900	0.932000
C5401	C540	0.460200	0.322900	0.006600
H4931	H493	0.468700	0.325900	0.035200
H4941	H494	0.482900	0.297800	0.995500
H4951	H495	0.471100	0.350800	0.992800
O911	O91	0.462500	0.955300	0.328300
O921	O92	0.377600	0.989000	0.338500
N911	N91	0.364300	0.787200	0.523000
H4961	H496	0.379500	0.771800	0.543000
N921	N92	0.306500	0.785500	0.512400
C5411	C541	0.412600	0.958900	0.345500
C5421	C542	0.398500	0.924500	0.377200
C5431	C543	0.434800	0.886600	0.384900
H4971	H497	0.469600	0.882600	0.369600
C5441	C544	0.420500	0.855400	0.414200
H4981	H498	0.443900	0.829100	0.417900
C5451	C545	0.370600	0.863400	0.438600
C5461	C546	0.332200	0.897600	0.430400
H4991	H499	0.296700	0.900800	0.445200
C5471	C547	0.346600	0.928300	0.399300
H5001	H500	0.320100	0.952100	0.393400
C5481	C548	0.356500	0.831200	0.470800
C5491	C549	0.301500	0.811300	0.481400
C5501	C550	0.394300	0.813900	0.500700
C5511	C551	0.242800	0.816700	0.459600
H5011	H501	0.212300	0.799200	0.473400
H5021	H502	0.231500	0.848600	0.459300
H5031	H503	0.246700	0.805900	0.432000
C5521	C552	0.460200	0.822900	0.506600
H5041	H504	0.468700	0.825900	0.535200
H5051	H505	0.482900	0.797800	0.495500
H5061	H506	0.471100	0.850800	0.492800
O931	O93	0.962500	0.455300	0.328300
O941	O94	0.877600	0.489000	0.338500
N931	N93	0.864300	0.287200	0.523000
H5071	H507	0.879500	0.271800	0.543000
N941	N94	0.806500	0.285500	0.512400
C5531	C553	0.912600	0.458900	0.345500
C5541	C554	0.898500	0.424500	0.377200
C5551	C555	0.934800	0.386600	0.384900
H5081	H508	0.969600	0.382600	0.369600
C5561	C556	0.920500	0.355400	0.414200
H5091	H509	0.943900	0.329100	0.417900
C5571	C557	0.870600	0.363400	0.438600
C5581	C558	0.832200	0.397600	0.430400
H5101	H510	0.796700	0.400800	0.445200
C5591	C559	0.846600	0.428300	0.399300
H5111	H511	0.820100	0.452100	0.393400
C5601	C560	0.856500	0.331200	0.470800
C5611	C561	0.801500	0.311300	0.481400
C5621	C562	0.894300	0.313900	0.500700
C5631	C563	0.742800	0.316700	0.459600
H5121	H512	0.712300	0.299200	0.473400
H5131	H513	0.731500	0.348600	0.459300
H5141	H514	0.746700	0.305900	0.432000
C5641	C564	0.960200	0.322900	0.506600
H5151	H515	0.968700	0.325900	0.535200
H5161	H516	0.982900	0.297800	0.495500
H5171	H517	0.971100	0.350800	0.492800
O951	O95	0.962500	0.955300	0.828300
O961	O96	0.877600	0.989000	0.838500
N951	N95	0.864300	0.787200	0.023000
H5181	H518	0.879500	0.771800	0.043000
N961	N96	0.806500	0.785500	0.012400
C5651	C565	0.912600	0.958900	0.845500
C5661	C566	0.898500	0.924500	0.877200
C5671	C567	0.934800	0.886600	0.884900
H5191	H519	0.969600	0.882600	0.869600
C5681	C568	0.920500	0.855400	0.914200
H5201	H520	0.943900	0.829100	0.917900
C5691	C569	0.870600	0.863400	0.938600
C5701	C570	0.832200	0.897600	0.930400
H5211	H521	0.796700	0.900800	0.945200
C5711	C571	0.846600	0.928300	0.899300
H5221	H522	0.820100	0.952100	0.893400
C5721	C572	0.856500	0.831200	0.970800
C5731	C573	0.801500	0.811300	0.981400
C5741	C574	0.894300	0.813900	0.000700
C5751	C575	0.742800	0.816700	0.959600
H5231	H523	0.712300	0.799200	0.973400
H5241	H524	0.731500	0.848600	0.959300
H5251	H525	0.746700	0.805900	0.932000
C5761	C576	0.960200	0.822900	0.006600
H5261	H526	0.968700	0.825900	0.035200
H5271	H527	0.982900	0.797800	0.995500
H5281	H528	0.971100	0.850800	0.992800
Zn171	Zn17	0.750000	0.250000	0.545520
Zn181	Zn18	0.750000	0.750000	0.045520
Zn191	Zn19	0.250000	0.750000	0.545520
Zn201	Zn20	0.250000	0.250000	0.045520
Zn211	Zn21	0.000000	0.000000	0.795520
Zn221	Zn22	0.000000	0.500000	0.295520
Zn231	Zn23	0.500000	0.500000	0.795520
Zn241	Zn24	0.500000	0.000000	0.295520
Zn251	Zn25	0.502410	0.745450	0.718210
O971	O97	0.462600	0.706500	0.755600
O981	O98	0.381300	0.747000	0.767700
O991	O99	0.543500	0.704800	0.681400
O1001	O100	0.628600	0.739400	0.669900
N971	N97	0.349600	0.552900	0.954200
H5291	H529	0.362400	0.544800	0.978000
N981	N98	0.300600	0.536100	0.936900
N991	N99	0.632800	0.537000	0.486400
H5301	H530	0.618100	0.522600	0.465600
N1001	N100	0.690600	0.532300	0.498700
C5771	C577	0.413100	0.713000	0.772900
C5781	C578	0.393000	0.678200	0.802800
C5791	C579	0.429200	0.643000	0.814400
H5311	H531	0.466400	0.639500	0.801600
C5801	C580	0.413300	0.613400	0.843400
H5321	H532	0.439500	0.589900	0.850800
C5811	C581	0.358300	0.617200	0.862300
C5821	C582	0.320000	0.652500	0.850800
H5331	H533	0.282900	0.655900	0.863500
C5831	C583	0.337300	0.682600	0.820100
H5341	H534	0.311200	0.705600	0.811400
C5841	C584	0.345200	0.587200	0.896900
C5851	C585	0.295700	0.557600	0.901600
C5861	C586	0.376700	0.583500	0.930700
C5871	C587	0.245700	0.549800	0.873900
H5351	H535	0.210100	0.542900	0.889400
H5361	H536	0.254900	0.524400	0.856200
H5371	H537	0.238900	0.576900	0.857800
C5881	C588	0.430300	0.607400	0.944900
H5381	H538	0.445900	0.626200	0.923200
H5391	H539	0.460100	0.585300	0.952900
H5401	H540	0.420200	0.626400	0.967800
C5891	C589	0.592400	0.709600	0.664100
C5901	C590	0.603200	0.676500	0.631200
C5911	C591	0.563400	0.641600	0.623400
H5411	H541	0.527800	0.639600	0.638300
C5921	C592	0.575700	0.609800	0.593800
H5421	H542	0.548500	0.586200	0.588800
C5931	C593	0.628400	0.612300	0.571100
C5941	C594	0.667700	0.649300	0.579300
H5431	H543	0.702500	0.652800	0.563800
C5951	C595	0.655800	0.678800	0.608600
H5441	H544	0.683400	0.701900	0.614400
C5961	C596	0.640100	0.580300	0.539200
C5971	C597	0.694300	0.558800	0.530700
C5981	C598	0.601500	0.565200	0.508600
C5991	C599	0.750700	0.562900	0.553400
H5451	H545	0.770900	0.533800	0.553600
H5461	H546	0.742200	0.572200	0.580900
H5471	H547	0.775900	0.585500	0.540500
C6001	C600	0.539700	0.574200	0.500900
H5481	H548	0.530600	0.567000	0.473000
H5491	H549	0.531600	0.606200	0.505800
H5501	H550	0.515400	0.555800	0.518700
Zn261	Zn26	0.502410	0.245450	0.218210
O1011	O101	0.462600	0.206500	0.255600
O1021	O102	0.381300	0.247000	0.267700
O1031	O103	0.543500	0.204800	0.181400
O1041	O104	0.628600	0.239400	0.169900
N1011	N101	0.349600	0.052900	0.454200
H5511	H551	0.362400	0.044800	0.478000
N1021	N102	0.300600	0.036100	0.436900
N1031	N103	0.632800	0.037000	0.986400
H5521	H552	0.618100	0.022600	0.965600
N1041	N104	0.690600	0.032300	0.998700
C6011	C601	0.413100	0.213000	0.272900
C6021	C602	0.393000	0.178200	0.302800
C6031	C603	0.429200	0.143000	0.314400
H5531	H553	0.466400	0.139500	0.301600
C6041	C604	0.413300	0.113400	0.343400
H5541	H554	0.439500	0.089900	0.350800
C6051	C605	0.358300	0.117200	0.362300
C6061	C606	0.320000	0.152500	0.350800
H5551	H555	0.282900	0.155900	0.363500
C6071	C607	0.337300	0.182600	0.320100
H5561	H556	0.311200	0.205600	0.311400
C6081	C608	0.345200	0.087200	0.396900
C6091	C609	0.295700	0.057600	0.401600
C6101	C610	0.376700	0.083500	0.430700
C6111	C611	0.245700	0.049800	0.373900
H5571	H557	0.210100	0.042900	0.389400
H5581	H558	0.254900	0.024400	0.356200
H5591	H559	0.238900	0.076900	0.357800
C6121	C612	0.430300	0.107400	0.444900
H5601	H560	0.445900	0.126200	0.423200
H5611	H561	0.460100	0.085300	0.452900
H5621	H562	0.420200	0.126400	0.467800
C6131	C613	0.592400	0.209600	0.164100
C6141	C614	0.603200	0.176500	0.131200
C6151	C615	0.563400	0.141600	0.123400
H5631	H563	0.527800	0.139600	0.138300
C6161	C616	0.575700	0.109800	0.093800
H5641	H564	0.548500	0.086200	0.088800
C6171	C617	0.628400	0.112300	0.071100
C6181	C618	0.667700	0.149300	0.079300
H5651	H565	0.702500	0.152800	0.063800
C6191	C619	0.655800	0.178800	0.108600
H5661	H566	0.683400	0.201900	0.114400
C6201	C620	0.640100	0.080300	0.039200
C6211	C621	0.694300	0.058800	0.030700
C6221	C622	0.601500	0.065200	0.008600
C6231	C623	0.750700	0.062900	0.053400
H5671	H567	0.770900	0.033800	0.053600
H5681	H568	0.742200	0.072200	0.080900
H5691	H569	0.775900	0.085500	0.040500
C6241	C624	0.539700	0.074200	0.000900
H5701	H570	0.530600	0.067000	0.973000
H5711	H571	0.531600	0.106200	0.005800
H5721	H572	0.515400	0.055800	0.018700
Zn271	Zn27	0.002410	0.745450	0.218210
O1051	O105	0.962600	0.706500	0.255600
O1061	O106	0.881300	0.747000	0.267700
O1071	O107	0.043500	0.704800	0.181400
O1081	O108	0.128600	0.739400	0.169900
N1051	N105	0.849600	0.552900	0.454200
H5731	H573	0.862400	0.544800	0.478000
N1061	N106	0.800600	0.536100	0.436900
N1071	N107	0.132800	0.537000	0.986400
H5741	H574	0.118100	0.522600	0.965600
N1081	N108	0.190600	0.532300	0.998700
C6251	C625	0.913100	0.713000	0.272900
C6261	C626	0.893000	0.678200	0.302800
C6271	C627	0.929200	0.643000	0.314400
H5751	H575	0.966400	0.639500	0.301600
C6281	C628	0.913300	0.613400	0.343400
H5761	H576	0.939500	0.589900	0.350800
C6291	C629	0.858300	0.617200	0.362300
C6301	C630	0.820000	0.652500	0.350800
H5771	H577	0.782900	0.655900	0.363500
C6311	C631	0.837300	0.682600	0.320100
H5781	H578	0.811200	0.705600	0.311400
C6321	C632	0.845200	0.587200	0.396900
C6331	C633	0.795700	0.557600	0.401600
C6341	C634	0.876700	0.583500	0.430700
C6351	C635	0.745700	0.549800	0.373900
H5791	H579	0.710100	0.542900	0.389400
H5801	H580	0.754900	0.524400	0.356200
H5811	H581	0.738900	0.576900	0.357800
C6361	C636	0.930300	0.607400	0.444900
H5821	H582	0.945900	0.626200	0.423200
H5831	H583	0.960100	0.585300	0.452900
H5841	H584	0.920200	0.626400	0.467800
C6371	C637	0.092400	0.709600	0.164100
C6381	C638	0.103200	0.676500	0.131200
C6391	C639	0.063400	0.641600	0.123400
H5851	H585	0.027800	0.639600	0.138300
C6401	C640	0.075700	0.609800	0.093800
H5861	H586	0.048500	0.586200	0.088800
C6411	C641	0.128400	0.612300	0.071100
C6421	C642	0.167700	0.649300	0.079300
H5871	H587	0.202500	0.652800	0.063800
C6431	C643	0.155800	0.678800	0.108600
H5881	H588	0.183400	0.701900	0.114400
C6441	C644	0.140100	0.580300	0.039200
C6451	C645	0.194300	0.558800	0.030700
C6461	C646	0.101500	0.565200	0.008600
C6471	C647	0.250700	0.562900	0.053400
H5891	H589	0.270900	0.533800	0.053600
H5901	H590	0.242200	0.572200	0.080900
H5911	H591	0.275900	0.585500	0.040500
C6481	C648	0.039700	0.574200	0.000900
H5921	H592	0.030600	0.567000	0.973000
H5931	H593	0.031600	0.606200	0.005800
H5941	H594	0.015400	0.555800	0.018700
Zn281	Zn28	0.002410	0.245450	0.718210
O1091	O109	0.962600	0.206500	0.755600
O1101	O110	0.881300	0.247000	0.767700
O1111	O111	0.043500	0.204800	0.681400
O1121	O112	0.128600	0.239400	0.669900
N1091	N109	0.849600	0.052900	0.954200
H5951	H595	0.862400	0.044800	0.978000
N1101	N110	0.800600	0.036100	0.936900
N1111	N111	0.132800	0.037000	0.486400
H5961	H596	0.118100	0.022600	0.465600
N1121	N112	0.190600	0.032300	0.498700
C6491	C649	0.913100	0.213000	0.772900
C6501	C650	0.893000	0.178200	0.802800
C6511	C651	0.929200	0.143000	0.814400
H5971	H597	0.966400	0.139500	0.801600
C6521	C652	0.913300	0.113400	0.843400
H5981	H598	0.939500	0.089900	0.850800
C6531	C653	0.858300	0.117200	0.862300
C6541	C654	0.820000	0.152500	0.850800
H5991	H599	0.782900	0.155900	0.863500
C6551	C655	0.837300	0.182600	0.820100
H6001	H600	0.811200	0.205600	0.811400
C6561	C656	0.845200	0.087200	0.896900
C6571	C657	0.795700	0.057600	0.901600
C6581	C658	0.876700	0.083500	0.930700
C6591	C659	0.745700	0.049800	0.873900
H6011	H601	0.710100	0.042900	0.889400
H6021	H602	0.754900	0.024400	0.856200
H6031	H603	0.738900	0.076900	0.857800
C6601	C660	0.930300	0.107400	0.944900
H6041	H604	0.945900	0.126200	0.923200
H6051	H605	0.960100	0.085300	0.952900
H6061	H606	0.920200	0.126400	0.967800
C6611	C661	0.092400	0.209600	0.664100
C6621	C662	0.103200	0.176500	0.631200
C6631	C663	0.063400	0.141600	0.623400
H6071	H607	0.027800	0.139600	0.638300
C6641	C664	0.075700	0.109800	0.593800
H6081	H608	0.048500	0.086200	0.588800
C6651	C665	0.128400	0.112300	0.571100
C6661	C666	0.167700	0.149300	0.579300
H6091	H609	0.202500	0.152800	0.563800
C6671	C667	0.155800	0.178800	0.608600
H6101	H610	0.183400	0.201900	0.614400
C6681	C668	0.140100	0.080300	0.539200
C6691	C669	0.194300	0.058800	0.530700
C6701	C670	0.101500	0.065200	0.508600
C6711	C671	0.250700	0.062900	0.553400
H6111	H611	0.270900	0.033800	0.553600
H6121	H612	0.242200	0.072200	0.580900
H6131	H613	0.275900	0.085500	0.540500
C6721	C672	0.039700	0.074200	0.500900
H6141	H614	0.030600	0.067000	0.473000
H6151	H615	0.031600	0.106200	0.505800
H6161	H616	0.015400	0.055800	0.518700
Zn291	Zn29	0.747590	0.995450	0.968210
O1131	O113	0.787400	0.956500	0.005600
O1141	O114	0.868700	0.997000	0.017700
O1151	O115	0.706500	0.954800	0.931400
O1161	O116	0.621400	0.989400	0.919900
N1131	N113	0.900400	0.802900	0.204200
H6171	H617	0.887600	0.794800	0.228000
N1141	N114	0.949400	0.786100	0.186900
N1151	N115	0.617200	0.787000	0.736400
H6181	H618	0.631900	0.772600	0.715600
N1161	N116	0.559400	0.782300	0.748700
C6731	C673	0.836900	0.963000	0.022900
C6741	C674	0.857000	0.928200	0.052800
C6751	C675	0.820800	0.893000	0.064400
H6191	H619	0.783600	0.889500	0.051600
C6761	C676	0.836700	0.863400	0.093400
H6201	H620	0.810500	0.839900	0.100800
C6771	C677	0.891700	0.867200	0.112300
C6781	C678	0.930000	0.902500	0.100800
H6211	H621	0.967100	0.905900	0.113500
C6791	C679	0.912700	0.932600	0.070100
H6221	H622	0.938800	0.955600	0.061400
C6801	C680	0.904800	0.837200	0.146900
C6811	C681	0.954300	0.807600	0.151600
C6821	C682	0.873300	0.833500	0.180700
C6831	C683	0.004300	0.799800	0.123900
H6231	H623	0.039900	0.792900	0.139400
H6241	H624	0.995100	0.774400	0.106200
H6251	H625	0.011100	0.826900	0.107800
C6841	C684	0.819700	0.857400	0.194900
H6261	H626	0.804100	0.876200	0.173200
H6271	H627	0.789900	0.835300	0.202900
H6281	H628	0.829800	0.876400	0.217800
C6851	C685	0.657600	0.959600	0.914100
C6861	C686	0.646800	0.926500	0.881200
C6871	C687	0.686600	0.891600	0.873400
H6291	H629	0.722200	0.889600	0.888300
C6881	C688	0.674300	0.859800	0.843800
H6301	H630	0.701500	0.836200	0.838800
C6891	C689	0.621600	0.862300	0.821100
C6901	C690	0.582300	0.899300	0.829300
H6311	H631	0.547500	0.902800	0.813800
C6911	C691	0.594200	0.928800	0.858600
H6321	H632	0.566600	0.951900	0.864400
C6921	C692	0.609900	0.830300	0.789200
C6931	C693	0.555700	0.808800	0.780700
C6941	C694	0.648500	0.815200	0.758600
C6951	C695	0.499300	0.812900	0.803400
H6331	H633	0.479100	0.783800	0.803600
H6341	H634	0.507800	0.822200	0.830900
H6351	H635	0.474100	0.835500	0.790500
C6961	C696	0.710300	0.824200	0.750900
H6361	H636	0.719400	0.817000	0.723000
H6371	H637	0.718400	0.856200	0.755800
H6381	H638	0.734600	0.805800	0.768700
Zn301	Zn30	0.747590	0.495450	0.468210
O1171	O117	0.787400	0.456500	0.505600
O1181	O118	0.868700	0.497000	0.517700
O1191	O119	0.706500	0.454800	0.431400
O1201	O120	0.621400	0.489400	0.419900
N1171	N117	0.900400	0.302900	0.704200
H6391	H639	0.887600	0.294800	0.728000
N1181	N118	0.949400	0.286100	0.686900
N1191	N119	0.617200	0.287000	0.236400
H6401	H640	0.631900	0.272600	0.215600
N1201	N120	0.559400	0.282300	0.248700
C6971	C697	0.836900	0.463000	0.522900
C6981	C698	0.857000	0.428200	0.552800
C6991	C699	0.820800	0.393000	0.564400
H6411	H641	0.783600	0.389500	0.551600
C7001	C700	0.836700	0.363400	0.593400
H6421	H642	0.810500	0.339900	0.600800
C7011	C701	0.891700	0.367200	0.612300
C7021	C702	0.930000	0.402500	0.600800
H6431	H643	0.967100	0.405900	0.613500
C7031	C703	0.912700	0.432600	0.570100
H6441	H644	0.938800	0.455600	0.561400
C7041	C704	0.904800	0.337200	0.646900
C7051	C705	0.954300	0.307600	0.651600
C7061	C706	0.873300	0.333500	0.680700
C7071	C707	0.004300	0.299800	0.623900
H6451	H645	0.039900	0.292900	0.639400
H6461	H646	0.995100	0.274400	0.606200
H6471	H647	0.011100	0.326900	0.607800
C7081	C708	0.819700	0.357400	0.694900
H6481	H648	0.804100	0.376200	0.673200
H6491	H649	0.789900	0.335300	0.702900
H6501	H650	0.829800	0.376400	0.717800
C7091	C709	0.657600	0.459600	0.414100
C7101	C710	0.646800	0.426500	0.381200
C7111	C711	0.686600	0.391600	0.373400
H6511	H651	0.722200	0.389600	0.388300
C7121	C712	0.674300	0.359800	0.343800
H6521	H652	0.701500	0.336200	0.338800
C7131	C713	0.621600	0.362300	0.321100
C7141	C714	0.582300	0.399300	0.329300
H6531	H653	0.547500	0.402800	0.313800
C7151	C715	0.594200	0.428800	0.358600
H6541	H654	0.566600	0.451900	0.364400
C7161	C716	0.609900	0.330300	0.289200
C7171	C717	0.555700	0.308800	0.280700
C7181	C718	0.648500	0.315200	0.258600
C7191	C719	0.499300	0.312900	0.303400
H6551	H655	0.479100	0.283800	0.303600
H6561	H656	0.507800	0.322200	0.330900
H6571	H657	0.474100	0.335500	0.290500
C7201	C720	0.710300	0.324200	0.250900
H6581	H658	0.719400	0.317000	0.223000
H6591	H659	0.718400	0.356200	0.255800
H6601	H660	0.734600	0.305800	0.268700
Zn311	Zn31	0.247590	0.995450	0.468210
O1211	O121	0.287400	0.956500	0.505600
O1221	O122	0.368700	0.997000	0.517700
O1231	O123	0.206500	0.954800	0.431400
O1241	O124	0.121400	0.989400	0.419900
N1211	N121	0.400400	0.802900	0.704200
H6611	H661	0.387600	0.794800	0.728000
N1221	N122	0.449400	0.786100	0.686900
N1231	N123	0.117200	0.787000	0.236400
H6621	H662	0.131900	0.772600	0.215600
N1241	N124	0.059400	0.782300	0.248700
C7211	C721	0.336900	0.963000	0.522900
C7221	C722	0.357000	0.928200	0.552800
C7231	C723	0.320800	0.893000	0.564400
H6631	H663	0.283600	0.889500	0.551600
C7241	C724	0.336700	0.863400	0.593400
H6641	H664	0.310500	0.839900	0.600800
C7251	C725	0.391700	0.867200	0.612300
C7261	C726	0.430000	0.902500	0.600800
H6651	H665	0.467100	0.905900	0.613500
C7271	C727	0.412700	0.932600	0.570100
H6661	H666	0.438800	0.955600	0.561400
C7281	C728	0.404800	0.837200	0.646900
C7291	C729	0.454300	0.807600	0.651600
C7301	C730	0.373300	0.833500	0.680700
C7311	C731	0.504300	0.799800	0.623900
H6671	H667	0.539900	0.792900	0.639400
H6681	H668	0.495100	0.774400	0.606200
H6691	H669	0.511100	0.826900	0.607800
C7321	C732	0.319700	0.857400	0.694900
H6701	H670	0.304100	0.876200	0.673200
H6711	H671	0.289900	0.835300	0.702900
H6721	H672	0.329800	0.876400	0.717800
C7331	C733	0.157600	0.959600	0.414100
C7341	C734	0.146800	0.926500	0.381200
C7351	C735	0.186600	0.891600	0.373400
H6731	H673	0.222200	0.889600	0.388300
C7361	C736	0.174300	0.859800	0.343800
H6741	H674	0.201500	0.836200	0.338800
C7371	C737	0.121600	0.862300	0.321100
C7381	C738	0.082300	0.899300	0.329300
H6751	H675	0.047500	0.902800	0.313800
C7391	C739	0.094200	0.928800	0.358600
H6761	H676	0.066600	0.951900	0.364400
C7401	C740	0.109900	0.830300	0.289200
C7411	C741	0.055700	0.808800	0.280700
C7421	C742	0.148500	0.815200	0.258600
C7431	C743	0.999300	0.812900	0.303400
H6771	H677	0.979100	0.783800	0.303600
H6781	H678	0.007800	0.822200	0.330900
H6791	H679	0.974100	0.835500	0.290500
C7441	C744	0.210300	0.824200	0.250900
H6801	H680	0.219400	0.817000	0.223000
H6811	H681	0.218400	0.856200	0.255800
H6821	H682	0.234600	0.805800	0.268700
Zn321	Zn32	0.247590	0.495450	0.968210
O1251	O125	0.287400	0.456500	0.005600
O1261	O126	0.368700	0.497000	0.017700
O1271	O127	0.206500	0.454800	0.931400
O1281	O128	0.121400	0.489400	0.919900
N1251	N125	0.400400	0.302900	0.204200
H6831	H683	0.387600	0.294800	0.228000
N1261	N126	0.449400	0.286100	0.186900
N1271	N127	0.117200	0.287000	0.736400
H6841	H684	0.131900	0.272600	0.715600
N1281	N128	0.059400	0.282300	0.748700
C7451	C745	0.336900	0.463000	0.022900
C7461	C746	0.357000	0.428200	0.052800
C7471	C747	0.320800	0.393000	0.064400
H6851	H685	0.283600	0.389500	0.051600
C7481	C748	0.336700	0.363400	0.093400
H6861	H686	0.310500	0.339900	0.100800
C7491	C749	0.391700	0.367200	0.112300
C7501	C750	0.430000	0.402500	0.100800
H6871	H687	0.467100	0.405900	0.113500
C7511	C751	0.412700	0.432600	0.070100
H6881	H688	0.438800	0.455600	0.061400
C7521	C752	0.404800	0.337200	0.146900
C7531	C753	0.454300	0.307600	0.151600
C7541	C754	0.373300	0.333500	0.180700
C7551	C755	0.504300	0.299800	0.123900
H6891	H689	0.539900	0.292900	0.139400
H6901	H690	0.495100	0.274400	0.106200
H6911	H691	0.511100	0.326900	0.107800
C7561	C756	0.319700	0.357400	0.194900
H6921	H692	0.304100	0.376200	0.173200
H6931	H693	0.289900	0.335300	0.202900
H6941	H694	0.329800	0.376400	0.217800
C7571	C757	0.157600	0.459600	0.914100
C7581	C758	0.146800	0.426500	0.881200
C7591	C759	0.186600	0.391600	0.873400
H6951	H695	0.222200	0.389600	0.888300
C7601	C760	0.174300	0.359800	0.843800
H6961	H696	0.201500	0.336200	0.838800
C7611	C761	0.121600	0.362300	0.821100
C7621	C762	0.082300	0.399300	0.829300
H6971	H697	0.047500	0.402800	0.813800
C7631	C763	0.094200	0.428800	0.858600
H6981	H698	0.066600	0.451900	0.864400
C7641	C764	0.109900	0.330300	0.789200
C7651	C765	0.055700	0.308800	0.780700
C7661	C766	0.148500	0.315200	0.758600
C7671	C767	0.999300	0.312900	0.803400
H6991	H699	0.979100	0.283800	0.803600
H7001	H700	0.007800	0.322200	0.830900
H7011	H701	0.974100	0.335500	0.790500
C7681	C768	0.210300	0.324200	0.750900
H7021	H702	0.219400	0.317000	0.723000
H7031	H703	0.218400	0.356200	0.755800
H7041	H704	0.234600	0.305800	0.768700
