data_NUYWOU_freeONLY_PM
_symmetry_space_group_name_H-M	'P1'
_cell_length_a	13.139000
_cell_length_b	14.865000
_cell_length_c	14.865000
_cell_angle_alpha	90.000000
_cell_angle_beta	90.000000
_cell_angle_gamma	90.000000
_symmetry_Int_Tables_number 1

loop_
_symmetry_equiv_pos_as_xyz
'x,y,z'

loop_
_atom_site_label
_atom_site_type_symbol
_atom_site_fract_x
_atom_site_fract_y
_atom_site_fract_z
Cd11	Cd1	0.500000	0.730530	0.730530
H11	H1	0.418700	0.953500	0.687000
H21	H2	0.269900	0.994600	0.596900
H31	H3	0.299400	0.728200	0.595800
H41	H4	0.196200	0.950400	0.439600
H51	H5	0.055600	0.931200	0.344900
H61	H6	0.966300	0.720700	0.493800
H71	H7	0.108900	0.737200	0.586200
H81	H8	0.456600	0.524500	0.701300
H91	H9	0.459000	0.403200	0.592700
H101	H10	0.581300	0.687000	0.953500
H111	H11	0.730100	0.596900	0.994600
H121	H12	0.700600	0.595800	0.728200
H131	H13	0.803800	0.439600	0.950400
H141	H14	0.944400	0.344900	0.931200
H151	H15	0.033700	0.493800	0.720700
H161	H16	0.891100	0.586200	0.737200
H171	H17	0.543400	0.701300	0.524500
H181	H18	0.541000	0.592700	0.403200
H191	H19	0.500000	0.445900	0.445900
C11	C1	0.376100	0.913600	0.657000
C21	C2	0.293900	0.936800	0.607700
C31	C3	0.311200	0.788700	0.607300
C41	C4	0.164100	0.845900	0.521300
C51	C5	0.150200	0.904000	0.449900
C61	C6	0.066000	0.892300	0.393000
C71	C7	0.998400	0.822500	0.408900
C81	C8	0.013200	0.766000	0.482000
C91	C9	0.097800	0.776300	0.538400
C101	C10	0.908100	0.807400	0.348200
C111	C11	0.475000	0.536400	0.642000
C121	C12	0.474000	0.462300	0.577500
C131	C13	0.623900	0.657000	0.913600
C141	C14	0.706100	0.607700	0.936800
C151	C15	0.688800	0.607300	0.788700
C161	C16	0.835900	0.521300	0.845900
C171	C17	0.849800	0.449900	0.904000
C181	C18	0.934000	0.393000	0.892300
C191	C19	0.001600	0.408900	0.822500
C201	C20	0.986800	0.482000	0.766000
C211	C21	0.902200	0.538400	0.776300
C221	C22	0.091900	0.348200	0.807400
C231	C23	0.525000	0.642000	0.536400
C241	C24	0.526000	0.577500	0.462300
C251	C25	0.500000	0.490100	0.490100
N11	N1	0.387200	0.819900	0.655800
N21	N2	0.252700	0.857200	0.576600
N31	N3	0.612800	0.655800	0.819900
N41	N4	0.747300	0.576600	0.857200
N51	N5	0.500000	0.619800	0.619800
O11	O1	0.898700	0.859400	0.282000
O21	O2	0.847500	0.744600	0.364800
O31	O3	0.101300	0.282000	0.859400
O41	O4	0.152500	0.364800	0.744600
Cd21	Cd2	0.000000	0.269470	0.269470
H201	H20	0.918700	0.046500	0.313000
H211	H21	0.769900	0.005400	0.403100
H221	H22	0.799400	0.271800	0.404200
H231	H23	0.696200	0.049600	0.560400
H241	H24	0.555600	0.068800	0.655100
H251	H25	0.466300	0.279300	0.506200
H261	H26	0.608900	0.262800	0.413800
H271	H27	0.956600	0.475500	0.298700
H281	H28	0.959000	0.596800	0.407300
H291	H29	0.081300	0.313000	0.046500
H301	H30	0.230100	0.403100	0.005400
H311	H31	0.200600	0.404200	0.271800
H321	H32	0.303800	0.560400	0.049600
H331	H33	0.444400	0.655100	0.068800
H341	H34	0.533700	0.506200	0.279300
H351	H35	0.391100	0.413800	0.262800
H361	H36	0.043400	0.298700	0.475500
H371	H37	0.041000	0.407300	0.596800
H381	H38	0.000000	0.554100	0.554100
C261	C26	0.876100	0.086400	0.343000
C271	C27	0.793900	0.063200	0.392300
C281	C28	0.811200	0.211300	0.392700
C291	C29	0.664100	0.154100	0.478700
C301	C30	0.650200	0.096000	0.550100
C311	C31	0.566000	0.107700	0.607000
C321	C32	0.498400	0.177500	0.591100
C331	C33	0.513200	0.234000	0.518000
C341	C34	0.597800	0.223700	0.461600
C351	C35	0.408100	0.192600	0.651800
C361	C36	0.975000	0.463600	0.358000
C371	C37	0.974000	0.537700	0.422500
C381	C38	0.123900	0.343000	0.086400
C391	C39	0.206100	0.392300	0.063200
C401	C40	0.188800	0.392700	0.211300
C411	C41	0.335900	0.478700	0.154100
C421	C42	0.349800	0.550100	0.096000
C431	C43	0.434000	0.607000	0.107700
C441	C44	0.501600	0.591100	0.177500
C451	C45	0.486800	0.518000	0.234000
C461	C46	0.402200	0.461600	0.223700
C471	C47	0.591900	0.651800	0.192600
C481	C48	0.025000	0.358000	0.463600
C491	C49	0.026000	0.422500	0.537700
C501	C50	0.000000	0.509900	0.509900
N61	N6	0.887200	0.180100	0.344200
N71	N7	0.752700	0.142800	0.423400
N81	N8	0.112800	0.344200	0.180100
N91	N9	0.247300	0.423400	0.142800
N101	N10	0.000000	0.380200	0.380200
O51	O5	0.398700	0.140600	0.718000
O61	O6	0.347500	0.255400	0.635200
O71	O7	0.601300	0.718000	0.140600
O81	O8	0.652500	0.635200	0.255400
Cd31	Cd3	0.750000	0.769470	0.230530
H391	H39	0.668700	0.813000	0.453500
H401	H40	0.519900	0.903100	0.494600
H411	H41	0.549400	0.904200	0.228200
H421	H42	0.446200	0.060400	0.450400
H431	H43	0.305600	0.155100	0.431200
H441	H44	0.216300	0.006200	0.220700
H451	H45	0.358900	0.913800	0.237200
H461	H46	0.706600	0.798700	0.024500
H471	H47	0.709000	0.907300	0.903200
H481	H48	0.831300	0.546500	0.187000
H491	H49	0.980100	0.505400	0.096900
H501	H50	0.950600	0.771800	0.095800
H511	H51	0.053800	0.549600	0.939600
H521	H52	0.194400	0.568800	0.844900
H531	H53	0.283700	0.779300	0.993800
H541	H54	0.141100	0.762800	0.086200
H551	H55	0.793400	0.975500	0.201300
H561	H56	0.791000	0.096800	0.092700
H571	H57	0.750000	0.054100	0.945900
C511	C51	0.626100	0.843000	0.413600
C521	C52	0.543900	0.892300	0.436800
C531	C53	0.561200	0.892700	0.288700
C541	C54	0.414100	0.978700	0.345900
C551	C55	0.400200	0.050100	0.404000
C561	C56	0.316000	0.107000	0.392300
C571	C57	0.248400	0.091100	0.322500
C581	C58	0.263200	0.018000	0.266000
C591	C59	0.347800	0.961600	0.276300
C601	C60	0.158100	0.151800	0.307400
C611	C61	0.725000	0.858000	0.036400
C621	C62	0.724000	0.922500	0.962300
C631	C63	0.873900	0.586400	0.157000
C641	C64	0.956100	0.563200	0.107700
C651	C65	0.938800	0.711300	0.107300
C661	C66	0.085900	0.654100	0.021300
C671	C67	0.099800	0.596000	0.949900
C681	C68	0.184000	0.607700	0.893000
C691	C69	0.251600	0.677500	0.908900
C701	C70	0.236800	0.734000	0.982000
C711	C71	0.152200	0.723700	0.038400
C721	C72	0.341900	0.692600	0.848200
C731	C73	0.775000	0.963600	0.142000
C741	C74	0.776000	0.037700	0.077500
C751	C75	0.750000	0.009900	0.990100
N111	N11	0.637200	0.844200	0.319900
N121	N12	0.502700	0.923400	0.357200
N131	N13	0.862800	0.680100	0.155800
N141	N14	0.997300	0.642800	0.076600
N151	N15	0.750000	0.880200	0.119800
O91	O9	0.148700	0.218000	0.359400
O101	O10	0.097500	0.135200	0.244600
O111	O11	0.351300	0.640600	0.782000
O121	O12	0.402500	0.755400	0.864800
Cd41	Cd4	0.250000	0.230530	0.769470
H581	H58	0.168700	0.187000	0.546500
H591	H59	0.019900	0.096900	0.505400
H601	H60	0.049400	0.095800	0.771800
H611	H61	0.946200	0.939600	0.549600
H621	H62	0.805600	0.844900	0.568800
H631	H63	0.716300	0.993800	0.779300
H641	H64	0.858900	0.086200	0.762800
H651	H65	0.206600	0.201300	0.975500
H661	H66	0.209000	0.092700	0.096800
H671	H67	0.331300	0.453500	0.813000
H681	H68	0.480100	0.494600	0.903100
H691	H69	0.450600	0.228200	0.904200
H701	H70	0.553800	0.450400	0.060400
H711	H71	0.694400	0.431200	0.155100
H721	H72	0.783700	0.220700	0.006200
H731	H73	0.641100	0.237200	0.913800
H741	H74	0.293400	0.024500	0.798700
H751	H75	0.291000	0.903200	0.907300
H761	H76	0.250000	0.945900	0.054100
C761	C76	0.126100	0.157000	0.586400
C771	C77	0.043900	0.107700	0.563200
C781	C78	0.061200	0.107300	0.711300
C791	C79	0.914100	0.021300	0.654100
C801	C80	0.900200	0.949900	0.596000
C811	C81	0.816000	0.893000	0.607700
C821	C82	0.748400	0.908900	0.677500
C831	C83	0.763200	0.982000	0.734000
C841	C84	0.847800	0.038400	0.723700
C851	C85	0.658100	0.848200	0.692600
C861	C86	0.225000	0.142000	0.963600
C871	C87	0.224000	0.077500	0.037700
C881	C88	0.373900	0.413600	0.843000
C891	C89	0.456100	0.436800	0.892300
C901	C90	0.438800	0.288700	0.892700
C911	C91	0.585900	0.345900	0.978700
C921	C92	0.599800	0.404000	0.050100
C931	C93	0.684000	0.392300	0.107000
C941	C94	0.751600	0.322500	0.091100
C951	C95	0.736800	0.266000	0.018000
C961	C96	0.652200	0.276300	0.961600
C971	C97	0.841900	0.307400	0.151800
C981	C98	0.275000	0.036400	0.858000
C991	C99	0.276000	0.962300	0.922500
C1001	C100	0.250000	0.990100	0.009900
N161	N16	0.137200	0.155800	0.680100
N171	N17	0.002700	0.076600	0.642800
N181	N18	0.362800	0.319900	0.844200
N191	N19	0.497300	0.357200	0.923400
N201	N20	0.250000	0.119800	0.880200
O131	O13	0.648700	0.782000	0.640600
O141	O14	0.597500	0.864800	0.755400
O151	O15	0.851300	0.359400	0.218000
O161	O16	0.902500	0.244600	0.135200
