data_OBAHUX_freeONLY_PM
_symmetry_space_group_name_H-M	'P1'
_cell_length_a	29.875000
_cell_length_b	29.875000
_cell_length_c	18.072000
_cell_angle_alpha	90.000000
_cell_angle_beta	90.000000
_cell_angle_gamma	120.000000
_symmetry_Int_Tables_number 1

loop_
_symmetry_equiv_pos_as_xyz
'x,y,z'

loop_
_atom_site_label
_atom_site_type_symbol
_atom_site_fract_x
_atom_site_fract_y
_atom_site_fract_z
Zn11	Zn1	0.625180	0.853760	0.519300
N11	N1	0.635420	0.893780	0.420170
N21	N2	0.598820	0.792760	0.444700
N31	N3	0.581570	0.768960	0.328180
O11	O1	0.477060	0.492050	0.243020
O21	O2	0.448070	0.523510	0.154780
O31	O3	0.582010	0.634670	0.751800
O41	O4	0.497620	0.594520	0.735370
C11	C1	0.650530	0.944000	0.412000
H11	H1	0.660400	0.965400	0.454700
C21	C2	0.652300	0.965840	0.343400
H21	H2	0.662400	0.001400	0.339500
C31	C3	0.639100	0.935270	0.281100
H31	H3	0.640700	0.949600	0.233600
C41	C4	0.623500	0.883190	0.288500
H41	H4	0.614600	0.861500	0.246300
C51	C5	0.621300	0.863570	0.358660
C61	C6	0.602160	0.809390	0.375340
C71	C7	0.575130	0.739840	0.441860
C81	C8	0.563850	0.723820	0.368590
C91	C9	0.539200	0.673280	0.331080
C101	C10	0.514990	0.667110	0.262400
H51	H5	0.514400	0.695700	0.240400
C111	C11	0.492140	0.620340	0.226430
H61	H6	0.475800	0.617000	0.180000
C121	C12	0.492460	0.577500	0.257010
C131	C13	0.516820	0.583350	0.325660
H71	H7	0.517800	0.554800	0.347200
C141	C14	0.539530	0.630480	0.362390
H81	H8	0.555400	0.633800	0.409100
C151	C15	0.469870	0.527260	0.214420
C161	C16	0.565540	0.710400	0.511340
C171	C17	0.605600	0.727470	0.563270
H91	H9	0.638200	0.756900	0.552700
C181	C18	0.597880	0.701570	0.630190
H101	H10	0.625200	0.713300	0.665100
C191	C19	0.550020	0.658390	0.646070
C201	C20	0.509660	0.642140	0.595500
H111	H11	0.476600	0.613600	0.607000
C211	C21	0.517760	0.667760	0.527900
H121	H12	0.490400	0.655900	0.493000
C221	C22	0.543340	0.628180	0.716400
H131	H13	0.580900	0.770400	0.287000
Zn21	Zn2	0.291850	0.187090	0.852630
N41	N4	0.302090	0.227110	0.753500
N51	N5	0.265490	0.126090	0.778030
N61	N6	0.248240	0.102290	0.661510
O51	O5	0.143730	0.825380	0.576350
O61	O6	0.114740	0.856840	0.488110
O71	O7	0.248680	0.968000	0.085130
O81	O8	0.164290	0.927850	0.068700
C231	C23	0.317200	0.277330	0.745330
H141	H14	0.327070	0.298730	0.788030
C241	C24	0.318970	0.299170	0.676730
H151	H15	0.329070	0.334730	0.672830
C251	C25	0.305770	0.268600	0.614430
H161	H16	0.307370	0.282930	0.566930
C261	C26	0.290170	0.216520	0.621830
H171	H17	0.281270	0.194830	0.579630
C271	C27	0.287970	0.196900	0.691990
C281	C28	0.268830	0.142720	0.708670
C291	C29	0.241800	0.073170	0.775190
C301	C30	0.230520	0.057150	0.701920
C311	C31	0.205870	0.006610	0.664410
C321	C32	0.181660	0.000440	0.595730
H181	H18	0.181070	0.029030	0.573730
C331	C33	0.158810	0.953670	0.559760
H191	H19	0.142470	0.950330	0.513330
C341	C34	0.159130	0.910830	0.590340
C351	C35	0.183490	0.916680	0.658990
H201	H20	0.184470	0.888130	0.680530
C361	C36	0.206200	0.963810	0.695720
H211	H21	0.222070	0.967130	0.742430
C371	C37	0.136540	0.860590	0.547750
C381	C38	0.232210	0.043730	0.844670
C391	C39	0.272270	0.060800	0.896600
H221	H22	0.304870	0.090230	0.886030
C401	C40	0.264550	0.034900	0.963520
H231	H23	0.291870	0.046630	0.998430
C411	C41	0.216690	0.991720	0.979400
C421	C42	0.176330	0.975470	0.928830
H241	H24	0.143270	0.946930	0.940330
C431	C43	0.184430	0.001090	0.861230
H251	H25	0.157070	0.989230	0.826330
C441	C44	0.210010	0.961510	0.049730
H261	H26	0.247570	0.103730	0.620330
Zn31	Zn3	0.958510	0.520430	0.185970
N71	N7	0.968750	0.560450	0.086840
N81	N8	0.932150	0.459430	0.111370
N91	N9	0.914900	0.435630	0.994850
O91	O9	0.810390	0.158720	0.909690
O101	O10	0.781400	0.190180	0.821450
O111	O11	0.915340	0.301340	0.418470
O121	O12	0.830950	0.261190	0.402040
C451	C45	0.983860	0.610670	0.078670
H271	H27	0.993730	0.632070	0.121370
C461	C46	0.985630	0.632510	0.010070
H281	H28	0.995730	0.668070	0.006170
C471	C47	0.972430	0.601940	0.947770
H291	H29	0.974030	0.616270	0.900270
C481	C48	0.956830	0.549860	0.955170
H301	H30	0.947930	0.528170	0.912970
C491	C49	0.954630	0.530240	0.025330
C501	C50	0.935490	0.476060	0.042010
C511	C51	0.908460	0.406510	0.108530
C521	C52	0.897180	0.390490	0.035260
C531	C53	0.872530	0.339950	0.997750
C541	C54	0.848320	0.333780	0.929070
H311	H31	0.847730	0.362370	0.907070
C551	C55	0.825470	0.287010	0.893100
H321	H32	0.809130	0.283670	0.846670
C561	C56	0.825790	0.244170	0.923680
C571	C57	0.850150	0.250020	0.992330
H331	H33	0.851130	0.221470	0.013870
C581	C58	0.872860	0.297150	0.029060
H341	H34	0.888730	0.300470	0.075770
C591	C59	0.803200	0.193930	0.881090
C601	C60	0.898870	0.377070	0.178010
C611	C61	0.938930	0.394140	0.229940
H351	H35	0.971530	0.423570	0.219370
C621	C62	0.931210	0.368240	0.296860
H361	H36	0.958530	0.379970	0.331770
C631	C63	0.883350	0.325060	0.312740
C641	C64	0.842990	0.308810	0.262170
H371	H37	0.809930	0.280270	0.273670
C651	C65	0.851090	0.334430	0.194570
H381	H38	0.823730	0.322570	0.159670
C661	C66	0.876670	0.294850	0.383070
H391	H39	0.914230	0.437070	0.953670
Zn41	Zn4	0.146240	0.771420	0.519300
N101	N10	0.106220	0.741640	0.420170
N111	N11	0.207240	0.806060	0.444700
N121	N12	0.231040	0.812610	0.328180
O131	O13	0.507950	0.985010	0.243020
O141	O14	0.476490	0.924560	0.154780
O151	O15	0.365330	0.947340	0.751800
O161	O16	0.405480	0.903100	0.735370
C671	C67	0.056000	0.706530	0.412000
H401	H40	0.034600	0.695000	0.454700
C681	C68	0.034160	0.686460	0.343400
H411	H41	0.998600	0.661000	0.339500
C691	C69	0.064730	0.703830	0.281100
H421	H42	0.050400	0.691100	0.233600
C701	C70	0.116810	0.740310	0.288500
H431	H43	0.138500	0.753100	0.246300
C711	C71	0.136430	0.757730	0.358660
C721	C72	0.190610	0.792770	0.375340
C731	C73	0.260160	0.835290	0.441860
C741	C74	0.276180	0.840030	0.368590
C751	C75	0.326720	0.865920	0.331080
C761	C76	0.332890	0.847880	0.262400
H441	H44	0.304300	0.818700	0.240400
C771	C77	0.379660	0.871800	0.226430
H451	H45	0.383000	0.858800	0.180000
C781	C78	0.422500	0.914960	0.257010
C791	C79	0.416650	0.933470	0.325660
H461	H46	0.445200	0.963000	0.347200
C801	C80	0.369520	0.909050	0.362390
H471	H47	0.366200	0.921600	0.409100
C811	C81	0.472740	0.942610	0.214420
C821	C82	0.289600	0.855140	0.511340
C831	C83	0.272530	0.878130	0.563270
H481	H48	0.243100	0.881300	0.552700
C841	C84	0.298430	0.896310	0.630190
H491	H49	0.286700	0.911900	0.665100
C851	C85	0.341610	0.891630	0.646070
C861	C86	0.357860	0.867520	0.595500
H501	H50	0.386400	0.863000	0.607000
C871	C87	0.332240	0.850000	0.527900
H511	H51	0.344100	0.834500	0.493000
C881	C88	0.371820	0.915160	0.716400
H521	H52	0.229600	0.810500	0.287000
Zn51	Zn5	0.812910	0.104750	0.852630
N131	N13	0.772890	0.074970	0.753500
N141	N14	0.873910	0.139390	0.778030
N151	N15	0.897710	0.145940	0.661510
O171	O17	0.174620	0.318340	0.576350
O181	O18	0.143160	0.257890	0.488110
O191	O19	0.032000	0.280670	0.085130
O201	O20	0.072150	0.236430	0.068700
C891	C89	0.722670	0.039860	0.745330
H531	H53	0.701270	0.028330	0.788030
C901	C90	0.700830	0.019790	0.676730
H541	H54	0.665270	0.994330	0.672830
C911	C91	0.731400	0.037160	0.614430
H551	H55	0.717070	0.024430	0.566930
C921	C92	0.783480	0.073640	0.621830
H561	H56	0.805170	0.086430	0.579630
C931	C93	0.803100	0.091060	0.691990
C941	C94	0.857280	0.126100	0.708670
C951	C95	0.926830	0.168620	0.775190
C961	C96	0.942850	0.173360	0.701920
C971	C97	0.993390	0.199250	0.664410
C981	C98	0.999560	0.181210	0.595730
H571	H57	0.970970	0.152030	0.573730
C991	C99	0.046330	0.205130	0.559760
H581	H58	0.049670	0.192130	0.513330
C1001	C100	0.089170	0.248290	0.590340
C1011	C101	0.083320	0.266800	0.658990
H591	H59	0.111870	0.296330	0.680530
C1021	C102	0.036190	0.242380	0.695720
H601	H60	0.032870	0.254930	0.742430
C1031	C103	0.139410	0.275940	0.547750
C1041	C104	0.956270	0.188470	0.844670
C1051	C105	0.939200	0.211460	0.896600
H611	H61	0.909770	0.214630	0.886030
C1061	C106	0.965100	0.229640	0.963520
H621	H62	0.953370	0.245230	0.998430
C1071	C107	0.008280	0.224960	0.979400
C1081	C108	0.024530	0.200850	0.928830
H631	H63	0.053070	0.196330	0.940330
C1091	C109	0.998910	0.183330	0.861230
H641	H64	0.010770	0.167830	0.826330
C1101	C110	0.038490	0.248490	0.049730
H651	H65	0.896270	0.143830	0.620330
Zn61	Zn6	0.479570	0.438090	0.185970
N161	N16	0.439550	0.408310	0.086840
N171	N17	0.540570	0.472730	0.111370
N181	N18	0.564370	0.479280	0.994850
O211	O21	0.841280	0.651680	0.909690
O221	O22	0.809820	0.591230	0.821450
O231	O23	0.698660	0.614010	0.418470
O241	O24	0.738810	0.569770	0.402040
C1111	C111	0.389330	0.373200	0.078670
H661	H66	0.367930	0.361670	0.121370
C1121	C112	0.367490	0.353130	0.010070
H671	H67	0.331930	0.327670	0.006170
C1131	C113	0.398060	0.370500	0.947770
H681	H68	0.383730	0.357770	0.900270
C1141	C114	0.450140	0.406980	0.955170
H691	H69	0.471830	0.419770	0.912970
C1151	C115	0.469760	0.424400	0.025330
C1161	C116	0.523940	0.459440	0.042010
C1171	C117	0.593490	0.501960	0.108530
C1181	C118	0.609510	0.506700	0.035260
C1191	C119	0.660050	0.532590	0.997750
C1201	C120	0.666220	0.514550	0.929070
H701	H70	0.637630	0.485370	0.907070
C1211	C121	0.712990	0.538470	0.893100
H711	H71	0.716330	0.525470	0.846670
C1221	C122	0.755830	0.581630	0.923680
C1231	C123	0.749980	0.600140	0.992330
H721	H72	0.778530	0.629670	0.013870
C1241	C124	0.702850	0.575720	0.029060
H731	H73	0.699530	0.588270	0.075770
C1251	C125	0.806070	0.609280	0.881090
C1261	C126	0.622930	0.521810	0.178010
C1271	C127	0.605860	0.544800	0.229940
H741	H74	0.576430	0.547970	0.219370
C1281	C128	0.631760	0.562980	0.296860
H751	H75	0.620030	0.578570	0.331770
C1291	C129	0.674940	0.558300	0.312740
C1301	C130	0.691190	0.534190	0.262170
H761	H76	0.719730	0.529670	0.273670
C1311	C131	0.665570	0.516670	0.194570
H771	H77	0.677430	0.501170	0.159670
C1321	C132	0.705150	0.581830	0.383070
H781	H78	0.562930	0.477170	0.953670
Zn71	Zn7	0.228580	0.374820	0.519300
N191	N19	0.258360	0.364580	0.420170
N201	N20	0.193940	0.401180	0.444700
N211	N21	0.187390	0.418430	0.328180
O251	O25	0.014990	0.522940	0.243020
O261	O26	0.075440	0.551930	0.154780
O271	O27	0.052660	0.417990	0.751800
O281	O28	0.096900	0.502380	0.735370
C1331	C133	0.293470	0.349470	0.412000
H791	H79	0.305000	0.339600	0.454700
C1341	C134	0.313540	0.347700	0.343400
H801	H80	0.339000	0.337600	0.339500
C1351	C135	0.296170	0.360900	0.281100
H811	H81	0.308900	0.359300	0.233600
C1361	C136	0.259690	0.376500	0.288500
H821	H82	0.246900	0.385400	0.246300
C1371	C137	0.242270	0.378700	0.358660
C1381	C138	0.207230	0.397840	0.375340
C1391	C139	0.164710	0.424870	0.441860
C1401	C140	0.159970	0.436150	0.368590
C1411	C141	0.134080	0.460800	0.331080
C1421	C142	0.152120	0.485010	0.262400
H831	H83	0.181300	0.485600	0.240400
C1431	C143	0.128200	0.507860	0.226430
H841	H84	0.141200	0.524200	0.180000
C1441	C144	0.085040	0.507540	0.257010
C1451	C145	0.066530	0.483180	0.325660
H851	H85	0.037000	0.482200	0.347200
C1461	C146	0.090950	0.460470	0.362390
H861	H86	0.078400	0.444600	0.409100
C1471	C147	0.057390	0.530130	0.214420
C1481	C148	0.144860	0.434460	0.511340
C1491	C149	0.121870	0.394400	0.563270
H871	H87	0.118700	0.361800	0.552700
C1501	C150	0.103690	0.402120	0.630190
H881	H88	0.088100	0.374800	0.665100
C1511	C151	0.108370	0.449980	0.646070
C1521	C152	0.132480	0.490340	0.595500
H891	H89	0.137000	0.523400	0.607000
C1531	C153	0.150000	0.482240	0.527900
H901	H90	0.165500	0.509600	0.493000
C1541	C154	0.084840	0.456660	0.716400
H911	H91	0.189500	0.419100	0.287000
Zn81	Zn8	0.895250	0.708150	0.852630
N221	N22	0.925030	0.697910	0.753500
N231	N23	0.860610	0.734510	0.778030
N241	N24	0.854060	0.751760	0.661510
O291	O29	0.681660	0.856270	0.576350
O301	O30	0.742110	0.885260	0.488110
O311	O31	0.719330	0.751320	0.085130
O321	O32	0.763570	0.835710	0.068700
C1551	C155	0.960140	0.682800	0.745330
H921	H92	0.971670	0.672930	0.788030
C1561	C156	0.980210	0.681030	0.676730
H931	H93	0.005670	0.670930	0.672830
C1571	C157	0.962840	0.694230	0.614430
H941	H94	0.975570	0.692630	0.566930
C1581	C158	0.926360	0.709830	0.621830
H951	H95	0.913570	0.718730	0.579630
C1591	C159	0.908940	0.712030	0.691990
C1601	C160	0.873900	0.731170	0.708670
C1611	C161	0.831380	0.758200	0.775190
C1621	C162	0.826640	0.769480	0.701920
C1631	C163	0.800750	0.794130	0.664410
C1641	C164	0.818790	0.818340	0.595730
H961	H96	0.847970	0.818930	0.573730
C1651	C165	0.794870	0.841190	0.559760
H971	H97	0.807870	0.857530	0.513330
C1661	C166	0.751710	0.840870	0.590340
C1671	C167	0.733200	0.816510	0.658990
H981	H98	0.703670	0.815530	0.680530
C1681	C168	0.757620	0.793800	0.695720
H991	H99	0.745070	0.777930	0.742430
C1691	C169	0.724060	0.863460	0.547750
C1701	C170	0.811530	0.767790	0.844670
C1711	C171	0.788540	0.727730	0.896600
H1001	H100	0.785370	0.695130	0.886030
C1721	C172	0.770360	0.735450	0.963520
H1011	H101	0.754770	0.708130	0.998430
C1731	C173	0.775040	0.783310	0.979400
C1741	C174	0.799150	0.823670	0.928830
H1021	H102	0.803670	0.856730	0.940330
C1751	C175	0.816670	0.815570	0.861230
H1031	H103	0.832170	0.842930	0.826330
C1761	C176	0.751510	0.789990	0.049730
H1041	H104	0.856170	0.752430	0.620330
Zn91	Zn9	0.561910	0.041490	0.185970
N251	N25	0.591690	0.031250	0.086840
N261	N26	0.527270	0.067850	0.111370
N271	N27	0.520720	0.085100	0.994850
O331	O33	0.348320	0.189610	0.909690
O341	O34	0.408770	0.218600	0.821450
O351	O35	0.385990	0.084660	0.418470
O361	O36	0.430230	0.169050	0.402040
C1771	C177	0.626800	0.016140	0.078670
H1051	H105	0.638330	0.006270	0.121370
C1781	C178	0.646870	0.014370	0.010070
H1061	H106	0.672330	0.004270	0.006170
C1791	C179	0.629500	0.027570	0.947770
H1071	H107	0.642230	0.025970	0.900270
C1801	C180	0.593020	0.043170	0.955170
H1081	H108	0.580230	0.052070	0.912970
C1811	C181	0.575600	0.045370	0.025330
C1821	C182	0.540560	0.064510	0.042010
C1831	C183	0.498040	0.091540	0.108530
C1841	C184	0.493300	0.102820	0.035260
C1851	C185	0.467410	0.127470	0.997750
C1861	C186	0.485450	0.151680	0.929070
H1091	H109	0.514630	0.152270	0.907070
C1871	C187	0.461530	0.174530	0.893100
H1101	H110	0.474530	0.190870	0.846670
C1881	C188	0.418370	0.174210	0.923680
C1891	C189	0.399860	0.149850	0.992330
H1111	H111	0.370330	0.148870	0.013870
C1901	C190	0.424280	0.127140	0.029060
H1121	H112	0.411730	0.111270	0.075770
C1911	C191	0.390720	0.196800	0.881090
C1921	C192	0.478190	0.101130	0.178010
C1931	C193	0.455200	0.061070	0.229940
H1131	H113	0.452030	0.028470	0.219370
C1941	C194	0.437020	0.068790	0.296860
H1141	H114	0.421430	0.041470	0.331770
C1951	C195	0.441700	0.116650	0.312740
C1961	C196	0.465810	0.157010	0.262170
H1151	H115	0.470330	0.190070	0.273670
C1971	C197	0.483330	0.148910	0.194570
H1161	H116	0.498830	0.176270	0.159670
C1981	C198	0.418170	0.123330	0.383070
H1171	H117	0.522830	0.085770	0.953670
Zn101	Zn10	0.374820	0.146240	0.480700
N281	N28	0.364580	0.106220	0.579830
N291	N29	0.401180	0.207240	0.555300
N301	N30	0.418430	0.231040	0.671820
O371	O37	0.522940	0.507950	0.756980
O381	O38	0.551930	0.476490	0.845220
O391	O39	0.417990	0.365330	0.248200
O401	O40	0.502380	0.405480	0.264630
C1991	C199	0.349470	0.056000	0.588000
H1181	H118	0.339600	0.034600	0.545300
C2001	C200	0.347700	0.034160	0.656600
H1191	H119	0.337600	0.998600	0.660500
C2011	C201	0.360900	0.064730	0.718900
H1201	H120	0.359300	0.050400	0.766400
C2021	C202	0.376500	0.116810	0.711500
H1211	H121	0.385400	0.138500	0.753700
C2031	C203	0.378700	0.136430	0.641340
C2041	C204	0.397840	0.190610	0.624660
C2051	C205	0.424870	0.260160	0.558140
C2061	C206	0.436150	0.276180	0.631410
C2071	C207	0.460800	0.326720	0.668920
C2081	C208	0.485010	0.332890	0.737600
H1221	H122	0.485600	0.304300	0.759600
C2091	C209	0.507860	0.379660	0.773570
H1231	H123	0.524200	0.383000	0.820000
C2101	C210	0.507540	0.422500	0.742990
C2111	C211	0.483180	0.416650	0.674340
H1241	H124	0.482200	0.445200	0.652800
C2121	C212	0.460470	0.369520	0.637610
H1251	H125	0.444600	0.366200	0.590900
C2131	C213	0.530130	0.472740	0.785580
C2141	C214	0.434460	0.289600	0.488660
C2151	C215	0.394400	0.272530	0.436730
H1261	H126	0.361800	0.243100	0.447300
C2161	C216	0.402120	0.298430	0.369810
H1271	H127	0.374800	0.286700	0.334900
C2171	C217	0.449980	0.341610	0.353930
C2181	C218	0.490340	0.357860	0.404500
H1281	H128	0.523400	0.386400	0.393000
C2191	C219	0.482240	0.332240	0.472100
H1291	H129	0.509600	0.344100	0.507000
C2201	C220	0.456660	0.371820	0.283600
H1301	H130	0.419100	0.229600	0.713000
Zn111	Zn11	0.041490	0.479570	0.814030
N311	N31	0.031250	0.439550	0.913160
N321	N32	0.067850	0.540570	0.888630
N331	N33	0.085100	0.564370	0.005150
O411	O41	0.189610	0.841280	0.090310
O421	O42	0.218600	0.809820	0.178550
O431	O43	0.084660	0.698660	0.581530
O441	O44	0.169050	0.738810	0.597960
C2211	C221	0.016140	0.389330	0.921330
H1311	H131	0.006270	0.367930	0.878630
C2221	C222	0.014370	0.367490	0.989930
H1321	H132	0.004270	0.331930	0.993830
C2231	C223	0.027570	0.398060	0.052230
H1331	H133	0.025970	0.383730	0.099730
C2241	C224	0.043170	0.450140	0.044830
H1341	H134	0.052070	0.471830	0.087030
C2251	C225	0.045370	0.469760	0.974670
C2261	C226	0.064510	0.523940	0.957990
C2271	C227	0.091540	0.593490	0.891470
C2281	C228	0.102820	0.609510	0.964740
C2291	C229	0.127470	0.660050	0.002250
C2301	C230	0.151680	0.666220	0.070930
H1351	H135	0.152270	0.637630	0.092930
C2311	C231	0.174530	0.712990	0.106900
H1361	H136	0.190870	0.716330	0.153330
C2321	C232	0.174210	0.755830	0.076320
C2331	C233	0.149850	0.749980	0.007670
H1371	H137	0.148870	0.778530	0.986130
C2341	C234	0.127140	0.702850	0.970940
H1381	H138	0.111270	0.699530	0.924230
C2351	C235	0.196800	0.806070	0.118910
C2361	C236	0.101130	0.622930	0.821990
C2371	C237	0.061070	0.605860	0.770060
H1391	H139	0.028470	0.576430	0.780630
C2381	C238	0.068790	0.631760	0.703140
H1401	H140	0.041470	0.620030	0.668230
C2391	C239	0.116650	0.674940	0.687260
C2401	C240	0.157010	0.691190	0.737830
H1411	H141	0.190070	0.719730	0.726330
C2411	C241	0.148910	0.665570	0.805430
H1421	H142	0.176270	0.677430	0.840330
C2421	C242	0.123330	0.705150	0.616930
H1431	H143	0.085770	0.562930	0.046330
Zn121	Zn12	0.708150	0.812910	0.147370
N341	N34	0.697910	0.772890	0.246500
N351	N35	0.734510	0.873910	0.221970
N361	N36	0.751760	0.897710	0.338490
O451	O45	0.856270	0.174620	0.423650
O461	O46	0.885260	0.143160	0.511890
O471	O47	0.751320	0.032000	0.914870
O481	O48	0.835710	0.072150	0.931300
C2431	C243	0.682800	0.722670	0.254670
H1441	H144	0.672930	0.701270	0.211970
C2441	C244	0.681030	0.700830	0.323270
H1451	H145	0.670930	0.665270	0.327170
C2451	C245	0.694230	0.731400	0.385570
H1461	H146	0.692630	0.717070	0.433070
C2461	C246	0.709830	0.783480	0.378170
H1471	H147	0.718730	0.805170	0.420370
C2471	C247	0.712030	0.803100	0.308010
C2481	C248	0.731170	0.857280	0.291330
C2491	C249	0.758200	0.926830	0.224810
C2501	C250	0.769480	0.942850	0.298080
C2511	C251	0.794130	0.993390	0.335590
C2521	C252	0.818340	0.999560	0.404270
H1481	H148	0.818930	0.970970	0.426270
C2531	C253	0.841190	0.046330	0.440240
H1491	H149	0.857530	0.049670	0.486670
C2541	C254	0.840870	0.089170	0.409660
C2551	C255	0.816510	0.083320	0.341010
H1501	H150	0.815530	0.111870	0.319470
C2561	C256	0.793800	0.036190	0.304280
H1511	H151	0.777930	0.032870	0.257570
C2571	C257	0.863460	0.139410	0.452250
C2581	C258	0.767790	0.956270	0.155330
C2591	C259	0.727730	0.939200	0.103400
H1521	H152	0.695130	0.909770	0.113970
C2601	C260	0.735450	0.965100	0.036480
H1531	H153	0.708130	0.953370	0.001570
C2611	C261	0.783310	0.008280	0.020600
C2621	C262	0.823670	0.024530	0.071170
H1541	H154	0.856730	0.053070	0.059670
C2631	C263	0.815570	0.998910	0.138770
H1551	H155	0.842930	0.010770	0.173670
C2641	C264	0.789990	0.038490	0.950270
H1561	H156	0.752430	0.896270	0.379670
Zn131	Zn13	0.853760	0.228580	0.480700
N371	N37	0.893780	0.258360	0.579830
N381	N38	0.792760	0.193940	0.555300
N391	N39	0.768960	0.187390	0.671820
O491	O49	0.492050	0.014990	0.756980
O501	O50	0.523510	0.075440	0.845220
O511	O51	0.634670	0.052660	0.248200
O521	O52	0.594520	0.096900	0.264630
C2651	C265	0.944000	0.293470	0.588000
H1571	H157	0.965400	0.305000	0.545300
C2661	C266	0.965840	0.313540	0.656600
H1581	H158	0.001400	0.339000	0.660500
C2671	C267	0.935270	0.296170	0.718900
H1591	H159	0.949600	0.308900	0.766400
C2681	C268	0.883190	0.259690	0.711500
H1601	H160	0.861500	0.246900	0.753700
C2691	C269	0.863570	0.242270	0.641340
C2701	C270	0.809390	0.207230	0.624660
C2711	C271	0.739840	0.164710	0.558140
C2721	C272	0.723820	0.159970	0.631410
C2731	C273	0.673280	0.134080	0.668920
C2741	C274	0.667110	0.152120	0.737600
H1611	H161	0.695700	0.181300	0.759600
C2751	C275	0.620340	0.128200	0.773570
H1621	H162	0.617000	0.141200	0.820000
C2761	C276	0.577500	0.085040	0.742990
C2771	C277	0.583350	0.066530	0.674340
H1631	H163	0.554800	0.037000	0.652800
C2781	C278	0.630480	0.090950	0.637610
H1641	H164	0.633800	0.078400	0.590900
C2791	C279	0.527260	0.057390	0.785580
C2801	C280	0.710400	0.144860	0.488660
C2811	C281	0.727470	0.121870	0.436730
H1651	H165	0.756900	0.118700	0.447300
C2821	C282	0.701570	0.103690	0.369810
H1661	H166	0.713300	0.088100	0.334900
C2831	C283	0.658390	0.108370	0.353930
C2841	C284	0.642140	0.132480	0.404500
H1671	H167	0.613600	0.137000	0.393000
C2851	C285	0.667760	0.150000	0.472100
H1681	H168	0.655900	0.165500	0.507000
C2861	C286	0.628180	0.084840	0.283600
H1691	H169	0.770400	0.189500	0.713000
Zn141	Zn14	0.520430	0.561910	0.814030
N401	N40	0.560450	0.591690	0.913160
N411	N41	0.459430	0.527270	0.888630
N421	N42	0.435630	0.520720	0.005150
O531	O53	0.158720	0.348320	0.090310
O541	O54	0.190180	0.408770	0.178550
O551	O55	0.301340	0.385990	0.581530
O561	O56	0.261190	0.430230	0.597960
C2871	C287	0.610670	0.626800	0.921330
H1701	H170	0.632070	0.638330	0.878630
C2881	C288	0.632510	0.646870	0.989930
H1711	H171	0.668070	0.672330	0.993830
C2891	C289	0.601940	0.629500	0.052230
H1721	H172	0.616270	0.642230	0.099730
C2901	C290	0.549860	0.593020	0.044830
H1731	H173	0.528170	0.580230	0.087030
C2911	C291	0.530240	0.575600	0.974670
C2921	C292	0.476060	0.540560	0.957990
C2931	C293	0.406510	0.498040	0.891470
C2941	C294	0.390490	0.493300	0.964740
C2951	C295	0.339950	0.467410	0.002250
C2961	C296	0.333780	0.485450	0.070930
H1741	H174	0.362370	0.514630	0.092930
C2971	C297	0.287010	0.461530	0.106900
H1751	H175	0.283670	0.474530	0.153330
C2981	C298	0.244170	0.418370	0.076320
C2991	C299	0.250020	0.399860	0.007670
H1761	H176	0.221470	0.370330	0.986130
C3001	C300	0.297150	0.424280	0.970940
H1771	H177	0.300470	0.411730	0.924230
C3011	C301	0.193930	0.390720	0.118910
C3021	C302	0.377070	0.478190	0.821990
C3031	C303	0.394140	0.455200	0.770060
H1781	H178	0.423570	0.452030	0.780630
C3041	C304	0.368240	0.437020	0.703140
H1791	H179	0.379970	0.421430	0.668230
C3051	C305	0.325060	0.441700	0.687260
C3061	C306	0.308810	0.465810	0.737830
H1801	H180	0.280270	0.470330	0.726330
C3071	C307	0.334430	0.483330	0.805430
H1811	H181	0.322570	0.498830	0.840330
C3081	C308	0.294850	0.418170	0.616930
H1821	H182	0.437070	0.522830	0.046330
Zn151	Zn15	0.187090	0.895250	0.147370
N431	N43	0.227110	0.925030	0.246500
N441	N44	0.126090	0.860610	0.221970
N451	N45	0.102290	0.854060	0.338490
O571	O57	0.825380	0.681660	0.423650
O581	O58	0.856840	0.742110	0.511890
O591	O59	0.968000	0.719330	0.914870
O601	O60	0.927850	0.763570	0.931300
C3091	C309	0.277330	0.960140	0.254670
H1831	H183	0.298730	0.971670	0.211970
C3101	C310	0.299170	0.980210	0.323270
H1841	H184	0.334730	0.005670	0.327170
C3111	C311	0.268600	0.962840	0.385570
H1851	H185	0.282930	0.975570	0.433070
C3121	C312	0.216520	0.926360	0.378170
H1861	H186	0.194830	0.913570	0.420370
C3131	C313	0.196900	0.908940	0.308010
C3141	C314	0.142720	0.873900	0.291330
C3151	C315	0.073170	0.831380	0.224810
C3161	C316	0.057150	0.826640	0.298080
C3171	C317	0.006610	0.800750	0.335590
C3181	C318	0.000440	0.818790	0.404270
H1871	H187	0.029030	0.847970	0.426270
C3191	C319	0.953670	0.794870	0.440240
H1881	H188	0.950330	0.807870	0.486670
C3201	C320	0.910830	0.751710	0.409660
C3211	C321	0.916680	0.733200	0.341010
H1891	H189	0.888130	0.703670	0.319470
C3221	C322	0.963810	0.757620	0.304280
H1901	H190	0.967130	0.745070	0.257570
C3231	C323	0.860590	0.724060	0.452250
C3241	C324	0.043730	0.811530	0.155330
C3251	C325	0.060800	0.788540	0.103400
H1911	H191	0.090230	0.785370	0.113970
C3261	C326	0.034900	0.770360	0.036480
H1921	H192	0.046630	0.754770	0.001570
C3271	C327	0.991720	0.775040	0.020600
C3281	C328	0.975470	0.799150	0.071170
H1931	H193	0.946930	0.803670	0.059670
C3291	C329	0.001090	0.816670	0.138770
H1941	H194	0.989230	0.832170	0.173670
C3301	C330	0.961510	0.751510	0.950270
H1951	H195	0.103730	0.856170	0.379670
Zn161	Zn16	0.771420	0.625180	0.480700
N461	N46	0.741640	0.635420	0.579830
N471	N47	0.806060	0.598820	0.555300
N481	N48	0.812610	0.581570	0.671820
O611	O61	0.985010	0.477060	0.756980
O621	O62	0.924560	0.448070	0.845220
O631	O63	0.947340	0.582010	0.248200
O641	O64	0.903100	0.497620	0.264630
C3311	C331	0.706530	0.650530	0.588000
H1961	H196	0.695000	0.660400	0.545300
C3321	C332	0.686460	0.652300	0.656600
H1971	H197	0.661000	0.662400	0.660500
C3331	C333	0.703830	0.639100	0.718900
H1981	H198	0.691100	0.640700	0.766400
C3341	C334	0.740310	0.623500	0.711500
H1991	H199	0.753100	0.614600	0.753700
C3351	C335	0.757730	0.621300	0.641340
C3361	C336	0.792770	0.602160	0.624660
C3371	C337	0.835290	0.575130	0.558140
C3381	C338	0.840030	0.563850	0.631410
C3391	C339	0.865920	0.539200	0.668920
C3401	C340	0.847880	0.514990	0.737600
H2001	H200	0.818700	0.514400	0.759600
C3411	C341	0.871800	0.492140	0.773570
H2011	H201	0.858800	0.475800	0.820000
C3421	C342	0.914960	0.492460	0.742990
C3431	C343	0.933470	0.516820	0.674340
H2021	H202	0.963000	0.517800	0.652800
C3441	C344	0.909050	0.539530	0.637610
H2031	H203	0.921600	0.555400	0.590900
C3451	C345	0.942610	0.469870	0.785580
C3461	C346	0.855140	0.565540	0.488660
C3471	C347	0.878130	0.605600	0.436730
H2041	H204	0.881300	0.638200	0.447300
C3481	C348	0.896310	0.597880	0.369810
H2051	H205	0.911900	0.625200	0.334900
C3491	C349	0.891630	0.550020	0.353930
C3501	C350	0.867520	0.509660	0.404500
H2061	H206	0.863000	0.476600	0.393000
C3511	C351	0.850000	0.517760	0.472100
H2071	H207	0.834500	0.490400	0.507000
C3521	C352	0.915160	0.543340	0.283600
H2081	H208	0.810500	0.580900	0.713000
Zn171	Zn17	0.438090	0.958510	0.814030
N491	N49	0.408310	0.968750	0.913160
N501	N50	0.472730	0.932150	0.888630
N511	N51	0.479280	0.914900	0.005150
O651	O65	0.651680	0.810390	0.090310
O661	O66	0.591230	0.781400	0.178550
O671	O67	0.614010	0.915340	0.581530
O681	O68	0.569770	0.830950	0.597960
C3531	C353	0.373200	0.983860	0.921330
H2091	H209	0.361670	0.993730	0.878630
C3541	C354	0.353130	0.985630	0.989930
H2101	H210	0.327670	0.995730	0.993830
C3551	C355	0.370500	0.972430	0.052230
H2111	H211	0.357770	0.974030	0.099730
C3561	C356	0.406980	0.956830	0.044830
H2121	H212	0.419770	0.947930	0.087030
C3571	C357	0.424400	0.954630	0.974670
C3581	C358	0.459440	0.935490	0.957990
C3591	C359	0.501960	0.908460	0.891470
C3601	C360	0.506700	0.897180	0.964740
C3611	C361	0.532590	0.872530	0.002250
C3621	C362	0.514550	0.848320	0.070930
H2131	H213	0.485370	0.847730	0.092930
C3631	C363	0.538470	0.825470	0.106900
H2141	H214	0.525470	0.809130	0.153330
C3641	C364	0.581630	0.825790	0.076320
C3651	C365	0.600140	0.850150	0.007670
H2151	H215	0.629670	0.851130	0.986130
C3661	C366	0.575720	0.872860	0.970940
H2161	H216	0.588270	0.888730	0.924230
C3671	C367	0.609280	0.803200	0.118910
C3681	C368	0.521810	0.898870	0.821990
C3691	C369	0.544800	0.938930	0.770060
H2171	H217	0.547970	0.971530	0.780630
C3701	C370	0.562980	0.931210	0.703140
H2181	H218	0.578570	0.958530	0.668230
C3711	C371	0.558300	0.883350	0.687260
C3721	C372	0.534190	0.842990	0.737830
H2191	H219	0.529670	0.809930	0.726330
C3731	C373	0.516670	0.851090	0.805430
H2201	H220	0.501170	0.823730	0.840330
C3741	C374	0.581830	0.876670	0.616930
H2211	H221	0.477170	0.914230	0.046330
Zn181	Zn18	0.104750	0.291850	0.147370
N521	N52	0.074970	0.302090	0.246500
N531	N53	0.139390	0.265490	0.221970
N541	N54	0.145940	0.248240	0.338490
O691	O69	0.318340	0.143730	0.423650
O701	O70	0.257890	0.114740	0.511890
O711	O71	0.280670	0.248680	0.914870
O721	O72	0.236430	0.164290	0.931300
C3751	C375	0.039860	0.317200	0.254670
H2221	H222	0.028330	0.327070	0.211970
C3761	C376	0.019790	0.318970	0.323270
H2231	H223	0.994330	0.329070	0.327170
C3771	C377	0.037160	0.305770	0.385570
H2241	H224	0.024430	0.307370	0.433070
C3781	C378	0.073640	0.290170	0.378170
H2251	H225	0.086430	0.281270	0.420370
C3791	C379	0.091060	0.287970	0.308010
C3801	C380	0.126100	0.268830	0.291330
C3811	C381	0.168620	0.241800	0.224810
C3821	C382	0.173360	0.230520	0.298080
C3831	C383	0.199250	0.205870	0.335590
C3841	C384	0.181210	0.181660	0.404270
H2261	H226	0.152030	0.181070	0.426270
C3851	C385	0.205130	0.158810	0.440240
H2271	H227	0.192130	0.142470	0.486670
C3861	C386	0.248290	0.159130	0.409660
C3871	C387	0.266800	0.183490	0.341010
H2281	H228	0.296330	0.184470	0.319470
C3881	C388	0.242380	0.206200	0.304280
H2291	H229	0.254930	0.222070	0.257570
C3891	C389	0.275940	0.136540	0.452250
C3901	C390	0.188470	0.232210	0.155330
C3911	C391	0.211460	0.272270	0.103400
H2301	H230	0.214630	0.304870	0.113970
C3921	C392	0.229640	0.264550	0.036480
H2311	H231	0.245230	0.291870	0.001570
C3931	C393	0.224960	0.216690	0.020600
C3941	C394	0.200850	0.176330	0.071170
H2321	H232	0.196330	0.143270	0.059670
C3951	C395	0.183330	0.184430	0.138770
H2331	H233	0.167830	0.157070	0.173670
C3961	C396	0.248490	0.210010	0.950270
H2341	H234	0.143830	0.247570	0.379670
