data_OBAHIL_freeONLY_PM
_symmetry_space_group_name_H-M	'P1'
_cell_length_a	29.608000
_cell_length_b	29.608000
_cell_length_c	18.158000
_cell_angle_alpha	90.000000
_cell_angle_beta	90.000000
_cell_angle_gamma	120.000000
_symmetry_Int_Tables_number 1

loop_
_symmetry_equiv_pos_as_xyz
'x,y,z'

loop_
_atom_site_label
_atom_site_type_symbol
_atom_site_fract_x
_atom_site_fract_y
_atom_site_fract_z
Zn11	Zn1	0.625720	0.854430	0.521700
N11	N1	0.635780	0.894990	0.424590
N21	N2	0.598800	0.793680	0.446590
N31	N3	0.582550	0.771350	0.330250
O11	O1	0.475320	0.493130	0.241230
O21	O2	0.452160	0.527880	0.149930
O31	O3	0.580950	0.632180	0.747610
O41	O4	0.496350	0.590700	0.729990
C11	C1	0.652200	0.945850	0.417700
H11	H1	0.660900	0.966600	0.460900
C21	C2	0.657200	0.969440	0.350400
H21	H2	0.669100	0.005700	0.347500
C31	C3	0.644600	0.939650	0.287800
H31	H3	0.647700	0.955200	0.240900
C41	C4	0.627300	0.886760	0.293300
H41	H4	0.618600	0.865400	0.250700
C51	C5	0.623160	0.866090	0.362900
C61	C6	0.602650	0.810910	0.378520
C71	C7	0.575370	0.740560	0.442600
C81	C8	0.564540	0.725490	0.369480
C91	C9	0.540210	0.675180	0.331100
C101	C10	0.516110	0.669860	0.262500
H51	H5	0.515300	0.698800	0.241600
C111	C11	0.493840	0.623390	0.225300
H61	H6	0.478100	0.620800	0.178700
C121	C12	0.493820	0.579990	0.254380
C131	C13	0.517110	0.584780	0.323300
H71	H7	0.516700	0.555300	0.344800
C141	C14	0.540600	0.631650	0.360300
H81	H8	0.557300	0.634500	0.406100
C151	C15	0.471430	0.530280	0.211510
C161	C16	0.564690	0.709770	0.510730
C171	C17	0.602540	0.728900	0.565600
H91	H9	0.634200	0.760800	0.558400
C181	C18	0.594200	0.701520	0.630800
H101	H10	0.620200	0.714900	0.668000
C191	C19	0.548730	0.655300	0.642200
C201	C20	0.509800	0.636300	0.588500
H111	H11	0.477800	0.604900	0.596900
C211	C21	0.517800	0.663230	0.522800
H121	H12	0.491400	0.650100	0.486100
C221	C22	0.541920	0.624700	0.711200
H131	H13	0.585300	0.775300	0.277000
Zn21	Zn2	0.292390	0.187760	0.855030
N41	N4	0.302450	0.228320	0.757920
N51	N5	0.265470	0.127010	0.779920
N61	N6	0.249220	0.104680	0.663580
O51	O5	0.141990	0.826460	0.574560
O61	O6	0.118830	0.861210	0.483260
O71	O7	0.247620	0.965510	0.080940
O81	O8	0.163020	0.924030	0.063320
C231	C23	0.318870	0.279180	0.751030
H141	H14	0.327570	0.299930	0.794230
C241	C24	0.323870	0.302770	0.683730
H151	H15	0.335770	0.339030	0.680830
C251	C25	0.311270	0.272980	0.621130
H161	H16	0.314370	0.288530	0.574230
C261	C26	0.293970	0.220090	0.626630
H171	H17	0.285270	0.198730	0.584030
C271	C27	0.289830	0.199420	0.696230
C281	C28	0.269320	0.144240	0.711850
C291	C29	0.242040	0.073890	0.775930
C301	C30	0.231210	0.058820	0.702810
C311	C31	0.206880	0.008510	0.664430
C321	C32	0.182780	0.003190	0.595830
H181	H18	0.181970	0.032130	0.574930
C331	C33	0.160510	0.956720	0.558630
H191	H19	0.144770	0.954130	0.512030
C341	C34	0.160490	0.913320	0.587710
C351	C35	0.183780	0.918110	0.656630
H201	H20	0.183370	0.888630	0.678130
C361	C36	0.207270	0.964980	0.693630
H211	H21	0.223970	0.967830	0.739430
C371	C37	0.138100	0.863610	0.544840
C381	C38	0.231360	0.043100	0.844060
C391	C39	0.269210	0.062230	0.898930
H221	H22	0.300870	0.094130	0.891730
C401	C40	0.260870	0.034850	0.964130
H231	H23	0.286870	0.048230	0.001330
C411	C41	0.215400	0.988630	0.975530
C421	C42	0.176470	0.969630	0.921830
H241	H24	0.144470	0.938230	0.930230
C431	C43	0.184470	0.996560	0.856130
H251	H25	0.158070	0.983430	0.819430
C441	C44	0.208590	0.958030	0.044530
H261	H26	0.251970	0.108630	0.610330
Zn31	Zn3	0.959050	0.521100	0.188370
N71	N7	0.969110	0.561660	0.091260
N81	N8	0.932130	0.460350	0.113260
N91	N9	0.915880	0.438020	0.996920
O91	O9	0.808650	0.159800	0.907900
O101	O10	0.785490	0.194550	0.816600
O111	O11	0.914280	0.298850	0.414280
O121	O12	0.829680	0.257370	0.396660
C451	C45	0.985530	0.612520	0.084370
H271	H27	0.994230	0.633270	0.127570
C461	C46	0.990530	0.636110	0.017070
H281	H28	0.002430	0.672370	0.014170
C471	C47	0.977930	0.606320	0.954470
H291	H29	0.981030	0.621870	0.907570
C481	C48	0.960630	0.553430	0.959970
H301	H30	0.951930	0.532070	0.917370
C491	C49	0.956490	0.532760	0.029570
C501	C50	0.935980	0.477580	0.045190
C511	C51	0.908700	0.407230	0.109270
C521	C52	0.897870	0.392160	0.036150
C531	C53	0.873540	0.341850	0.997770
C541	C54	0.849440	0.336530	0.929170
H311	H31	0.848630	0.365470	0.908270
C551	C55	0.827170	0.290060	0.891970
H321	H32	0.811430	0.287470	0.845370
C561	C56	0.827150	0.246660	0.921050
C571	C57	0.850440	0.251450	0.989970
H331	H33	0.850030	0.221970	0.011470
C581	C58	0.873930	0.298320	0.026970
H341	H34	0.890630	0.301170	0.072770
C591	C59	0.804760	0.196950	0.878180
C601	C60	0.898020	0.376440	0.177400
C611	C61	0.935870	0.395570	0.232270
H351	H35	0.967530	0.427470	0.225070
C621	C62	0.927530	0.368190	0.297470
H361	H36	0.953530	0.381570	0.334670
C631	C63	0.882060	0.321970	0.308870
C641	C64	0.843130	0.302970	0.255170
H371	H37	0.811130	0.271570	0.263570
C651	C65	0.851130	0.329900	0.189470
H381	H38	0.824730	0.316770	0.152770
C661	C66	0.875250	0.291370	0.377870
H391	H39	0.918630	0.441970	0.943670
Zn41	Zn4	0.145570	0.771290	0.521700
N101	N10	0.105010	0.740790	0.424590
N111	N11	0.206320	0.805120	0.446590
N121	N12	0.228650	0.811200	0.330250
O131	O13	0.506870	0.982190	0.241230
O141	O14	0.472120	0.924280	0.149930
O151	O15	0.367820	0.948770	0.747610
O161	O16	0.409300	0.905650	0.729990
C671	C67	0.054150	0.706350	0.417700
H401	H40	0.033400	0.694300	0.460900
C681	C68	0.030560	0.687760	0.350400
H411	H41	0.994300	0.663400	0.347500
C691	C69	0.060350	0.704950	0.287800
H421	H42	0.044800	0.692500	0.240900
C701	C70	0.113240	0.740540	0.293300
H431	H43	0.134600	0.753200	0.250700
C711	C71	0.133910	0.757070	0.362900
C721	C72	0.189090	0.791740	0.378520
C731	C73	0.259440	0.834810	0.442600
C741	C74	0.274510	0.839050	0.369480
C751	C75	0.324820	0.865030	0.331100
C761	C76	0.330140	0.846250	0.262500
H441	H44	0.301200	0.816500	0.241600
C771	C77	0.376610	0.870450	0.225300
H451	H45	0.379200	0.857300	0.178700
C781	C78	0.420010	0.913830	0.254380
C791	C79	0.415220	0.932330	0.323300
H461	H46	0.444700	0.961400	0.344800
C801	C80	0.368350	0.908950	0.360300
H471	H47	0.365500	0.922800	0.406100
C811	C81	0.469720	0.941150	0.211510
C821	C82	0.290230	0.854920	0.510730
C831	C83	0.271100	0.873640	0.565600
H481	H48	0.239200	0.873400	0.558400
C841	C84	0.298480	0.892680	0.630800
H491	H49	0.285100	0.905300	0.668000
C851	C85	0.344700	0.893430	0.642200
C861	C86	0.363700	0.873500	0.588500
H501	H50	0.395100	0.872900	0.596900
C871	C87	0.336770	0.854570	0.522800
H511	H51	0.349900	0.841300	0.486100
C881	C88	0.375300	0.917220	0.711200
H521	H52	0.224700	0.810000	0.277000
Zn51	Zn5	0.812240	0.104620	0.855030
N131	N13	0.771680	0.074120	0.757920
N141	N14	0.872990	0.138450	0.779920
N151	N15	0.895320	0.144530	0.663580
O171	O17	0.173540	0.315520	0.574560
O181	O18	0.138790	0.257610	0.483260
O191	O19	0.034490	0.282100	0.080940
O201	O20	0.075970	0.238980	0.063320
C891	C89	0.720820	0.039680	0.751030
H531	H53	0.700070	0.027630	0.794230
C901	C90	0.697230	0.021090	0.683730
H541	H54	0.660970	0.996730	0.680830
C911	C91	0.727020	0.038280	0.621130
H551	H55	0.711470	0.025830	0.574230
C921	C92	0.779910	0.073870	0.626630
H561	H56	0.801270	0.086530	0.584030
C931	C93	0.800580	0.090400	0.696230
C941	C94	0.855760	0.125070	0.711850
C951	C95	0.926110	0.168140	0.775930
C961	C96	0.941180	0.172380	0.702810
C971	C97	0.991490	0.198360	0.664430
C981	C98	0.996810	0.179580	0.595830
H571	H57	0.967870	0.149830	0.574930
C991	C99	0.043280	0.203780	0.558630
H581	H58	0.045870	0.190630	0.512030
C1001	C100	0.086680	0.247160	0.587710
C1011	C101	0.081890	0.265660	0.656630
H591	H59	0.111370	0.294730	0.678130
C1021	C102	0.035020	0.242280	0.693630
H601	H60	0.032170	0.256130	0.739430
C1031	C103	0.136390	0.274480	0.544840
C1041	C104	0.956900	0.188250	0.844060
C1051	C105	0.937770	0.206970	0.898930
H611	H61	0.905870	0.206730	0.891730
C1061	C106	0.965150	0.226010	0.964130
H621	H62	0.951770	0.238630	0.001330
C1071	C107	0.011370	0.226760	0.975530
C1081	C108	0.030370	0.206830	0.921830
H631	H63	0.061770	0.206230	0.930230
C1091	C109	0.003440	0.187900	0.856130
H641	H64	0.016570	0.174630	0.819430
C1101	C110	0.041970	0.250550	0.044530
H651	H65	0.891370	0.143330	0.610330
Zn61	Zn6	0.478900	0.437960	0.188370
N161	N16	0.438340	0.407460	0.091260
N171	N17	0.539650	0.471790	0.113260
N181	N18	0.561980	0.477870	0.996920
O211	O21	0.840200	0.648860	0.907900
O221	O22	0.805450	0.590950	0.816600
O231	O23	0.701150	0.615440	0.414280
O241	O24	0.742630	0.572320	0.396660
C1111	C111	0.387480	0.373020	0.084370
H661	H66	0.366730	0.360970	0.127570
C1121	C112	0.363890	0.354430	0.017070
H671	H67	0.327630	0.330070	0.014170
C1131	C113	0.393680	0.371620	0.954470
H681	H68	0.378130	0.359170	0.907570
C1141	C114	0.446570	0.407210	0.959970
H691	H69	0.467930	0.419870	0.917370
C1151	C115	0.467240	0.423740	0.029570
C1161	C116	0.522420	0.458410	0.045190
C1171	C117	0.592770	0.501480	0.109270
C1181	C118	0.607840	0.505720	0.036150
C1191	C119	0.658150	0.531700	0.997770
C1201	C120	0.663470	0.512920	0.929170
H701	H70	0.634530	0.483170	0.908270
C1211	C121	0.709940	0.537120	0.891970
H711	H71	0.712530	0.523970	0.845370
C1221	C122	0.753340	0.580500	0.921050
C1231	C123	0.748550	0.599000	0.989970
H721	H72	0.778030	0.628070	0.011470
C1241	C124	0.701680	0.575620	0.026970
H731	H73	0.698830	0.589470	0.072770
C1251	C125	0.803050	0.607820	0.878180
C1261	C126	0.623560	0.521590	0.177400
C1271	C127	0.604430	0.540310	0.232270
H741	H74	0.572530	0.540070	0.225070
C1281	C128	0.631810	0.559350	0.297470
H751	H75	0.618430	0.571970	0.334670
C1291	C129	0.678030	0.560100	0.308870
C1301	C130	0.697030	0.540170	0.255170
H761	H76	0.728430	0.539570	0.263570
C1311	C131	0.670100	0.521240	0.189470
H771	H77	0.683230	0.507970	0.152770
C1321	C132	0.708630	0.583890	0.377870
H781	H78	0.558030	0.476670	0.943670
Zn71	Zn7	0.228710	0.374280	0.521700
N191	N19	0.259210	0.364220	0.424590
N201	N20	0.194880	0.401200	0.446590
N211	N21	0.188800	0.417450	0.330250
O251	O25	0.017810	0.524680	0.241230
O261	O26	0.075720	0.547840	0.149930
O271	O27	0.051230	0.419050	0.747610
O281	O28	0.094350	0.503650	0.729990
C1331	C133	0.293650	0.347800	0.417700
H791	H79	0.305700	0.339100	0.460900
C1341	C134	0.312240	0.342800	0.350400
H801	H80	0.336600	0.330900	0.347500
C1351	C135	0.295050	0.355400	0.287800
H811	H81	0.307500	0.352300	0.240900
C1361	C136	0.259460	0.372700	0.293300
H821	H82	0.246800	0.381400	0.250700
C1371	C137	0.242930	0.376840	0.362900
C1381	C138	0.208260	0.397350	0.378520
C1391	C139	0.165190	0.424630	0.442600
C1401	C140	0.160950	0.435460	0.369480
C1411	C141	0.134970	0.459790	0.331100
C1421	C142	0.153750	0.483890	0.262500
H831	H83	0.183500	0.484700	0.241600
C1431	C143	0.129550	0.506160	0.225300
H841	H84	0.142700	0.521900	0.178700
C1441	C144	0.086170	0.506180	0.254380
C1451	C145	0.067670	0.482890	0.323300
H851	H85	0.038600	0.483300	0.344800
C1461	C146	0.091050	0.459400	0.360300
H861	H86	0.077200	0.442700	0.406100
C1471	C147	0.058850	0.528570	0.211510
C1481	C148	0.145080	0.435310	0.510730
C1491	C149	0.126360	0.397460	0.565600
H871	H87	0.126600	0.365800	0.558400
C1501	C150	0.107320	0.405800	0.630800
H881	H88	0.094700	0.379800	0.668000
C1511	C151	0.106570	0.451270	0.642200
C1521	C152	0.126500	0.490200	0.588500
H891	H89	0.127100	0.522200	0.596900
C1531	C153	0.145430	0.482200	0.522800
H901	H90	0.158700	0.508600	0.486100
C1541	C154	0.082780	0.458080	0.711200
H911	H91	0.190000	0.414700	0.277000
Zn81	Zn8	0.895380	0.707610	0.855030
N221	N22	0.925880	0.697550	0.757920
N231	N23	0.861550	0.734530	0.779920
N241	N24	0.855470	0.750780	0.663580
O291	O29	0.684480	0.858010	0.574560
O301	O30	0.742390	0.881170	0.483260
O311	O31	0.717900	0.752380	0.080940
O321	O32	0.761020	0.836980	0.063320
C1551	C155	0.960320	0.681130	0.751030
H921	H92	0.972370	0.672430	0.794230
C1561	C156	0.978910	0.676130	0.683730
H931	H93	0.003270	0.664230	0.680830
C1571	C157	0.961720	0.688730	0.621130
H941	H94	0.974170	0.685630	0.574230
C1581	C158	0.926130	0.706030	0.626630
H951	H95	0.913470	0.714730	0.584030
C1591	C159	0.909600	0.710170	0.696230
C1601	C160	0.874930	0.730680	0.711850
C1611	C161	0.831860	0.757960	0.775930
C1621	C162	0.827620	0.768790	0.702810
C1631	C163	0.801640	0.793120	0.664430
C1641	C164	0.820420	0.817220	0.595830
H961	H96	0.850170	0.818030	0.574930
C1651	C165	0.796220	0.839490	0.558630
H971	H97	0.809370	0.855230	0.512030
C1661	C166	0.752840	0.839510	0.587710
C1671	C167	0.734340	0.816220	0.656630
H981	H98	0.705270	0.816630	0.678130
C1681	C168	0.757720	0.792730	0.693630
H991	H99	0.743870	0.776030	0.739430
C1691	C169	0.725520	0.861900	0.544840
C1701	C170	0.811750	0.768640	0.844060
C1711	C171	0.793030	0.730790	0.898930
H1001	H100	0.793270	0.699130	0.891730
C1721	C172	0.773990	0.739130	0.964130
H1011	H101	0.761370	0.713130	0.001330
C1731	C173	0.773240	0.784600	0.975530
C1741	C174	0.793170	0.823530	0.921830
H1021	H102	0.793770	0.855530	0.930230
C1751	C175	0.812100	0.815530	0.856130
H1031	H103	0.825370	0.841930	0.819430
C1761	C176	0.749450	0.791410	0.044530
H1041	H104	0.856670	0.748030	0.610330
Zn91	Zn9	0.562040	0.040950	0.188370
N251	N25	0.592540	0.030890	0.091260
N261	N26	0.528210	0.067870	0.113260
N271	N27	0.522130	0.084120	0.996920
O331	O33	0.351140	0.191350	0.907900
O341	O34	0.409050	0.214510	0.816600
O351	O35	0.384560	0.085720	0.414280
O361	O36	0.427680	0.170320	0.396660
C1771	C177	0.626980	0.014470	0.084370
H1051	H105	0.639030	0.005770	0.127570
C1781	C178	0.645570	0.009470	0.017070
H1061	H106	0.669930	0.997570	0.014170
C1791	C179	0.628380	0.022070	0.954470
H1071	H107	0.640830	0.018970	0.907570
C1801	C180	0.592790	0.039370	0.959970
H1081	H108	0.580130	0.048070	0.917370
C1811	C181	0.576260	0.043510	0.029570
C1821	C182	0.541590	0.064020	0.045190
C1831	C183	0.498520	0.091300	0.109270
C1841	C184	0.494280	0.102130	0.036150
C1851	C185	0.468300	0.126460	0.997770
C1861	C186	0.487080	0.150560	0.929170
H1091	H109	0.516830	0.151370	0.908270
C1871	C187	0.462880	0.172830	0.891970
H1101	H110	0.476030	0.188570	0.845370
C1881	C188	0.419500	0.172850	0.921050
C1891	C189	0.401000	0.149560	0.989970
H1111	H111	0.371930	0.149970	0.011470
C1901	C190	0.424380	0.126070	0.026970
H1121	H112	0.410530	0.109370	0.072770
C1911	C191	0.392180	0.195240	0.878180
C1921	C192	0.478410	0.101980	0.177400
C1931	C193	0.459690	0.064130	0.232270
H1131	H113	0.459930	0.032470	0.225070
C1941	C194	0.440650	0.072470	0.297470
H1141	H114	0.428030	0.046470	0.334670
C1951	C195	0.439900	0.117940	0.308870
C1961	C196	0.459830	0.156870	0.255170
H1151	H115	0.460430	0.188870	0.263570
C1971	C197	0.478760	0.148870	0.189470
H1161	H116	0.492030	0.175270	0.152770
C1981	C198	0.416110	0.124750	0.377870
H1171	H117	0.523330	0.081370	0.943670
Zn101	Zn10	0.374280	0.145570	0.478300
N281	N28	0.364220	0.105010	0.575410
N291	N29	0.401200	0.206320	0.553410
N301	N30	0.417450	0.228650	0.669750
O371	O37	0.524680	0.506870	0.758770
O381	O38	0.547840	0.472120	0.850070
O391	O39	0.419050	0.367820	0.252390
O401	O40	0.503650	0.409300	0.270010
C1991	C199	0.347800	0.054150	0.582300
H1181	H118	0.339100	0.033400	0.539100
C2001	C200	0.342800	0.030560	0.649600
H1191	H119	0.330900	0.994300	0.652500
C2011	C201	0.355400	0.060350	0.712200
H1201	H120	0.352300	0.044800	0.759100
C2021	C202	0.372700	0.113240	0.706700
H1211	H121	0.381400	0.134600	0.749300
C2031	C203	0.376840	0.133910	0.637100
C2041	C204	0.397350	0.189090	0.621480
C2051	C205	0.424630	0.259440	0.557400
C2061	C206	0.435460	0.274510	0.630520
C2071	C207	0.459790	0.324820	0.668900
C2081	C208	0.483890	0.330140	0.737500
H1221	H122	0.484700	0.301200	0.758400
C2091	C209	0.506160	0.376610	0.774700
H1231	H123	0.521900	0.379200	0.821300
C2101	C210	0.506180	0.420010	0.745620
C2111	C211	0.482890	0.415220	0.676700
H1241	H124	0.483300	0.444700	0.655200
C2121	C212	0.459400	0.368350	0.639700
H1251	H125	0.442700	0.365500	0.593900
C2131	C213	0.528570	0.469720	0.788490
C2141	C214	0.435310	0.290230	0.489270
C2151	C215	0.397460	0.271100	0.434400
H1261	H126	0.365800	0.239200	0.441600
C2161	C216	0.405800	0.298480	0.369200
H1271	H127	0.379800	0.285100	0.332000
C2171	C217	0.451270	0.344700	0.357800
C2181	C218	0.490200	0.363700	0.411500
H1281	H128	0.522200	0.395100	0.403100
C2191	C219	0.482200	0.336770	0.477200
H1291	H129	0.508600	0.349900	0.513900
C2201	C220	0.458080	0.375300	0.288800
H1301	H130	0.414700	0.224700	0.723000
Zn111	Zn11	0.040950	0.478900	0.811630
N311	N31	0.030890	0.438340	0.908740
N321	N32	0.067870	0.539650	0.886740
N331	N33	0.084120	0.561980	0.003080
O411	O41	0.191350	0.840200	0.092100
O421	O42	0.214510	0.805450	0.183400
O431	O43	0.085720	0.701150	0.585720
O441	O44	0.170320	0.742630	0.603340
C2211	C221	0.014470	0.387480	0.915630
H1311	H131	0.005770	0.366730	0.872430
C2221	C222	0.009470	0.363890	0.982930
H1321	H132	0.997570	0.327630	0.985830
C2231	C223	0.022070	0.393680	0.045530
H1331	H133	0.018970	0.378130	0.092430
C2241	C224	0.039370	0.446570	0.040030
H1341	H134	0.048070	0.467930	0.082630
C2251	C225	0.043510	0.467240	0.970430
C2261	C226	0.064020	0.522420	0.954810
C2271	C227	0.091300	0.592770	0.890730
C2281	C228	0.102130	0.607840	0.963850
C2291	C229	0.126460	0.658150	0.002230
C2301	C230	0.150560	0.663470	0.070830
H1351	H135	0.151370	0.634530	0.091730
C2311	C231	0.172830	0.709940	0.108030
H1361	H136	0.188570	0.712530	0.154630
C2321	C232	0.172850	0.753340	0.078950
C2331	C233	0.149560	0.748550	0.010030
H1371	H137	0.149970	0.778030	0.988530
C2341	C234	0.126070	0.701680	0.973030
H1381	H138	0.109370	0.698830	0.927230
C2351	C235	0.195240	0.803050	0.121820
C2361	C236	0.101980	0.623560	0.822600
C2371	C237	0.064130	0.604430	0.767730
H1391	H139	0.032470	0.572530	0.774930
C2381	C238	0.072470	0.631810	0.702530
H1401	H140	0.046470	0.618430	0.665330
C2391	C239	0.117940	0.678030	0.691130
C2401	C240	0.156870	0.697030	0.744830
H1411	H141	0.188870	0.728430	0.736430
C2411	C241	0.148870	0.670100	0.810530
H1421	H142	0.175270	0.683230	0.847230
C2421	C242	0.124750	0.708630	0.622130
H1431	H143	0.081370	0.558030	0.056330
Zn121	Zn12	0.707610	0.812240	0.144970
N341	N34	0.697550	0.771680	0.242080
N351	N35	0.734530	0.872990	0.220080
N361	N36	0.750780	0.895320	0.336420
O451	O45	0.858010	0.173540	0.425440
O461	O46	0.881170	0.138790	0.516740
O471	O47	0.752380	0.034490	0.919060
O481	O48	0.836980	0.075970	0.936680
C2431	C243	0.681130	0.720820	0.248970
H1441	H144	0.672430	0.700070	0.205770
C2441	C244	0.676130	0.697230	0.316270
H1451	H145	0.664230	0.660970	0.319170
C2451	C245	0.688730	0.727020	0.378870
H1461	H146	0.685630	0.711470	0.425770
C2461	C246	0.706030	0.779910	0.373370
H1471	H147	0.714730	0.801270	0.415970
C2471	C247	0.710170	0.800580	0.303770
C2481	C248	0.730680	0.855760	0.288150
C2491	C249	0.757960	0.926110	0.224070
C2501	C250	0.768790	0.941180	0.297190
C2511	C251	0.793120	0.991490	0.335570
C2521	C252	0.817220	0.996810	0.404170
H1481	H148	0.818030	0.967870	0.425070
C2531	C253	0.839490	0.043280	0.441370
H1491	H149	0.855230	0.045870	0.487970
C2541	C254	0.839510	0.086680	0.412290
C2551	C255	0.816220	0.081890	0.343370
H1501	H150	0.816630	0.111370	0.321870
C2561	C256	0.792730	0.035020	0.306370
H1511	H151	0.776030	0.032170	0.260570
C2571	C257	0.861900	0.136390	0.455160
C2581	C258	0.768640	0.956900	0.155940
C2591	C259	0.730790	0.937770	0.101070
H1521	H152	0.699130	0.905870	0.108270
C2601	C260	0.739130	0.965150	0.035870
H1531	H153	0.713130	0.951770	0.998670
C2611	C261	0.784600	0.011370	0.024470
C2621	C262	0.823530	0.030370	0.078170
H1541	H154	0.855530	0.061770	0.069770
C2631	C263	0.815530	0.003440	0.143870
H1551	H155	0.841930	0.016570	0.180570
C2641	C264	0.791410	0.041970	0.955470
H1561	H156	0.748030	0.891370	0.389670
Zn131	Zn13	0.854430	0.228710	0.478300
N371	N37	0.894990	0.259210	0.575410
N381	N38	0.793680	0.194880	0.553410
N391	N39	0.771350	0.188800	0.669750
O491	O49	0.493130	0.017810	0.758770
O501	O50	0.527880	0.075720	0.850070
O511	O51	0.632180	0.051230	0.252390
O521	O52	0.590700	0.094350	0.270010
C2651	C265	0.945850	0.293650	0.582300
H1571	H157	0.966600	0.305700	0.539100
C2661	C266	0.969440	0.312240	0.649600
H1581	H158	0.005700	0.336600	0.652500
C2671	C267	0.939650	0.295050	0.712200
H1591	H159	0.955200	0.307500	0.759100
C2681	C268	0.886760	0.259460	0.706700
H1601	H160	0.865400	0.246800	0.749300
C2691	C269	0.866090	0.242930	0.637100
C2701	C270	0.810910	0.208260	0.621480
C2711	C271	0.740560	0.165190	0.557400
C2721	C272	0.725490	0.160950	0.630520
C2731	C273	0.675180	0.134970	0.668900
C2741	C274	0.669860	0.153750	0.737500
H1611	H161	0.698800	0.183500	0.758400
C2751	C275	0.623390	0.129550	0.774700
H1621	H162	0.620800	0.142700	0.821300
C2761	C276	0.579990	0.086170	0.745620
C2771	C277	0.584780	0.067670	0.676700
H1631	H163	0.555300	0.038600	0.655200
C2781	C278	0.631650	0.091050	0.639700
H1641	H164	0.634500	0.077200	0.593900
C2791	C279	0.530280	0.058850	0.788490
C2801	C280	0.709770	0.145080	0.489270
C2811	C281	0.728900	0.126360	0.434400
H1651	H165	0.760800	0.126600	0.441600
C2821	C282	0.701520	0.107320	0.369200
H1661	H166	0.714900	0.094700	0.332000
C2831	C283	0.655300	0.106570	0.357800
C2841	C284	0.636300	0.126500	0.411500
H1671	H167	0.604900	0.127100	0.403100
C2851	C285	0.663230	0.145430	0.477200
H1681	H168	0.650100	0.158700	0.513900
C2861	C286	0.624700	0.082780	0.288800
H1691	H169	0.775300	0.190000	0.723000
Zn141	Zn14	0.521100	0.562040	0.811630
N401	N40	0.561660	0.592540	0.908740
N411	N41	0.460350	0.528210	0.886740
N421	N42	0.438020	0.522130	0.003080
O531	O53	0.159800	0.351140	0.092100
O541	O54	0.194550	0.409050	0.183400
O551	O55	0.298850	0.384560	0.585720
O561	O56	0.257370	0.427680	0.603340
C2871	C287	0.612520	0.626980	0.915630
H1701	H170	0.633270	0.639030	0.872430
C2881	C288	0.636110	0.645570	0.982930
H1711	H171	0.672370	0.669930	0.985830
C2891	C289	0.606320	0.628380	0.045530
H1721	H172	0.621870	0.640830	0.092430
C2901	C290	0.553430	0.592790	0.040030
H1731	H173	0.532070	0.580130	0.082630
C2911	C291	0.532760	0.576260	0.970430
C2921	C292	0.477580	0.541590	0.954810
C2931	C293	0.407230	0.498520	0.890730
C2941	C294	0.392160	0.494280	0.963850
C2951	C295	0.341850	0.468300	0.002230
C2961	C296	0.336530	0.487080	0.070830
H1741	H174	0.365470	0.516830	0.091730
C2971	C297	0.290060	0.462880	0.108030
H1751	H175	0.287470	0.476030	0.154630
C2981	C298	0.246660	0.419500	0.078950
C2991	C299	0.251450	0.401000	0.010030
H1761	H176	0.221970	0.371930	0.988530
C3001	C300	0.298320	0.424380	0.973030
H1771	H177	0.301170	0.410530	0.927230
C3011	C301	0.196950	0.392180	0.121820
C3021	C302	0.376440	0.478410	0.822600
C3031	C303	0.395570	0.459690	0.767730
H1781	H178	0.427470	0.459930	0.774930
C3041	C304	0.368190	0.440650	0.702530
H1791	H179	0.381570	0.428030	0.665330
C3051	C305	0.321970	0.439900	0.691130
C3061	C306	0.302970	0.459830	0.744830
H1801	H180	0.271570	0.460430	0.736430
C3071	C307	0.329900	0.478760	0.810530
H1811	H181	0.316770	0.492030	0.847230
C3081	C308	0.291370	0.416110	0.622130
H1821	H182	0.441970	0.523330	0.056330
Zn151	Zn15	0.187760	0.895380	0.144970
N431	N43	0.228320	0.925880	0.242080
N441	N44	0.127010	0.861550	0.220080
N451	N45	0.104680	0.855470	0.336420
O571	O57	0.826460	0.684480	0.425440
O581	O58	0.861210	0.742390	0.516740
O591	O59	0.965510	0.717900	0.919060
O601	O60	0.924030	0.761020	0.936680
C3091	C309	0.279180	0.960320	0.248970
H1831	H183	0.299930	0.972370	0.205770
C3101	C310	0.302770	0.978910	0.316270
H1841	H184	0.339030	0.003270	0.319170
C3111	C311	0.272980	0.961720	0.378870
H1851	H185	0.288530	0.974170	0.425770
C3121	C312	0.220090	0.926130	0.373370
H1861	H186	0.198730	0.913470	0.415970
C3131	C313	0.199420	0.909600	0.303770
C3141	C314	0.144240	0.874930	0.288150
C3151	C315	0.073890	0.831860	0.224070
C3161	C316	0.058820	0.827620	0.297190
C3171	C317	0.008510	0.801640	0.335570
C3181	C318	0.003190	0.820420	0.404170
H1871	H187	0.032130	0.850170	0.425070
C3191	C319	0.956720	0.796220	0.441370
H1881	H188	0.954130	0.809370	0.487970
C3201	C320	0.913320	0.752840	0.412290
C3211	C321	0.918110	0.734340	0.343370
H1891	H189	0.888630	0.705270	0.321870
C3221	C322	0.964980	0.757720	0.306370
H1901	H190	0.967830	0.743870	0.260570
C3231	C323	0.863610	0.725520	0.455160
C3241	C324	0.043100	0.811750	0.155940
C3251	C325	0.062230	0.793030	0.101070
H1911	H191	0.094130	0.793270	0.108270
C3261	C326	0.034850	0.773990	0.035870
H1921	H192	0.048230	0.761370	0.998670
C3271	C327	0.988630	0.773240	0.024470
C3281	C328	0.969630	0.793170	0.078170
H1931	H193	0.938230	0.793770	0.069770
C3291	C329	0.996560	0.812100	0.143870
H1941	H194	0.983430	0.825370	0.180570
C3301	C330	0.958030	0.749450	0.955470
H1951	H195	0.108630	0.856670	0.389670
Zn161	Zn16	0.771290	0.625720	0.478300
N461	N46	0.740790	0.635780	0.575410
N471	N47	0.805120	0.598800	0.553410
N481	N48	0.811200	0.582550	0.669750
O611	O61	0.982190	0.475320	0.758770
O621	O62	0.924280	0.452160	0.850070
O631	O63	0.948770	0.580950	0.252390
O641	O64	0.905650	0.496350	0.270010
C3311	C331	0.706350	0.652200	0.582300
H1961	H196	0.694300	0.660900	0.539100
C3321	C332	0.687760	0.657200	0.649600
H1971	H197	0.663400	0.669100	0.652500
C3331	C333	0.704950	0.644600	0.712200
H1981	H198	0.692500	0.647700	0.759100
C3341	C334	0.740540	0.627300	0.706700
H1991	H199	0.753200	0.618600	0.749300
C3351	C335	0.757070	0.623160	0.637100
C3361	C336	0.791740	0.602650	0.621480
C3371	C337	0.834810	0.575370	0.557400
C3381	C338	0.839050	0.564540	0.630520
C3391	C339	0.865030	0.540210	0.668900
C3401	C340	0.846250	0.516110	0.737500
H2001	H200	0.816500	0.515300	0.758400
C3411	C341	0.870450	0.493840	0.774700
H2011	H201	0.857300	0.478100	0.821300
C3421	C342	0.913830	0.493820	0.745620
C3431	C343	0.932330	0.517110	0.676700
H2021	H202	0.961400	0.516700	0.655200
C3441	C344	0.908950	0.540600	0.639700
H2031	H203	0.922800	0.557300	0.593900
C3451	C345	0.941150	0.471430	0.788490
C3461	C346	0.854920	0.564690	0.489270
C3471	C347	0.873640	0.602540	0.434400
H2041	H204	0.873400	0.634200	0.441600
C3481	C348	0.892680	0.594200	0.369200
H2051	H205	0.905300	0.620200	0.332000
C3491	C349	0.893430	0.548730	0.357800
C3501	C350	0.873500	0.509800	0.411500
H2061	H206	0.872900	0.477800	0.403100
C3511	C351	0.854570	0.517800	0.477200
H2071	H207	0.841300	0.491400	0.513900
C3521	C352	0.917220	0.541920	0.288800
H2081	H208	0.810000	0.585300	0.723000
Zn171	Zn17	0.437960	0.959050	0.811630
N491	N49	0.407460	0.969110	0.908740
N501	N50	0.471790	0.932130	0.886740
N511	N51	0.477870	0.915880	0.003080
O651	O65	0.648860	0.808650	0.092100
O661	O66	0.590950	0.785490	0.183400
O671	O67	0.615440	0.914280	0.585720
O681	O68	0.572320	0.829680	0.603340
C3531	C353	0.373020	0.985530	0.915630
H2091	H209	0.360970	0.994230	0.872430
C3541	C354	0.354430	0.990530	0.982930
H2101	H210	0.330070	0.002430	0.985830
C3551	C355	0.371620	0.977930	0.045530
H2111	H211	0.359170	0.981030	0.092430
C3561	C356	0.407210	0.960630	0.040030
H2121	H212	0.419870	0.951930	0.082630
C3571	C357	0.423740	0.956490	0.970430
C3581	C358	0.458410	0.935980	0.954810
C3591	C359	0.501480	0.908700	0.890730
C3601	C360	0.505720	0.897870	0.963850
C3611	C361	0.531700	0.873540	0.002230
C3621	C362	0.512920	0.849440	0.070830
H2131	H213	0.483170	0.848630	0.091730
C3631	C363	0.537120	0.827170	0.108030
H2141	H214	0.523970	0.811430	0.154630
C3641	C364	0.580500	0.827150	0.078950
C3651	C365	0.599000	0.850440	0.010030
H2151	H215	0.628070	0.850030	0.988530
C3661	C366	0.575620	0.873930	0.973030
H2161	H216	0.589470	0.890630	0.927230
C3671	C367	0.607820	0.804760	0.121820
C3681	C368	0.521590	0.898020	0.822600
C3691	C369	0.540310	0.935870	0.767730
H2171	H217	0.540070	0.967530	0.774930
C3701	C370	0.559350	0.927530	0.702530
H2181	H218	0.571970	0.953530	0.665330
C3711	C371	0.560100	0.882060	0.691130
C3721	C372	0.540170	0.843130	0.744830
H2191	H219	0.539570	0.811130	0.736430
C3731	C373	0.521240	0.851130	0.810530
H2201	H220	0.507970	0.824730	0.847230
C3741	C374	0.583890	0.875250	0.622130
H2211	H221	0.476670	0.918630	0.056330
Zn181	Zn18	0.104620	0.292390	0.144970
N521	N52	0.074120	0.302450	0.242080
N531	N53	0.138450	0.265470	0.220080
N541	N54	0.144530	0.249220	0.336420
O691	O69	0.315520	0.141990	0.425440
O701	O70	0.257610	0.118830	0.516740
O711	O71	0.282100	0.247620	0.919060
O721	O72	0.238980	0.163020	0.936680
C3751	C375	0.039680	0.318870	0.248970
H2221	H222	0.027630	0.327570	0.205770
C3761	C376	0.021090	0.323870	0.316270
H2231	H223	0.996730	0.335770	0.319170
C3771	C377	0.038280	0.311270	0.378870
H2241	H224	0.025830	0.314370	0.425770
C3781	C378	0.073870	0.293970	0.373370
H2251	H225	0.086530	0.285270	0.415970
C3791	C379	0.090400	0.289830	0.303770
C3801	C380	0.125070	0.269320	0.288150
C3811	C381	0.168140	0.242040	0.224070
C3821	C382	0.172380	0.231210	0.297190
C3831	C383	0.198360	0.206880	0.335570
C3841	C384	0.179580	0.182780	0.404170
H2261	H226	0.149830	0.181970	0.425070
C3851	C385	0.203780	0.160510	0.441370
H2271	H227	0.190630	0.144770	0.487970
C3861	C386	0.247160	0.160490	0.412290
C3871	C387	0.265660	0.183780	0.343370
H2281	H228	0.294730	0.183370	0.321870
C3881	C388	0.242280	0.207270	0.306370
H2291	H229	0.256130	0.223970	0.260570
C3891	C389	0.274480	0.138100	0.455160
C3901	C390	0.188250	0.231360	0.155940
C3911	C391	0.206970	0.269210	0.101070
H2301	H230	0.206730	0.300870	0.108270
C3921	C392	0.226010	0.260870	0.035870
H2311	H231	0.238630	0.286870	0.998670
C3931	C393	0.226760	0.215400	0.024470
C3941	C394	0.206830	0.176470	0.078170
H2321	H232	0.206230	0.144470	0.069770
C3951	C395	0.187900	0.184470	0.143870
H2331	H233	0.174630	0.158070	0.180570
C3961	C396	0.250550	0.208590	0.955470
H2341	H234	0.143330	0.251970	0.389670
