data_OCIVIH_freeONLY_PM
_symmetry_space_group_name_H-M	'P1'
_cell_length_a	15.199000
_cell_length_b	15.493000
_cell_length_c	15.493000
_cell_angle_alpha	120.000000
_cell_angle_beta	90.000000
_cell_angle_gamma	90.000000
_symmetry_Int_Tables_number 1

loop_
_symmetry_equiv_pos_as_xyz
'x,y,z'

loop_
_atom_site_label
_atom_site_type_symbol
_atom_site_fract_x
_atom_site_fract_y
_atom_site_fract_z
Pr11	Pr1	0.997490	0.333330	0.666660
Pr21	Pr2	0.997490	0.666670	0.333340
Pr31	Pr3	0.497490	0.333330	0.666660
Pr41	Pr4	0.497490	0.666670	0.333340
Co11	Co1	0.747200	0.500000	0.000000
Co21	Co2	0.747200	0.500000	0.500000
Co31	Co3	0.747200	0.000000	0.500000
Co41	Co4	0.247200	0.500000	0.000000
Co51	Co5	0.247200	0.000000	0.500000
Co61	Co6	0.247200	0.500000	0.500000
H11	H1	0.087700	0.712500	0.764200
H21	H2	0.009500	0.798400	0.898500
H31	H3	0.901100	0.711900	0.947100
H41	H4	0.688000	0.369000	0.834000
H51	H5	0.772000	0.353000	0.841000
H61	H6	0.087700	0.051700	0.287500
H71	H7	0.009500	0.100100	0.201600
H81	H8	0.901100	0.235200	0.288100
H91	H9	0.688000	0.465000	0.631000
H101	H10	0.772000	0.488000	0.647000
H111	H11	0.087700	0.235800	0.948300
H121	H12	0.009500	0.101500	0.899900
H131	H13	0.901100	0.052900	0.764800
H141	H14	0.688000	0.166000	0.535000
H151	H15	0.772000	0.159000	0.512000
H161	H16	0.087700	0.287500	0.235800
H171	H17	0.009500	0.201600	0.101500
H181	H18	0.901100	0.288100	0.052900
H191	H19	0.688000	0.631000	0.166000
H201	H20	0.772000	0.647000	0.159000
H211	H21	0.087700	0.948300	0.712500
H221	H22	0.009500	0.899900	0.798400
H231	H23	0.901100	0.764800	0.711900
H241	H24	0.688000	0.535000	0.369000
H251	H25	0.772000	0.512000	0.353000
H261	H26	0.087700	0.764200	0.051700
H271	H27	0.009500	0.898500	0.100100
H281	H28	0.901100	0.947100	0.235200
H291	H29	0.688000	0.834000	0.465000
H301	H30	0.772000	0.841000	0.488000
H311	H31	0.587700	0.051700	0.764200
H321	H32	0.509500	0.100100	0.898500
H331	H33	0.401100	0.235200	0.947100
H341	H34	0.188000	0.465000	0.834000
H351	H35	0.272000	0.488000	0.841000
H361	H36	0.587700	0.235800	0.287500
H371	H37	0.509500	0.101500	0.201600
H381	H38	0.401100	0.052900	0.288100
H391	H39	0.188000	0.166000	0.631000
H401	H40	0.272000	0.159000	0.647000
H411	H41	0.587700	0.712500	0.948300
H421	H42	0.509500	0.798400	0.899900
H431	H43	0.401100	0.711900	0.764800
H441	H44	0.188000	0.369000	0.535000
H451	H45	0.272000	0.353000	0.512000
H461	H46	0.587700	0.948300	0.235800
H471	H47	0.509500	0.899900	0.101500
H481	H48	0.401100	0.764800	0.052900
H491	H49	0.188000	0.535000	0.166000
H501	H50	0.272000	0.512000	0.159000
H511	H51	0.587700	0.764200	0.712500
H521	H52	0.509500	0.898500	0.798400
H531	H53	0.401100	0.947100	0.711900
H541	H54	0.188000	0.834000	0.369000
H551	H55	0.272000	0.841000	0.353000
H561	H56	0.587700	0.287500	0.051700
H571	H57	0.509500	0.201600	0.100100
H581	H58	0.401100	0.288100	0.235200
H591	H59	0.188000	0.631000	0.465000
H601	H60	0.272000	0.647000	0.488000
C11	C1	0.052500	0.576200	0.733100
C21	C2	0.051600	0.678600	0.785800
C31	C3	0.004200	0.729400	0.862600
C41	C4	0.940400	0.678400	0.894700
C51	C5	0.885800	0.513500	0.867300
C61	C6	0.107800	0.510000	0.646200
C71	C7	0.945900	0.575100	0.838000
C81	C8	0.052500	0.156900	0.423800
C91	C9	0.051600	0.107200	0.321400
C101	C10	0.004200	0.133200	0.270600
C111	C11	0.940400	0.216300	0.321600
C121	C12	0.885800	0.353800	0.486500
C131	C13	0.107800	0.136200	0.490000
C141	C14	0.945900	0.262900	0.424900
C151	C15	0.052500	0.266900	0.843100
C161	C16	0.051600	0.214200	0.892800
C171	C17	0.004200	0.137400	0.866800
C181	C18	0.940400	0.105300	0.783700
C191	C19	0.885800	0.132700	0.646200
C201	C20	0.107800	0.353800	0.863800
C211	C21	0.945900	0.162000	0.737100
C221	C22	0.052500	0.423800	0.266900
C231	C23	0.051600	0.321400	0.214200
C241	C24	0.004200	0.270600	0.137400
C251	C25	0.940400	0.321600	0.105300
C261	C26	0.885800	0.486500	0.132700
C271	C27	0.107800	0.490000	0.353800
C281	C28	0.945900	0.424900	0.162000
C291	C29	0.052500	0.843100	0.576200
C301	C30	0.051600	0.892800	0.678600
C311	C31	0.004200	0.866800	0.729400
C321	C32	0.940400	0.783700	0.678400
C331	C33	0.885800	0.646200	0.513500
C341	C34	0.107800	0.863800	0.510000
C351	C35	0.945900	0.737100	0.575100
C361	C36	0.052500	0.733100	0.156900
C371	C37	0.051600	0.785800	0.107200
C381	C38	0.004200	0.862600	0.133200
C391	C39	0.940400	0.894700	0.216300
C401	C40	0.885800	0.867300	0.353800
C411	C41	0.107800	0.646200	0.136200
C421	C42	0.945900	0.838000	0.262900
C431	C43	0.552500	0.156900	0.733100
C441	C44	0.551600	0.107200	0.785800
C451	C45	0.504200	0.133200	0.862600
C461	C46	0.440400	0.216300	0.894700
C471	C47	0.385800	0.353800	0.867300
C481	C48	0.607800	0.136200	0.646200
C491	C49	0.445900	0.262900	0.838000
C501	C50	0.552500	0.266900	0.423800
C511	C51	0.551600	0.214200	0.321400
C521	C52	0.504200	0.137400	0.270600
C531	C53	0.440400	0.105300	0.321600
C541	C54	0.385800	0.132700	0.486500
C551	C55	0.607800	0.353800	0.490000
C561	C56	0.445900	0.162000	0.424900
C571	C57	0.552500	0.576200	0.843100
C581	C58	0.551600	0.678600	0.892800
C591	C59	0.504200	0.729400	0.866800
C601	C60	0.440400	0.678400	0.783700
C611	C61	0.385800	0.513500	0.646200
C621	C62	0.607800	0.510000	0.863800
C631	C63	0.445900	0.575100	0.737100
C641	C64	0.552500	0.843100	0.266900
C651	C65	0.551600	0.892800	0.214200
C661	C66	0.504200	0.866800	0.137400
C671	C67	0.440400	0.783700	0.105300
C681	C68	0.385800	0.646200	0.132700
C691	C69	0.607800	0.863800	0.353800
C701	C70	0.445900	0.737100	0.162000
C711	C71	0.552500	0.733100	0.576200
C721	C72	0.551600	0.785800	0.678600
C731	C73	0.504200	0.862600	0.729400
C741	C74	0.440400	0.894700	0.678400
C751	C75	0.385800	0.867300	0.513500
C761	C76	0.607800	0.646200	0.510000
C771	C77	0.445900	0.838000	0.575100
C781	C78	0.552500	0.423800	0.156900
C791	C79	0.551600	0.321400	0.107200
C801	C80	0.504200	0.270600	0.133200
C811	C81	0.440400	0.321600	0.216300
C821	C82	0.385800	0.486500	0.353800
C831	C83	0.607800	0.490000	0.136200
C841	C84	0.445900	0.424900	0.262900
N11	N1	0.997600	0.525400	0.763800
N21	N2	0.997600	0.238400	0.474600
N31	N3	0.997600	0.236200	0.761600
N41	N4	0.997600	0.474600	0.236200
N51	N5	0.997600	0.761600	0.525400
N61	N6	0.997600	0.763800	0.238400
N71	N7	0.497600	0.238400	0.763800
N81	N8	0.497600	0.236200	0.474600
N91	N9	0.497600	0.525400	0.761600
N101	N10	0.497600	0.761600	0.236200
N111	N11	0.497600	0.763800	0.525400
N121	N12	0.497600	0.474600	0.238400
O11	O1	0.107000	0.416500	0.614000
O21	O2	0.889100	0.421400	0.806400
O31	O3	0.843100	0.556100	0.941100
O41	O4	0.154800	0.553400	0.609200
O51	O5	0.744100	0.356000	0.868000
O61	O6	0.107000	0.197500	0.583500
O71	O7	0.889100	0.385000	0.578600
O81	O8	0.843100	0.385000	0.443900
O91	O9	0.154800	0.055800	0.446600
O101	O10	0.744100	0.512000	0.644000
O111	O11	0.107000	0.386000	0.802500
O121	O12	0.889100	0.193600	0.615000
O131	O13	0.843100	0.058900	0.615000
O141	O14	0.154800	0.390800	0.944200
O151	O15	0.744100	0.132000	0.488000
O161	O16	0.107000	0.583500	0.386000
O171	O17	0.889100	0.578600	0.193600
O181	O18	0.843100	0.443900	0.058900
O191	O19	0.154800	0.446600	0.390800
O201	O20	0.744100	0.644000	0.132000
O211	O21	0.107000	0.802500	0.416500
O221	O22	0.889100	0.615000	0.421400
O231	O23	0.843100	0.615000	0.556100
O241	O24	0.154800	0.944200	0.553400
O251	O25	0.744100	0.488000	0.356000
O261	O26	0.107000	0.614000	0.197500
O271	O27	0.889100	0.806400	0.385000
O281	O28	0.843100	0.941100	0.385000
O291	O29	0.154800	0.609200	0.055800
O301	O30	0.744100	0.868000	0.512000
O311	O31	0.607000	0.197500	0.614000
O321	O32	0.389100	0.385000	0.806400
O331	O33	0.343100	0.385000	0.941100
O341	O34	0.654800	0.055800	0.609200
O351	O35	0.244100	0.512000	0.868000
O361	O36	0.607000	0.386000	0.583500
O371	O37	0.389100	0.193600	0.578600
O381	O38	0.343100	0.058900	0.443900
O391	O39	0.654800	0.390800	0.446600
O401	O40	0.244100	0.132000	0.644000
O411	O41	0.607000	0.416500	0.802500
O421	O42	0.389100	0.421400	0.615000
O431	O43	0.343100	0.556100	0.615000
O441	O44	0.654800	0.553400	0.944200
O451	O45	0.244100	0.356000	0.488000
O461	O46	0.607000	0.802500	0.386000
O471	O47	0.389100	0.615000	0.193600
O481	O48	0.343100	0.615000	0.058900
O491	O49	0.654800	0.944200	0.390800
O501	O50	0.244100	0.488000	0.132000
O511	O51	0.607000	0.614000	0.416500
O521	O52	0.389100	0.806400	0.421400
O531	O53	0.343100	0.941100	0.556100
O541	O54	0.654800	0.609200	0.553400
O551	O55	0.244100	0.868000	0.356000
O561	O56	0.607000	0.583500	0.197500
O571	O57	0.389100	0.578600	0.385000
O581	O58	0.343100	0.443900	0.385000
O591	O59	0.654800	0.446600	0.055800
O601	O60	0.244100	0.644000	0.512000
