data_OCUQOT_freeONLY_PM
_symmetry_space_group_name_H-M	'P1'
_cell_length_a	15.200300
_cell_length_b	10.212200
_cell_length_c	18.590300
_cell_angle_alpha	90.000000
_cell_angle_beta	103.530000
_cell_angle_gamma	90.000000
_symmetry_Int_Tables_number 1

loop_
_symmetry_equiv_pos_as_xyz
'x,y,z'

loop_
_atom_site_label
_atom_site_type_symbol
_atom_site_fract_x
_atom_site_fract_y
_atom_site_fract_z
V11	V1	0.160250	0.384170	0.083940
V21	V2	0.247900	0.453520	0.283940
P11	P1	0.213640	0.378370	0.922210
P21	P2	0.836570	0.331340	0.835720
O11	O1	0.211420	0.425700	0.999870
O21	O2	0.825290	0.427000	0.896130
O31	O3	0.053900	0.364700	0.059040
O41	O4	0.202500	0.356600	0.191550
O51	O5	0.298140	0.299200	0.921590
O61	O6	0.209810	0.501400	0.874200
O71	O7	0.767040	0.221900	0.830320
O81	O8	0.347400	0.505200	0.286200
O91	O9	0.828410	0.399400	0.761130
C11	C1	0.116000	0.279000	0.887700
H11	H1	0.114000	0.209100	0.924200
H21	H2	0.122400	0.236300	0.841400
C21	C2	0.946800	0.258900	0.859900
H31	H3	0.952400	0.197200	0.820100
H41	H4	0.951700	0.207100	0.905600
C31	C3	0.026300	0.353500	0.872200
H51	H5	0.021300	0.408900	0.827700
H61	H6	0.024800	0.411500	0.914500
H71	H7	0.214000	0.294000	0.196000
V31	V3	0.660250	0.884170	0.083940
V41	V4	0.747900	0.953520	0.283940
P31	P3	0.713640	0.878370	0.922210
P41	P4	0.336570	0.831340	0.835720
O101	O10	0.711420	0.925700	0.999870
O111	O11	0.325290	0.927000	0.896130
O121	O12	0.553900	0.864700	0.059040
O131	O13	0.702500	0.856600	0.191550
O141	O14	0.798140	0.799200	0.921590
O151	O15	0.709810	0.001400	0.874200
O161	O16	0.267040	0.721900	0.830320
O171	O17	0.847400	0.005200	0.286200
O181	O18	0.328410	0.899400	0.761130
C41	C4	0.616000	0.779000	0.887700
H81	H8	0.614000	0.709100	0.924200
H91	H9	0.622400	0.736300	0.841400
C51	C5	0.446800	0.758900	0.859900
H101	H10	0.452400	0.697200	0.820100
H111	H11	0.451700	0.707100	0.905600
C61	C6	0.526300	0.853500	0.872200
H121	H12	0.521300	0.908900	0.827700
H131	H13	0.524800	0.911500	0.914500
H141	H14	0.714000	0.794000	0.196000
V51	V5	0.839750	0.384170	0.416060
V61	V6	0.752100	0.453520	0.216060
P51	P5	0.786360	0.378370	0.577790
P61	P6	0.163430	0.331340	0.664280
O191	O19	0.788580	0.425700	0.500130
O201	O20	0.174710	0.427000	0.603870
O211	O21	0.946100	0.364700	0.440960
O221	O22	0.797500	0.356600	0.308450
O231	O23	0.701860	0.299200	0.578410
O241	O24	0.790190	0.501400	0.625800
O251	O25	0.232960	0.221900	0.669680
O261	O26	0.652600	0.505200	0.213800
O271	O27	0.171590	0.399400	0.738870
C71	C7	0.884000	0.279000	0.612300
H151	H15	0.886000	0.209100	0.575800
H161	H16	0.877600	0.236300	0.658600
C81	C8	0.053200	0.258900	0.640100
H171	H17	0.047600	0.197200	0.679900
H181	H18	0.048300	0.207100	0.594400
C91	C9	0.973700	0.353500	0.627800
H191	H19	0.978700	0.408900	0.672300
H201	H20	0.975200	0.411500	0.585500
H211	H21	0.786000	0.294000	0.304000
V71	V7	0.339750	0.884170	0.416060
V81	V8	0.252100	0.953520	0.216060
P71	P7	0.286360	0.878370	0.577790
P81	P8	0.663430	0.831340	0.664280
O281	O28	0.288580	0.925700	0.500130
O291	O29	0.674710	0.927000	0.603870
O301	O30	0.446100	0.864700	0.440960
O311	O31	0.297500	0.856600	0.308450
O321	O32	0.201860	0.799200	0.578410
O331	O33	0.290190	0.001400	0.625800
O341	O34	0.732960	0.721900	0.669680
O351	O35	0.152600	0.005200	0.213800
O361	O36	0.671590	0.899400	0.738870
C101	C10	0.384000	0.779000	0.612300
H221	H22	0.386000	0.709100	0.575800
H231	H23	0.377600	0.736300	0.658600
C111	C11	0.553200	0.758900	0.640100
H241	H24	0.547600	0.697200	0.679900
H251	H25	0.548300	0.707100	0.594400
C121	C12	0.473700	0.853500	0.627800
H261	H26	0.478700	0.908900	0.672300
H271	H27	0.475200	0.911500	0.585500
H281	H28	0.286000	0.794000	0.304000
V91	V9	0.839750	0.615830	0.916060
V101	V10	0.752100	0.546480	0.716060
P91	P9	0.786360	0.621630	0.077790
P101	P10	0.163430	0.668660	0.164280
O371	O37	0.788580	0.574300	0.000130
O381	O38	0.174710	0.573000	0.103870
O391	O39	0.946100	0.635300	0.940960
O401	O40	0.797500	0.643400	0.808450
O411	O41	0.701860	0.700800	0.078410
O421	O42	0.790190	0.498600	0.125800
O431	O43	0.232960	0.778100	0.169680
O441	O44	0.652600	0.494800	0.713800
O451	O45	0.171590	0.600600	0.238870
C131	C13	0.884000	0.721000	0.112300
H291	H29	0.886000	0.790900	0.075800
H301	H30	0.877600	0.763700	0.158600
C141	C14	0.053200	0.741100	0.140100
H311	H31	0.047600	0.802800	0.179900
H321	H32	0.048300	0.792900	0.094400
C151	C15	0.973700	0.646500	0.127800
H331	H33	0.978700	0.591100	0.172300
H341	H34	0.975200	0.588500	0.085500
H351	H35	0.786000	0.706000	0.804000
V111	V11	0.339750	0.115830	0.916060
V121	V12	0.252100	0.046480	0.716060
P111	P11	0.286360	0.121630	0.077790
P121	P12	0.663430	0.168660	0.164280
O461	O46	0.288580	0.074300	0.000130
O471	O47	0.674710	0.073000	0.103870
O481	O48	0.446100	0.135300	0.940960
O491	O49	0.297500	0.143400	0.808450
O501	O50	0.201860	0.200800	0.078410
O511	O51	0.290190	0.998600	0.125800
O521	O52	0.732960	0.278100	0.169680
O531	O53	0.152600	0.994800	0.713800
O541	O54	0.671590	0.100600	0.238870
C161	C16	0.384000	0.221000	0.112300
H361	H36	0.386000	0.290900	0.075800
H371	H37	0.377600	0.263700	0.158600
C171	C17	0.553200	0.241100	0.140100
H381	H38	0.547600	0.302800	0.179900
H391	H39	0.548300	0.292900	0.094400
C181	C18	0.473700	0.146500	0.127800
H401	H40	0.478700	0.091100	0.172300
H411	H41	0.475200	0.088500	0.085500
H421	H42	0.286000	0.206000	0.804000
V131	V13	0.160250	0.615830	0.583940
V141	V14	0.247900	0.546480	0.783940
P131	P13	0.213640	0.621630	0.422210
P141	P14	0.836570	0.668660	0.335720
O551	O55	0.211420	0.574300	0.499870
O561	O56	0.825290	0.573000	0.396130
O571	O57	0.053900	0.635300	0.559040
O581	O58	0.202500	0.643400	0.691550
O591	O59	0.298140	0.700800	0.421590
O601	O60	0.209810	0.498600	0.374200
O611	O61	0.767040	0.778100	0.330320
O621	O62	0.347400	0.494800	0.786200
O631	O63	0.828410	0.600600	0.261130
C191	C19	0.116000	0.721000	0.387700
H431	H43	0.114000	0.790900	0.424200
H441	H44	0.122400	0.763700	0.341400
C201	C20	0.946800	0.741100	0.359900
H451	H45	0.952400	0.802800	0.320100
H461	H46	0.951700	0.792900	0.405600
C211	C21	0.026300	0.646500	0.372200
H471	H47	0.021300	0.591100	0.327700
H481	H48	0.024800	0.588500	0.414500
H491	H49	0.214000	0.706000	0.696000
V151	V15	0.660250	0.115830	0.583940
V161	V16	0.747900	0.046480	0.783940
P151	P15	0.713640	0.121630	0.422210
P161	P16	0.336570	0.168660	0.335720
O641	O64	0.711420	0.074300	0.499870
O651	O65	0.325290	0.073000	0.396130
O661	O66	0.553900	0.135300	0.559040
O671	O67	0.702500	0.143400	0.691550
O681	O68	0.798140	0.200800	0.421590
O691	O69	0.709810	0.998600	0.374200
O701	O70	0.267040	0.278100	0.330320
O711	O71	0.847400	0.994800	0.786200
O721	O72	0.328410	0.100600	0.261130
C221	C22	0.616000	0.221000	0.387700
H501	H50	0.614000	0.290900	0.424200
H511	H51	0.622400	0.263700	0.341400
C231	C23	0.446800	0.241100	0.359900
H521	H52	0.452400	0.302800	0.320100
H531	H53	0.451700	0.292900	0.405600
C241	C24	0.526300	0.146500	0.372200
H541	H54	0.521300	0.091100	0.327700
H551	H55	0.524800	0.088500	0.414500
H561	H56	0.714000	0.206000	0.696000
