data_OCUQIN_freeONLY_PM
_symmetry_space_group_name_H-M	'P1'
_cell_length_a	15.552700
_cell_length_b	10.084100
_cell_length_c	18.781300
_cell_angle_alpha	90.000000
_cell_angle_beta	104.423000
_cell_angle_gamma	90.000000
_symmetry_Int_Tables_number 1

loop_
_symmetry_equiv_pos_as_xyz
'x,y,z'

loop_
_atom_site_label
_atom_site_type_symbol
_atom_site_fract_x
_atom_site_fract_y
_atom_site_fract_z
V11	V1	0.249280	0.969380	0.284880
V21	V2	0.831010	0.890170	0.414300
P11	P1	0.201510	0.128210	0.419820
P21	P2	0.831450	0.180350	0.340340
O11	O1	0.935510	0.865000	0.432580
O21	O2	0.816740	0.081380	0.397740
O31	O3	0.283660	0.210780	0.421640
O41	O4	0.202460	0.066500	0.494610
O51	O5	0.194720	0.012110	0.365870
O61	O6	0.824890	0.115530	0.265500
O71	O7	0.764550	0.293420	0.334790
O81	O8	0.346930	0.027140	0.296590
O91	O9	0.216410	0.867480	0.192550
C11	C1	0.105490	0.231190	0.391490
H11	H1	0.106500	0.298700	0.430000
H21	H2	0.108400	0.278400	0.346000
C21	C2	0.017300	0.155100	0.377290
H31	H3	0.009600	0.101000	0.332100
H41	H4	0.018200	0.094500	0.418900
C31	C3	0.939880	0.252000	0.368480
H51	H5	0.945100	0.297900	0.416000
H61	H6	0.945500	0.320100	0.331900
H71	H7	0.227000	0.801000	0.200300
V31	V3	0.749280	0.469380	0.284880
V41	V4	0.331010	0.390170	0.414300
P31	P3	0.701510	0.628210	0.419820
P41	P4	0.331450	0.680350	0.340340
O101	O10	0.435510	0.365000	0.432580
O111	O11	0.316740	0.581380	0.397740
O121	O12	0.783660	0.710780	0.421640
O131	O13	0.702460	0.566500	0.494610
O141	O14	0.694720	0.512110	0.365870
O151	O15	0.324890	0.615530	0.265500
O161	O16	0.264550	0.793420	0.334790
O171	O17	0.846930	0.527140	0.296590
O181	O18	0.716410	0.367480	0.192550
C41	C4	0.605490	0.731190	0.391490
H81	H8	0.606500	0.798700	0.430000
H91	H9	0.608400	0.778400	0.346000
C51	C5	0.517300	0.655100	0.377290
H101	H10	0.509600	0.601000	0.332100
H111	H11	0.518200	0.594500	0.418900
C61	C6	0.439880	0.752000	0.368480
H121	H12	0.445100	0.797900	0.416000
H131	H13	0.445500	0.820100	0.331900
H141	H14	0.727000	0.301000	0.200300
V51	V5	0.750720	0.969380	0.215120
V61	V6	0.168990	0.890170	0.085700
P51	P5	0.798490	0.128210	0.080180
P61	P6	0.168550	0.180350	0.159660
O191	O19	0.064490	0.865000	0.067420
O201	O20	0.183260	0.081380	0.102260
O211	O21	0.716340	0.210780	0.078360
O221	O22	0.797540	0.066500	0.005390
O231	O23	0.805280	0.012110	0.134130
O241	O24	0.175110	0.115530	0.234500
O251	O25	0.235450	0.293420	0.165210
O261	O26	0.653070	0.027140	0.203410
O271	O27	0.783590	0.867480	0.307450
C71	C7	0.894510	0.231190	0.108510
H151	H15	0.893500	0.298700	0.070000
H161	H16	0.891600	0.278400	0.154000
C81	C8	0.982700	0.155100	0.122710
H171	H17	0.990400	0.101000	0.167900
H181	H18	0.981800	0.094500	0.081100
C91	C9	0.060120	0.252000	0.131520
H191	H19	0.054900	0.297900	0.084000
H201	H20	0.054500	0.320100	0.168100
H211	H21	0.773000	0.801000	0.299700
V71	V7	0.250720	0.469380	0.215120
V81	V8	0.668990	0.390170	0.085700
P71	P7	0.298490	0.628210	0.080180
P81	P8	0.668550	0.680350	0.159660
O281	O28	0.564490	0.365000	0.067420
O291	O29	0.683260	0.581380	0.102260
O301	O30	0.216340	0.710780	0.078360
O311	O31	0.297540	0.566500	0.005390
O321	O32	0.305280	0.512110	0.134130
O331	O33	0.675110	0.615530	0.234500
O341	O34	0.735450	0.793420	0.165210
O351	O35	0.153070	0.527140	0.203410
O361	O36	0.283590	0.367480	0.307450
C101	C10	0.394510	0.731190	0.108510
H221	H22	0.393500	0.798700	0.070000
H231	H23	0.391600	0.778400	0.154000
C111	C11	0.482700	0.655100	0.122710
H241	H24	0.490400	0.601000	0.167900
H251	H25	0.481800	0.594500	0.081100
C121	C12	0.560120	0.752000	0.131520
H261	H26	0.554900	0.797900	0.084000
H271	H27	0.554500	0.820100	0.168100
H281	H28	0.273000	0.301000	0.299700
V91	V9	0.750720	0.030620	0.715120
V101	V10	0.168990	0.109830	0.585700
P91	P9	0.798490	0.871790	0.580180
P101	P10	0.168550	0.819650	0.659660
O371	O37	0.064490	0.135000	0.567420
O381	O38	0.183260	0.918620	0.602260
O391	O39	0.716340	0.789220	0.578360
O401	O40	0.797540	0.933500	0.505390
O411	O41	0.805280	0.987890	0.634130
O421	O42	0.175110	0.884470	0.734500
O431	O43	0.235450	0.706580	0.665210
O441	O44	0.653070	0.972860	0.703410
O451	O45	0.783590	0.132520	0.807450
C131	C13	0.894510	0.768810	0.608510
H291	H29	0.893500	0.701300	0.570000
H301	H30	0.891600	0.721600	0.654000
C141	C14	0.982700	0.844900	0.622710
H311	H31	0.990400	0.899000	0.667900
H321	H32	0.981800	0.905500	0.581100
C151	C15	0.060120	0.748000	0.631520
H331	H33	0.054900	0.702100	0.584000
H341	H34	0.054500	0.679900	0.668100
H351	H35	0.773000	0.199000	0.799700
V111	V11	0.250720	0.530620	0.715120
V121	V12	0.668990	0.609830	0.585700
P111	P11	0.298490	0.371790	0.580180
P121	P12	0.668550	0.319650	0.659660
O461	O46	0.564490	0.635000	0.567420
O471	O47	0.683260	0.418620	0.602260
O481	O48	0.216340	0.289220	0.578360
O491	O49	0.297540	0.433500	0.505390
O501	O50	0.305280	0.487890	0.634130
O511	O51	0.675110	0.384470	0.734500
O521	O52	0.735450	0.206580	0.665210
O531	O53	0.153070	0.472860	0.703410
O541	O54	0.283590	0.632520	0.807450
C161	C16	0.394510	0.268810	0.608510
H361	H36	0.393500	0.201300	0.570000
H371	H37	0.391600	0.221600	0.654000
C171	C17	0.482700	0.344900	0.622710
H381	H38	0.490400	0.399000	0.667900
H391	H39	0.481800	0.405500	0.581100
C181	C18	0.560120	0.248000	0.631520
H401	H40	0.554900	0.202100	0.584000
H411	H41	0.554500	0.179900	0.668100
H421	H42	0.273000	0.699000	0.799700
V131	V13	0.249280	0.030620	0.784880
V141	V14	0.831010	0.109830	0.914300
P131	P13	0.201510	0.871790	0.919820
P141	P14	0.831450	0.819650	0.840340
O551	O55	0.935510	0.135000	0.932580
O561	O56	0.816740	0.918620	0.897740
O571	O57	0.283660	0.789220	0.921640
O581	O58	0.202460	0.933500	0.994610
O591	O59	0.194720	0.987890	0.865870
O601	O60	0.824890	0.884470	0.765500
O611	O61	0.764550	0.706580	0.834790
O621	O62	0.346930	0.972860	0.796590
O631	O63	0.216410	0.132520	0.692550
C191	C19	0.105490	0.768810	0.891490
H431	H43	0.106500	0.701300	0.930000
H441	H44	0.108400	0.721600	0.846000
C201	C20	0.017300	0.844900	0.877290
H451	H45	0.009600	0.899000	0.832100
H461	H46	0.018200	0.905500	0.918900
C211	C21	0.939880	0.748000	0.868480
H471	H47	0.945100	0.702100	0.916000
H481	H48	0.945500	0.679900	0.831900
H491	H49	0.227000	0.199000	0.700300
V151	V15	0.749280	0.530620	0.784880
V161	V16	0.331010	0.609830	0.914300
P151	P15	0.701510	0.371790	0.919820
P161	P16	0.331450	0.319650	0.840340
O641	O64	0.435510	0.635000	0.932580
O651	O65	0.316740	0.418620	0.897740
O661	O66	0.783660	0.289220	0.921640
O671	O67	0.702460	0.433500	0.994610
O681	O68	0.694720	0.487890	0.865870
O691	O69	0.324890	0.384470	0.765500
O701	O70	0.264550	0.206580	0.834790
O711	O71	0.846930	0.472860	0.796590
O721	O72	0.716410	0.632520	0.692550
C221	C22	0.605490	0.268810	0.891490
H501	H50	0.606500	0.201300	0.930000
H511	H51	0.608400	0.221600	0.846000
C231	C23	0.517300	0.344900	0.877290
H521	H52	0.509600	0.399000	0.832100
H531	H53	0.518200	0.405500	0.918900
C241	C24	0.439880	0.248000	0.868480
H541	H54	0.445100	0.202100	0.916000
H551	H55	0.445500	0.179900	0.831900
H561	H56	0.727000	0.699000	0.700300
