data_OCURAG_freeONLY_PM
_symmetry_space_group_name_H-M	'P1'
_cell_length_a	15.640300
_cell_length_b	10.211200
_cell_length_c	18.679500
_cell_angle_alpha	90.000000
_cell_angle_beta	105.484000
_cell_angle_gamma	90.000000
_symmetry_Int_Tables_number 1

loop_
_symmetry_equiv_pos_as_xyz
'x,y,z'

loop_
_atom_site_label
_atom_site_type_symbol
_atom_site_fract_x
_atom_site_fract_y
_atom_site_fract_z
V11	V1	0.165040	0.380630	0.084500
V21	V2	0.248270	0.453110	0.287480
P11	P1	0.207390	0.379920	0.921250
P21	P2	0.835870	0.332300	0.837190
O11	O1	0.207400	0.427300	0.998930
O21	O2	0.288660	0.298600	0.921290
O31	O3	0.060700	0.354300	0.059180
O41	O4	0.828400	0.428800	0.897970
O51	O5	0.211700	0.357100	0.192440
O61	O6	0.824200	0.398500	0.761860
O71	O7	0.346000	0.507500	0.299490
O81	O8	0.768850	0.222300	0.834340
O91	O9	0.203630	0.503400	0.873590
C11	C1	0.110000	0.282400	0.885300
H11	H1	0.113600	0.242700	0.837800
H21	H2	0.109900	0.210100	0.920500
C21	C2	0.944700	0.261200	0.861500
H31	H3	0.948200	0.197700	0.822400
H41	H4	0.952400	0.211500	0.908300
C31	C3	0.021800	0.356900	0.871600
H51	H5	0.013100	0.412000	0.826700
H61	H6	0.023400	0.415100	0.914400
H71	H7	0.217000	0.290000	0.196000
V31	V3	0.665040	0.880630	0.084500
V41	V4	0.748270	0.953110	0.287480
P31	P3	0.707390	0.879920	0.921250
P41	P4	0.335870	0.832300	0.837190
O101	O10	0.707400	0.927300	0.998930
O111	O11	0.788660	0.798600	0.921290
O121	O12	0.560700	0.854300	0.059180
O131	O13	0.328400	0.928800	0.897970
O141	O14	0.711700	0.857100	0.192440
O151	O15	0.324200	0.898500	0.761860
O161	O16	0.846000	0.007500	0.299490
O171	O17	0.268850	0.722300	0.834340
O181	O18	0.703630	0.003400	0.873590
C41	C4	0.610000	0.782400	0.885300
H81	H8	0.613600	0.742700	0.837800
H91	H9	0.609900	0.710100	0.920500
C51	C5	0.444700	0.761200	0.861500
H101	H10	0.448200	0.697700	0.822400
H111	H11	0.452400	0.711500	0.908300
C61	C6	0.521800	0.856900	0.871600
H121	H12	0.513100	0.912000	0.826700
H131	H13	0.523400	0.915100	0.914400
H141	H14	0.717000	0.790000	0.196000
V51	V5	0.834960	0.380630	0.415500
V61	V6	0.751730	0.453110	0.212520
P51	P5	0.792610	0.379920	0.578750
P61	P6	0.164130	0.332300	0.662810
O191	O19	0.792600	0.427300	0.501070
O201	O20	0.711340	0.298600	0.578710
O211	O21	0.939300	0.354300	0.440820
O221	O22	0.171600	0.428800	0.602030
O231	O23	0.788300	0.357100	0.307560
O241	O24	0.175800	0.398500	0.738140
O251	O25	0.654000	0.507500	0.200510
O261	O26	0.231150	0.222300	0.665660
O271	O27	0.796370	0.503400	0.626410
C71	C7	0.890000	0.282400	0.614700
H151	H15	0.886400	0.242700	0.662200
H161	H16	0.890100	0.210100	0.579500
C81	C8	0.055300	0.261200	0.638500
H171	H17	0.051800	0.197700	0.677600
H181	H18	0.047600	0.211500	0.591700
C91	C9	0.978200	0.356900	0.628400
H191	H19	0.986900	0.412000	0.673300
H201	H20	0.976600	0.415100	0.585600
H211	H21	0.783000	0.290000	0.304000
V71	V7	0.334960	0.880630	0.415500
V81	V8	0.251730	0.953110	0.212520
P71	P7	0.292610	0.879920	0.578750
P81	P8	0.664130	0.832300	0.662810
O281	O28	0.292600	0.927300	0.501070
O291	O29	0.211340	0.798600	0.578710
O301	O30	0.439300	0.854300	0.440820
O311	O31	0.671600	0.928800	0.602030
O321	O32	0.288300	0.857100	0.307560
O331	O33	0.675800	0.898500	0.738140
O341	O34	0.154000	0.007500	0.200510
O351	O35	0.731150	0.722300	0.665660
O361	O36	0.296370	0.003400	0.626410
C101	C10	0.390000	0.782400	0.614700
H221	H22	0.386400	0.742700	0.662200
H231	H23	0.390100	0.710100	0.579500
C111	C11	0.555300	0.761200	0.638500
H241	H24	0.551800	0.697700	0.677600
H251	H25	0.547600	0.711500	0.591700
C121	C12	0.478200	0.856900	0.628400
H261	H26	0.486900	0.912000	0.673300
H271	H27	0.476600	0.915100	0.585600
H281	H28	0.283000	0.790000	0.304000
V91	V9	0.834960	0.619370	0.915500
V101	V10	0.751730	0.546890	0.712520
P91	P9	0.792610	0.620080	0.078750
P101	P10	0.164130	0.667700	0.162810
O371	O37	0.792600	0.572700	0.001070
O381	O38	0.711340	0.701400	0.078710
O391	O39	0.939300	0.645700	0.940820
O401	O40	0.171600	0.571200	0.102030
O411	O41	0.788300	0.642900	0.807560
O421	O42	0.175800	0.601500	0.238140
O431	O43	0.654000	0.492500	0.700510
O441	O44	0.231150	0.777700	0.165660
O451	O45	0.796370	0.496600	0.126410
C131	C13	0.890000	0.717600	0.114700
H291	H29	0.886400	0.757300	0.162200
H301	H30	0.890100	0.789900	0.079500
C141	C14	0.055300	0.738800	0.138500
H311	H31	0.051800	0.802300	0.177600
H321	H32	0.047600	0.788500	0.091700
C151	C15	0.978200	0.643100	0.128400
H331	H33	0.986900	0.588000	0.173300
H341	H34	0.976600	0.584900	0.085600
H351	H35	0.783000	0.710000	0.804000
V111	V11	0.334960	0.119370	0.915500
V121	V12	0.251730	0.046890	0.712520
P111	P11	0.292610	0.120080	0.078750
P121	P12	0.664130	0.167700	0.162810
O461	O46	0.292600	0.072700	0.001070
O471	O47	0.211340	0.201400	0.078710
O481	O48	0.439300	0.145700	0.940820
O491	O49	0.671600	0.071200	0.102030
O501	O50	0.288300	0.142900	0.807560
O511	O51	0.675800	0.101500	0.238140
O521	O52	0.154000	0.992500	0.700510
O531	O53	0.731150	0.277700	0.165660
O541	O54	0.296370	0.996600	0.126410
C161	C16	0.390000	0.217600	0.114700
H361	H36	0.386400	0.257300	0.162200
H371	H37	0.390100	0.289900	0.079500
C171	C17	0.555300	0.238800	0.138500
H381	H38	0.551800	0.302300	0.177600
H391	H39	0.547600	0.288500	0.091700
C181	C18	0.478200	0.143100	0.128400
H401	H40	0.486900	0.088000	0.173300
H411	H41	0.476600	0.084900	0.085600
H421	H42	0.283000	0.210000	0.804000
V131	V13	0.165040	0.619370	0.584500
V141	V14	0.248270	0.546890	0.787480
P131	P13	0.207390	0.620080	0.421250
P141	P14	0.835870	0.667700	0.337190
O551	O55	0.207400	0.572700	0.498930
O561	O56	0.288660	0.701400	0.421290
O571	O57	0.060700	0.645700	0.559180
O581	O58	0.828400	0.571200	0.397970
O591	O59	0.211700	0.642900	0.692440
O601	O60	0.824200	0.601500	0.261860
O611	O61	0.346000	0.492500	0.799490
O621	O62	0.768850	0.777700	0.334340
O631	O63	0.203630	0.496600	0.373590
C191	C19	0.110000	0.717600	0.385300
H431	H43	0.113600	0.757300	0.337800
H441	H44	0.109900	0.789900	0.420500
C201	C20	0.944700	0.738800	0.361500
H451	H45	0.948200	0.802300	0.322400
H461	H46	0.952400	0.788500	0.408300
C211	C21	0.021800	0.643100	0.371600
H471	H47	0.013100	0.588000	0.326700
H481	H48	0.023400	0.584900	0.414400
H491	H49	0.217000	0.710000	0.696000
V151	V15	0.665040	0.119370	0.584500
V161	V16	0.748270	0.046890	0.787480
P151	P15	0.707390	0.120080	0.421250
P161	P16	0.335870	0.167700	0.337190
O641	O64	0.707400	0.072700	0.498930
O651	O65	0.788660	0.201400	0.421290
O661	O66	0.560700	0.145700	0.559180
O671	O67	0.328400	0.071200	0.397970
O681	O68	0.711700	0.142900	0.692440
O691	O69	0.324200	0.101500	0.261860
O701	O70	0.846000	0.992500	0.799490
O711	O71	0.268850	0.277700	0.334340
O721	O72	0.703630	0.996600	0.373590
C221	C22	0.610000	0.217600	0.385300
H501	H50	0.613600	0.257300	0.337800
H511	H51	0.609900	0.289900	0.420500
C231	C23	0.444700	0.238800	0.361500
H521	H52	0.448200	0.302300	0.322400
H531	H53	0.452400	0.288500	0.408300
C241	C24	0.521800	0.143100	0.371600
H541	H54	0.513100	0.088000	0.326700
H551	H55	0.523400	0.084900	0.414400
H561	H56	0.717000	0.210000	0.696000
