data_OCUSIP_freeONLY_PM
_symmetry_space_group_name_H-M	'P1'
_cell_length_a	16.324800
_cell_length_b	13.336100
_cell_length_c	10.101900
_cell_angle_alpha	90.000000
_cell_angle_beta	89.994000
_cell_angle_gamma	90.000000
_symmetry_Int_Tables_number 1

loop_
_symmetry_equiv_pos_as_xyz
'x,y,z'

loop_
_atom_site_label
_atom_site_type_symbol
_atom_site_fract_x
_atom_site_fract_y
_atom_site_fract_z
V11	V1	0.023700	0.546670	0.247680
V21	V2	0.250030	0.249970	0.536470
V31	V3	0.476340	0.546690	0.747680
P11	P1	0.086650	0.394780	0.497590
P21	P2	0.085690	0.106190	0.514920
P31	P3	0.414330	0.393850	0.514990
P41	P4	0.413350	0.105170	0.497600
O11	O1	0.071580	0.479780	0.401100
O21	O2	0.095290	0.042600	0.640370
O31	O3	0.069560	0.651320	0.241070
O41	O4	0.075170	0.428310	0.641690
O51	O5	0.054710	0.044680	0.398860
O61	O6	0.168500	0.151380	0.478930
O71	O7	0.325560	0.142870	0.481870
O81	O8	0.249940	0.249920	0.693660
O91	O9	0.174400	0.357140	0.482010
O101	O10	0.331460	0.348570	0.479030
O111	O11	0.404780	0.457650	0.640420
O121	O12	0.428320	0.020060	0.401200
O131	O13	0.430590	0.651380	0.741060
O141	O14	0.445180	0.455310	0.398760
O151	O15	0.424810	0.071570	0.641800
C11	C1	0.014410	0.296750	0.460700
H11	H1	0.959800	0.325500	0.461700
H21	H2	0.024800	0.273200	0.371500
C21	C2	0.015070	0.205510	0.554200
H31	H3	0.960300	0.177400	0.556000
H41	H4	0.027300	0.229100	0.642800
C31	C3	0.484880	0.294570	0.554300
H51	H5	0.539700	0.322700	0.556300
H61	H6	0.472600	0.270900	0.642900
C41	C4	0.485640	0.203280	0.460800
H71	H7	0.475200	0.226800	0.371500
H81	H8	0.540200	0.174600	0.461800
V41	V4	0.976300	0.046670	0.252320
V51	V5	0.749970	0.749970	0.963530
V61	V6	0.523660	0.046690	0.752320
P51	P5	0.913350	0.894780	0.002410
P61	P6	0.914310	0.606190	0.985080
P71	P7	0.585670	0.893850	0.985010
P81	P8	0.586650	0.605170	0.002400
O161	O16	0.928420	0.979780	0.098900
O171	O17	0.904710	0.542600	0.859630
O181	O18	0.930440	0.151320	0.258930
O191	O19	0.924830	0.928310	0.858310
O201	O20	0.945290	0.544680	0.101140
O211	O21	0.831500	0.651380	0.021070
O221	O22	0.674440	0.642870	0.018130
O231	O23	0.750060	0.749920	0.806340
O241	O24	0.825600	0.857140	0.017990
O251	O25	0.668540	0.848570	0.020970
O261	O26	0.595220	0.957650	0.859580
O271	O27	0.571680	0.520060	0.098800
O281	O28	0.569410	0.151380	0.758940
O291	O29	0.554820	0.955310	0.101240
O301	O30	0.575190	0.571570	0.858200
C51	C5	0.985590	0.796750	0.039300
H91	H9	0.040200	0.825500	0.038300
H101	H10	0.975200	0.773200	0.128500
C61	C6	0.984930	0.705510	0.945800
H111	H11	0.039700	0.677400	0.944000
H121	H12	0.972700	0.729100	0.857200
C71	C7	0.515120	0.794570	0.945700
H131	H13	0.460300	0.822700	0.943700
H141	H14	0.527400	0.770900	0.857100
C81	C8	0.514360	0.703280	0.039200
H151	H15	0.524800	0.726800	0.128500
H161	H16	0.459800	0.674600	0.038200
V71	V7	0.976300	0.453330	0.752320
V81	V8	0.749970	0.750030	0.463530
V91	V9	0.523660	0.453310	0.252320
P91	P9	0.913350	0.605220	0.502410
P101	P10	0.914310	0.893810	0.485080
P111	P11	0.585670	0.606150	0.485010
P121	P12	0.586650	0.894830	0.502400
O311	O31	0.928420	0.520220	0.598900
O321	O32	0.904710	0.957400	0.359630
O331	O33	0.930440	0.348680	0.758930
O341	O34	0.924830	0.571690	0.358310
O351	O35	0.945290	0.955320	0.601140
O361	O36	0.831500	0.848620	0.521070
O371	O37	0.674440	0.857130	0.518130
O381	O38	0.750060	0.750080	0.306340
O391	O39	0.825600	0.642860	0.517990
O401	O40	0.668540	0.651430	0.520970
O411	O41	0.595220	0.542350	0.359580
O421	O42	0.571680	0.979940	0.598800
O431	O43	0.569410	0.348620	0.258940
O441	O44	0.554820	0.544690	0.601240
O451	O45	0.575190	0.928430	0.358200
C91	C9	0.985590	0.703250	0.539300
H171	H17	0.040200	0.674500	0.538300
H181	H18	0.975200	0.726800	0.628500
C101	C10	0.984930	0.794490	0.445800
H191	H19	0.039700	0.822600	0.444000
H201	H20	0.972700	0.770900	0.357200
C111	C11	0.515120	0.705430	0.445700
H211	H21	0.460300	0.677300	0.443700
H221	H22	0.527400	0.729100	0.357100
C121	C12	0.514360	0.796720	0.539200
H231	H23	0.524800	0.773200	0.628500
H241	H24	0.459800	0.825400	0.538200
V101	V10	0.023700	0.953330	0.747680
V111	V11	0.250030	0.250030	0.036470
V121	V12	0.476340	0.953310	0.247680
P131	P13	0.086650	0.105220	0.997590
P141	P14	0.085690	0.393810	0.014920
P151	P15	0.414330	0.106150	0.014990
P161	P16	0.413350	0.394830	0.997600
O461	O46	0.071580	0.020220	0.901100
O471	O47	0.095290	0.457400	0.140370
O481	O48	0.069560	0.848680	0.741070
O491	O49	0.075170	0.071690	0.141690
O501	O50	0.054710	0.455320	0.898860
O511	O51	0.168500	0.348620	0.978930
O521	O52	0.325560	0.357130	0.981870
O531	O53	0.249940	0.250080	0.193660
O541	O54	0.174400	0.142860	0.982010
O551	O55	0.331460	0.151430	0.979030
O561	O56	0.404780	0.042350	0.140420
O571	O57	0.428320	0.479940	0.901200
O581	O58	0.430590	0.848620	0.241060
O591	O59	0.445180	0.044690	0.898760
O601	O60	0.424810	0.428430	0.141800
C131	C13	0.014410	0.203250	0.960700
H251	H25	0.959800	0.174500	0.961700
H261	H26	0.024800	0.226800	0.871500
C141	C14	0.015070	0.294490	0.054200
H271	H27	0.960300	0.322600	0.056000
H281	H28	0.027300	0.270900	0.142800
C151	C15	0.484880	0.205430	0.054300
H291	H29	0.539700	0.177300	0.056300
H301	H30	0.472600	0.229100	0.142900
C161	C16	0.485640	0.296720	0.960800
H311	H31	0.475200	0.273200	0.871500
H321	H32	0.540200	0.325400	0.961800
