data_OCUTEM_freeONLY_PM
_symmetry_space_group_name_H-M	'P1'
_cell_length_a	15.276800
_cell_length_b	10.221600
_cell_length_c	18.627900
_cell_angle_alpha	90.000000
_cell_angle_beta	103.252000
_cell_angle_gamma	90.000000
_symmetry_Int_Tables_number 1

loop_
_symmetry_equiv_pos_as_xyz
'x,y,z'

loop_
_atom_site_label
_atom_site_type_symbol
_atom_site_fract_x
_atom_site_fract_y
_atom_site_fract_z
V11	V1	0.748700	0.045350	0.214550
V21	V2	0.837390	0.117350	0.414400
P11	P1	0.663660	0.331900	0.165260
P21	P2	0.288130	0.379850	0.077140
O11	O1	0.732010	0.221500	0.168550
O21	O2	0.290470	0.502800	0.125220
O31	O3	0.673900	0.399500	0.239890
O41	O4	0.649900	0.991100	0.209790
O51	O5	0.790700	0.142200	0.308080
O61	O6	0.673460	0.427000	0.104090
O71	O7	0.204840	0.298200	0.076820
O81	O8	0.292210	0.428700	0.000330
O91	O9	0.943930	0.139000	0.436020
C11	C1	0.553800	0.260300	0.143200
H11	H1	0.549300	0.203800	0.099300
H21	H2	0.547700	0.203100	0.184700
C21	C2	0.385600	0.280900	0.111700
H31	H3	0.378800	0.237800	0.157700
H41	H4	0.388100	0.211300	0.075300
C31	C3	0.474700	0.355600	0.127700
H51	H5	0.477800	0.411000	0.084700
H61	H6	0.478100	0.413400	0.170800
H71	H7	0.788000	0.200000	0.303000
V31	V3	0.248700	0.545350	0.214550
V41	V4	0.337390	0.617350	0.414400
P31	P3	0.163660	0.831900	0.165260
P41	P4	0.788130	0.879850	0.077140
O101	O10	0.232010	0.721500	0.168550
O111	O11	0.790470	0.002800	0.125220
O121	O12	0.173900	0.899500	0.239890
O131	O13	0.149900	0.491100	0.209790
O141	O14	0.290700	0.642200	0.308080
O151	O15	0.173460	0.927000	0.104090
O161	O16	0.704840	0.798200	0.076820
O171	O17	0.792210	0.928700	0.000330
O181	O18	0.443930	0.639000	0.436020
C41	C4	0.053800	0.760300	0.143200
H81	H8	0.049300	0.703800	0.099300
H91	H9	0.047700	0.703100	0.184700
C51	C5	0.885600	0.780900	0.111700
H101	H10	0.878800	0.737800	0.157700
H111	H11	0.888100	0.711300	0.075300
C61	C6	0.974700	0.855600	0.127700
H121	H12	0.977800	0.911000	0.084700
H131	H13	0.978100	0.913400	0.170800
H141	H14	0.288000	0.700000	0.303000
V51	V5	0.251300	0.045350	0.285450
V61	V6	0.162610	0.117350	0.085600
P51	P5	0.336340	0.331900	0.334740
P61	P6	0.711870	0.379850	0.422860
O191	O19	0.267990	0.221500	0.331450
O201	O20	0.709530	0.502800	0.374780
O211	O21	0.326100	0.399500	0.260110
O221	O22	0.350100	0.991100	0.290210
O231	O23	0.209300	0.142200	0.191920
O241	O24	0.326540	0.427000	0.395910
O251	O25	0.795160	0.298200	0.423180
O261	O26	0.707790	0.428700	0.499670
O271	O27	0.056070	0.139000	0.063980
C71	C7	0.446200	0.260300	0.356800
H151	H15	0.450700	0.203800	0.400700
H161	H16	0.452300	0.203100	0.315300
C81	C8	0.614400	0.280900	0.388300
H171	H17	0.621200	0.237800	0.342300
H181	H18	0.611900	0.211300	0.424700
C91	C9	0.525300	0.355600	0.372300
H191	H19	0.522200	0.411000	0.415300
H201	H20	0.521900	0.413400	0.329200
H211	H21	0.212000	0.200000	0.197000
V71	V7	0.751300	0.545350	0.285450
V81	V8	0.662610	0.617350	0.085600
P71	P7	0.836340	0.831900	0.334740
P81	P8	0.211870	0.879850	0.422860
O281	O28	0.767990	0.721500	0.331450
O291	O29	0.209530	0.002800	0.374780
O301	O30	0.826100	0.899500	0.260110
O311	O31	0.850100	0.491100	0.290210
O321	O32	0.709300	0.642200	0.191920
O331	O33	0.826540	0.927000	0.395910
O341	O34	0.295160	0.798200	0.423180
O351	O35	0.207790	0.928700	0.499670
O361	O36	0.556070	0.639000	0.063980
C101	C10	0.946200	0.760300	0.356800
H221	H22	0.950700	0.703800	0.400700
H231	H23	0.952300	0.703100	0.315300
C111	C11	0.114400	0.780900	0.388300
H241	H24	0.121200	0.737800	0.342300
H251	H25	0.111900	0.711300	0.424700
C121	C12	0.025300	0.855600	0.372300
H261	H26	0.022200	0.911000	0.415300
H271	H27	0.021900	0.913400	0.329200
H281	H28	0.712000	0.700000	0.197000
V91	V9	0.251300	0.954650	0.785450
V101	V10	0.162610	0.882650	0.585600
P91	P9	0.336340	0.668100	0.834740
P101	P10	0.711870	0.620150	0.922860
O371	O37	0.267990	0.778500	0.831450
O381	O38	0.709530	0.497200	0.874780
O391	O39	0.326100	0.600500	0.760110
O401	O40	0.350100	0.008900	0.790210
O411	O41	0.209300	0.857800	0.691920
O421	O42	0.326540	0.573000	0.895910
O431	O43	0.795160	0.701800	0.923180
O441	O44	0.707790	0.571300	0.999670
O451	O45	0.056070	0.861000	0.563980
C131	C13	0.446200	0.739700	0.856800
H291	H29	0.450700	0.796200	0.900700
H301	H30	0.452300	0.796900	0.815300
C141	C14	0.614400	0.719100	0.888300
H311	H31	0.621200	0.762200	0.842300
H321	H32	0.611900	0.788700	0.924700
C151	C15	0.525300	0.644400	0.872300
H331	H33	0.522200	0.589000	0.915300
H341	H34	0.521900	0.586600	0.829200
H351	H35	0.212000	0.800000	0.697000
V111	V11	0.751300	0.454650	0.785450
V121	V12	0.662610	0.382650	0.585600
P111	P11	0.836340	0.168100	0.834740
P121	P12	0.211870	0.120150	0.922860
O461	O46	0.767990	0.278500	0.831450
O471	O47	0.209530	0.997200	0.874780
O481	O48	0.826100	0.100500	0.760110
O491	O49	0.850100	0.508900	0.790210
O501	O50	0.709300	0.357800	0.691920
O511	O51	0.826540	0.073000	0.895910
O521	O52	0.295160	0.201800	0.923180
O531	O53	0.207790	0.071300	0.999670
O541	O54	0.556070	0.361000	0.563980
C161	C16	0.946200	0.239700	0.856800
H361	H36	0.950700	0.296200	0.900700
H371	H37	0.952300	0.296900	0.815300
C171	C17	0.114400	0.219100	0.888300
H381	H38	0.121200	0.262200	0.842300
H391	H39	0.111900	0.288700	0.924700
C181	C18	0.025300	0.144400	0.872300
H401	H40	0.022200	0.089000	0.915300
H411	H41	0.021900	0.086600	0.829200
H421	H42	0.712000	0.300000	0.697000
V131	V13	0.748700	0.954650	0.714550
V141	V14	0.837390	0.882650	0.914400
P131	P13	0.663660	0.668100	0.665260
P141	P14	0.288130	0.620150	0.577140
O551	O55	0.732010	0.778500	0.668550
O561	O56	0.290470	0.497200	0.625220
O571	O57	0.673900	0.600500	0.739890
O581	O58	0.649900	0.008900	0.709790
O591	O59	0.790700	0.857800	0.808080
O601	O60	0.673460	0.573000	0.604090
O611	O61	0.204840	0.701800	0.576820
O621	O62	0.292210	0.571300	0.500330
O631	O63	0.943930	0.861000	0.936020
C191	C19	0.553800	0.739700	0.643200
H431	H43	0.549300	0.796200	0.599300
H441	H44	0.547700	0.796900	0.684700
C201	C20	0.385600	0.719100	0.611700
H451	H45	0.378800	0.762200	0.657700
H461	H46	0.388100	0.788700	0.575300
C211	C21	0.474700	0.644400	0.627700
H471	H47	0.477800	0.589000	0.584700
H481	H48	0.478100	0.586600	0.670800
H491	H49	0.788000	0.800000	0.803000
V151	V15	0.248700	0.454650	0.714550
V161	V16	0.337390	0.382650	0.914400
P151	P15	0.163660	0.168100	0.665260
P161	P16	0.788130	0.120150	0.577140
O641	O64	0.232010	0.278500	0.668550
O651	O65	0.790470	0.997200	0.625220
O661	O66	0.173900	0.100500	0.739890
O671	O67	0.149900	0.508900	0.709790
O681	O68	0.290700	0.357800	0.808080
O691	O69	0.173460	0.073000	0.604090
O701	O70	0.704840	0.201800	0.576820
O711	O71	0.792210	0.071300	0.500330
O721	O72	0.443930	0.361000	0.936020
C221	C22	0.053800	0.239700	0.643200
H501	H50	0.049300	0.296200	0.599300
H511	H51	0.047700	0.296900	0.684700
C231	C23	0.885600	0.219100	0.611700
H521	H52	0.878800	0.262200	0.657700
H531	H53	0.888100	0.288700	0.575300
C241	C24	0.974700	0.144400	0.627700
H541	H54	0.977800	0.089000	0.584700
H551	H55	0.978100	0.086600	0.670800
H561	H56	0.288000	0.300000	0.803000
