data_ODAGEI_freeONLY_PM
_symmetry_space_group_name_H-M	'P1'
_cell_length_a	26.047000
_cell_length_b	26.047000
_cell_length_c	41.751000
_cell_angle_alpha	90.000000
_cell_angle_beta	90.000000
_cell_angle_gamma	120.000000
_symmetry_Int_Tables_number 1

loop_
_symmetry_equiv_pos_as_xyz
'x,y,z'

loop_
_atom_site_label
_atom_site_type_symbol
_atom_site_fract_x
_atom_site_fract_y
_atom_site_fract_z
Ag11	Ag1	0.839450	0.656490	0.379640
N11	N1	0.421190	0.498200	0.284760
N21	N2	0.523550	0.590590	0.309310
N31	N3	0.749740	0.567510	0.365700
N41	N4	0.848940	0.575310	0.395110
O11	O1	0.585100	0.552160	0.351910
S11	S1	0.483660	0.659460	0.323060
S21	S2	0.681630	0.456950	0.373490
C11	C1	0.370210	0.450300	0.277160
H11	H1	0.371170	0.417500	0.267860
C21	C2	0.315400	0.446100	0.282260
H21	H2	0.279800	0.410500	0.277210
C31	C3	0.313200	0.493300	0.294540
H31	H3	0.276300	0.491600	0.297820
C41	C4	0.365900	0.543900	0.302150
H41	H4	0.365700	0.577900	0.310340
C51	C5	0.418550	0.544500	0.297710
C61	C6	0.474970	0.593990	0.308640
C71	C7	0.555400	0.682700	0.330410
H51	H5	0.582300	0.720100	0.339570
C81	C8	0.570350	0.641250	0.321570
C91	C9	0.628640	0.645730	0.324310
C101	C10	0.633860	0.600790	0.339030
C111	C11	0.688280	0.602780	0.339480
C121	C12	0.737230	0.651270	0.325050
H61	H6	0.774370	0.652650	0.325020
C131	C13	0.733130	0.696690	0.310990
C141	C14	0.678370	0.693300	0.311140
H71	H7	0.674850	0.724720	0.301880
C151	C15	0.786100	0.747400	0.295350
H81	H8	0.822200	0.754400	0.306500
H91	H9	0.788100	0.737700	0.272900
H101	H10	0.782700	0.783100	0.296500
C161	C16	0.564200	0.564700	0.380790
H111	H11	0.597400	0.597300	0.392100
H121	H12	0.534500	0.576000	0.375650
H131	H13	0.546200	0.529300	0.394400
C171	C17	0.695280	0.554890	0.354390
C181	C18	0.653750	0.496770	0.356770
H141	H14	0.613840	0.480450	0.349880
C191	C19	0.749310	0.520500	0.376720
C201	C20	0.802340	0.521810	0.389850
C211	C21	0.802590	0.469560	0.396270
H151	H15	0.768060	0.432070	0.393020
C221	C22	0.854600	0.473640	0.407550
H161	H16	0.856500	0.438830	0.412080
C231	C23	0.903570	0.528790	0.412070
H171	H17	0.939980	0.532750	0.419280
C241	C24	0.898680	0.578270	0.405920
H181	H18	0.932290	0.616270	0.409550
Ag21	Ag2	0.506110	0.989820	0.712980
N51	N5	0.087860	0.831530	0.618090
N61	N6	0.190220	0.923920	0.642640
N71	N7	0.416410	0.900840	0.699030
N81	N8	0.515610	0.908640	0.728440
O21	O2	0.251770	0.885490	0.685240
S31	S3	0.150330	0.992790	0.656390
S41	S4	0.348300	0.790280	0.706820
C251	C25	0.036880	0.783630	0.610490
H191	H19	0.037840	0.750830	0.601190
C261	C26	0.982070	0.779430	0.615590
H201	H20	0.946470	0.743830	0.610540
C271	C27	0.979870	0.826630	0.627870
H211	H21	0.942970	0.824930	0.631150
C281	C28	0.032570	0.877230	0.635480
H221	H22	0.032370	0.911230	0.643670
C291	C29	0.085220	0.877830	0.631040
C301	C30	0.141640	0.927320	0.641970
C311	C31	0.222070	0.016030	0.663740
H231	H23	0.248970	0.053430	0.672900
C321	C32	0.237020	0.974580	0.654900
C331	C33	0.295310	0.979060	0.657640
C341	C34	0.300530	0.934120	0.672360
C351	C35	0.354950	0.936110	0.672810
C361	C36	0.403900	0.984600	0.658380
H241	H24	0.441040	0.985980	0.658350
C371	C37	0.399800	0.030020	0.644320
C381	C38	0.345040	0.026630	0.644470
H251	H25	0.341520	0.058050	0.635210
C391	C39	0.452770	0.080730	0.628680
H261	H26	0.488870	0.087730	0.639830
H271	H27	0.454770	0.071030	0.606230
H281	H28	0.449370	0.116430	0.629830
C401	C40	0.230870	0.898030	0.714120
H291	H29	0.264070	0.930630	0.725430
H301	H30	0.201170	0.909330	0.708980
H311	H31	0.212870	0.862630	0.727730
C411	C41	0.361950	0.888220	0.687720
C421	C42	0.320420	0.830100	0.690100
H321	H32	0.280510	0.813780	0.683210
C431	C43	0.415980	0.853830	0.710050
C441	C44	0.469010	0.855140	0.723180
C451	C45	0.469260	0.802890	0.729600
H331	H33	0.434730	0.765400	0.726350
C461	C46	0.521270	0.806970	0.740880
H341	H34	0.523170	0.772160	0.745410
C471	C47	0.570240	0.862120	0.745400
H351	H35	0.606650	0.866080	0.752610
C481	C48	0.565350	0.911600	0.739250
H361	H36	0.598960	0.949600	0.742880
Ag31	Ag3	0.172780	0.323150	0.046310
N91	N9	0.754520	0.164870	0.951430
N101	N10	0.856880	0.257260	0.975980
N111	N11	0.083070	0.234180	0.032370
N121	N12	0.182270	0.241980	0.061780
O31	O3	0.918430	0.218830	0.018580
S51	S5	0.816990	0.326130	0.989730
S61	S6	0.014960	0.123620	0.040160
C491	C49	0.703540	0.116970	0.943830
H371	H37	0.704500	0.084170	0.934530
C501	C50	0.648730	0.112770	0.948930
H381	H38	0.613130	0.077170	0.943880
C511	C51	0.646530	0.159970	0.961210
H391	H39	0.609630	0.158270	0.964490
C521	C52	0.699230	0.210570	0.968820
H401	H40	0.699030	0.244570	0.977010
C531	C53	0.751880	0.211170	0.964380
C541	C54	0.808300	0.260660	0.975310
C551	C55	0.888730	0.349370	0.997080
H411	H41	0.915630	0.386770	0.006240
C561	C56	0.903680	0.307920	0.988240
C571	C57	0.961970	0.312400	0.990980
C581	C58	0.967190	0.267460	0.005700
C591	C59	0.021610	0.269450	0.006150
C601	C60	0.070560	0.317940	0.991720
H421	H42	0.107700	0.319320	0.991690
C611	C61	0.066460	0.363360	0.977660
C621	C62	0.011700	0.359970	0.977810
H431	H43	0.008180	0.391390	0.968550
C631	C63	0.119430	0.414070	0.962020
H441	H44	0.155530	0.421070	0.973170
H451	H45	0.121430	0.404370	0.939570
H461	H46	0.116030	0.449770	0.963170
C641	C64	0.897530	0.231370	0.047460
H471	H47	0.930730	0.263970	0.058770
H481	H48	0.867830	0.242670	0.042320
H491	H49	0.879530	0.195970	0.061070
C651	C65	0.028610	0.221560	0.021060
C661	C66	0.987080	0.163440	0.023440
H501	H50	0.947170	0.147120	0.016550
C671	C67	0.082640	0.187170	0.043390
C681	C68	0.135670	0.188480	0.056520
C691	C69	0.135920	0.136230	0.062940
H511	H51	0.101390	0.098740	0.059690
C701	C70	0.187930	0.140310	0.074220
H521	H52	0.189830	0.105500	0.078750
C711	C71	0.236900	0.195460	0.078740
H531	H53	0.273310	0.199420	0.085950
C721	C72	0.232010	0.244940	0.072590
H541	H54	0.265620	0.282940	0.076220
Ag41	Ag4	0.343510	0.182960	0.379640
N131	N13	0.501800	0.922990	0.284760
N141	N14	0.409410	0.932960	0.309310
N151	N15	0.432490	0.182230	0.365700
N161	N16	0.424690	0.273630	0.395110
O41	O4	0.447840	0.032940	0.351910
S71	S7	0.340540	0.824200	0.323060
S81	S8	0.543050	0.224680	0.373490
C731	C73	0.549700	0.919910	0.277160
H551	H55	0.582500	0.953670	0.267860
C741	C74	0.553900	0.869300	0.282260
H561	H56	0.589500	0.869300	0.277210
C751	C75	0.506700	0.819900	0.294540
H571	H57	0.508400	0.784700	0.297820
C761	C76	0.456100	0.822000	0.302150
H581	H58	0.422100	0.787800	0.310340
C771	C77	0.455500	0.874050	0.297710
C781	C78	0.406010	0.880980	0.308640
C791	C79	0.317300	0.872700	0.330410
H591	H59	0.279900	0.862200	0.339570
C801	C80	0.358750	0.929100	0.321570
C811	C81	0.354270	0.982910	0.324310
C821	C82	0.399210	0.033070	0.339030
C831	C83	0.397220	0.085500	0.339480
C841	C84	0.348730	0.085960	0.325050
H601	H60	0.347350	0.121720	0.325020
C851	C85	0.303310	0.036440	0.310990
C861	C86	0.306700	0.985070	0.311140
H611	H61	0.275280	0.950130	0.301880
C871	C87	0.252600	0.038700	0.295350
H621	H62	0.245600	0.067800	0.306500
H631	H63	0.262300	0.050400	0.272900
H641	H64	0.216900	0.999600	0.296500
C881	C88	0.435300	0.999500	0.380790
H651	H65	0.402700	0.000100	0.392100
H661	H66	0.424000	0.958500	0.375650
H671	H67	0.470700	0.016900	0.394400
C891	C89	0.445110	0.140390	0.354390
C901	C90	0.503230	0.156980	0.356770
H681	H68	0.519550	0.133390	0.349880
C911	C91	0.479500	0.228810	0.376720
C921	C92	0.478190	0.280530	0.389850
C931	C93	0.530440	0.333030	0.396270
H691	H69	0.567930	0.335990	0.393020
C941	C94	0.526360	0.380960	0.407550
H701	H70	0.561170	0.417670	0.412080
C951	C95	0.471210	0.374780	0.412070
H711	H71	0.467250	0.407230	0.419280
C961	C96	0.421730	0.320410	0.405920
H721	H72	0.383730	0.316020	0.409550
Ag51	Ag5	0.010180	0.516290	0.712980
N171	N17	0.168470	0.256320	0.618090
N181	N18	0.076080	0.266290	0.642640
N191	N19	0.099160	0.515560	0.699030
N201	N20	0.091360	0.606960	0.728440
O51	O5	0.114510	0.366270	0.685240
S91	S9	0.007210	0.157530	0.656390
S101	S10	0.209720	0.558010	0.706820
C971	C97	0.216370	0.253240	0.610490
H731	H73	0.249170	0.287000	0.601190
C981	C98	0.220570	0.202630	0.615590
H741	H74	0.256170	0.202630	0.610540
C991	C99	0.173370	0.153230	0.627870
H751	H75	0.175070	0.118030	0.631150
C1001	C100	0.122770	0.155330	0.635480
H761	H76	0.088770	0.121130	0.643670
C1011	C101	0.122170	0.207380	0.631040
C1021	C102	0.072680	0.214310	0.641970
C1031	C103	0.983970	0.206030	0.663740
H771	H77	0.946570	0.195530	0.672900
C1041	C104	0.025420	0.262430	0.654900
C1051	C105	0.020940	0.316240	0.657640
C1061	C106	0.065880	0.366400	0.672360
C1071	C107	0.063890	0.418830	0.672810
C1081	C108	0.015400	0.419290	0.658380
H781	H78	0.014020	0.455050	0.658350
C1091	C109	0.969980	0.369770	0.644320
C1101	C110	0.973370	0.318400	0.644470
H791	H79	0.941950	0.283460	0.635210
C1111	C111	0.919270	0.372030	0.628680
H801	H80	0.912270	0.401130	0.639830
H811	H81	0.928970	0.383730	0.606230
H821	H82	0.883570	0.332930	0.629830
C1121	C112	0.101970	0.332830	0.714120
H831	H83	0.069370	0.333430	0.725430
H841	H84	0.090670	0.291830	0.708980
H851	H85	0.137370	0.350230	0.727730
C1131	C113	0.111780	0.473720	0.687720
C1141	C114	0.169900	0.490310	0.690100
H861	H86	0.186220	0.466720	0.683210
C1151	C115	0.146170	0.562140	0.710050
C1161	C116	0.144860	0.613860	0.723180
C1171	C117	0.197110	0.666360	0.729600
H871	H87	0.234600	0.669320	0.726350
C1181	C118	0.193030	0.714290	0.740880
H881	H88	0.227840	0.751000	0.745410
C1191	C119	0.137880	0.708110	0.745400
H891	H89	0.133920	0.740560	0.752610
C1201	C120	0.088400	0.653740	0.739250
H901	H90	0.050400	0.649350	0.742880
Ag61	Ag6	0.676850	0.849630	0.046310
N211	N21	0.835130	0.589660	0.951430
N221	N22	0.742740	0.599630	0.975980
N231	N23	0.765820	0.848900	0.032370
N241	N24	0.758020	0.940300	0.061780
O61	O6	0.781170	0.699610	0.018580
S111	S11	0.673870	0.490870	0.989730
S121	S12	0.876380	0.891350	0.040160
C1211	C121	0.883030	0.586580	0.943830
H911	H91	0.915830	0.620340	0.934530
C1221	C122	0.887230	0.535970	0.948930
H921	H92	0.922830	0.535970	0.943880
C1231	C123	0.840030	0.486570	0.961210
H931	H93	0.841730	0.451370	0.964490
C1241	C124	0.789430	0.488670	0.968820
H941	H94	0.755430	0.454470	0.977010
C1251	C125	0.788830	0.540720	0.964380
C1261	C126	0.739340	0.547650	0.975310
C1271	C127	0.650630	0.539370	0.997080
H951	H95	0.613230	0.528870	0.006240
C1281	C128	0.692080	0.595770	0.988240
C1291	C129	0.687600	0.649580	0.990980
C1301	C130	0.732540	0.699740	0.005700
C1311	C131	0.730550	0.752170	0.006150
C1321	C132	0.682060	0.752630	0.991720
H961	H96	0.680680	0.788390	0.991690
C1331	C133	0.636640	0.703110	0.977660
C1341	C134	0.640030	0.651740	0.977810
H971	H97	0.608610	0.616800	0.968550
C1351	C135	0.585930	0.705370	0.962020
H981	H98	0.578930	0.734470	0.973170
H991	H99	0.595630	0.717070	0.939570
H1001	H100	0.550230	0.666270	0.963170
C1361	C136	0.768630	0.666170	0.047460
H1011	H101	0.736030	0.666770	0.058770
H1021	H102	0.757330	0.625170	0.042320
H1031	H103	0.804030	0.683570	0.061070
C1371	C137	0.778440	0.807060	0.021060
C1381	C138	0.836560	0.823650	0.023440
H1041	H104	0.852880	0.800060	0.016550
C1391	C139	0.812830	0.895480	0.043390
C1401	C140	0.811520	0.947200	0.056520
C1411	C141	0.863770	0.999700	0.062940
H1051	H105	0.901260	0.002660	0.059690
C1421	C142	0.859690	0.047630	0.074220
H1061	H106	0.894500	0.084340	0.078750
C1431	C143	0.804540	0.041450	0.078740
H1071	H107	0.800580	0.073900	0.085950
C1441	C144	0.755060	0.987080	0.072590
H1081	H108	0.717060	0.982690	0.076220
Ag71	Ag7	0.817040	0.160550	0.379640
N251	N25	0.077010	0.578810	0.284760
N261	N26	0.067040	0.476450	0.309310
N271	N27	0.817770	0.250260	0.365700
N281	N28	0.726370	0.151060	0.395110
O71	O7	0.967060	0.414900	0.351910
S131	S13	0.175800	0.516340	0.323060
S141	S14	0.775320	0.318370	0.373490
C1451	C145	0.080090	0.629790	0.277160
H1091	H109	0.046330	0.628830	0.267860
C1461	C146	0.130700	0.684600	0.282260
H1101	H110	0.130700	0.720200	0.277210
C1471	C147	0.180100	0.686800	0.294540
H1111	H111	0.215300	0.723700	0.297820
C1481	C148	0.178000	0.634100	0.302150
H1121	H112	0.212200	0.634300	0.310340
C1491	C149	0.125950	0.581450	0.297710
C1501	C150	0.119020	0.525030	0.308640
C1511	C151	0.127300	0.444600	0.330410
H1131	H113	0.137800	0.417700	0.339570
C1521	C152	0.070900	0.429650	0.321570
C1531	C153	0.017090	0.371360	0.324310
C1541	C154	0.966930	0.366140	0.339030
C1551	C155	0.914500	0.311720	0.339480
C1561	C156	0.914040	0.262770	0.325050
H1141	H114	0.878280	0.225630	0.325020
C1571	C157	0.963560	0.266870	0.310990
C1581	C158	0.014930	0.321630	0.311140
H1151	H115	0.049870	0.325150	0.301880
C1591	C159	0.961300	0.213900	0.295350
H1161	H116	0.932200	0.177800	0.306500
H1171	H117	0.949600	0.211900	0.272900
H1181	H118	0.000400	0.217300	0.296500
C1601	C160	0.000500	0.435800	0.380790
H1191	H119	0.999900	0.402600	0.392100
H1201	H120	0.041500	0.465500	0.375650
H1211	H121	0.983100	0.453800	0.394400
C1611	C161	0.859610	0.304720	0.354390
C1621	C162	0.843020	0.346250	0.356770
H1221	H122	0.866610	0.386160	0.349880
C1631	C163	0.771190	0.250690	0.376720
C1641	C164	0.719470	0.197660	0.389850
C1651	C165	0.666970	0.197410	0.396270
H1231	H123	0.664010	0.231940	0.393020
C1661	C166	0.619040	0.145400	0.407550
H1241	H124	0.582330	0.143500	0.412080
C1671	C167	0.625220	0.096430	0.412070
H1251	H125	0.592770	0.060020	0.419280
C1681	C168	0.679590	0.101320	0.405920
H1261	H126	0.683980	0.067710	0.409550
Ag81	Ag8	0.483710	0.493890	0.712980
N291	N29	0.743680	0.912140	0.618090
N301	N30	0.733710	0.809780	0.642640
N311	N31	0.484440	0.583590	0.699030
N321	N32	0.393040	0.484390	0.728440
O81	O8	0.633730	0.748230	0.685240
S151	S15	0.842470	0.849670	0.656390
S161	S16	0.441990	0.651700	0.706820
C1691	C169	0.746760	0.963120	0.610490
H1271	H127	0.713000	0.962160	0.601190
C1701	C170	0.797370	0.017930	0.615590
H1281	H128	0.797370	0.053530	0.610540
C1711	C171	0.846770	0.020130	0.627870
H1291	H129	0.881970	0.057030	0.631150
C1721	C172	0.844670	0.967430	0.635480
H1301	H130	0.878870	0.967630	0.643670
C1731	C173	0.792620	0.914780	0.631040
C1741	C174	0.785690	0.858360	0.641970
C1751	C175	0.793970	0.777930	0.663740
H1311	H131	0.804470	0.751030	0.672900
C1761	C176	0.737570	0.762980	0.654900
C1771	C177	0.683760	0.704690	0.657640
C1781	C178	0.633600	0.699470	0.672360
C1791	C179	0.581170	0.645050	0.672810
C1801	C180	0.580710	0.596100	0.658380
H1321	H132	0.544950	0.558960	0.658350
C1811	C181	0.630230	0.600200	0.644320
C1821	C182	0.681600	0.654960	0.644470
H1331	H133	0.716540	0.658480	0.635210
C1831	C183	0.627970	0.547230	0.628680
H1341	H134	0.598870	0.511130	0.639830
H1351	H135	0.616270	0.545230	0.606230
H1361	H136	0.667070	0.550630	0.629830
C1841	C184	0.667170	0.769130	0.714120
H1371	H137	0.666570	0.735930	0.725430
H1381	H138	0.708170	0.798830	0.708980
H1391	H139	0.649770	0.787130	0.727730
C1851	C185	0.526280	0.638050	0.687720
C1861	C186	0.509690	0.679580	0.690100
H1401	H140	0.533280	0.719490	0.683210
C1871	C187	0.437860	0.584020	0.710050
C1881	C188	0.386140	0.530990	0.723180
C1891	C189	0.333640	0.530740	0.729600
H1411	H141	0.330680	0.565270	0.726350
C1901	C190	0.285710	0.478730	0.740880
H1421	H142	0.249000	0.476830	0.745410
C1911	C191	0.291890	0.429760	0.745400
H1431	H143	0.259440	0.393350	0.752610
C1921	C192	0.346260	0.434650	0.739250
H1441	H144	0.350650	0.401040	0.742880
Ag91	Ag9	0.150370	0.827220	0.046310
N331	N33	0.410340	0.245480	0.951430
N341	N34	0.400370	0.143120	0.975980
N351	N35	0.151100	0.916930	0.032370
N361	N36	0.059700	0.817730	0.061780
O91	O9	0.300390	0.081570	0.018580
S171	S17	0.509130	0.183010	0.989730
S181	S18	0.108650	0.985040	0.040160
C1931	C193	0.413420	0.296460	0.943830
H1451	H145	0.379660	0.295500	0.934530
C1941	C194	0.464030	0.351270	0.948930
H1461	H146	0.464030	0.386870	0.943880
C1951	C195	0.513430	0.353470	0.961210
H1471	H147	0.548630	0.390370	0.964490
C1961	C196	0.511330	0.300770	0.968820
H1481	H148	0.545530	0.300970	0.977010
C1971	C197	0.459280	0.248120	0.964380
C1981	C198	0.452350	0.191700	0.975310
C1991	C199	0.460630	0.111270	0.997080
H1491	H149	0.471130	0.084370	0.006240
C2001	C200	0.404230	0.096320	0.988240
C2011	C201	0.350420	0.038030	0.990980
C2021	C202	0.300260	0.032810	0.005700
C2031	C203	0.247830	0.978390	0.006150
C2041	C204	0.247370	0.929440	0.991720
H1501	H150	0.211610	0.892300	0.991690
C2051	C205	0.296890	0.933540	0.977660
C2061	C206	0.348260	0.988300	0.977810
H1511	H151	0.383200	0.991820	0.968550
C2071	C207	0.294630	0.880570	0.962020
H1521	H152	0.265530	0.844470	0.973170
H1531	H153	0.282930	0.878570	0.939570
H1541	H154	0.333730	0.883970	0.963170
C2081	C208	0.333830	0.102470	0.047460
H1551	H155	0.333230	0.069270	0.058770
H1561	H156	0.374830	0.132170	0.042320
H1571	H157	0.316430	0.120470	0.061070
C2091	C209	0.192940	0.971390	0.021060
C2101	C210	0.176350	0.012920	0.023440
H1581	H158	0.199940	0.052830	0.016550
C2111	C211	0.104520	0.917360	0.043390
C2121	C212	0.052800	0.864330	0.056520
C2131	C213	0.000300	0.864080	0.062940
H1591	H159	0.997340	0.898610	0.059690
C2141	C214	0.952370	0.812070	0.074220
H1601	H160	0.915660	0.810170	0.078750
C2151	C215	0.958550	0.763100	0.078740
H1611	H161	0.926100	0.726690	0.085950
C2161	C216	0.012920	0.767990	0.072590
H1621	H162	0.017310	0.734380	0.076220
Ag101	Ag10	0.656490	0.839450	0.120360
N371	N37	0.498200	0.421190	0.215240
N381	N38	0.590590	0.523550	0.190690
N391	N39	0.567510	0.749740	0.134300
N401	N40	0.575310	0.848940	0.104890
O101	O10	0.552160	0.585100	0.148090
S191	S19	0.659460	0.483660	0.176940
S201	S20	0.456950	0.681630	0.126510
C2171	C217	0.450300	0.370210	0.222840
H1631	H163	0.417500	0.371170	0.232140
C2181	C218	0.446100	0.315400	0.217740
H1641	H164	0.410500	0.279800	0.222790
C2191	C219	0.493300	0.313200	0.205460
H1651	H165	0.491600	0.276300	0.202180
C2201	C220	0.543900	0.365900	0.197850
H1661	H166	0.577900	0.365700	0.189660
C2211	C221	0.544500	0.418550	0.202290
C2221	C222	0.593990	0.474970	0.191360
C2231	C223	0.682700	0.555400	0.169590
H1671	H167	0.720100	0.582300	0.160430
C2241	C224	0.641250	0.570350	0.178430
C2251	C225	0.645730	0.628640	0.175690
C2261	C226	0.600790	0.633860	0.160970
C2271	C227	0.602780	0.688280	0.160520
C2281	C228	0.651270	0.737230	0.174950
H1681	H168	0.652650	0.774370	0.174980
C2291	C229	0.696690	0.733130	0.189010
C2301	C230	0.693300	0.678370	0.188860
H1691	H169	0.724720	0.674850	0.198120
C2311	C231	0.747400	0.786100	0.204650
H1701	H170	0.754400	0.822200	0.193500
H1711	H171	0.737700	0.788100	0.227100
H1721	H172	0.783100	0.782700	0.203500
C2321	C232	0.564700	0.564200	0.119210
H1731	H173	0.597300	0.597400	0.107900
H1741	H174	0.576000	0.534500	0.124350
H1751	H175	0.529300	0.546200	0.105600
C2331	C233	0.554890	0.695280	0.145610
C2341	C234	0.496770	0.653750	0.143230
H1761	H176	0.480450	0.613840	0.150120
C2351	C235	0.520500	0.749310	0.123280
C2361	C236	0.521810	0.802340	0.110150
C2371	C237	0.469560	0.802590	0.103730
H1771	H177	0.432070	0.768060	0.106980
C2381	C238	0.473640	0.854600	0.092450
H1781	H178	0.438830	0.856500	0.087920
C2391	C239	0.528790	0.903570	0.087930
H1791	H179	0.532750	0.939980	0.080720
C2401	C240	0.578270	0.898680	0.094080
H1801	H180	0.616270	0.932290	0.090450
Ag111	Ag11	0.323150	0.172780	0.453690
N411	N41	0.164870	0.754520	0.548570
N421	N42	0.257260	0.856880	0.524020
N431	N43	0.234180	0.083070	0.467630
N441	N44	0.241980	0.182270	0.438220
O111	O11	0.218830	0.918430	0.481420
S211	S21	0.326130	0.816990	0.510270
S221	S22	0.123620	0.014960	0.459840
C2411	C241	0.116970	0.703540	0.556170
H1811	H181	0.084170	0.704500	0.565470
C2421	C242	0.112770	0.648730	0.551070
H1821	H182	0.077170	0.613130	0.556120
C2431	C243	0.159970	0.646530	0.538790
H1831	H183	0.158270	0.609630	0.535510
C2441	C244	0.210570	0.699230	0.531180
H1841	H184	0.244570	0.699030	0.522990
C2451	C245	0.211170	0.751880	0.535620
C2461	C246	0.260660	0.808300	0.524690
C2471	C247	0.349370	0.888730	0.502920
H1851	H185	0.386770	0.915630	0.493760
C2481	C248	0.307920	0.903680	0.511760
C2491	C249	0.312400	0.961970	0.509020
C2501	C250	0.267460	0.967190	0.494300
C2511	C251	0.269450	0.021610	0.493850
C2521	C252	0.317940	0.070560	0.508280
H1861	H186	0.319320	0.107700	0.508310
C2531	C253	0.363360	0.066460	0.522340
C2541	C254	0.359970	0.011700	0.522190
H1871	H187	0.391390	0.008180	0.531450
C2551	C255	0.414070	0.119430	0.537980
H1881	H188	0.421070	0.155530	0.526830
H1891	H189	0.404370	0.121430	0.560430
H1901	H190	0.449770	0.116030	0.536830
C2561	C256	0.231370	0.897530	0.452540
H1911	H191	0.263970	0.930730	0.441230
H1921	H192	0.242670	0.867830	0.457680
H1931	H193	0.195970	0.879530	0.438930
C2571	C257	0.221560	0.028610	0.478940
C2581	C258	0.163440	0.987080	0.476560
H1941	H194	0.147120	0.947170	0.483450
C2591	C259	0.187170	0.082640	0.456610
C2601	C260	0.188480	0.135670	0.443480
C2611	C261	0.136230	0.135920	0.437060
H1951	H195	0.098740	0.101390	0.440310
C2621	C262	0.140310	0.187930	0.425780
H1961	H196	0.105500	0.189830	0.421250
C2631	C263	0.195460	0.236900	0.421260
H1971	H197	0.199420	0.273310	0.414050
C2641	C264	0.244940	0.232010	0.427410
H1981	H198	0.282940	0.265620	0.423780
Ag121	Ag12	0.989820	0.506110	0.787020
N451	N45	0.831530	0.087860	0.881910
N461	N46	0.923920	0.190220	0.857360
N471	N47	0.900840	0.416410	0.800970
N481	N48	0.908640	0.515610	0.771560
O121	O12	0.885490	0.251770	0.814760
S231	S23	0.992790	0.150330	0.843610
S241	S24	0.790280	0.348300	0.793180
C2651	C265	0.783630	0.036880	0.889510
H1991	H199	0.750830	0.037840	0.898810
C2661	C266	0.779430	0.982070	0.884410
H2001	H200	0.743830	0.946470	0.889460
C2671	C267	0.826630	0.979870	0.872130
H2011	H201	0.824930	0.942970	0.868850
C2681	C268	0.877230	0.032570	0.864520
H2021	H202	0.911230	0.032370	0.856330
C2691	C269	0.877830	0.085220	0.868960
C2701	C270	0.927320	0.141640	0.858030
C2711	C271	0.016030	0.222070	0.836260
H2031	H203	0.053430	0.248970	0.827100
C2721	C272	0.974580	0.237020	0.845100
C2731	C273	0.979060	0.295310	0.842360
C2741	C274	0.934120	0.300530	0.827640
C2751	C275	0.936110	0.354950	0.827190
C2761	C276	0.984600	0.403900	0.841620
H2041	H204	0.985980	0.441040	0.841650
C2771	C277	0.030020	0.399800	0.855680
C2781	C278	0.026630	0.345040	0.855530
H2051	H205	0.058050	0.341520	0.864790
C2791	C279	0.080730	0.452770	0.871320
H2061	H206	0.087730	0.488870	0.860170
H2071	H207	0.071030	0.454770	0.893770
H2081	H208	0.116430	0.449370	0.870170
C2801	C280	0.898030	0.230870	0.785880
H2091	H209	0.930630	0.264070	0.774570
H2101	H210	0.909330	0.201170	0.791020
H2111	H211	0.862630	0.212870	0.772270
C2811	C281	0.888220	0.361950	0.812280
C2821	C282	0.830100	0.320420	0.809900
H2121	H212	0.813780	0.280510	0.816790
C2831	C283	0.853830	0.415980	0.789950
C2841	C284	0.855140	0.469010	0.776820
C2851	C285	0.802890	0.469260	0.770400
H2131	H213	0.765400	0.434730	0.773650
C2861	C286	0.806970	0.521270	0.759120
H2141	H214	0.772160	0.523170	0.754590
C2871	C287	0.862120	0.570240	0.754600
H2151	H215	0.866080	0.606650	0.747390
C2881	C288	0.911600	0.565350	0.760750
H2161	H216	0.949600	0.598960	0.757120
Ag131	Ag13	0.182960	0.343510	0.120360
N491	N49	0.922990	0.501800	0.215240
N501	N50	0.932960	0.409410	0.190690
N511	N51	0.182230	0.432490	0.134300
N521	N52	0.273630	0.424690	0.104890
O131	O13	0.032940	0.447840	0.148090
S251	S25	0.824200	0.340540	0.176940
S261	S26	0.224680	0.543050	0.126510
C2891	C289	0.919910	0.549700	0.222840
H2171	H217	0.953670	0.582500	0.232140
C2901	C290	0.869300	0.553900	0.217740
H2181	H218	0.869300	0.589500	0.222790
C2911	C291	0.819900	0.506700	0.205460
H2191	H219	0.784700	0.508400	0.202180
C2921	C292	0.822000	0.456100	0.197850
H2201	H220	0.787800	0.422100	0.189660
C2931	C293	0.874050	0.455500	0.202290
C2941	C294	0.880980	0.406010	0.191360
C2951	C295	0.872700	0.317300	0.169590
H2211	H221	0.862200	0.279900	0.160430
C2961	C296	0.929100	0.358750	0.178430
C2971	C297	0.982910	0.354270	0.175690
C2981	C298	0.033070	0.399210	0.160970
C2991	C299	0.085500	0.397220	0.160520
C3001	C300	0.085960	0.348730	0.174950
H2221	H222	0.121720	0.347350	0.174980
C3011	C301	0.036440	0.303310	0.189010
C3021	C302	0.985070	0.306700	0.188860
H2231	H223	0.950130	0.275280	0.198120
C3031	C303	0.038700	0.252600	0.204650
H2241	H224	0.067800	0.245600	0.193500
H2251	H225	0.050400	0.262300	0.227100
H2261	H226	0.999600	0.216900	0.203500
C3041	C304	0.999500	0.435300	0.119210
H2271	H227	0.000100	0.402700	0.107900
H2281	H228	0.958500	0.424000	0.124350
H2291	H229	0.016900	0.470700	0.105600
C3051	C305	0.140390	0.445110	0.145610
C3061	C306	0.156980	0.503230	0.143230
H2301	H230	0.133390	0.519550	0.150120
C3071	C307	0.228810	0.479500	0.123280
C3081	C308	0.280530	0.478190	0.110150
C3091	C309	0.333030	0.530440	0.103730
H2311	H231	0.335990	0.567930	0.106980
C3101	C310	0.380960	0.526360	0.092450
H2321	H232	0.417670	0.561170	0.087920
C3111	C311	0.374780	0.471210	0.087930
H2331	H233	0.407230	0.467250	0.080720
C3121	C312	0.320410	0.421730	0.094080
H2341	H234	0.316020	0.383730	0.090450
Ag141	Ag14	0.849630	0.676850	0.453690
N531	N53	0.589660	0.835130	0.548570
N541	N54	0.599630	0.742740	0.524020
N551	N55	0.848900	0.765820	0.467630
N561	N56	0.940300	0.758020	0.438220
O141	O14	0.699610	0.781170	0.481420
S271	S27	0.490870	0.673870	0.510270
S281	S28	0.891350	0.876380	0.459840
C3131	C313	0.586580	0.883030	0.556170
H2351	H235	0.620340	0.915830	0.565470
C3141	C314	0.535970	0.887230	0.551070
H2361	H236	0.535970	0.922830	0.556120
C3151	C315	0.486570	0.840030	0.538790
H2371	H237	0.451370	0.841730	0.535510
C3161	C316	0.488670	0.789430	0.531180
H2381	H238	0.454470	0.755430	0.522990
C3171	C317	0.540720	0.788830	0.535620
C3181	C318	0.547650	0.739340	0.524690
C3191	C319	0.539370	0.650630	0.502920
H2391	H239	0.528870	0.613230	0.493760
C3201	C320	0.595770	0.692080	0.511760
C3211	C321	0.649580	0.687600	0.509020
C3221	C322	0.699740	0.732540	0.494300
C3231	C323	0.752170	0.730550	0.493850
C3241	C324	0.752630	0.682060	0.508280
H2401	H240	0.788390	0.680680	0.508310
C3251	C325	0.703110	0.636640	0.522340
C3261	C326	0.651740	0.640030	0.522190
H2411	H241	0.616800	0.608610	0.531450
C3271	C327	0.705370	0.585930	0.537980
H2421	H242	0.734470	0.578930	0.526830
H2431	H243	0.717070	0.595630	0.560430
H2441	H244	0.666270	0.550230	0.536830
C3281	C328	0.666170	0.768630	0.452540
H2451	H245	0.666770	0.736030	0.441230
H2461	H246	0.625170	0.757330	0.457680
H2471	H247	0.683570	0.804030	0.438930
C3291	C329	0.807060	0.778440	0.478940
C3301	C330	0.823650	0.836560	0.476560
H2481	H248	0.800060	0.852880	0.483450
C3311	C331	0.895480	0.812830	0.456610
C3321	C332	0.947200	0.811520	0.443480
C3331	C333	0.999700	0.863770	0.437060
H2491	H249	0.002660	0.901260	0.440310
C3341	C334	0.047630	0.859690	0.425780
H2501	H250	0.084340	0.894500	0.421250
C3351	C335	0.041450	0.804540	0.421260
H2511	H251	0.073900	0.800580	0.414050
C3361	C336	0.987080	0.755060	0.427410
H2521	H252	0.982690	0.717060	0.423780
Ag151	Ag15	0.516290	0.010180	0.787020
N571	N57	0.256320	0.168470	0.881910
N581	N58	0.266290	0.076080	0.857360
N591	N59	0.515560	0.099160	0.800970
N601	N60	0.606960	0.091360	0.771560
O151	O15	0.366270	0.114510	0.814760
S291	S29	0.157530	0.007210	0.843610
S301	S30	0.558010	0.209720	0.793180
C3371	C337	0.253240	0.216370	0.889510
H2531	H253	0.287000	0.249170	0.898810
C3381	C338	0.202630	0.220570	0.884410
H2541	H254	0.202630	0.256170	0.889460
C3391	C339	0.153230	0.173370	0.872130
H2551	H255	0.118030	0.175070	0.868850
C3401	C340	0.155330	0.122770	0.864520
H2561	H256	0.121130	0.088770	0.856330
C3411	C341	0.207380	0.122170	0.868960
C3421	C342	0.214310	0.072680	0.858030
C3431	C343	0.206030	0.983970	0.836260
H2571	H257	0.195530	0.946570	0.827100
C3441	C344	0.262430	0.025420	0.845100
C3451	C345	0.316240	0.020940	0.842360
C3461	C346	0.366400	0.065880	0.827640
C3471	C347	0.418830	0.063890	0.827190
C3481	C348	0.419290	0.015400	0.841620
H2581	H258	0.455050	0.014020	0.841650
C3491	C349	0.369770	0.969980	0.855680
C3501	C350	0.318400	0.973370	0.855530
H2591	H259	0.283460	0.941950	0.864790
C3511	C351	0.372030	0.919270	0.871320
H2601	H260	0.401130	0.912270	0.860170
H2611	H261	0.383730	0.928970	0.893770
H2621	H262	0.332930	0.883570	0.870170
C3521	C352	0.332830	0.101970	0.785880
H2631	H263	0.333430	0.069370	0.774570
H2641	H264	0.291830	0.090670	0.791020
H2651	H265	0.350230	0.137370	0.772270
C3531	C353	0.473720	0.111780	0.812280
C3541	C354	0.490310	0.169900	0.809900
H2661	H266	0.466720	0.186220	0.816790
C3551	C355	0.562140	0.146170	0.789950
C3561	C356	0.613860	0.144860	0.776820
C3571	C357	0.666360	0.197110	0.770400
H2671	H267	0.669320	0.234600	0.773650
C3581	C358	0.714290	0.193030	0.759120
H2681	H268	0.751000	0.227840	0.754590
C3591	C359	0.708110	0.137880	0.754600
H2691	H269	0.740560	0.133920	0.747390
C3601	C360	0.653740	0.088400	0.760750
H2701	H270	0.649350	0.050400	0.757120
Ag161	Ag16	0.160550	0.817040	0.120360
N611	N61	0.578810	0.077010	0.215240
N621	N62	0.476450	0.067040	0.190690
N631	N63	0.250260	0.817770	0.134300
N641	N64	0.151060	0.726370	0.104890
O161	O16	0.414900	0.967060	0.148090
S311	S31	0.516340	0.175800	0.176940
S321	S32	0.318370	0.775320	0.126510
C3611	C361	0.629790	0.080090	0.222840
H2711	H271	0.628830	0.046330	0.232140
C3621	C362	0.684600	0.130700	0.217740
H2721	H272	0.720200	0.130700	0.222790
C3631	C363	0.686800	0.180100	0.205460
H2731	H273	0.723700	0.215300	0.202180
C3641	C364	0.634100	0.178000	0.197850
H2741	H274	0.634300	0.212200	0.189660
C3651	C365	0.581450	0.125950	0.202290
C3661	C366	0.525030	0.119020	0.191360
C3671	C367	0.444600	0.127300	0.169590
H2751	H275	0.417700	0.137800	0.160430
C3681	C368	0.429650	0.070900	0.178430
C3691	C369	0.371360	0.017090	0.175690
C3701	C370	0.366140	0.966930	0.160970
C3711	C371	0.311720	0.914500	0.160520
C3721	C372	0.262770	0.914040	0.174950
H2761	H276	0.225630	0.878280	0.174980
C3731	C373	0.266870	0.963560	0.189010
C3741	C374	0.321630	0.014930	0.188860
H2771	H277	0.325150	0.049870	0.198120
C3751	C375	0.213900	0.961300	0.204650
H2781	H278	0.177800	0.932200	0.193500
H2791	H279	0.211900	0.949600	0.227100
H2801	H280	0.217300	0.000400	0.203500
C3761	C376	0.435800	0.000500	0.119210
H2811	H281	0.402600	0.999900	0.107900
H2821	H282	0.465500	0.041500	0.124350
H2831	H283	0.453800	0.983100	0.105600
C3771	C377	0.304720	0.859610	0.145610
C3781	C378	0.346250	0.843020	0.143230
H2841	H284	0.386160	0.866610	0.150120
C3791	C379	0.250690	0.771190	0.123280
C3801	C380	0.197660	0.719470	0.110150
C3811	C381	0.197410	0.666970	0.103730
H2851	H285	0.231940	0.664010	0.106980
C3821	C382	0.145400	0.619040	0.092450
H2861	H286	0.143500	0.582330	0.087920
C3831	C383	0.096430	0.625220	0.087930
H2871	H287	0.060020	0.592770	0.080720
C3841	C384	0.101320	0.679590	0.094080
H2881	H288	0.067710	0.683980	0.090450
Ag171	Ag17	0.827220	0.150370	0.453690
N651	N65	0.245480	0.410340	0.548570
N661	N66	0.143120	0.400370	0.524020
N671	N67	0.916930	0.151100	0.467630
N681	N68	0.817730	0.059700	0.438220
O171	O17	0.081570	0.300390	0.481420
S331	S33	0.183010	0.509130	0.510270
S341	S34	0.985040	0.108650	0.459840
C3851	C385	0.296460	0.413420	0.556170
H2891	H289	0.295500	0.379660	0.565470
C3861	C386	0.351270	0.464030	0.551070
H2901	H290	0.386870	0.464030	0.556120
C3871	C387	0.353470	0.513430	0.538790
H2911	H291	0.390370	0.548630	0.535510
C3881	C388	0.300770	0.511330	0.531180
H2921	H292	0.300970	0.545530	0.522990
C3891	C389	0.248120	0.459280	0.535620
C3901	C390	0.191700	0.452350	0.524690
C3911	C391	0.111270	0.460630	0.502920
H2931	H293	0.084370	0.471130	0.493760
C3921	C392	0.096320	0.404230	0.511760
C3931	C393	0.038030	0.350420	0.509020
C3941	C394	0.032810	0.300260	0.494300
C3951	C395	0.978390	0.247830	0.493850
C3961	C396	0.929440	0.247370	0.508280
H2941	H294	0.892300	0.211610	0.508310
C3971	C397	0.933540	0.296890	0.522340
C3981	C398	0.988300	0.348260	0.522190
H2951	H295	0.991820	0.383200	0.531450
C3991	C399	0.880570	0.294630	0.537980
H2961	H296	0.844470	0.265530	0.526830
H2971	H297	0.878570	0.282930	0.560430
H2981	H298	0.883970	0.333730	0.536830
C4001	C400	0.102470	0.333830	0.452540
H2991	H299	0.069270	0.333230	0.441230
H3001	H300	0.132170	0.374830	0.457680
H3011	H301	0.120470	0.316430	0.438930
C4011	C401	0.971390	0.192940	0.478940
C4021	C402	0.012920	0.176350	0.476560
H3021	H302	0.052830	0.199940	0.483450
C4031	C403	0.917360	0.104520	0.456610
C4041	C404	0.864330	0.052800	0.443480
C4051	C405	0.864080	0.000300	0.437060
H3031	H303	0.898610	0.997340	0.440310
C4061	C406	0.812070	0.952370	0.425780
H3041	H304	0.810170	0.915660	0.421250
C4071	C407	0.763100	0.958550	0.421260
H3051	H305	0.726690	0.926100	0.414050
C4081	C408	0.767990	0.012920	0.427410
H3061	H306	0.734380	0.017310	0.423780
Ag181	Ag18	0.493890	0.483710	0.787020
N691	N69	0.912140	0.743680	0.881910
N701	N70	0.809780	0.733710	0.857360
N711	N71	0.583590	0.484440	0.800970
N721	N72	0.484390	0.393040	0.771560
O181	O18	0.748230	0.633730	0.814760
S351	S35	0.849670	0.842470	0.843610
S361	S36	0.651700	0.441990	0.793180
C4091	C409	0.963120	0.746760	0.889510
H3071	H307	0.962160	0.713000	0.898810
C4101	C410	0.017930	0.797370	0.884410
H3081	H308	0.053530	0.797370	0.889460
C4111	C411	0.020130	0.846770	0.872130
H3091	H309	0.057030	0.881970	0.868850
C4121	C412	0.967430	0.844670	0.864520
H3101	H310	0.967630	0.878870	0.856330
C4131	C413	0.914780	0.792620	0.868960
C4141	C414	0.858360	0.785690	0.858030
C4151	C415	0.777930	0.793970	0.836260
H3111	H311	0.751030	0.804470	0.827100
C4161	C416	0.762980	0.737570	0.845100
C4171	C417	0.704690	0.683760	0.842360
C4181	C418	0.699470	0.633600	0.827640
C4191	C419	0.645050	0.581170	0.827190
C4201	C420	0.596100	0.580710	0.841620
H3121	H312	0.558960	0.544950	0.841650
C4211	C421	0.600200	0.630230	0.855680
C4221	C422	0.654960	0.681600	0.855530
H3131	H313	0.658480	0.716540	0.864790
C4231	C423	0.547230	0.627970	0.871320
H3141	H314	0.511130	0.598870	0.860170
H3151	H315	0.545230	0.616270	0.893770
H3161	H316	0.550630	0.667070	0.870170
C4241	C424	0.769130	0.667170	0.785880
H3171	H317	0.735930	0.666570	0.774570
H3181	H318	0.798830	0.708170	0.791020
H3191	H319	0.787130	0.649770	0.772270
C4251	C425	0.638050	0.526280	0.812280
C4261	C426	0.679580	0.509690	0.809900
H3201	H320	0.719490	0.533280	0.816790
C4271	C427	0.584020	0.437860	0.789950
C4281	C428	0.530990	0.386140	0.776820
C4291	C429	0.530740	0.333640	0.770400
H3211	H321	0.565270	0.330680	0.773650
C4301	C430	0.478730	0.285710	0.759120
H3221	H322	0.476830	0.249000	0.754590
C4311	C431	0.429760	0.291890	0.754600
H3231	H323	0.393350	0.259440	0.747390
C4321	C432	0.434650	0.346260	0.760750
H3241	H324	0.401040	0.350650	0.757120
Ag191	Ag19	0.160550	0.343510	0.620360
N731	N73	0.578810	0.501800	0.715240
N741	N74	0.476450	0.409410	0.690690
N751	N75	0.250260	0.432490	0.634300
N761	N76	0.151060	0.424690	0.604890
O191	O19	0.414900	0.447840	0.648090
S371	S37	0.516340	0.340540	0.676940
S381	S38	0.318370	0.543050	0.626510
C4331	C433	0.629790	0.549700	0.722840
H3251	H325	0.628830	0.582500	0.732140
C4341	C434	0.684600	0.553900	0.717740
H3261	H326	0.720200	0.589500	0.722790
C4351	C435	0.686800	0.506700	0.705460
H3271	H327	0.723700	0.508400	0.702180
C4361	C436	0.634100	0.456100	0.697850
H3281	H328	0.634300	0.422100	0.689660
C4371	C437	0.581450	0.455500	0.702290
C4381	C438	0.525030	0.406010	0.691360
C4391	C439	0.444600	0.317300	0.669590
H3291	H329	0.417700	0.279900	0.660430
C4401	C440	0.429650	0.358750	0.678430
C4411	C441	0.371360	0.354270	0.675690
C4421	C442	0.366140	0.399210	0.660970
C4431	C443	0.311720	0.397220	0.660520
C4441	C444	0.262770	0.348730	0.674950
H3301	H330	0.225630	0.347350	0.674980
C4451	C445	0.266870	0.303310	0.689010
C4461	C446	0.321630	0.306700	0.688860
H3311	H331	0.325150	0.275280	0.698120
C4471	C447	0.213900	0.252600	0.704650
H3321	H332	0.177800	0.245600	0.693500
H3331	H333	0.211900	0.262300	0.727100
H3341	H334	0.217300	0.216900	0.703500
C4481	C448	0.435800	0.435300	0.619210
H3351	H335	0.402600	0.402700	0.607900
H3361	H336	0.465500	0.424000	0.624350
H3371	H337	0.453800	0.470700	0.605600
C4491	C449	0.304720	0.445110	0.645610
C4501	C450	0.346250	0.503230	0.643230
H3381	H338	0.386160	0.519550	0.650120
C4511	C451	0.250690	0.479500	0.623280
C4521	C452	0.197660	0.478190	0.610150
C4531	C453	0.197410	0.530440	0.603730
H3391	H339	0.231940	0.567930	0.606980
C4541	C454	0.145400	0.526360	0.592450
H3401	H340	0.143500	0.561170	0.587920
C4551	C455	0.096430	0.471210	0.587930
H3411	H341	0.060020	0.467250	0.580720
C4561	C456	0.101320	0.421730	0.594080
H3421	H342	0.067710	0.383730	0.590450
Ag201	Ag20	0.827220	0.676850	0.953690
N771	N77	0.245480	0.835130	0.048570
N781	N78	0.143120	0.742740	0.024020
N791	N79	0.916930	0.765820	0.967630
N801	N80	0.817730	0.758020	0.938220
O201	O20	0.081570	0.781170	0.981420
S391	S39	0.183010	0.673870	0.010270
S401	S40	0.985040	0.876380	0.959840
C4571	C457	0.296460	0.883030	0.056170
H3431	H343	0.295500	0.915830	0.065470
C4581	C458	0.351270	0.887230	0.051070
H3441	H344	0.386870	0.922830	0.056120
C4591	C459	0.353470	0.840030	0.038790
H3451	H345	0.390370	0.841730	0.035510
C4601	C460	0.300770	0.789430	0.031180
H3461	H346	0.300970	0.755430	0.022990
C4611	C461	0.248120	0.788830	0.035620
C4621	C462	0.191700	0.739340	0.024690
C4631	C463	0.111270	0.650630	0.002920
H3471	H347	0.084370	0.613230	0.993760
C4641	C464	0.096320	0.692080	0.011760
C4651	C465	0.038030	0.687600	0.009020
C4661	C466	0.032810	0.732540	0.994300
C4671	C467	0.978390	0.730550	0.993850
C4681	C468	0.929440	0.682060	0.008280
H3481	H348	0.892300	0.680680	0.008310
C4691	C469	0.933540	0.636640	0.022340
C4701	C470	0.988300	0.640030	0.022190
H3491	H349	0.991820	0.608610	0.031450
C4711	C471	0.880570	0.585930	0.037980
H3501	H350	0.844470	0.578930	0.026830
H3511	H351	0.878570	0.595630	0.060430
H3521	H352	0.883970	0.550230	0.036830
C4721	C472	0.102470	0.768630	0.952540
H3531	H353	0.069270	0.736030	0.941230
H3541	H354	0.132170	0.757330	0.957680
H3551	H355	0.120470	0.804030	0.938930
C4731	C473	0.971390	0.778440	0.978940
C4741	C474	0.012920	0.836560	0.976560
H3561	H356	0.052830	0.852880	0.983450
C4751	C475	0.917360	0.812830	0.956610
C4761	C476	0.864330	0.811520	0.943480
C4771	C477	0.864080	0.863770	0.937060
H3571	H357	0.898610	0.901260	0.940310
C4781	C478	0.812070	0.859690	0.925780
H3581	H358	0.810170	0.894500	0.921250
C4791	C479	0.763100	0.804540	0.921260
H3591	H359	0.726690	0.800580	0.914050
C4801	C480	0.767990	0.755060	0.927410
H3601	H360	0.734380	0.717060	0.923780
Ag211	Ag21	0.493890	0.010180	0.287020
N811	N81	0.912140	0.168470	0.381910
N821	N82	0.809780	0.076080	0.357360
N831	N83	0.583590	0.099160	0.300970
N841	N84	0.484390	0.091360	0.271560
O211	O21	0.748230	0.114510	0.314760
S411	S41	0.849670	0.007210	0.343610
S421	S42	0.651700	0.209720	0.293180
C4811	C481	0.963120	0.216370	0.389510
H3611	H361	0.962160	0.249170	0.398810
C4821	C482	0.017930	0.220570	0.384410
H3621	H362	0.053530	0.256170	0.389460
C4831	C483	0.020130	0.173370	0.372130
H3631	H363	0.057030	0.175070	0.368850
C4841	C484	0.967430	0.122770	0.364520
H3641	H364	0.967630	0.088770	0.356330
C4851	C485	0.914780	0.122170	0.368960
C4861	C486	0.858360	0.072680	0.358030
C4871	C487	0.777930	0.983970	0.336260
H3651	H365	0.751030	0.946570	0.327100
C4881	C488	0.762980	0.025420	0.345100
C4891	C489	0.704690	0.020940	0.342360
C4901	C490	0.699470	0.065880	0.327640
C4911	C491	0.645050	0.063890	0.327190
C4921	C492	0.596100	0.015400	0.341620
H3661	H366	0.558960	0.014020	0.341650
C4931	C493	0.600200	0.969980	0.355680
C4941	C494	0.654960	0.973370	0.355530
H3671	H367	0.658480	0.941950	0.364790
C4951	C495	0.547230	0.919270	0.371320
H3681	H368	0.511130	0.912270	0.360170
H3691	H369	0.545230	0.928970	0.393770
H3701	H370	0.550630	0.883570	0.370170
C4961	C496	0.769130	0.101970	0.285880
H3711	H371	0.735930	0.069370	0.274570
H3721	H372	0.798830	0.090670	0.291020
H3731	H373	0.787130	0.137370	0.272270
C4971	C497	0.638050	0.111780	0.312280
C4981	C498	0.679580	0.169900	0.309900
H3741	H374	0.719490	0.186220	0.316790
C4991	C499	0.584020	0.146170	0.289950
C5001	C500	0.530990	0.144860	0.276820
C5011	C501	0.530740	0.197110	0.270400
H3751	H375	0.565270	0.234600	0.273650
C5021	C502	0.478730	0.193030	0.259120
H3761	H376	0.476830	0.227840	0.254590
C5031	C503	0.429760	0.137880	0.254600
H3771	H377	0.393350	0.133920	0.247390
C5041	C504	0.434650	0.088400	0.260750
H3781	H378	0.401040	0.050400	0.257120
Ag221	Ag22	0.656490	0.817040	0.620360
N851	N85	0.498200	0.077010	0.715240
N861	N86	0.590590	0.067040	0.690690
N871	N87	0.567510	0.817770	0.634300
N881	N88	0.575310	0.726370	0.604890
O221	O22	0.552160	0.967060	0.648090
S431	S43	0.659460	0.175800	0.676940
S441	S44	0.456950	0.775320	0.626510
C5051	C505	0.450300	0.080090	0.722840
H3791	H379	0.417500	0.046330	0.732140
C5061	C506	0.446100	0.130700	0.717740
H3801	H380	0.410500	0.130700	0.722790
C5071	C507	0.493300	0.180100	0.705460
H3811	H381	0.491600	0.215300	0.702180
C5081	C508	0.543900	0.178000	0.697850
H3821	H382	0.577900	0.212200	0.689660
C5091	C509	0.544500	0.125950	0.702290
C5101	C510	0.593990	0.119020	0.691360
C5111	C511	0.682700	0.127300	0.669590
H3831	H383	0.720100	0.137800	0.660430
C5121	C512	0.641250	0.070900	0.678430
C5131	C513	0.645730	0.017090	0.675690
C5141	C514	0.600790	0.966930	0.660970
C5151	C515	0.602780	0.914500	0.660520
C5161	C516	0.651270	0.914040	0.674950
H3841	H384	0.652650	0.878280	0.674980
C5171	C517	0.696690	0.963560	0.689010
C5181	C518	0.693300	0.014930	0.688860
H3851	H385	0.724720	0.049870	0.698120
C5191	C519	0.747400	0.961300	0.704650
H3861	H386	0.754400	0.932200	0.693500
H3871	H387	0.737700	0.949600	0.727100
H3881	H388	0.783100	0.000400	0.703500
C5201	C520	0.564700	0.000500	0.619210
H3891	H389	0.597300	0.999900	0.607900
H3901	H390	0.576000	0.041500	0.624350
H3911	H391	0.529300	0.983100	0.605600
C5211	C521	0.554890	0.859610	0.645610
C5221	C522	0.496770	0.843020	0.643230
H3921	H392	0.480450	0.866610	0.650120
C5231	C523	0.520500	0.771190	0.623280
C5241	C524	0.521810	0.719470	0.610150
C5251	C525	0.469560	0.666970	0.603730
H3931	H393	0.432070	0.664010	0.606980
C5261	C526	0.473640	0.619040	0.592450
H3941	H394	0.438830	0.582330	0.587920
C5271	C527	0.528790	0.625220	0.587930
H3951	H395	0.532750	0.592770	0.580720
C5281	C528	0.578270	0.679590	0.594080
H3961	H396	0.616270	0.683980	0.590450
Ag231	Ag23	0.323150	0.150370	0.953690
N891	N89	0.164870	0.410340	0.048570
N901	N90	0.257260	0.400370	0.024020
N911	N91	0.234180	0.151100	0.967630
N921	N92	0.241980	0.059700	0.938220
O231	O23	0.218830	0.300390	0.981420
S451	S45	0.326130	0.509130	0.010270
S461	S46	0.123620	0.108650	0.959840
C5291	C529	0.116970	0.413420	0.056170
H3971	H397	0.084170	0.379660	0.065470
C5301	C530	0.112770	0.464030	0.051070
H3981	H398	0.077170	0.464030	0.056120
C5311	C531	0.159970	0.513430	0.038790
H3991	H399	0.158270	0.548630	0.035510
C5321	C532	0.210570	0.511330	0.031180
H4001	H400	0.244570	0.545530	0.022990
C5331	C533	0.211170	0.459280	0.035620
C5341	C534	0.260660	0.452350	0.024690
C5351	C535	0.349370	0.460630	0.002920
H4011	H401	0.386770	0.471130	0.993760
C5361	C536	0.307920	0.404230	0.011760
C5371	C537	0.312400	0.350420	0.009020
C5381	C538	0.267460	0.300260	0.994300
C5391	C539	0.269450	0.247830	0.993850
C5401	C540	0.317940	0.247370	0.008280
H4021	H402	0.319320	0.211610	0.008310
C5411	C541	0.363360	0.296890	0.022340
C5421	C542	0.359970	0.348260	0.022190
H4031	H403	0.391390	0.383200	0.031450
C5431	C543	0.414070	0.294630	0.037980
H4041	H404	0.421070	0.265530	0.026830
H4051	H405	0.404370	0.282930	0.060430
H4061	H406	0.449770	0.333730	0.036830
C5441	C544	0.231370	0.333830	0.952540
H4071	H407	0.263970	0.333230	0.941230
H4081	H408	0.242670	0.374830	0.957680
H4091	H409	0.195970	0.316430	0.938930
C5451	C545	0.221560	0.192940	0.978940
C5461	C546	0.163440	0.176350	0.976560
H4101	H410	0.147120	0.199940	0.983450
C5471	C547	0.187170	0.104520	0.956610
C5481	C548	0.188480	0.052800	0.943480
C5491	C549	0.136230	0.000300	0.937060
H4111	H411	0.098740	0.997340	0.940310
C5501	C550	0.140310	0.952370	0.925780
H4121	H412	0.105500	0.915660	0.921250
C5511	C551	0.195460	0.958550	0.921260
H4131	H413	0.199420	0.926100	0.914050
C5521	C552	0.244940	0.012920	0.927410
H4141	H414	0.282940	0.017310	0.923780
Ag241	Ag24	0.989820	0.483710	0.287020
N931	N93	0.831530	0.743680	0.381910
N941	N94	0.923920	0.733710	0.357360
N951	N95	0.900840	0.484440	0.300970
N961	N96	0.908640	0.393040	0.271560
O241	O24	0.885490	0.633730	0.314760
S471	S47	0.992790	0.842470	0.343610
S481	S48	0.790280	0.441990	0.293180
C5531	C553	0.783630	0.746760	0.389510
H4151	H415	0.750830	0.713000	0.398810
C5541	C554	0.779430	0.797370	0.384410
H4161	H416	0.743830	0.797370	0.389460
C5551	C555	0.826630	0.846770	0.372130
H4171	H417	0.824930	0.881970	0.368850
C5561	C556	0.877230	0.844670	0.364520
H4181	H418	0.911230	0.878870	0.356330
C5571	C557	0.877830	0.792620	0.368960
C5581	C558	0.927320	0.785690	0.358030
C5591	C559	0.016030	0.793970	0.336260
H4191	H419	0.053430	0.804470	0.327100
C5601	C560	0.974580	0.737570	0.345100
C5611	C561	0.979060	0.683760	0.342360
C5621	C562	0.934120	0.633600	0.327640
C5631	C563	0.936110	0.581170	0.327190
C5641	C564	0.984600	0.580710	0.341620
H4201	H420	0.985980	0.544950	0.341650
C5651	C565	0.030020	0.630230	0.355680
C5661	C566	0.026630	0.681600	0.355530
H4211	H421	0.058050	0.716540	0.364790
C5671	C567	0.080730	0.627970	0.371320
H4221	H422	0.087730	0.598870	0.360170
H4231	H423	0.071030	0.616270	0.393770
H4241	H424	0.116430	0.667070	0.370170
C5681	C568	0.898030	0.667170	0.285880
H4251	H425	0.930630	0.666570	0.274570
H4261	H426	0.909330	0.708170	0.291020
H4271	H427	0.862630	0.649770	0.272270
C5691	C569	0.888220	0.526280	0.312280
C5701	C570	0.830100	0.509690	0.309900
H4281	H428	0.813780	0.533280	0.316790
C5711	C571	0.853830	0.437860	0.289950
C5721	C572	0.855140	0.386140	0.276820
C5731	C573	0.802890	0.333640	0.270400
H4291	H429	0.765400	0.330680	0.273650
C5741	C574	0.806970	0.285710	0.259120
H4301	H430	0.772160	0.249000	0.254590
C5751	C575	0.862120	0.291890	0.254600
H4311	H431	0.866080	0.259440	0.247390
C5761	C576	0.911600	0.346260	0.260750
H4321	H432	0.949600	0.350650	0.257120
Ag251	Ag25	0.182960	0.839450	0.620360
N971	N97	0.922990	0.421190	0.715240
N981	N98	0.932960	0.523550	0.690690
N991	N99	0.182230	0.749740	0.634300
N1001	N100	0.273630	0.848940	0.604890
O251	O25	0.032940	0.585100	0.648090
S491	S49	0.824200	0.483660	0.676940
S501	S50	0.224680	0.681630	0.626510
C5771	C577	0.919910	0.370210	0.722840
H4331	H433	0.953670	0.371170	0.732140
C5781	C578	0.869300	0.315400	0.717740
H4341	H434	0.869300	0.279800	0.722790
C5791	C579	0.819900	0.313200	0.705460
H4351	H435	0.784700	0.276300	0.702180
C5801	C580	0.822000	0.365900	0.697850
H4361	H436	0.787800	0.365700	0.689660
C5811	C581	0.874050	0.418550	0.702290
C5821	C582	0.880980	0.474970	0.691360
C5831	C583	0.872700	0.555400	0.669590
H4371	H437	0.862200	0.582300	0.660430
C5841	C584	0.929100	0.570350	0.678430
C5851	C585	0.982910	0.628640	0.675690
C5861	C586	0.033070	0.633860	0.660970
C5871	C587	0.085500	0.688280	0.660520
C5881	C588	0.085960	0.737230	0.674950
H4381	H438	0.121720	0.774370	0.674980
C5891	C589	0.036440	0.733130	0.689010
C5901	C590	0.985070	0.678370	0.688860
H4391	H439	0.950130	0.674850	0.698120
C5911	C591	0.038700	0.786100	0.704650
H4401	H440	0.067800	0.822200	0.693500
H4411	H441	0.050400	0.788100	0.727100
H4421	H442	0.999600	0.782700	0.703500
C5921	C592	0.999500	0.564200	0.619210
H4431	H443	0.000100	0.597400	0.607900
H4441	H444	0.958500	0.534500	0.624350
H4451	H445	0.016900	0.546200	0.605600
C5931	C593	0.140390	0.695280	0.645610
C5941	C594	0.156980	0.653750	0.643230
H4461	H446	0.133390	0.613840	0.650120
C5951	C595	0.228810	0.749310	0.623280
C5961	C596	0.280530	0.802340	0.610150
C5971	C597	0.333030	0.802590	0.603730
H4471	H447	0.335990	0.768060	0.606980
C5981	C598	0.380960	0.854600	0.592450
H4481	H448	0.417670	0.856500	0.587920
C5991	C599	0.374780	0.903570	0.587930
H4491	H449	0.407230	0.939980	0.580720
C6001	C600	0.320410	0.898680	0.594080
H4501	H450	0.316020	0.932290	0.590450
Ag261	Ag26	0.849630	0.172780	0.953690
N1011	N101	0.589660	0.754520	0.048570
N1021	N102	0.599630	0.856880	0.024020
N1031	N103	0.848900	0.083070	0.967630
N1041	N104	0.940300	0.182270	0.938220
O261	O26	0.699610	0.918430	0.981420
S511	S51	0.490870	0.816990	0.010270
S521	S52	0.891350	0.014960	0.959840
C6011	C601	0.586580	0.703540	0.056170
H4511	H451	0.620340	0.704500	0.065470
C6021	C602	0.535970	0.648730	0.051070
H4521	H452	0.535970	0.613130	0.056120
C6031	C603	0.486570	0.646530	0.038790
H4531	H453	0.451370	0.609630	0.035510
C6041	C604	0.488670	0.699230	0.031180
H4541	H454	0.454470	0.699030	0.022990
C6051	C605	0.540720	0.751880	0.035620
C6061	C606	0.547650	0.808300	0.024690
C6071	C607	0.539370	0.888730	0.002920
H4551	H455	0.528870	0.915630	0.993760
C6081	C608	0.595770	0.903680	0.011760
C6091	C609	0.649580	0.961970	0.009020
C6101	C610	0.699740	0.967190	0.994300
C6111	C611	0.752170	0.021610	0.993850
C6121	C612	0.752630	0.070560	0.008280
H4561	H456	0.788390	0.107700	0.008310
C6131	C613	0.703110	0.066460	0.022340
C6141	C614	0.651740	0.011700	0.022190
H4571	H457	0.616800	0.008180	0.031450
C6151	C615	0.705370	0.119430	0.037980
H4581	H458	0.734470	0.155530	0.026830
H4591	H459	0.717070	0.121430	0.060430
H4601	H460	0.666270	0.116030	0.036830
C6161	C616	0.666170	0.897530	0.952540
H4611	H461	0.666770	0.930730	0.941230
H4621	H462	0.625170	0.867830	0.957680
H4631	H463	0.683570	0.879530	0.938930
C6171	C617	0.807060	0.028610	0.978940
C6181	C618	0.823650	0.987080	0.976560
H4641	H464	0.800060	0.947170	0.983450
C6191	C619	0.895480	0.082640	0.956610
C6201	C620	0.947200	0.135670	0.943480
C6211	C621	0.999700	0.135920	0.937060
H4651	H465	0.002660	0.101390	0.940310
C6221	C622	0.047630	0.187930	0.925780
H4661	H466	0.084340	0.189830	0.921250
C6231	C623	0.041450	0.236900	0.921260
H4671	H467	0.073900	0.273310	0.914050
C6241	C624	0.987080	0.232010	0.927410
H4681	H468	0.982690	0.265620	0.923780
Ag271	Ag27	0.516290	0.506110	0.287020
N1051	N105	0.256320	0.087860	0.381910
N1061	N106	0.266290	0.190220	0.357360
N1071	N107	0.515560	0.416410	0.300970
N1081	N108	0.606960	0.515610	0.271560
O271	O27	0.366270	0.251770	0.314760
S531	S53	0.157530	0.150330	0.343610
S541	S54	0.558010	0.348300	0.293180
C6251	C625	0.253240	0.036880	0.389510
H4691	H469	0.287000	0.037840	0.398810
C6261	C626	0.202630	0.982070	0.384410
H4701	H470	0.202630	0.946470	0.389460
C6271	C627	0.153230	0.979870	0.372130
H4711	H471	0.118030	0.942970	0.368850
C6281	C628	0.155330	0.032570	0.364520
H4721	H472	0.121130	0.032370	0.356330
C6291	C629	0.207380	0.085220	0.368960
C6301	C630	0.214310	0.141640	0.358030
C6311	C631	0.206030	0.222070	0.336260
H4731	H473	0.195530	0.248970	0.327100
C6321	C632	0.262430	0.237020	0.345100
C6331	C633	0.316240	0.295310	0.342360
C6341	C634	0.366400	0.300530	0.327640
C6351	C635	0.418830	0.354950	0.327190
C6361	C636	0.419290	0.403900	0.341620
H4741	H474	0.455050	0.441040	0.341650
C6371	C637	0.369770	0.399800	0.355680
C6381	C638	0.318400	0.345040	0.355530
H4751	H475	0.283460	0.341520	0.364790
C6391	C639	0.372030	0.452770	0.371320
H4761	H476	0.401130	0.488870	0.360170
H4771	H477	0.383730	0.454770	0.393770
H4781	H478	0.332930	0.449370	0.370170
C6401	C640	0.332830	0.230870	0.285880
H4791	H479	0.333430	0.264070	0.274570
H4801	H480	0.291830	0.201170	0.291020
H4811	H481	0.350230	0.212870	0.272270
C6411	C641	0.473720	0.361950	0.312280
C6421	C642	0.490310	0.320420	0.309900
H4821	H482	0.466720	0.280510	0.316790
C6431	C643	0.562140	0.415980	0.289950
C6441	C644	0.613860	0.469010	0.276820
C6451	C645	0.666360	0.469260	0.270400
H4831	H483	0.669320	0.434730	0.273650
C6461	C646	0.714290	0.521270	0.259120
H4841	H484	0.751000	0.523170	0.254590
C6471	C647	0.708110	0.570240	0.254600
H4851	H485	0.740560	0.606650	0.247390
C6481	C648	0.653740	0.565350	0.260750
H4861	H486	0.649350	0.598960	0.257120
Ag281	Ag28	0.343510	0.160550	0.879640
N1091	N109	0.501800	0.578810	0.784760
N1101	N110	0.409410	0.476450	0.809310
N1111	N111	0.432490	0.250260	0.865700
N1121	N112	0.424690	0.151060	0.895110
O281	O28	0.447840	0.414900	0.851910
S551	S55	0.340540	0.516340	0.823060
S561	S56	0.543050	0.318370	0.873490
C6491	C649	0.549700	0.629790	0.777160
H4871	H487	0.582500	0.628830	0.767860
C6501	C650	0.553900	0.684600	0.782260
H4881	H488	0.589500	0.720200	0.777210
C6511	C651	0.506700	0.686800	0.794540
H4891	H489	0.508400	0.723700	0.797820
C6521	C652	0.456100	0.634100	0.802150
H4901	H490	0.422100	0.634300	0.810340
C6531	C653	0.455500	0.581450	0.797710
C6541	C654	0.406010	0.525030	0.808640
C6551	C655	0.317300	0.444600	0.830410
H4911	H491	0.279900	0.417700	0.839570
C6561	C656	0.358750	0.429650	0.821570
C6571	C657	0.354270	0.371360	0.824310
C6581	C658	0.399210	0.366140	0.839030
C6591	C659	0.397220	0.311720	0.839480
C6601	C660	0.348730	0.262770	0.825050
H4921	H492	0.347350	0.225630	0.825020
C6611	C661	0.303310	0.266870	0.810990
C6621	C662	0.306700	0.321630	0.811140
H4931	H493	0.275280	0.325150	0.801880
C6631	C663	0.252600	0.213900	0.795350
H4941	H494	0.245600	0.177800	0.806500
H4951	H495	0.262300	0.211900	0.772900
H4961	H496	0.216900	0.217300	0.796500
C6641	C664	0.435300	0.435800	0.880790
H4971	H497	0.402700	0.402600	0.892100
H4981	H498	0.424000	0.465500	0.875650
H4991	H499	0.470700	0.453800	0.894400
C6651	C665	0.445110	0.304720	0.854390
C6661	C666	0.503230	0.346250	0.856770
H5001	H500	0.519550	0.386160	0.849880
C6671	C667	0.479500	0.250690	0.876720
C6681	C668	0.478190	0.197660	0.889850
C6691	C669	0.530440	0.197410	0.896270
H5011	H501	0.567930	0.231940	0.893020
C6701	C670	0.526360	0.145400	0.907550
H5021	H502	0.561170	0.143500	0.912080
C6711	C671	0.471210	0.096430	0.912070
H5031	H503	0.467250	0.060020	0.919280
C6721	C672	0.421730	0.101320	0.905920
H5041	H504	0.383730	0.067710	0.909550
Ag291	Ag29	0.010180	0.493890	0.212980
N1131	N113	0.168470	0.912140	0.118090
N1141	N114	0.076080	0.809780	0.142640
N1151	N115	0.099160	0.583590	0.199030
N1161	N116	0.091360	0.484390	0.228440
O291	O29	0.114510	0.748230	0.185240
S571	S57	0.007210	0.849670	0.156390
S581	S58	0.209720	0.651700	0.206820
C6731	C673	0.216370	0.963120	0.110490
H5051	H505	0.249170	0.962160	0.101190
C6741	C674	0.220570	0.017930	0.115590
H5061	H506	0.256170	0.053530	0.110540
C6751	C675	0.173370	0.020130	0.127870
H5071	H507	0.175070	0.057030	0.131150
C6761	C676	0.122770	0.967430	0.135480
H5081	H508	0.088770	0.967630	0.143670
C6771	C677	0.122170	0.914780	0.131040
C6781	C678	0.072680	0.858360	0.141970
C6791	C679	0.983970	0.777930	0.163740
H5091	H509	0.946570	0.751030	0.172900
C6801	C680	0.025420	0.762980	0.154900
C6811	C681	0.020940	0.704690	0.157640
C6821	C682	0.065880	0.699470	0.172360
C6831	C683	0.063890	0.645050	0.172810
C6841	C684	0.015400	0.596100	0.158380
H5101	H510	0.014020	0.558960	0.158350
C6851	C685	0.969980	0.600200	0.144320
C6861	C686	0.973370	0.654960	0.144470
H5111	H511	0.941950	0.658480	0.135210
C6871	C687	0.919270	0.547230	0.128680
H5121	H512	0.912270	0.511130	0.139830
H5131	H513	0.928970	0.545230	0.106230
H5141	H514	0.883570	0.550630	0.129830
C6881	C688	0.101970	0.769130	0.214120
H5151	H515	0.069370	0.735930	0.225430
H5161	H516	0.090670	0.798830	0.208980
H5171	H517	0.137370	0.787130	0.227730
C6891	C689	0.111780	0.638050	0.187720
C6901	C690	0.169900	0.679580	0.190100
H5181	H518	0.186220	0.719490	0.183210
C6911	C691	0.146170	0.584020	0.210050
C6921	C692	0.144860	0.530990	0.223180
C6931	C693	0.197110	0.530740	0.229600
H5191	H519	0.234600	0.565270	0.226350
C6941	C694	0.193030	0.478730	0.240880
H5201	H520	0.227840	0.476830	0.245410
C6951	C695	0.137880	0.429760	0.245400
H5211	H521	0.133920	0.393350	0.252610
C6961	C696	0.088400	0.434650	0.239250
H5221	H522	0.050400	0.401040	0.242880
Ag301	Ag30	0.676850	0.827220	0.546310
N1171	N117	0.835130	0.245480	0.451430
N1181	N118	0.742740	0.143120	0.475980
N1191	N119	0.765820	0.916930	0.532370
N1201	N120	0.758020	0.817730	0.561780
O301	O30	0.781170	0.081570	0.518580
S591	S59	0.673870	0.183010	0.489730
S601	S60	0.876380	0.985040	0.540160
C6971	C697	0.883030	0.296460	0.443830
H5231	H523	0.915830	0.295500	0.434530
C6981	C698	0.887230	0.351270	0.448930
H5241	H524	0.922830	0.386870	0.443880
C6991	C699	0.840030	0.353470	0.461210
H5251	H525	0.841730	0.390370	0.464490
C7001	C700	0.789430	0.300770	0.468820
H5261	H526	0.755430	0.300970	0.477010
C7011	C701	0.788830	0.248120	0.464380
C7021	C702	0.739340	0.191700	0.475310
C7031	C703	0.650630	0.111270	0.497080
H5271	H527	0.613230	0.084370	0.506240
C7041	C704	0.692080	0.096320	0.488240
C7051	C705	0.687600	0.038030	0.490980
C7061	C706	0.732540	0.032810	0.505700
C7071	C707	0.730550	0.978390	0.506150
C7081	C708	0.682060	0.929440	0.491720
H5281	H528	0.680680	0.892300	0.491690
C7091	C709	0.636640	0.933540	0.477660
C7101	C710	0.640030	0.988300	0.477810
H5291	H529	0.608610	0.991820	0.468550
C7111	C711	0.585930	0.880570	0.462020
H5301	H530	0.578930	0.844470	0.473170
H5311	H531	0.595630	0.878570	0.439570
H5321	H532	0.550230	0.883970	0.463170
C7121	C712	0.768630	0.102470	0.547460
H5331	H533	0.736030	0.069270	0.558770
H5341	H534	0.757330	0.132170	0.542320
H5351	H535	0.804030	0.120470	0.561070
C7131	C713	0.778440	0.971390	0.521060
C7141	C714	0.836560	0.012920	0.523440
H5361	H536	0.852880	0.052830	0.516550
C7151	C715	0.812830	0.917360	0.543390
C7161	C716	0.811520	0.864330	0.556520
C7171	C717	0.863770	0.864080	0.562940
H5371	H537	0.901260	0.898610	0.559690
C7181	C718	0.859690	0.812070	0.574220
H5381	H538	0.894500	0.810170	0.578750
C7191	C719	0.804540	0.763100	0.578740
H5391	H539	0.800580	0.726690	0.585950
C7201	C720	0.755060	0.767990	0.572590
H5401	H540	0.717060	0.734380	0.576220
Ag311	Ag31	0.817040	0.656490	0.879640
N1211	N121	0.077010	0.498200	0.784760
N1221	N122	0.067040	0.590590	0.809310
N1231	N123	0.817770	0.567510	0.865700
N1241	N124	0.726370	0.575310	0.895110
O311	O31	0.967060	0.552160	0.851910
S611	S61	0.175800	0.659460	0.823060
S621	S62	0.775320	0.456950	0.873490
C7211	C721	0.080090	0.450300	0.777160
H5411	H541	0.046330	0.417500	0.767860
C7221	C722	0.130700	0.446100	0.782260
H5421	H542	0.130700	0.410500	0.777210
C7231	C723	0.180100	0.493300	0.794540
H5431	H543	0.215300	0.491600	0.797820
C7241	C724	0.178000	0.543900	0.802150
H5441	H544	0.212200	0.577900	0.810340
C7251	C725	0.125950	0.544500	0.797710
C7261	C726	0.119020	0.593990	0.808640
C7271	C727	0.127300	0.682700	0.830410
H5451	H545	0.137800	0.720100	0.839570
C7281	C728	0.070900	0.641250	0.821570
C7291	C729	0.017090	0.645730	0.824310
C7301	C730	0.966930	0.600790	0.839030
C7311	C731	0.914500	0.602780	0.839480
C7321	C732	0.914040	0.651270	0.825050
H5461	H546	0.878280	0.652650	0.825020
C7331	C733	0.963560	0.696690	0.810990
C7341	C734	0.014930	0.693300	0.811140
H5471	H547	0.049870	0.724720	0.801880
C7351	C735	0.961300	0.747400	0.795350
H5481	H548	0.932200	0.754400	0.806500
H5491	H549	0.949600	0.737700	0.772900
H5501	H550	0.000400	0.783100	0.796500
C7361	C736	0.000500	0.564700	0.880790
H5511	H551	0.999900	0.597300	0.892100
H5521	H552	0.041500	0.576000	0.875650
H5531	H553	0.983100	0.529300	0.894400
C7371	C737	0.859610	0.554890	0.854390
C7381	C738	0.843020	0.496770	0.856770
H5541	H554	0.866610	0.480450	0.849880
C7391	C739	0.771190	0.520500	0.876720
C7401	C740	0.719470	0.521810	0.889850
C7411	C741	0.666970	0.469560	0.896270
H5551	H555	0.664010	0.432070	0.893020
C7421	C742	0.619040	0.473640	0.907550
H5561	H556	0.582330	0.438830	0.912080
C7431	C743	0.625220	0.528790	0.912070
H5571	H557	0.592770	0.532750	0.919280
C7441	C744	0.679590	0.578270	0.905920
H5581	H558	0.683980	0.616270	0.909550
Ag321	Ag32	0.483710	0.989820	0.212980
N1251	N125	0.743680	0.831530	0.118090
N1261	N126	0.733710	0.923920	0.142640
N1271	N127	0.484440	0.900840	0.199030
N1281	N128	0.393040	0.908640	0.228440
O321	O32	0.633730	0.885490	0.185240
S631	S63	0.842470	0.992790	0.156390
S641	S64	0.441990	0.790280	0.206820
C7451	C745	0.746760	0.783630	0.110490
H5591	H559	0.713000	0.750830	0.101190
C7461	C746	0.797370	0.779430	0.115590
H5601	H560	0.797370	0.743830	0.110540
C7471	C747	0.846770	0.826630	0.127870
H5611	H561	0.881970	0.824930	0.131150
C7481	C748	0.844670	0.877230	0.135480
H5621	H562	0.878870	0.911230	0.143670
C7491	C749	0.792620	0.877830	0.131040
C7501	C750	0.785690	0.927320	0.141970
C7511	C751	0.793970	0.016030	0.163740
H5631	H563	0.804470	0.053430	0.172900
C7521	C752	0.737570	0.974580	0.154900
C7531	C753	0.683760	0.979060	0.157640
C7541	C754	0.633600	0.934120	0.172360
C7551	C755	0.581170	0.936110	0.172810
C7561	C756	0.580710	0.984600	0.158380
H5641	H564	0.544950	0.985980	0.158350
C7571	C757	0.630230	0.030020	0.144320
C7581	C758	0.681600	0.026630	0.144470
H5651	H565	0.716540	0.058050	0.135210
C7591	C759	0.627970	0.080730	0.128680
H5661	H566	0.598870	0.087730	0.139830
H5671	H567	0.616270	0.071030	0.106230
H5681	H568	0.667070	0.116430	0.129830
C7601	C760	0.667170	0.898030	0.214120
H5691	H569	0.666570	0.930630	0.225430
H5701	H570	0.708170	0.909330	0.208980
H5711	H571	0.649770	0.862630	0.227730
C7611	C761	0.526280	0.888220	0.187720
C7621	C762	0.509690	0.830100	0.190100
H5721	H572	0.533280	0.813780	0.183210
C7631	C763	0.437860	0.853830	0.210050
C7641	C764	0.386140	0.855140	0.223180
C7651	C765	0.333640	0.802890	0.229600
H5731	H573	0.330680	0.765400	0.226350
C7661	C766	0.285710	0.806970	0.240880
H5741	H574	0.249000	0.772160	0.245410
C7671	C767	0.291890	0.862120	0.245400
H5751	H575	0.259440	0.866080	0.252610
C7681	C768	0.346260	0.911600	0.239250
H5761	H576	0.350650	0.949600	0.242880
Ag331	Ag33	0.150370	0.323150	0.546310
N1291	N129	0.410340	0.164870	0.451430
N1301	N130	0.400370	0.257260	0.475980
N1311	N131	0.151100	0.234180	0.532370
N1321	N132	0.059700	0.241980	0.561780
O331	O33	0.300390	0.218830	0.518580
S651	S65	0.509130	0.326130	0.489730
S661	S66	0.108650	0.123620	0.540160
C7691	C769	0.413420	0.116970	0.443830
H5771	H577	0.379660	0.084170	0.434530
C7701	C770	0.464030	0.112770	0.448930
H5781	H578	0.464030	0.077170	0.443880
C7711	C771	0.513430	0.159970	0.461210
H5791	H579	0.548630	0.158270	0.464490
C7721	C772	0.511330	0.210570	0.468820
H5801	H580	0.545530	0.244570	0.477010
C7731	C773	0.459280	0.211170	0.464380
C7741	C774	0.452350	0.260660	0.475310
C7751	C775	0.460630	0.349370	0.497080
H5811	H581	0.471130	0.386770	0.506240
C7761	C776	0.404230	0.307920	0.488240
C7771	C777	0.350420	0.312400	0.490980
C7781	C778	0.300260	0.267460	0.505700
C7791	C779	0.247830	0.269450	0.506150
C7801	C780	0.247370	0.317940	0.491720
H5821	H582	0.211610	0.319320	0.491690
C7811	C781	0.296890	0.363360	0.477660
C7821	C782	0.348260	0.359970	0.477810
H5831	H583	0.383200	0.391390	0.468550
C7831	C783	0.294630	0.414070	0.462020
H5841	H584	0.265530	0.421070	0.473170
H5851	H585	0.282930	0.404370	0.439570
H5861	H586	0.333730	0.449770	0.463170
C7841	C784	0.333830	0.231370	0.547460
H5871	H587	0.333230	0.263970	0.558770
H5881	H588	0.374830	0.242670	0.542320
H5891	H589	0.316430	0.195970	0.561070
C7851	C785	0.192940	0.221560	0.521060
C7861	C786	0.176350	0.163440	0.523440
H5901	H590	0.199940	0.147120	0.516550
C7871	C787	0.104520	0.187170	0.543390
C7881	C788	0.052800	0.188480	0.556520
C7891	C789	0.000300	0.136230	0.562940
H5911	H591	0.997340	0.098740	0.559690
C7901	C790	0.952370	0.140310	0.574220
H5921	H592	0.915660	0.105500	0.578750
C7911	C791	0.958550	0.195460	0.578740
H5931	H593	0.926100	0.199420	0.585950
C7921	C792	0.012920	0.244940	0.572590
H5941	H594	0.017310	0.282940	0.576220
Ag341	Ag34	0.839450	0.182960	0.879640
N1331	N133	0.421190	0.922990	0.784760
N1341	N134	0.523550	0.932960	0.809310
N1351	N135	0.749740	0.182230	0.865700
N1361	N136	0.848940	0.273630	0.895110
O341	O34	0.585100	0.032940	0.851910
S671	S67	0.483660	0.824200	0.823060
S681	S68	0.681630	0.224680	0.873490
C7931	C793	0.370210	0.919910	0.777160
H5951	H595	0.371170	0.953670	0.767860
C7941	C794	0.315400	0.869300	0.782260
H5961	H596	0.279800	0.869300	0.777210
C7951	C795	0.313200	0.819900	0.794540
H5971	H597	0.276300	0.784700	0.797820
C7961	C796	0.365900	0.822000	0.802150
H5981	H598	0.365700	0.787800	0.810340
C7971	C797	0.418550	0.874050	0.797710
C7981	C798	0.474970	0.880980	0.808640
C7991	C799	0.555400	0.872700	0.830410
H5991	H599	0.582300	0.862200	0.839570
C8001	C800	0.570350	0.929100	0.821570
C8011	C801	0.628640	0.982910	0.824310
C8021	C802	0.633860	0.033070	0.839030
C8031	C803	0.688280	0.085500	0.839480
C8041	C804	0.737230	0.085960	0.825050
H6001	H600	0.774370	0.121720	0.825020
C8051	C805	0.733130	0.036440	0.810990
C8061	C806	0.678370	0.985070	0.811140
H6011	H601	0.674850	0.950130	0.801880
C8071	C807	0.786100	0.038700	0.795350
H6021	H602	0.822200	0.067800	0.806500
H6031	H603	0.788100	0.050400	0.772900
H6041	H604	0.782700	0.999600	0.796500
C8081	C808	0.564200	0.999500	0.880790
H6051	H605	0.597400	0.000100	0.892100
H6061	H606	0.534500	0.958500	0.875650
H6071	H607	0.546200	0.016900	0.894400
C8091	C809	0.695280	0.140390	0.854390
C8101	C810	0.653750	0.156980	0.856770
H6081	H608	0.613840	0.133390	0.849880
C8111	C811	0.749310	0.228810	0.876720
C8121	C812	0.802340	0.280530	0.889850
C8131	C813	0.802590	0.333030	0.896270
H6091	H609	0.768060	0.335990	0.893020
C8141	C814	0.854600	0.380960	0.907550
H6101	H610	0.856500	0.417670	0.912080
C8151	C815	0.903570	0.374780	0.912070
H6111	H611	0.939980	0.407230	0.919280
C8161	C816	0.898680	0.320410	0.905920
H6121	H612	0.932290	0.316020	0.909550
Ag351	Ag35	0.506110	0.516290	0.212980
N1371	N137	0.087860	0.256320	0.118090
N1381	N138	0.190220	0.266290	0.142640
N1391	N139	0.416410	0.515560	0.199030
N1401	N140	0.515610	0.606960	0.228440
O351	O35	0.251770	0.366270	0.185240
S691	S69	0.150330	0.157530	0.156390
S701	S70	0.348300	0.558010	0.206820
C8171	C817	0.036880	0.253240	0.110490
H6131	H613	0.037840	0.287000	0.101190
C8181	C818	0.982070	0.202630	0.115590
H6141	H614	0.946470	0.202630	0.110540
C8191	C819	0.979870	0.153230	0.127870
H6151	H615	0.942970	0.118030	0.131150
C8201	C820	0.032570	0.155330	0.135480
H6161	H616	0.032370	0.121130	0.143670
C8211	C821	0.085220	0.207380	0.131040
C8221	C822	0.141640	0.214310	0.141970
C8231	C823	0.222070	0.206030	0.163740
H6171	H617	0.248970	0.195530	0.172900
C8241	C824	0.237020	0.262430	0.154900
C8251	C825	0.295310	0.316240	0.157640
C8261	C826	0.300530	0.366400	0.172360
C8271	C827	0.354950	0.418830	0.172810
C8281	C828	0.403900	0.419290	0.158380
H6181	H618	0.441040	0.455050	0.158350
C8291	C829	0.399800	0.369770	0.144320
C8301	C830	0.345040	0.318400	0.144470
H6191	H619	0.341520	0.283460	0.135210
C8311	C831	0.452770	0.372030	0.128680
H6201	H620	0.488870	0.401130	0.139830
H6211	H621	0.454770	0.383730	0.106230
H6221	H622	0.449370	0.332930	0.129830
C8321	C832	0.230870	0.332830	0.214120
H6231	H623	0.264070	0.333430	0.225430
H6241	H624	0.201170	0.291830	0.208980
H6251	H625	0.212870	0.350230	0.227730
C8331	C833	0.361950	0.473720	0.187720
C8341	C834	0.320420	0.490310	0.190100
H6261	H626	0.280510	0.466720	0.183210
C8351	C835	0.415980	0.562140	0.210050
C8361	C836	0.469010	0.613860	0.223180
C8371	C837	0.469260	0.666360	0.229600
H6271	H627	0.434730	0.669320	0.226350
C8381	C838	0.521270	0.714290	0.240880
H6281	H628	0.523170	0.751000	0.245410
C8391	C839	0.570240	0.708110	0.245400
H6291	H629	0.606650	0.740560	0.252610
C8401	C840	0.565350	0.653740	0.239250
H6301	H630	0.598960	0.649350	0.242880
Ag361	Ag36	0.172780	0.849630	0.546310
N1411	N141	0.754520	0.589660	0.451430
N1421	N142	0.856880	0.599630	0.475980
N1431	N143	0.083070	0.848900	0.532370
N1441	N144	0.182270	0.940300	0.561780
O361	O36	0.918430	0.699610	0.518580
S711	S71	0.816990	0.490870	0.489730
S721	S72	0.014960	0.891350	0.540160
C8411	C841	0.703540	0.586580	0.443830
H6311	H631	0.704500	0.620340	0.434530
C8421	C842	0.648730	0.535970	0.448930
H6321	H632	0.613130	0.535970	0.443880
C8431	C843	0.646530	0.486570	0.461210
H6331	H633	0.609630	0.451370	0.464490
C8441	C844	0.699230	0.488670	0.468820
H6341	H634	0.699030	0.454470	0.477010
C8451	C845	0.751880	0.540720	0.464380
C8461	C846	0.808300	0.547650	0.475310
C8471	C847	0.888730	0.539370	0.497080
H6351	H635	0.915630	0.528870	0.506240
C8481	C848	0.903680	0.595770	0.488240
C8491	C849	0.961970	0.649580	0.490980
C8501	C850	0.967190	0.699740	0.505700
C8511	C851	0.021610	0.752170	0.506150
C8521	C852	0.070560	0.752630	0.491720
H6361	H636	0.107700	0.788390	0.491690
C8531	C853	0.066460	0.703110	0.477660
C8541	C854	0.011700	0.651740	0.477810
H6371	H637	0.008180	0.616800	0.468550
C8551	C855	0.119430	0.705370	0.462020
H6381	H638	0.155530	0.734470	0.473170
H6391	H639	0.121430	0.717070	0.439570
H6401	H640	0.116030	0.666270	0.463170
C8561	C856	0.897530	0.666170	0.547460
H6411	H641	0.930730	0.666770	0.558770
H6421	H642	0.867830	0.625170	0.542320
H6431	H643	0.879530	0.683570	0.561070
C8571	C857	0.028610	0.807060	0.521060
C8581	C858	0.987080	0.823650	0.523440
H6441	H644	0.947170	0.800060	0.516550
C8591	C859	0.082640	0.895480	0.543390
C8601	C860	0.135670	0.947200	0.556520
C8611	C861	0.135920	0.999700	0.562940
H6451	H645	0.101390	0.002660	0.559690
C8621	C862	0.187930	0.047630	0.574220
H6461	H646	0.189830	0.084340	0.578750
C8631	C863	0.236900	0.041450	0.578740
H6471	H647	0.273310	0.073900	0.585950
C8641	C864	0.232010	0.987080	0.572590
H6481	H648	0.265620	0.982690	0.576220
