data_ODEZAB_freeONLY_PM
_symmetry_space_group_name_H-M	'P1'
_cell_length_a	18.640100
_cell_length_b	18.640100
_cell_length_c	39.748000
_cell_angle_alpha	90.000000
_cell_angle_beta	90.000000
_cell_angle_gamma	120.000000
_symmetry_Int_Tables_number 1

loop_
_symmetry_equiv_pos_as_xyz
'x,y,z'

loop_
_atom_site_label
_atom_site_type_symbol
_atom_site_fract_x
_atom_site_fract_y
_atom_site_fract_z
O11	O1	0.518560	0.890210	0.003010
O21	O2	0.559190	0.969670	0.957060
C11	C1	0.549070	0.908210	0.974180
C21	C2	0.575600	0.852790	0.958320
C31	C3	0.618490	0.873440	0.927760
H11	H1	0.631900	0.923300	0.917400
H21	H2	0.901800	0.908800	0.907700
O31	O3	0.185230	0.223540	0.336340
O41	O4	0.225860	0.303000	0.290390
C41	C4	0.215740	0.241540	0.307510
C51	C5	0.242270	0.186120	0.291650
C61	C6	0.285160	0.206770	0.261090
H31	H3	0.298570	0.256630	0.250730
H41	H4	0.568470	0.242130	0.241030
O51	O5	0.851890	0.556880	0.669680
O61	O6	0.892520	0.636340	0.623730
C71	C7	0.882400	0.574880	0.640850
C81	C8	0.908930	0.519460	0.624990
C91	C9	0.951820	0.540110	0.594430
H51	H5	0.965230	0.589970	0.584070
H61	H6	0.235130	0.575470	0.574370
O71	O7	0.109790	0.628350	0.003010
O81	O8	0.030330	0.589520	0.957060
C101	C10	0.091790	0.640860	0.974180
C111	C11	0.147210	0.722810	0.958320
C121	C12	0.126560	0.745050	0.927760
H71	H7	0.076700	0.708600	0.917400
H81	H8	0.091200	0.993000	0.907700
O91	O9	0.776460	0.961680	0.336340
O101	O10	0.697000	0.922850	0.290390
C131	C13	0.758460	0.974190	0.307510
C141	C14	0.813880	0.056140	0.291650
C151	C15	0.793230	0.078380	0.261090
H91	H9	0.743370	0.041930	0.250730
H101	H10	0.757870	0.326330	0.241030
O111	O11	0.443120	0.295020	0.669680
O121	O12	0.363660	0.256190	0.623730
C161	C16	0.425120	0.307530	0.640850
C171	C17	0.480540	0.389480	0.624990
C181	C18	0.459890	0.411720	0.594430
H111	H11	0.410030	0.375270	0.584070
H121	H12	0.424530	0.659670	0.574370
O131	O13	0.371650	0.481440	0.003010
O141	O14	0.410480	0.440810	0.957060
C191	C19	0.359140	0.450930	0.974180
C201	C20	0.277190	0.424400	0.958320
C211	C21	0.254950	0.381510	0.927760
H131	H13	0.291400	0.368100	0.917400
H141	H14	0.007000	0.098200	0.907700
O151	O15	0.038320	0.814770	0.336340
O161	O16	0.077150	0.774140	0.290390
C221	C22	0.025810	0.784260	0.307510
C231	C23	0.943860	0.757730	0.291650
C241	C24	0.921620	0.714840	0.261090
H151	H15	0.958070	0.701430	0.250730
H161	H16	0.673670	0.431530	0.241030
O171	O17	0.704980	0.148110	0.669680
O181	O18	0.743810	0.107480	0.623730
C251	C25	0.692470	0.117600	0.640850
C261	C26	0.610520	0.091070	0.624990
C271	C27	0.588280	0.048180	0.594430
H171	H17	0.624730	0.034770	0.584070
H181	H18	0.340330	0.764870	0.574370
O191	O19	0.890210	0.518560	0.996990
O201	O20	0.969670	0.559190	0.042940
C281	C28	0.908210	0.549070	0.025820
C291	C29	0.852790	0.575600	0.041680
C301	C30	0.873440	0.618490	0.072240
H191	H19	0.923300	0.631900	0.082600
H201	H20	0.908800	0.901800	0.092300
O211	O21	0.556880	0.851890	0.330320
O221	O22	0.636340	0.892520	0.376270
C311	C31	0.574880	0.882400	0.359150
C321	C32	0.519460	0.908930	0.375010
C331	C33	0.540110	0.951820	0.405570
H211	H21	0.589970	0.965230	0.415930
H221	H22	0.575470	0.235130	0.425630
O231	O23	0.223540	0.185230	0.663660
O241	O24	0.303000	0.225860	0.709610
C341	C34	0.241540	0.215740	0.692490
C351	C35	0.186120	0.242270	0.708350
C361	C36	0.206770	0.285160	0.738910
H231	H23	0.256630	0.298570	0.749270
H241	H24	0.242130	0.568470	0.758970
O251	O25	0.628350	0.109790	0.996990
O261	O26	0.589520	0.030330	0.042940
C371	C37	0.640860	0.091790	0.025820
C381	C38	0.722810	0.147210	0.041680
C391	C39	0.745050	0.126560	0.072240
H251	H25	0.708600	0.076700	0.082600
H261	H26	0.993000	0.091200	0.092300
O271	O27	0.295020	0.443120	0.330320
O281	O28	0.256190	0.363660	0.376270
C401	C40	0.307530	0.425120	0.359150
C411	C41	0.389480	0.480540	0.375010
C421	C42	0.411720	0.459890	0.405570
H271	H27	0.375270	0.410030	0.415930
H281	H28	0.659670	0.424530	0.425630
O291	O29	0.961680	0.776460	0.663660
O301	O30	0.922850	0.697000	0.709610
C431	C43	0.974190	0.758460	0.692490
C441	C44	0.056140	0.813880	0.708350
C451	C45	0.078380	0.793230	0.738910
H291	H29	0.041930	0.743370	0.749270
H301	H30	0.326330	0.757870	0.758970
O311	O31	0.481440	0.371650	0.996990
O321	O32	0.440810	0.410480	0.042940
C461	C46	0.450930	0.359140	0.025820
C471	C47	0.424400	0.277190	0.041680
C481	C48	0.381510	0.254950	0.072240
H311	H31	0.368100	0.291400	0.082600
H321	H32	0.098200	0.007000	0.092300
O331	O33	0.148110	0.704980	0.330320
O341	O34	0.107480	0.743810	0.376270
C491	C49	0.117600	0.692470	0.359150
C501	C50	0.091070	0.610520	0.375010
C511	C51	0.048180	0.588280	0.405570
H331	H33	0.034770	0.624730	0.415930
H341	H34	0.764870	0.340330	0.425630
O351	O35	0.814770	0.038320	0.663660
O361	O36	0.774140	0.077150	0.709610
C521	C52	0.784260	0.025810	0.692490
C531	C53	0.757730	0.943860	0.708350
C541	C54	0.714840	0.921620	0.738910
H351	H35	0.701430	0.958070	0.749270
H361	H36	0.431530	0.673670	0.758970
O371	O37	0.481440	0.109790	0.996990
O381	O38	0.440810	0.030330	0.042940
C551	C55	0.450930	0.091790	0.025820
C561	C56	0.424400	0.147210	0.041680
C571	C57	0.381510	0.126560	0.072240
H371	H37	0.368100	0.076700	0.082600
H381	H38	0.098200	0.091200	0.092300
O391	O39	0.148110	0.443120	0.330320
O401	O40	0.107480	0.363660	0.376270
C581	C58	0.117600	0.425120	0.359150
C591	C59	0.091070	0.480540	0.375010
C601	C60	0.048180	0.459890	0.405570
H391	H39	0.034770	0.410030	0.415930
H401	H40	0.764870	0.424530	0.425630
O411	O41	0.814770	0.776460	0.663660
O421	O42	0.774140	0.697000	0.709610
C611	C61	0.784260	0.758460	0.692490
C621	C62	0.757730	0.813880	0.708350
C631	C63	0.714840	0.793230	0.738910
H411	H41	0.701430	0.743370	0.749270
H421	H42	0.431530	0.757870	0.758970
O431	O43	0.890210	0.371650	0.996990
O441	O44	0.969670	0.410480	0.042940
C641	C64	0.908210	0.359140	0.025820
C651	C65	0.852790	0.277190	0.041680
C661	C66	0.873440	0.254950	0.072240
H431	H43	0.923300	0.291400	0.082600
H441	H44	0.908800	0.007000	0.092300
O451	O45	0.556880	0.704980	0.330320
O461	O46	0.636340	0.743810	0.376270
C671	C67	0.574880	0.692470	0.359150
C681	C68	0.519460	0.610520	0.375010
C691	C69	0.540110	0.588280	0.405570
H451	H45	0.589970	0.624730	0.415930
H461	H46	0.575470	0.340330	0.425630
O471	O47	0.223540	0.038320	0.663660
O481	O48	0.303000	0.077150	0.709610
C701	C70	0.241540	0.025810	0.692490
C711	C71	0.186120	0.943860	0.708350
C721	C72	0.206770	0.921620	0.738910
H471	H47	0.256630	0.958070	0.749270
H481	H48	0.242130	0.673670	0.758970
O491	O49	0.628350	0.518560	0.996990
O501	O50	0.589520	0.559190	0.042940
C731	C73	0.640860	0.549070	0.025820
C741	C74	0.722810	0.575600	0.041680
C751	C75	0.745050	0.618490	0.072240
H491	H49	0.708600	0.631900	0.082600
H501	H50	0.993000	0.901800	0.092300
O511	O51	0.295020	0.851890	0.330320
O521	O52	0.256190	0.892520	0.376270
C761	C76	0.307530	0.882400	0.359150
C771	C77	0.389480	0.908930	0.375010
C781	C78	0.411720	0.951820	0.405570
H511	H51	0.375270	0.965230	0.415930
H521	H52	0.659670	0.235130	0.425630
O531	O53	0.961680	0.185230	0.663660
O541	O54	0.922850	0.225860	0.709610
C791	C79	0.974190	0.215740	0.692490
C801	C80	0.056140	0.242270	0.708350
C811	C81	0.078380	0.285160	0.738910
H531	H53	0.041930	0.298570	0.749270
H541	H54	0.326330	0.568470	0.758970
O551	O55	0.109790	0.481440	0.003010
O561	O56	0.030330	0.440810	0.957060
C821	C82	0.091790	0.450930	0.974180
C831	C83	0.147210	0.424400	0.958320
C841	C84	0.126560	0.381510	0.927760
H551	H55	0.076700	0.368100	0.917400
H561	H56	0.091200	0.098200	0.907700
O571	O57	0.776460	0.814770	0.336340
O581	O58	0.697000	0.774140	0.290390
C851	C85	0.758460	0.784260	0.307510
C861	C86	0.813880	0.757730	0.291650
C871	C87	0.793230	0.714840	0.261090
H571	H57	0.743370	0.701430	0.250730
H581	H58	0.757870	0.431530	0.241030
O591	O59	0.443120	0.148110	0.669680
O601	O60	0.363660	0.107480	0.623730
C881	C88	0.425120	0.117600	0.640850
C891	C89	0.480540	0.091070	0.624990
C901	C90	0.459890	0.048180	0.594430
H591	H59	0.410030	0.034770	0.584070
H601	H60	0.424530	0.764870	0.574370
O611	O61	0.371650	0.890210	0.003010
O621	O62	0.410480	0.969670	0.957060
C911	C91	0.359140	0.908210	0.974180
C921	C92	0.277190	0.852790	0.958320
C931	C93	0.254950	0.873440	0.927760
H611	H61	0.291400	0.923300	0.917400
H621	H62	0.007000	0.908800	0.907700
O631	O63	0.038320	0.223540	0.336340
O641	O64	0.077150	0.303000	0.290390
C941	C94	0.025810	0.241540	0.307510
C951	C95	0.943860	0.186120	0.291650
C961	C96	0.921620	0.206770	0.261090
H631	H63	0.958070	0.256630	0.250730
H641	H64	0.673670	0.242130	0.241030
O651	O65	0.704980	0.556880	0.669680
O661	O66	0.743810	0.636340	0.623730
C971	C97	0.692470	0.574880	0.640850
C981	C98	0.610520	0.519460	0.624990
C991	C99	0.588280	0.540110	0.594430
H651	H65	0.624730	0.589970	0.584070
H661	H66	0.340330	0.575470	0.574370
O671	O67	0.518560	0.628350	0.003010
O681	O68	0.559190	0.589520	0.957060
C1001	C100	0.549070	0.640860	0.974180
C1011	C101	0.575600	0.722810	0.958320
C1021	C102	0.618490	0.745050	0.927760
H671	H67	0.631900	0.708600	0.917400
H681	H68	0.901800	0.993000	0.907700
O691	O69	0.185230	0.961680	0.336340
O701	O70	0.225860	0.922850	0.290390
C1031	C103	0.215740	0.974190	0.307510
C1041	C104	0.242270	0.056140	0.291650
C1051	C105	0.285160	0.078380	0.261090
H691	H69	0.298570	0.041930	0.250730
H701	H70	0.568470	0.326330	0.241030
O711	O71	0.851890	0.295020	0.669680
O721	O72	0.892520	0.256190	0.623730
C1061	C106	0.882400	0.307530	0.640850
C1071	C107	0.908930	0.389480	0.624990
C1081	C108	0.951820	0.411720	0.594430
H711	H71	0.965230	0.375270	0.584070
H721	H72	0.235130	0.659670	0.574370
Cu11	Cu1	0.476440	0.952870	0.027390
O731	O73	0.439050	0.878100	0.071590
Cu21	Cu2	0.143100	0.286200	0.360720
O741	O74	0.105720	0.211430	0.404920
Cu31	Cu3	0.809770	0.619540	0.694050
O751	O75	0.772380	0.544770	0.738260
Cu41	Cu4	0.047130	0.523560	0.027390
O761	O76	0.121900	0.560950	0.071590
Cu51	Cu5	0.713800	0.856900	0.360720
O771	O77	0.788570	0.894280	0.404920
Cu61	Cu6	0.380460	0.190230	0.694050
O781	O78	0.455230	0.227620	0.738260
Cu71	Cu7	0.476440	0.523560	0.027390
O791	O79	0.439050	0.560950	0.071590
Cu81	Cu8	0.143100	0.856900	0.360720
O801	O80	0.105720	0.894280	0.404920
Cu91	Cu9	0.809770	0.190230	0.694050
O811	O81	0.772380	0.227620	0.738260
Cu101	Cu10	0.952870	0.476440	0.972610
O821	O82	0.878100	0.439050	0.928410
Cu111	Cu11	0.619540	0.809770	0.305950
O831	O83	0.544770	0.772380	0.261740
Cu121	Cu12	0.286200	0.143100	0.639280
O841	O84	0.211430	0.105720	0.595080
Cu131	Cu13	0.523560	0.047130	0.972610
O851	O85	0.560950	0.121900	0.928410
Cu141	Cu14	0.190230	0.380460	0.305950
O861	O86	0.227620	0.455230	0.261740
Cu151	Cu15	0.856900	0.713800	0.639280
O871	O87	0.894280	0.788570	0.595080
Cu161	Cu16	0.523560	0.476440	0.972610
O881	O88	0.560950	0.439050	0.928410
Cu171	Cu17	0.190230	0.809770	0.305950
O891	O89	0.227620	0.772380	0.261740
Cu181	Cu18	0.856900	0.143100	0.639280
O901	O90	0.894280	0.105720	0.595080
O911	O91	0.809000	0.904500	0.910000
C1091	C109	0.555600	0.777800	0.973770
H731	H73	0.528900	0.764450	0.994500
C1101	C110	0.641300	0.820650	0.912670
C1111	C111	0.557100	0.778550	0.846760
H741	H74	0.526200	0.763100	0.866500
C1121	C112	0.645600	0.822800	0.848910
C1131	C113	0.686900	0.843450	0.879900
C1141	C114	0.770600	0.885300	0.879730
C1151	C115	0.815500	0.907750	0.849230
H751	H75	0.873100	0.936550	0.849700
C1161	C116	0.869200	0.934600	0.918300
H761	H76	0.884300	0.942150	0.941100
O921	O92	0.475670	0.237830	0.243330
C1171	C117	0.222270	0.111130	0.307100
H771	H77	0.195570	0.097780	0.327830
C1181	C118	0.307970	0.153980	0.246000
C1191	C119	0.223770	0.111880	0.180090
H781	H78	0.192870	0.096430	0.199830
C1201	C120	0.312270	0.156130	0.182240
C1211	C121	0.353570	0.176780	0.213230
C1221	C122	0.437270	0.218630	0.213060
C1231	C123	0.482170	0.241080	0.182560
H791	H79	0.539770	0.269880	0.183030
C1241	C124	0.535870	0.267930	0.251630
H801	H80	0.550970	0.275480	0.274430
O931	O93	0.142330	0.571170	0.576670
C1251	C125	0.888930	0.444470	0.640440
H811	H81	0.862230	0.431120	0.661170
C1261	C126	0.974630	0.487320	0.579340
C1271	C127	0.890430	0.445220	0.513430
H821	H82	0.859530	0.429770	0.533170
C1281	C128	0.978930	0.489470	0.515580
C1291	C129	0.020230	0.510120	0.546570
C1301	C130	0.103930	0.551970	0.546400
C1311	C131	0.148830	0.574420	0.515900
H831	H83	0.206430	0.603220	0.516370
C1321	C132	0.202530	0.601270	0.584970
H841	H84	0.217630	0.608820	0.607770
O941	O94	0.095500	0.904500	0.910000
C1331	C133	0.222200	0.777800	0.973770
H851	H85	0.235550	0.764450	0.994500
C1341	C134	0.179350	0.820650	0.912670
C1351	C135	0.221450	0.778550	0.846760
H861	H86	0.236900	0.763100	0.866500
C1361	C136	0.177200	0.822800	0.848910
C1371	C137	0.156550	0.843450	0.879900
C1381	C138	0.114700	0.885300	0.879730
C1391	C139	0.092250	0.907750	0.849230
H871	H87	0.063450	0.936550	0.849700
C1401	C140	0.065400	0.934600	0.918300
H881	H88	0.057850	0.942150	0.941100
O951	O95	0.762170	0.237830	0.243330
C1411	C141	0.888870	0.111130	0.307100
H891	H89	0.902220	0.097780	0.327830
C1421	C142	0.846020	0.153980	0.246000
C1431	C143	0.888120	0.111880	0.180090
H901	H90	0.903570	0.096430	0.199830
C1441	C144	0.843870	0.156130	0.182240
C1451	C145	0.823220	0.176780	0.213230
C1461	C146	0.781370	0.218630	0.213060
C1471	C147	0.758920	0.241080	0.182560
H911	H91	0.730120	0.269880	0.183030
C1481	C148	0.732070	0.267930	0.251630
H921	H92	0.724520	0.275480	0.274430
O961	O96	0.428830	0.571170	0.576670
C1491	C149	0.555530	0.444470	0.640440
H931	H93	0.568880	0.431120	0.661170
C1501	C150	0.512680	0.487320	0.579340
C1511	C151	0.554780	0.445220	0.513430
H941	H94	0.570230	0.429770	0.533170
C1521	C152	0.510530	0.489470	0.515580
C1531	C153	0.489880	0.510120	0.546570
C1541	C154	0.448030	0.551970	0.546400
C1551	C155	0.425580	0.574420	0.515900
H951	H95	0.396780	0.603220	0.516370
C1561	C156	0.398730	0.601270	0.584970
H961	H96	0.391180	0.608820	0.607770
O971	O97	0.095500	0.191000	0.910000
C1571	C157	0.222200	0.444400	0.973770
H971	H97	0.235550	0.471100	0.994500
C1581	C158	0.179350	0.358700	0.912670
C1591	C159	0.221450	0.442900	0.846760
H981	H98	0.236900	0.473800	0.866500
C1601	C160	0.177200	0.354400	0.848910
C1611	C161	0.156550	0.313100	0.879900
C1621	C162	0.114700	0.229400	0.879730
C1631	C163	0.092250	0.184500	0.849230
H991	H99	0.063450	0.126900	0.849700
C1641	C164	0.065400	0.130800	0.918300
H1001	H100	0.057850	0.115700	0.941100
O981	O98	0.762170	0.524330	0.243330
C1651	C165	0.888870	0.777730	0.307100
H1011	H101	0.902220	0.804430	0.327830
C1661	C166	0.846020	0.692030	0.246000
C1671	C167	0.888120	0.776230	0.180090
H1021	H102	0.903570	0.807130	0.199830
C1681	C168	0.843870	0.687730	0.182240
C1691	C169	0.823220	0.646430	0.213230
C1701	C170	0.781370	0.562730	0.213060
C1711	C171	0.758920	0.517830	0.182560
H1031	H103	0.730120	0.460230	0.183030
C1721	C172	0.732070	0.464130	0.251630
H1041	H104	0.724520	0.449030	0.274430
O991	O99	0.428830	0.857670	0.576670
C1731	C173	0.555530	0.111070	0.640440
H1051	H105	0.568880	0.137770	0.661170
C1741	C174	0.512680	0.025370	0.579340
C1751	C175	0.554780	0.109570	0.513430
H1061	H106	0.570230	0.140470	0.533170
C1761	C176	0.510530	0.021070	0.515580
C1771	C177	0.489880	0.979770	0.546570
C1781	C178	0.448030	0.896070	0.546400
C1791	C179	0.425580	0.851170	0.515900
H1071	H107	0.396780	0.793570	0.516370
C1801	C180	0.398730	0.797470	0.584970
H1081	H108	0.391180	0.782370	0.607770
O1001	O100	0.904500	0.809000	0.090000
C1811	C181	0.777800	0.555600	0.026230
H1091	H109	0.764450	0.528900	0.005500
C1821	C182	0.820650	0.641300	0.087330
C1831	C183	0.778550	0.557100	0.153240
H1101	H110	0.763100	0.526200	0.133500
C1841	C184	0.822800	0.645600	0.151090
C1851	C185	0.843450	0.686900	0.120100
C1861	C186	0.885300	0.770600	0.120270
C1871	C187	0.907750	0.815500	0.150770
H1111	H111	0.936550	0.873100	0.150300
C1881	C188	0.934600	0.869200	0.081700
H1121	H112	0.942150	0.884300	0.058900
O1011	O101	0.571170	0.142330	0.423330
C1891	C189	0.444470	0.888930	0.359560
H1131	H113	0.431120	0.862230	0.338830
C1901	C190	0.487320	0.974630	0.420660
C1911	C191	0.445220	0.890430	0.486570
H1141	H114	0.429770	0.859530	0.466830
C1921	C192	0.489470	0.978930	0.484420
C1931	C193	0.510120	0.020230	0.453430
C1941	C194	0.551970	0.103930	0.453600
C1951	C195	0.574420	0.148830	0.484100
H1151	H115	0.603220	0.206430	0.483630
C1961	C196	0.601270	0.202530	0.415030
H1161	H116	0.608820	0.217630	0.392230
O1021	O102	0.237830	0.475670	0.756670
C1971	C197	0.111130	0.222270	0.692900
H1171	H117	0.097780	0.195570	0.672170
C1981	C198	0.153980	0.307970	0.754000
C1991	C199	0.111880	0.223770	0.819910
H1181	H118	0.096430	0.192870	0.800170
C2001	C200	0.156130	0.312270	0.817760
C2011	C201	0.176780	0.353570	0.786770
C2021	C202	0.218630	0.437270	0.786940
C2031	C203	0.241080	0.482170	0.817440
H1191	H119	0.269880	0.539770	0.816970
C2041	C204	0.267930	0.535870	0.748370
H1201	H120	0.275480	0.550970	0.725570
O1031	O103	0.904500	0.095500	0.090000
C2051	C205	0.777800	0.222200	0.026230
H1211	H121	0.764450	0.235550	0.005500
C2061	C206	0.820650	0.179350	0.087330
C2071	C207	0.778550	0.221450	0.153240
H1221	H122	0.763100	0.236900	0.133500
C2081	C208	0.822800	0.177200	0.151090
C2091	C209	0.843450	0.156550	0.120100
C2101	C210	0.885300	0.114700	0.120270
C2111	C211	0.907750	0.092250	0.150770
H1231	H123	0.936550	0.063450	0.150300
C2121	C212	0.934600	0.065400	0.081700
H1241	H124	0.942150	0.057850	0.058900
O1041	O104	0.571170	0.428830	0.423330
C2131	C213	0.444470	0.555530	0.359560
H1251	H125	0.431120	0.568880	0.338830
C2141	C214	0.487320	0.512680	0.420660
C2151	C215	0.445220	0.554780	0.486570
H1261	H126	0.429770	0.570230	0.466830
C2161	C216	0.489470	0.510530	0.484420
C2171	C217	0.510120	0.489880	0.453430
C2181	C218	0.551970	0.448030	0.453600
C2191	C219	0.574420	0.425580	0.484100
H1271	H127	0.603220	0.396780	0.483630
C2201	C220	0.601270	0.398730	0.415030
H1281	H128	0.608820	0.391180	0.392230
O1051	O105	0.237830	0.762170	0.756670
C2211	C221	0.111130	0.888870	0.692900
H1291	H129	0.097780	0.902220	0.672170
C2221	C222	0.153980	0.846020	0.754000
C2231	C223	0.111880	0.888120	0.819910
H1301	H130	0.096430	0.903570	0.800170
C2241	C224	0.156130	0.843870	0.817760
C2251	C225	0.176780	0.823220	0.786770
C2261	C226	0.218630	0.781370	0.786940
C2271	C227	0.241080	0.758920	0.817440
H1311	H131	0.269880	0.730120	0.816970
C2281	C228	0.267930	0.732070	0.748370
H1321	H132	0.275480	0.724520	0.725570
O1061	O106	0.191000	0.095500	0.090000
C2291	C229	0.444400	0.222200	0.026230
H1331	H133	0.471100	0.235550	0.005500
C2301	C230	0.358700	0.179350	0.087330
C2311	C231	0.442900	0.221450	0.153240
H1341	H134	0.473800	0.236900	0.133500
C2321	C232	0.354400	0.177200	0.151090
C2331	C233	0.313100	0.156550	0.120100
C2341	C234	0.229400	0.114700	0.120270
C2351	C235	0.184500	0.092250	0.150770
H1351	H135	0.126900	0.063450	0.150300
C2361	C236	0.130800	0.065400	0.081700
H1361	H136	0.115700	0.057850	0.058900
O1071	O107	0.857670	0.428830	0.423330
C2371	C237	0.111070	0.555530	0.359560
H1371	H137	0.137770	0.568880	0.338830
C2381	C238	0.025370	0.512680	0.420660
C2391	C239	0.109570	0.554780	0.486570
H1381	H138	0.140470	0.570230	0.466830
C2401	C240	0.021070	0.510530	0.484420
C2411	C241	0.979770	0.489880	0.453430
C2421	C242	0.896070	0.448030	0.453600
C2431	C243	0.851170	0.425580	0.484100
H1391	H139	0.793570	0.396780	0.483630
C2441	C244	0.797470	0.398730	0.415030
H1401	H140	0.782370	0.391180	0.392230
O1081	O108	0.524330	0.762170	0.756670
C2451	C245	0.777730	0.888870	0.692900
H1411	H141	0.804430	0.902220	0.672170
C2461	C246	0.692030	0.846020	0.754000
C2471	C247	0.776230	0.888120	0.819910
H1421	H142	0.807130	0.903570	0.800170
C2481	C248	0.687730	0.843870	0.817760
C2491	C249	0.646430	0.823220	0.786770
C2501	C250	0.562730	0.781370	0.786940
C2511	C251	0.517830	0.758920	0.817440
H1431	H143	0.460230	0.730120	0.816970
C2521	C252	0.464130	0.732070	0.748370
H1441	H144	0.449030	0.724520	0.725570
