data_ODODES_freeONLY_PM
_symmetry_space_group_name_H-M	'P1'
_cell_length_a	13.844300
_cell_length_b	14.561500
_cell_length_c	23.965900
_cell_angle_alpha	79.229900
_cell_angle_beta	73.211900
_cell_angle_gamma	61.616400
_symmetry_Int_Tables_number 1

loop_
_symmetry_equiv_pos_as_xyz
'x,y,z'

loop_
_atom_site_label
_atom_site_type_symbol
_atom_site_fract_x
_atom_site_fract_y
_atom_site_fract_z
Zn11	Zn1	0.269780	0.085020	0.954880
Zn21	Zn2	0.309680	0.414980	0.545120
Zn31	Zn3	0.730220	0.914980	0.045120
Zn41	Zn4	0.690320	0.585020	0.454880
Zn51	Zn5	0.500000	0.000000	0.000000
Zn61	Zn6	0.500000	0.500000	0.500000
Si11	Si1	0.647020	0.447780	0.834800
Si21	Si2	0.929600	0.052220	0.665200
Si31	Si3	0.352980	0.552220	0.165200
Si41	Si4	0.070400	0.947780	0.334800
H11	H1	0.262600	0.170200	0.864200
H21	H2	0.470500	0.830500	0.827100
H31	H3	0.554500	0.667900	0.788900
H41	H4	0.593500	0.529000	0.947800
H51	H5	0.515400	0.693300	0.985300
H61	H6	0.552100	0.156000	0.883000
H71	H7	0.414900	0.507700	0.910500
H81	H8	0.300200	0.425800	0.946600
H91	H9	0.804600	0.453700	0.719300
H101	H10	0.789000	0.490600	0.622800
H111	H11	0.468700	0.527400	0.673400
H121	H12	0.485700	0.487800	0.770000
H131	H13	0.770300	0.252400	0.900200
H141	H14	0.947900	0.158800	0.921000
H151	H15	0.037100	0.374300	0.816900
H161	H16	0.857900	0.464600	0.797800
H171	H17	0.668200	0.236900	0.843100
H181	H18	0.297000	0.329800	0.635800
H191	H19	0.128100	0.669500	0.672900
H201	H20	0.011300	0.832100	0.711100
H211	H21	0.070300	0.971000	0.552200
H221	H22	0.194000	0.806700	0.514700
H231	H23	0.591100	0.344000	0.617000
H241	H24	0.833100	0.992300	0.589500
H251	H25	0.672600	0.074200	0.553400
H261	H26	0.977600	0.046300	0.780700
H271	H27	0.902400	0.009400	0.877200
H281	H28	0.669500	0.972600	0.826600
H291	H29	0.743500	0.012200	0.730000
H301	H30	0.922900	0.247600	0.599800
H311	H31	0.027700	0.341200	0.579000
H321	H32	0.228300	0.125700	0.683100
H331	H33	0.120300	0.035400	0.702200
H341	H34	0.748200	0.263100	0.656900
H351	H35	0.737400	0.829800	0.135800
H361	H36	0.529500	0.169500	0.172900
H371	H37	0.445500	0.332100	0.211100
H381	H38	0.406500	0.471000	0.052200
H391	H39	0.484600	0.306700	0.014700
H401	H40	0.447900	0.844000	0.117000
H411	H41	0.585100	0.492300	0.089500
H421	H42	0.699800	0.574200	0.053400
H431	H43	0.195400	0.546300	0.280700
H441	H44	0.211000	0.509400	0.377200
H451	H45	0.531300	0.472600	0.326600
H461	H46	0.514300	0.512200	0.230000
H471	H47	0.229700	0.747600	0.099800
H481	H48	0.052100	0.841200	0.079000
H491	H49	0.962900	0.625700	0.183100
H501	H50	0.142100	0.535400	0.202200
H511	H51	0.331800	0.763100	0.156900
H521	H52	0.703000	0.670200	0.364200
H531	H53	0.871900	0.330500	0.327100
H541	H54	0.988700	0.167900	0.288900
H551	H55	0.929700	0.029000	0.447800
H561	H56	0.806000	0.193300	0.485300
H571	H57	0.408900	0.656000	0.383000
H581	H58	0.166900	0.007700	0.410500
H591	H59	0.327400	0.925800	0.446600
H601	H60	0.022400	0.953700	0.219300
H611	H61	0.097600	0.990600	0.122800
H621	H62	0.330500	0.027400	0.173400
H631	H63	0.256500	0.987800	0.270000
H641	H64	0.077100	0.752400	0.400200
H651	H65	0.972300	0.658800	0.421000
H661	H66	0.771700	0.874300	0.316900
H671	H67	0.879700	0.964600	0.297800
H681	H68	0.251800	0.736900	0.343100
C11	C1	0.437380	0.881500	0.934340
C21	C2	0.489290	0.776470	0.909550
C31	C3	0.497960	0.768830	0.851650
C41	C4	0.546530	0.671870	0.829270
C51	C5	0.583610	0.580670	0.863910
C61	C6	0.570300	0.590300	0.922500
C71	C7	0.523300	0.688500	0.945100
C81	C8	0.416830	0.281930	0.921210
C91	C9	0.524610	0.227700	0.888880
C101	C10	0.555730	0.381620	0.871520
C111	C11	0.443750	0.435950	0.904150
C121	C12	0.376400	0.386630	0.926770
C131	C13	0.342260	0.228870	0.947010
C141	C14	0.735900	0.468470	0.710330
C151	C15	0.726510	0.490690	0.652690
C161	C16	0.628350	0.512620	0.638280
C171	C17	0.537270	0.512120	0.682540
C181	C18	0.547640	0.488990	0.740130
C191	C19	0.646720	0.467550	0.754810
C201	C20	0.793130	0.368530	0.847010
C211	C21	0.009380	0.258540	0.870500
C221	C22	0.124720	0.199830	0.883130
C231	C23	0.824980	0.277540	0.883100
C241	C24	0.930500	0.220600	0.896000
C251	C25	0.982490	0.349180	0.834040
C261	C26	0.875410	0.402810	0.822770
C271	C27	0.616780	0.534570	0.576270
C281	C28	0.593590	0.276300	0.864720
C291	C29	0.253220	0.618500	0.565660
C301	C30	0.175310	0.723530	0.590450
C311	C31	0.118440	0.731170	0.648350
C321	C32	0.047670	0.828130	0.670730
C331	C33	0.028190	0.919330	0.636090
C341	C34	0.083100	0.909700	0.577500
C351	C35	0.156900	0.811500	0.554900
C361	C36	0.619970	0.218070	0.578790
C371	C37	0.641190	0.272300	0.611120
C381	C38	0.808870	0.118380	0.628480
C391	C39	0.783850	0.064050	0.595850
C401	C40	0.689800	0.113370	0.573230
C411	C41	0.518140	0.271130	0.552990
C421	C42	0.914700	0.031530	0.789670
C431	C43	0.869890	0.009310	0.847310
C441	C44	0.779250	0.987380	0.861720
C451	C45	0.731930	0.987880	0.817460
C461	C46	0.776760	0.011010	0.759870
C471	C47	0.869080	0.032450	0.745190
C481	C48	0.008670	0.131470	0.652990
C491	C49	0.138420	0.241460	0.629500
C501	C50	0.207680	0.300170	0.616870
C511	C51	0.985620	0.222460	0.616900
C521	C52	0.047100	0.279400	0.604000
C531	C53	0.165710	0.150820	0.665960
C541	C54	0.100990	0.097190	0.677230
C551	C55	0.727620	0.965430	0.923730
C561	C56	0.734610	0.223700	0.635280
C571	C57	0.562620	0.118500	0.065660
C581	C58	0.510710	0.223530	0.090450
C591	C59	0.502040	0.231170	0.148350
C601	C60	0.453470	0.328130	0.170730
C611	C61	0.416390	0.419330	0.136090
C621	C62	0.429700	0.409700	0.077500
C631	C63	0.476700	0.311500	0.054900
C641	C64	0.583170	0.718070	0.078790
C651	C65	0.475390	0.772300	0.111120
C661	C66	0.444270	0.618380	0.128480
C671	C67	0.556250	0.564050	0.095850
C681	C68	0.623600	0.613370	0.073230
C691	C69	0.657740	0.771130	0.052990
C701	C70	0.264100	0.531530	0.289670
C711	C71	0.273490	0.509310	0.347310
C721	C72	0.371650	0.487380	0.361720
C731	C73	0.462730	0.487880	0.317460
C741	C74	0.452360	0.511010	0.259870
C751	C75	0.353280	0.532450	0.245190
C761	C76	0.206870	0.631470	0.152990
C771	C77	0.990620	0.741460	0.129500
C781	C78	0.875280	0.800170	0.116870
C791	C79	0.175020	0.722460	0.116900
C801	C80	0.069500	0.779400	0.104000
C811	C81	0.017510	0.650820	0.165960
C821	C82	0.124590	0.597190	0.177230
C831	C83	0.383220	0.465430	0.423730
C841	C84	0.406410	0.723700	0.135280
C851	C85	0.746780	0.381500	0.434340
C861	C86	0.824690	0.276470	0.409550
C871	C87	0.881560	0.268830	0.351650
C881	C88	0.952330	0.171870	0.329270
C891	C89	0.971810	0.080670	0.363910
C901	C90	0.916900	0.090300	0.422500
C911	C91	0.843100	0.188500	0.445100
C921	C92	0.380030	0.781930	0.421210
C931	C93	0.358810	0.727700	0.388880
C941	C94	0.191130	0.881620	0.371520
C951	C95	0.216150	0.935950	0.404150
C961	C96	0.310200	0.886630	0.426770
C971	C97	0.481860	0.728870	0.447010
C981	C98	0.085300	0.968470	0.210330
C991	C99	0.130110	0.990690	0.152690
C1001	C100	0.220750	0.012620	0.138280
C1011	C101	0.268070	0.012120	0.182540
C1021	C102	0.223240	0.988990	0.240130
C1031	C103	0.130920	0.967550	0.254810
C1041	C104	0.991330	0.868530	0.347010
C1051	C105	0.861580	0.758540	0.370500
C1061	C106	0.792320	0.699830	0.383130
C1071	C107	0.014380	0.777540	0.383100
C1081	C108	0.952900	0.720600	0.396000
C1091	C109	0.834290	0.849180	0.334040
C1101	C110	0.899010	0.902810	0.322770
C1111	C111	0.272380	0.034570	0.076270
C1121	C112	0.265390	0.776300	0.364720
O11	O1	0.358570	0.954750	0.913010
O21	O2	0.473280	0.888160	0.974880
O31	O3	0.694170	0.548600	0.538060
O41	O4	0.531090	0.536560	0.567220
O51	O5	0.242070	0.277900	0.969960
O61	O6	0.389970	0.127760	0.942320
O71	O7	0.127700	0.153450	0.932350
O81	O8	0.205100	0.208030	0.850770
O91	O9	0.226330	0.545250	0.586990
O101	O10	0.336320	0.611840	0.525120
O111	O11	0.780830	0.951400	0.961940
O121	O12	0.634870	0.963440	0.932780
O131	O13	0.489930	0.222100	0.530040
O141	O14	0.460050	0.372240	0.557680
O151	O15	0.213500	0.346550	0.567650
O161	O16	0.263900	0.291970	0.649230
O171	O17	0.641430	0.045250	0.086990
O181	O18	0.526720	0.111840	0.025120
O191	O19	0.305830	0.451400	0.461940
O201	O20	0.468910	0.463440	0.432780
O211	O21	0.757930	0.722100	0.030040
O221	O22	0.610030	0.872240	0.057680
O231	O23	0.872300	0.846550	0.067650
O241	O24	0.794900	0.791970	0.149230
O251	O25	0.773670	0.454750	0.413010
O261	O26	0.663680	0.388160	0.474880
O271	O27	0.219170	0.048600	0.038060
O281	O28	0.365130	0.036560	0.067220
O291	O29	0.510070	0.777900	0.469960
O301	O30	0.539950	0.627760	0.442320
O311	O31	0.786500	0.653450	0.432350
O321	O32	0.736100	0.708030	0.350770
