data_ODONEB_freeONLY_PM
_symmetry_space_group_name_H-M	'P1'
_cell_length_a	12.561100
_cell_length_b	12.561100
_cell_length_c	62.471000
_cell_angle_alpha	90.000000
_cell_angle_beta	90.000000
_cell_angle_gamma	120.000000
_symmetry_Int_Tables_number 1

loop_
_symmetry_equiv_pos_as_xyz
'x,y,z'

loop_
_atom_site_label
_atom_site_type_symbol
_atom_site_fract_x
_atom_site_fract_y
_atom_site_fract_z
Ni11	Ni1	0.594270	0.188540	0.416670
Ni21	Ni2	0.594270	0.405730	0.750000
Ni31	Ni3	0.811460	0.405730	0.083330
Ni41	Ni4	0.405730	0.811460	0.916670
Ni51	Ni5	0.405730	0.594270	0.250000
Ni61	Ni6	0.188540	0.594270	0.583330
Ni71	Ni7	0.696100	0.348050	0.583330
Ni81	Ni8	0.651950	0.303900	0.916670
Ni91	Ni9	0.651950	0.348050	0.250000
Ni101	Ni10	0.303900	0.651950	0.083330
Ni111	Ni11	0.348050	0.696100	0.416670
Ni121	Ni12	0.348050	0.651950	0.750000
H11	H1	0.963600	0.163200	0.444300
H21	H2	0.996400	0.289900	0.434000
H31	H3	0.903600	0.613200	0.520200
H41	H4	0.015200	0.622500	0.533100
H51	H5	0.941400	0.730300	0.471600
H61	H6	0.000200	0.792500	0.449700
H71	H7	0.591100	0.434100	0.418200
H81	H8	0.626200	0.587900	0.441700
H91	H9	0.662100	0.391500	0.488200
H101	H10	0.626900	0.243200	0.464000
H111	H11	0.691000	0.682800	0.475800
H121	H12	0.753600	0.630900	0.491000
H131	H13	0.560500	0.501900	0.507300
H141	H14	0.627900	0.374500	0.629100
H151	H15	0.472200	0.281300	0.652800
H161	H16	0.299800	0.002400	0.611400
H171	H17	0.463700	0.103000	0.589200
H181	H18	0.240200	0.126600	0.657500
H191	H19	0.182600	0.009700	0.642700
H201	H20	0.304400	0.942600	0.659400
H211	H21	0.903000	0.178900	0.471300
H221	H22	0.891100	0.394300	0.527400
H231	H23	0.975200	0.615100	0.439100
H241	H24	0.214400	0.907400	0.492500
H251	H25	0.470100	0.996200	0.435400
H261	H26	0.392900	0.043800	0.434700
H271	H27	0.731100	0.560500	0.581100
H281	H28	0.756700	0.541200	0.601400
H291	H29	0.199600	0.036400	0.777630
H301	H30	0.293500	0.003600	0.767330
H311	H31	0.709600	0.096400	0.853530
H321	H32	0.607300	0.984800	0.866430
H331	H33	0.788900	0.058600	0.804930
H341	H34	0.792300	0.999800	0.783030
H351	H35	0.843000	0.408900	0.751530
H361	H36	0.961700	0.373800	0.775030
H371	H37	0.729400	0.337900	0.821530
H381	H38	0.616300	0.373100	0.797330
H391	H39	0.991800	0.309000	0.809130
H401	H40	0.877300	0.246400	0.824330
H411	H41	0.941400	0.439500	0.840630
H421	H42	0.746600	0.372100	0.962430
H431	H43	0.809100	0.527800	0.986130
H441	H44	0.702600	0.700200	0.944730
H451	H45	0.639300	0.536300	0.922530
H461	H46	0.886400	0.759800	0.990830
H471	H47	0.827100	0.817400	0.976030
H481	H48	0.638200	0.695600	0.992730
H491	H49	0.275900	0.097000	0.804630
H501	H50	0.503200	0.108900	0.860730
H511	H51	0.639900	0.024800	0.772430
H521	H52	0.693000	0.785600	0.825830
H531	H53	0.526100	0.529900	0.768730
H541	H54	0.650900	0.607100	0.768030
H551	H55	0.829400	0.268900	0.914430
H561	H56	0.784500	0.243300	0.934730
H571	H57	0.836800	0.800400	0.110970
H581	H58	0.710100	0.706500	0.100670
H591	H59	0.386800	0.290400	0.186870
H601	H60	0.377500	0.392700	0.199770
H611	H61	0.269700	0.211100	0.138270
H621	H62	0.207500	0.207700	0.116370
H631	H63	0.565900	0.157000	0.084870
H641	H64	0.412100	0.038300	0.108370
H651	H65	0.608500	0.270600	0.154870
H661	H66	0.756800	0.383700	0.130670
H671	H67	0.317200	0.008200	0.142470
H681	H68	0.369100	0.122700	0.157670
H691	H69	0.498100	0.058600	0.173970
H701	H70	0.625500	0.253400	0.295770
H711	H71	0.718700	0.190900	0.319470
H721	H72	0.997600	0.297400	0.278070
H731	H73	0.897000	0.360700	0.255870
H741	H74	0.873400	0.113600	0.324170
H751	H75	0.990300	0.172900	0.309370
H761	H76	0.057400	0.361800	0.326070
H771	H77	0.821100	0.724100	0.137970
H781	H78	0.605700	0.496800	0.194070
H791	H79	0.384900	0.360100	0.105770
H801	H80	0.092600	0.307000	0.159170
H811	H81	0.003800	0.473900	0.102070
H821	H82	0.956200	0.349100	0.101370
H831	H83	0.439500	0.170600	0.247770
H841	H84	0.458800	0.215500	0.268070
H851	H85	0.036400	0.836800	0.944300
H861	H86	0.003600	0.710100	0.934000
H871	H87	0.096400	0.386800	0.020200
H881	H88	0.984800	0.377500	0.033100
H891	H89	0.058600	0.269700	0.971600
H901	H90	0.999800	0.207500	0.949700
H911	H91	0.408900	0.565900	0.918200
H921	H92	0.373800	0.412100	0.941700
H931	H93	0.337900	0.608500	0.988200
H941	H94	0.373100	0.756800	0.964000
H951	H95	0.309000	0.317200	0.975800
H961	H96	0.246400	0.369100	0.991000
H971	H97	0.439500	0.498100	0.007300
H981	H98	0.372100	0.625500	0.129100
H991	H99	0.527800	0.718700	0.152800
H1001	H100	0.700200	0.997600	0.111400
H1011	H101	0.536300	0.897000	0.089200
H1021	H102	0.759800	0.873400	0.157500
H1031	H103	0.817400	0.990300	0.142700
H1041	H104	0.695600	0.057400	0.159400
H1051	H105	0.097000	0.821100	0.971300
H1061	H106	0.108900	0.605700	0.027400
H1071	H107	0.024800	0.384900	0.939100
H1081	H108	0.785600	0.092600	0.992500
H1091	H109	0.529900	0.003800	0.935400
H1101	H110	0.607100	0.956200	0.934700
H1111	H111	0.268900	0.439500	0.081100
H1121	H112	0.243300	0.458800	0.101400
H1131	H113	0.800400	0.963600	0.277630
H1141	H114	0.706500	0.996400	0.267330
H1151	H115	0.290400	0.903600	0.353530
H1161	H116	0.392700	0.015200	0.366430
H1171	H117	0.211100	0.941400	0.304930
H1181	H118	0.207700	0.000200	0.283030
H1191	H119	0.157000	0.591100	0.251530
H1201	H120	0.038300	0.626200	0.275030
H1211	H121	0.270600	0.662100	0.321530
H1221	H122	0.383700	0.626900	0.297330
H1231	H123	0.008200	0.691000	0.309130
H1241	H124	0.122700	0.753600	0.324330
H1251	H125	0.058600	0.560500	0.340630
H1261	H126	0.253400	0.627900	0.462430
H1271	H127	0.190900	0.472200	0.486130
H1281	H128	0.297400	0.299800	0.444730
H1291	H129	0.360700	0.463700	0.422530
H1301	H130	0.113600	0.240200	0.490830
H1311	H131	0.172900	0.182600	0.476030
H1321	H132	0.361800	0.304400	0.492730
H1331	H133	0.724100	0.903000	0.304630
H1341	H134	0.496800	0.891100	0.360730
H1351	H135	0.360100	0.975200	0.272430
H1361	H136	0.307000	0.214400	0.325830
H1371	H137	0.473900	0.470100	0.268730
H1381	H138	0.349100	0.392900	0.268030
H1391	H139	0.170600	0.731100	0.414430
H1401	H140	0.215500	0.756700	0.434730
H1411	H141	0.163200	0.199600	0.610970
H1421	H142	0.289900	0.293500	0.600670
H1431	H143	0.613200	0.709600	0.686870
H1441	H144	0.622500	0.607300	0.699770
H1451	H145	0.730300	0.788900	0.638270
H1461	H146	0.792500	0.792300	0.616370
H1471	H147	0.434100	0.843000	0.584870
H1481	H148	0.587900	0.961700	0.608370
H1491	H149	0.391500	0.729400	0.654870
H1501	H150	0.243200	0.616300	0.630670
H1511	H151	0.682800	0.991800	0.642470
H1521	H152	0.630900	0.877300	0.657670
H1531	H153	0.501900	0.941400	0.673970
H1541	H154	0.374500	0.746600	0.795770
H1551	H155	0.281300	0.809100	0.819470
H1561	H156	0.002400	0.702600	0.778070
H1571	H157	0.103000	0.639300	0.755870
H1581	H158	0.126600	0.886400	0.824170
H1591	H159	0.009700	0.827100	0.809370
H1601	H160	0.942600	0.638200	0.826070
H1611	H161	0.178900	0.275900	0.637970
H1621	H162	0.394300	0.503200	0.694070
H1631	H163	0.615100	0.639900	0.605770
H1641	H164	0.907400	0.693000	0.659170
H1651	H165	0.996200	0.526100	0.602070
H1661	H166	0.043800	0.650900	0.601370
H1671	H167	0.560500	0.829400	0.747770
H1681	H168	0.541200	0.784500	0.768070
H1691	H169	0.800400	0.836800	0.889030
H1701	H170	0.706500	0.710100	0.899330
H1711	H171	0.290400	0.386800	0.813130
H1721	H172	0.392700	0.377500	0.800230
H1731	H173	0.211100	0.269700	0.861730
H1741	H174	0.207700	0.207500	0.883630
H1751	H175	0.157000	0.565900	0.915130
H1761	H176	0.038300	0.412100	0.891630
H1771	H177	0.270600	0.608500	0.845130
H1781	H178	0.383700	0.756800	0.869330
H1791	H179	0.008200	0.317200	0.857530
H1801	H180	0.122700	0.369100	0.842330
H1811	H181	0.058600	0.498100	0.826030
H1821	H182	0.253400	0.625500	0.704230
H1831	H183	0.190900	0.718700	0.680530
H1841	H184	0.297400	0.997600	0.721930
H1851	H185	0.360700	0.897000	0.744130
H1861	H186	0.113600	0.873400	0.675830
H1871	H187	0.172900	0.990300	0.690630
H1881	H188	0.361800	0.057400	0.673930
H1891	H189	0.724100	0.821100	0.862030
H1901	H190	0.496800	0.605700	0.805930
H1911	H191	0.360100	0.384900	0.894230
H1921	H192	0.307000	0.092600	0.840830
H1931	H193	0.473900	0.003800	0.897930
H1941	H194	0.349100	0.956200	0.898630
H1951	H195	0.170600	0.439500	0.752230
H1961	H196	0.215500	0.458800	0.731930
H1971	H197	0.163200	0.963600	0.555700
H1981	H198	0.289900	0.996400	0.566000
H1991	H199	0.613200	0.903600	0.479800
H2001	H200	0.622500	0.015200	0.466900
H2011	H201	0.730300	0.941400	0.528400
H2021	H202	0.792500	0.000200	0.550300
H2031	H203	0.434100	0.591100	0.581800
H2041	H204	0.587900	0.626200	0.558300
H2051	H205	0.391500	0.662100	0.511800
H2061	H206	0.243200	0.626900	0.536000
H2071	H207	0.682800	0.691000	0.524200
H2081	H208	0.630900	0.753600	0.509000
H2091	H209	0.501900	0.560500	0.492700
H2101	H210	0.374500	0.627900	0.370900
H2111	H211	0.281300	0.472200	0.347200
H2121	H212	0.002400	0.299800	0.388600
H2131	H213	0.103000	0.463700	0.410800
H2141	H214	0.126600	0.240200	0.342500
H2151	H215	0.009700	0.182600	0.357300
H2161	H216	0.942600	0.304400	0.340600
H2171	H217	0.178900	0.903000	0.528700
H2181	H218	0.394300	0.891100	0.472600
H2191	H219	0.615100	0.975200	0.560900
H2201	H220	0.907400	0.214400	0.507500
H2211	H221	0.996200	0.470100	0.564600
H2221	H222	0.043800	0.392900	0.565300
H2231	H223	0.560500	0.731100	0.418900
H2241	H224	0.541200	0.756700	0.398600
H2251	H225	0.036400	0.199600	0.222370
H2261	H226	0.003600	0.293500	0.232670
H2271	H227	0.096400	0.709600	0.146470
H2281	H228	0.984800	0.607300	0.133570
H2291	H229	0.058600	0.788900	0.195070
H2301	H230	0.999800	0.792300	0.216970
H2311	H231	0.408900	0.843000	0.248470
H2321	H232	0.373800	0.961700	0.224970
H2331	H233	0.337900	0.729400	0.178470
H2341	H234	0.373100	0.616300	0.202670
H2351	H235	0.309000	0.991800	0.190870
H2361	H236	0.246400	0.877300	0.175670
H2371	H237	0.439500	0.941400	0.159370
H2381	H238	0.372100	0.746600	0.037570
H2391	H239	0.527800	0.809100	0.013870
H2401	H240	0.700200	0.702600	0.055270
H2411	H241	0.536300	0.639300	0.077470
H2421	H242	0.759800	0.886400	0.009170
H2431	H243	0.817400	0.827100	0.023970
H2441	H244	0.695600	0.638200	0.007270
H2451	H245	0.097000	0.275900	0.195370
H2461	H246	0.108900	0.503200	0.139270
H2471	H247	0.024800	0.639900	0.227570
H2481	H248	0.785600	0.693000	0.174170
H2491	H249	0.529900	0.526100	0.231270
H2501	H250	0.607100	0.650900	0.231970
H2511	H251	0.268900	0.829400	0.085570
H2521	H252	0.243300	0.784500	0.065270
H2531	H253	0.199600	0.163200	0.389030
H2541	H254	0.293500	0.289900	0.399330
H2551	H255	0.709600	0.613200	0.313130
H2561	H256	0.607300	0.622500	0.300230
H2571	H257	0.788900	0.730300	0.361730
H2581	H258	0.792300	0.792500	0.383630
H2591	H259	0.843000	0.434100	0.415130
H2601	H260	0.961700	0.587900	0.391630
H2611	H261	0.729400	0.391500	0.345130
H2621	H262	0.616300	0.243200	0.369330
H2631	H263	0.991800	0.682800	0.357530
H2641	H264	0.877300	0.630900	0.342330
H2651	H265	0.941400	0.501900	0.326030
H2661	H266	0.746600	0.374500	0.204230
H2671	H267	0.809100	0.281300	0.180530
H2681	H268	0.702600	0.002400	0.221930
H2691	H269	0.639300	0.103000	0.244130
H2701	H270	0.886400	0.126600	0.175830
H2711	H271	0.827100	0.009700	0.190630
H2721	H272	0.638200	0.942600	0.173930
H2731	H273	0.275900	0.178900	0.362030
H2741	H274	0.503200	0.394300	0.305930
H2751	H275	0.639900	0.615100	0.394230
H2761	H276	0.693000	0.907400	0.340830
H2771	H277	0.526100	0.996200	0.397930
H2781	H278	0.650900	0.043800	0.398630
H2791	H279	0.829400	0.560500	0.252230
H2801	H280	0.784500	0.541200	0.231930
H2811	H281	0.836800	0.036400	0.055700
H2821	H282	0.710100	0.003600	0.066000
H2831	H283	0.386800	0.096400	0.979800
H2841	H284	0.377500	0.984800	0.966900
H2851	H285	0.269700	0.058600	0.028400
H2861	H286	0.207500	0.999800	0.050300
H2871	H287	0.565900	0.408900	0.081800
H2881	H288	0.412100	0.373800	0.058300
H2891	H289	0.608500	0.337900	0.011800
H2901	H290	0.756800	0.373100	0.036000
H2911	H291	0.317200	0.309000	0.024200
H2921	H292	0.369100	0.246400	0.009000
H2931	H293	0.498100	0.439500	0.992700
H2941	H294	0.625500	0.372100	0.870900
H2951	H295	0.718700	0.527800	0.847200
H2961	H296	0.997600	0.700200	0.888600
H2971	H297	0.897000	0.536300	0.910800
H2981	H298	0.873400	0.759800	0.842500
H2991	H299	0.990300	0.817400	0.857300
H3001	H300	0.057400	0.695600	0.840600
H3011	H301	0.821100	0.097000	0.028700
H3021	H302	0.605700	0.108900	0.972600
H3031	H303	0.384900	0.024800	0.060900
H3041	H304	0.092600	0.785600	0.007500
H3051	H305	0.003800	0.529900	0.064600
H3061	H306	0.956200	0.607100	0.065300
H3071	H307	0.439500	0.268900	0.918900
H3081	H308	0.458800	0.243300	0.898600
H3091	H309	0.963600	0.800400	0.722370
H3101	H310	0.996400	0.706500	0.732670
H3111	H311	0.903600	0.290400	0.646470
H3121	H312	0.015200	0.392700	0.633570
H3131	H313	0.941400	0.211100	0.695070
H3141	H314	0.000200	0.207700	0.716970
H3151	H315	0.591100	0.157000	0.748470
H3161	H316	0.626200	0.038300	0.724970
H3171	H317	0.662100	0.270600	0.678470
H3181	H318	0.626900	0.383700	0.702670
H3191	H319	0.691000	0.008200	0.690870
H3201	H320	0.753600	0.122700	0.675670
H3211	H321	0.560500	0.058600	0.659370
H3221	H322	0.627900	0.253400	0.537570
H3231	H323	0.472200	0.190900	0.513870
H3241	H324	0.299800	0.297400	0.555270
H3251	H325	0.463700	0.360700	0.577470
H3261	H326	0.240200	0.113600	0.509170
H3271	H327	0.182600	0.172900	0.523970
H3281	H328	0.304400	0.361800	0.507270
H3291	H329	0.903000	0.724100	0.695370
H3301	H330	0.891100	0.496800	0.639270
H3311	H331	0.975200	0.360100	0.727570
H3321	H332	0.214400	0.307000	0.674170
H3331	H333	0.470100	0.473900	0.731270
H3341	H334	0.392900	0.349100	0.731970
H3351	H335	0.731100	0.170600	0.585570
H3361	H336	0.756700	0.215500	0.565270
C11	C1	0.923900	0.338100	0.469030
C21	C2	0.924300	0.451500	0.498590
C31	C3	0.958600	0.530600	0.465460
C41	C4	0.929600	0.213600	0.439580
C51	C5	0.818000	0.172200	0.425990
C61	C6	0.928600	0.569500	0.529960
C71	C7	0.855500	0.541600	0.550430
C81	C8	0.004200	0.743100	0.461260
C91	C9	0.130800	0.813800	0.471990
C101	C10	0.606100	0.425100	0.432450
C111	C11	0.627200	0.518500	0.446590
C121	C12	0.649600	0.509200	0.467890
C131	C13	0.648400	0.402700	0.473990
C141	C14	0.627100	0.313600	0.459310
C151	C15	0.677900	0.610300	0.483600
C161	C16	0.560700	0.298900	0.625390
C171	C17	0.466800	0.244000	0.639710
C181	C18	0.363500	0.133100	0.634780
C191	C19	0.365000	0.078800	0.615300
C201	C20	0.464100	0.140200	0.602080
C211	C21	0.256100	0.067200	0.650390
C221	C22	0.414200	0.076100	0.802360
C231	C23	0.527200	0.075700	0.831920
C241	C24	0.572000	0.041400	0.798790
C251	C25	0.284000	0.070400	0.772910
C261	C26	0.354200	0.182000	0.759320
C271	C27	0.640900	0.071400	0.863290
C281	C28	0.686100	0.144500	0.883760
C291	C29	0.738900	0.995800	0.794590
C301	C30	0.683000	0.869200	0.805320
C311	C31	0.819000	0.393900	0.765780
C321	C32	0.891300	0.372800	0.779920
C331	C33	0.859600	0.350400	0.801220
C341	C34	0.754300	0.351600	0.807320
C351	C35	0.686500	0.372900	0.792640
C361	C36	0.932400	0.322100	0.816930
C371	C37	0.738200	0.439300	0.958720
C381	C38	0.777200	0.533200	0.973040
C391	C39	0.769600	0.636500	0.968110
C401	C40	0.713800	0.635000	0.948630
C411	C41	0.676100	0.535900	0.935410
C421	C42	0.811100	0.743900	0.983720
C431	C43	0.661900	0.585800	0.135700
C441	C44	0.548500	0.472800	0.165260
C451	C45	0.469400	0.428000	0.132130
C461	C46	0.786400	0.716000	0.106250
C471	C47	0.827800	0.645800	0.092660
C481	C48	0.430500	0.359100	0.196630
C491	C49	0.458400	0.313900	0.217100
C501	C50	0.256900	0.261100	0.127930
C511	C51	0.186200	0.317000	0.138660
C521	C52	0.574900	0.181000	0.099120
C531	C53	0.481500	0.108700	0.113260
C541	C54	0.490800	0.140400	0.134560
C551	C55	0.597300	0.245700	0.140660
C561	C56	0.686400	0.313500	0.125980
C571	C57	0.389700	0.067600	0.150270
C581	C58	0.701100	0.261800	0.292060
C591	C59	0.756000	0.222800	0.306380
C601	C60	0.866900	0.230400	0.301450
C611	C61	0.921200	0.286200	0.281970
C621	C62	0.859800	0.323900	0.268750
C631	C63	0.932800	0.188900	0.317060
C641	C64	0.076100	0.661900	0.969030
C651	C65	0.075700	0.548500	0.998590
C661	C66	0.041400	0.469400	0.965460
C671	C67	0.070400	0.786400	0.939580
C681	C68	0.182000	0.827800	0.925990
C691	C69	0.071400	0.430500	0.029960
C701	C70	0.144500	0.458400	0.050430
C711	C71	0.995800	0.256900	0.961260
C721	C72	0.869200	0.186200	0.971990
C731	C73	0.393900	0.574900	0.932450
C741	C74	0.372800	0.481500	0.946590
C751	C75	0.350400	0.490800	0.967890
C761	C76	0.351600	0.597300	0.973990
C771	C77	0.372900	0.686400	0.959310
C781	C78	0.322100	0.389700	0.983600
C791	C79	0.439300	0.701100	0.125390
C801	C80	0.533200	0.756000	0.139710
C811	C81	0.636500	0.866900	0.134780
C821	C82	0.635000	0.921200	0.115300
C831	C83	0.535900	0.859800	0.102080
C841	C84	0.743900	0.932800	0.150390
C851	C85	0.585800	0.923900	0.302360
C861	C86	0.472800	0.924300	0.331920
C871	C87	0.428000	0.958600	0.298790
C881	C88	0.716000	0.929600	0.272910
C891	C89	0.645800	0.818000	0.259320
C901	C90	0.359100	0.928600	0.363290
C911	C91	0.313900	0.855500	0.383760
C921	C92	0.261100	0.004200	0.294590
C931	C93	0.317000	0.130800	0.305320
C941	C94	0.181000	0.606100	0.265780
C951	C95	0.108700	0.627200	0.279920
C961	C96	0.140400	0.649600	0.301220
C971	C97	0.245700	0.648400	0.307320
C981	C98	0.313500	0.627100	0.292640
C991	C99	0.067600	0.677900	0.316930
C1001	C100	0.261800	0.560700	0.458720
C1011	C101	0.222800	0.466800	0.473040
C1021	C102	0.230400	0.363500	0.468110
C1031	C103	0.286200	0.365000	0.448630
C1041	C104	0.323900	0.464100	0.435410
C1051	C105	0.188900	0.256100	0.483720
C1061	C106	0.338100	0.414200	0.635700
C1071	C107	0.451500	0.527200	0.665260
C1081	C108	0.530600	0.572000	0.632130
C1091	C109	0.213600	0.284000	0.606250
C1101	C110	0.172200	0.354200	0.592660
C1111	C111	0.569500	0.640900	0.696630
C1121	C112	0.541600	0.686100	0.717100
C1131	C113	0.743100	0.738900	0.627930
C1141	C114	0.813800	0.683000	0.638660
C1151	C115	0.425100	0.819000	0.599120
C1161	C116	0.518500	0.891300	0.613260
C1171	C117	0.509200	0.859600	0.634560
C1181	C118	0.402700	0.754300	0.640660
C1191	C119	0.313600	0.686500	0.625980
C1201	C120	0.610300	0.932400	0.650270
C1211	C121	0.298900	0.738200	0.792060
C1221	C122	0.244000	0.777200	0.806380
C1231	C123	0.133100	0.769600	0.801450
C1241	C124	0.078800	0.713800	0.781970
C1251	C125	0.140200	0.676100	0.768750
C1261	C126	0.067200	0.811100	0.817060
C1271	C127	0.585800	0.661900	0.864300
C1281	C128	0.472800	0.548500	0.834740
C1291	C129	0.428000	0.469400	0.867870
C1301	C130	0.716000	0.786400	0.893750
C1311	C131	0.645800	0.827800	0.907340
C1321	C132	0.359100	0.430500	0.803370
C1331	C133	0.313900	0.458400	0.782900
C1341	C134	0.261100	0.256900	0.872070
C1351	C135	0.317000	0.186200	0.861340
C1361	C136	0.181000	0.574900	0.900880
C1371	C137	0.108700	0.481500	0.886740
C1381	C138	0.140400	0.490800	0.865440
C1391	C139	0.245700	0.597300	0.859340
C1401	C140	0.313500	0.686400	0.874020
C1411	C141	0.067600	0.389700	0.849730
C1421	C142	0.261800	0.701100	0.707940
C1431	C143	0.222800	0.756000	0.693620
C1441	C144	0.230400	0.866900	0.698550
C1451	C145	0.286200	0.921200	0.718030
C1461	C146	0.323900	0.859800	0.731250
C1471	C147	0.188900	0.932800	0.682940
C1481	C148	0.338100	0.923900	0.530970
C1491	C149	0.451500	0.924300	0.501410
C1501	C150	0.530600	0.958600	0.534540
C1511	C151	0.213600	0.929600	0.560420
C1521	C152	0.172200	0.818000	0.574010
C1531	C153	0.569500	0.928600	0.470040
C1541	C154	0.541600	0.855500	0.449570
C1551	C155	0.743100	0.004200	0.538740
C1561	C156	0.813800	0.130800	0.528010
C1571	C157	0.425100	0.606100	0.567550
C1581	C158	0.518500	0.627200	0.553410
C1591	C159	0.509200	0.649600	0.532110
C1601	C160	0.402700	0.648400	0.526010
C1611	C161	0.313600	0.627100	0.540690
C1621	C162	0.610300	0.677900	0.516400
C1631	C163	0.298900	0.560700	0.374610
C1641	C164	0.244000	0.466800	0.360290
C1651	C165	0.133100	0.363500	0.365220
C1661	C166	0.078800	0.365000	0.384700
C1671	C167	0.140200	0.464100	0.397920
C1681	C168	0.067200	0.256100	0.349610
C1691	C169	0.076100	0.414200	0.197640
C1701	C170	0.075700	0.527200	0.168080
C1711	C171	0.041400	0.572000	0.201210
C1721	C172	0.070400	0.284000	0.227090
C1731	C173	0.182000	0.354200	0.240680
C1741	C174	0.071400	0.640900	0.136710
C1751	C175	0.144500	0.686100	0.116240
C1761	C176	0.995800	0.738900	0.205410
C1771	C177	0.869200	0.683000	0.194680
C1781	C178	0.393900	0.819000	0.234220
C1791	C179	0.372800	0.891300	0.220080
C1801	C180	0.350400	0.859600	0.198780
C1811	C181	0.351600	0.754300	0.192680
C1821	C182	0.372900	0.686500	0.207360
C1831	C183	0.322100	0.932400	0.183070
C1841	C184	0.439300	0.738200	0.041280
C1851	C185	0.533200	0.777200	0.026960
C1861	C186	0.636500	0.769600	0.031890
C1871	C187	0.635000	0.713800	0.051370
C1881	C188	0.535900	0.676100	0.064590
C1891	C189	0.743900	0.811100	0.016280
C1901	C190	0.414200	0.338100	0.364300
C1911	C191	0.527200	0.451500	0.334740
C1921	C192	0.572000	0.530600	0.367870
C1931	C193	0.284000	0.213600	0.393750
C1941	C194	0.354200	0.172200	0.407340
C1951	C195	0.640900	0.569500	0.303370
C1961	C196	0.686100	0.541600	0.282900
C1971	C197	0.738900	0.743100	0.372070
C1981	C198	0.683000	0.813800	0.361340
C1991	C199	0.819000	0.425100	0.400880
C2001	C200	0.891300	0.518500	0.386740
C2011	C201	0.859600	0.509200	0.365440
C2021	C202	0.754300	0.402700	0.359340
C2031	C203	0.686500	0.313600	0.374020
C2041	C204	0.932400	0.610300	0.349730
C2051	C205	0.738200	0.298900	0.207940
C2061	C206	0.777200	0.244000	0.193620
C2071	C207	0.769600	0.133100	0.198550
C2081	C208	0.713800	0.078800	0.218030
C2091	C209	0.676100	0.140200	0.231250
C2101	C210	0.811100	0.067200	0.182940
C2111	C211	0.661900	0.076100	0.030970
C2121	C212	0.548500	0.075700	0.001410
C2131	C213	0.469400	0.041400	0.034540
C2141	C214	0.786400	0.070400	0.060420
C2151	C215	0.827800	0.182000	0.074010
C2161	C216	0.430500	0.071400	0.970040
C2171	C217	0.458400	0.144500	0.949570
C2181	C218	0.256900	0.995800	0.038740
C2191	C219	0.186200	0.869200	0.028010
C2201	C220	0.574900	0.393900	0.067550
C2211	C221	0.481500	0.372800	0.053410
C2221	C222	0.490800	0.350400	0.032110
C2231	C223	0.597300	0.351600	0.026010
C2241	C224	0.686400	0.372900	0.040690
C2251	C225	0.389700	0.322100	0.016400
C2261	C226	0.701100	0.439300	0.874610
C2271	C227	0.756000	0.533200	0.860290
C2281	C228	0.866900	0.636500	0.865220
C2291	C229	0.921200	0.635000	0.884700
C2301	C230	0.859800	0.535900	0.897920
C2311	C231	0.932800	0.743900	0.849610
C2321	C232	0.923900	0.585800	0.697640
C2331	C233	0.924300	0.472800	0.668080
C2341	C234	0.958600	0.428000	0.701210
C2351	C235	0.929600	0.716000	0.727090
C2361	C236	0.818000	0.645800	0.740680
C2371	C237	0.928600	0.359100	0.636710
C2381	C238	0.855500	0.313900	0.616240
C2391	C239	0.004200	0.261100	0.705410
C2401	C240	0.130800	0.317000	0.694680
C2411	C241	0.606100	0.181000	0.734220
C2421	C242	0.627200	0.108700	0.720080
C2431	C243	0.649600	0.140400	0.698780
C2441	C244	0.648400	0.245700	0.692680
C2451	C245	0.627100	0.313500	0.707360
C2461	C246	0.677900	0.067600	0.683070
C2471	C247	0.560700	0.261800	0.541280
C2481	C248	0.466800	0.222800	0.526960
C2491	C249	0.363500	0.230400	0.531890
C2501	C250	0.365000	0.286200	0.551370
C2511	C251	0.464100	0.323900	0.564590
C2521	C252	0.256100	0.188900	0.516280
C2531	C253	0.576700	0.576700	0.500000
C2541	C254	0.000000	0.423300	0.833330
C2551	C255	0.423300	0.000000	0.166670
C2561	C256	0.423300	0.423300	0.000000
C2571	C257	0.000000	0.576700	0.333330
C2581	C258	0.576700	0.000000	0.666670
C2591	C259	0.288000	0.000000	0.666670
C2601	C260	0.712000	0.712000	0.000000
C2611	C261	0.000000	0.288000	0.333330
C2621	C262	0.712000	0.000000	0.166670
C2631	C263	0.288000	0.288000	0.500000
C2641	C264	0.000000	0.712000	0.833330
N11	N1	0.947000	0.429600	0.455880
N21	N2	0.908800	0.343400	0.490900
N31	N3	0.951900	0.548900	0.486710
N41	N4	0.916300	0.235400	0.462180
N51	N5	0.910900	0.458200	0.519640
N61	N6	0.978200	0.625000	0.452790
N71	N7	0.606200	0.322600	0.438240
N81	N8	0.562300	0.250900	0.606410
N91	N9	0.482600	0.053000	0.789210
N101	N10	0.434600	0.091200	0.824230
N111	N11	0.597000	0.048100	0.820040
N121	N12	0.319100	0.083700	0.795510
N131	N13	0.547300	0.089100	0.852970
N141	N14	0.646800	0.021800	0.786120
N151	N15	0.716400	0.393800	0.771570
N161	N16	0.688600	0.437700	0.939740
N171	N17	0.570400	0.517400	0.122550
N181	N18	0.656600	0.565400	0.157570
N191	N19	0.451100	0.403000	0.153380
N201	N20	0.764600	0.680900	0.128850
N211	N21	0.541800	0.452700	0.186310
N221	N22	0.375000	0.353200	0.119460
N231	N23	0.677400	0.283600	0.104910
N241	N24	0.749100	0.311400	0.273080
N251	N25	0.053000	0.570400	0.955880
N261	N26	0.091200	0.656600	0.990900
N271	N27	0.048100	0.451100	0.986710
N281	N28	0.083700	0.764600	0.962180
N291	N29	0.089100	0.541800	0.019640
N301	N30	0.021800	0.375000	0.952790
N311	N31	0.393800	0.677400	0.938240
N321	N32	0.437700	0.749100	0.106410
N331	N33	0.517400	0.947000	0.289210
N341	N34	0.565400	0.908800	0.324230
N351	N35	0.403000	0.951900	0.320040
N361	N36	0.680900	0.916300	0.295510
N371	N37	0.452700	0.910900	0.352970
N381	N38	0.353200	0.978200	0.286120
N391	N39	0.283600	0.606200	0.271570
N401	N40	0.311400	0.562300	0.439740
N411	N41	0.429600	0.482600	0.622550
N421	N42	0.343400	0.434600	0.657570
N431	N43	0.548900	0.597000	0.653380
N441	N44	0.235400	0.319100	0.628850
N451	N45	0.458200	0.547300	0.686310
N461	N46	0.625000	0.646800	0.619460
N471	N47	0.322600	0.716400	0.604910
N481	N48	0.250900	0.688600	0.773080
N491	N49	0.517400	0.570400	0.877450
N501	N50	0.565400	0.656600	0.842430
N511	N51	0.403000	0.451100	0.846620
N521	N52	0.680900	0.764600	0.871150
N531	N53	0.452700	0.541800	0.813690
N541	N54	0.353200	0.375000	0.880540
N551	N55	0.283600	0.677400	0.895090
N561	N56	0.311400	0.749100	0.726920
N571	N57	0.429600	0.947000	0.544120
N581	N58	0.343400	0.908800	0.509100
N591	N59	0.548900	0.951900	0.513290
N601	N60	0.235400	0.916300	0.537820
N611	N61	0.458200	0.910900	0.480360
N621	N62	0.625000	0.978200	0.547210
N631	N63	0.322600	0.606200	0.561760
N641	N64	0.250900	0.562300	0.393590
N651	N65	0.053000	0.482600	0.210790
N661	N66	0.091200	0.434600	0.175770
N671	N67	0.048100	0.597000	0.179960
N681	N68	0.083700	0.319100	0.204490
N691	N69	0.089100	0.547300	0.147030
N701	N70	0.021800	0.646800	0.213880
N711	N71	0.393800	0.716400	0.228430
N721	N72	0.437700	0.688600	0.060260
N731	N73	0.482600	0.429600	0.377450
N741	N74	0.434600	0.343400	0.342430
N751	N75	0.597000	0.548900	0.346620
N761	N76	0.319100	0.235400	0.371150
N771	N77	0.547300	0.458200	0.313690
N781	N78	0.646800	0.625000	0.380540
N791	N79	0.716400	0.322600	0.395090
N801	N80	0.688600	0.250900	0.226920
N811	N81	0.570400	0.053000	0.044120
N821	N82	0.656600	0.091200	0.009100
N831	N83	0.451100	0.048100	0.013290
N841	N84	0.764600	0.083700	0.037820
N851	N85	0.541800	0.089100	0.980360
N861	N86	0.375000	0.021800	0.047210
N871	N87	0.677400	0.393800	0.061760
N881	N88	0.749100	0.437700	0.893590
N891	N89	0.947000	0.517400	0.710790
N901	N90	0.908800	0.565400	0.675770
N911	N91	0.951900	0.403000	0.679960
N921	N92	0.916300	0.680900	0.704490
N931	N93	0.910900	0.452700	0.647030
N941	N94	0.978200	0.353200	0.713880
N951	N95	0.606200	0.283600	0.728430
N961	N96	0.562300	0.311400	0.560260
O11	O1	0.733000	0.185000	0.433440
O21	O2	0.820300	0.129900	0.408040
O31	O3	0.828800	0.443200	0.560070
O41	O4	0.827900	0.620300	0.556720
O51	O5	0.142800	0.874300	0.488490
O61	O6	0.216900	0.805700	0.463130
O71	O7	0.465800	0.060700	0.437620
O81	O8	0.702900	0.510700	0.591510
O91	O9	0.452000	0.267000	0.766770
O101	O10	0.309600	0.179700	0.741370
O111	O11	0.614400	0.171200	0.893400
O121	O12	0.792400	0.172100	0.890050
O131	O13	0.731500	0.857200	0.821820
O141	O14	0.588800	0.783100	0.796460
O151	O15	0.594900	0.534200	0.770950
O161	O16	0.807800	0.297100	0.924840
O171	O17	0.815000	0.548000	0.100110
O181	O18	0.870100	0.690400	0.074710
O191	O19	0.556800	0.385600	0.226740
O201	O20	0.379700	0.207600	0.223390
O211	O21	0.125700	0.268500	0.155160
O221	O22	0.194300	0.411200	0.129800
O231	O23	0.939300	0.405100	0.104290
O241	O24	0.489300	0.192200	0.258180
O251	O25	0.267000	0.815000	0.933440
O261	O26	0.179700	0.870100	0.908040
O271	O27	0.171200	0.556800	0.060070
O281	O28	0.172100	0.379700	0.056720
O291	O29	0.857200	0.125700	0.988490
O301	O30	0.783100	0.194300	0.963130
O311	O31	0.534200	0.939300	0.937620
O321	O32	0.297100	0.489300	0.091510
O331	O33	0.548000	0.733000	0.266770
O341	O34	0.690400	0.820300	0.241370
O351	O35	0.385600	0.828800	0.393400
O361	O36	0.207600	0.827900	0.390050
O371	O37	0.268500	0.142800	0.321820
O381	O38	0.411200	0.216900	0.296460
O391	O39	0.405100	0.465800	0.270950
O401	O40	0.192200	0.702900	0.424840
O411	O41	0.185000	0.452000	0.600110
O421	O42	0.129900	0.309600	0.574710
O431	O43	0.443200	0.614400	0.726740
O441	O44	0.620300	0.792400	0.723390
O451	O45	0.874300	0.731500	0.655160
O461	O46	0.805700	0.588800	0.629800
O471	O47	0.060700	0.594900	0.604290
O481	O48	0.510700	0.807800	0.758180
O491	O49	0.548000	0.815000	0.899890
O501	O50	0.690400	0.870100	0.925290
O511	O51	0.385600	0.556800	0.773260
O521	O52	0.207600	0.379700	0.776610
O531	O53	0.268500	0.125700	0.844840
O541	O54	0.411200	0.194300	0.870200
O551	O55	0.405100	0.939300	0.895710
O561	O56	0.192200	0.489300	0.741820
O571	O57	0.185000	0.733000	0.566560
O581	O58	0.129900	0.820300	0.591960
O591	O59	0.443200	0.828800	0.439930
O601	O60	0.620300	0.827900	0.443280
O611	O61	0.874300	0.142800	0.511510
O621	O62	0.805700	0.216900	0.536870
O631	O63	0.060700	0.465800	0.562380
O641	O64	0.510700	0.702900	0.408490
O651	O65	0.267000	0.452000	0.233230
O661	O66	0.179700	0.309600	0.258630
O671	O67	0.171200	0.614400	0.106600
O681	O68	0.172100	0.792400	0.109950
O691	O69	0.857200	0.731500	0.178180
O701	O70	0.783100	0.588800	0.203540
O711	O71	0.534200	0.594900	0.229050
O721	O72	0.297100	0.807800	0.075160
O731	O73	0.452000	0.185000	0.399890
O741	O74	0.309600	0.129900	0.425290
O751	O75	0.614400	0.443200	0.273260
O761	O76	0.792400	0.620300	0.276610
O771	O77	0.731500	0.874300	0.344840
O781	O78	0.588800	0.805700	0.370200
O791	O79	0.594900	0.060700	0.395710
O801	O80	0.807800	0.510700	0.241820
O811	O81	0.815000	0.267000	0.066560
O821	O82	0.870100	0.179700	0.091960
O831	O83	0.556800	0.171200	0.939930
O841	O84	0.379700	0.172100	0.943280
O851	O85	0.125700	0.857200	0.011510
O861	O86	0.194300	0.783100	0.036870
O871	O87	0.939300	0.534200	0.062380
O881	O88	0.489300	0.297100	0.908490
O891	O89	0.733000	0.548000	0.733230
O901	O90	0.820300	0.690400	0.758630
O911	O91	0.828800	0.385600	0.606600
O921	O92	0.827900	0.207600	0.609950
O931	O93	0.142800	0.268500	0.678180
O941	O94	0.216900	0.411200	0.703540
O951	O95	0.465800	0.405100	0.729050
O961	O96	0.702900	0.192200	0.575160
