data_OFEZIJ_freeONLY_PM
_symmetry_space_group_name_H-M	'P1'
_cell_length_a	16.737200
_cell_length_b	16.737200
_cell_length_c	16.737200
_cell_angle_alpha	90.000000
_cell_angle_beta	90.000000
_cell_angle_gamma	90.000000
_symmetry_Int_Tables_number 1

loop_
_symmetry_equiv_pos_as_xyz
'x,y,z'

loop_
_atom_site_label
_atom_site_type_symbol
_atom_site_fract_x
_atom_site_fract_y
_atom_site_fract_z
O11	O1	0.695000	0.978800	0.406800
O21	O2	0.195000	0.478800	0.906800
O31	O3	0.305000	0.021200	0.406800
O41	O4	0.805000	0.521200	0.906800
O51	O5	0.305000	0.978800	0.593200
O61	O6	0.805000	0.478800	0.093200
O71	O7	0.695000	0.021200	0.593200
O81	O8	0.195000	0.521200	0.093200
O91	O9	0.406800	0.695000	0.978800
O101	O10	0.906800	0.195000	0.478800
O111	O11	0.406800	0.305000	0.021200
O121	O12	0.906800	0.805000	0.521200
O131	O13	0.593200	0.305000	0.978800
O141	O14	0.093200	0.805000	0.478800
O151	O15	0.593200	0.695000	0.021200
O161	O16	0.093200	0.195000	0.521200
O171	O17	0.978800	0.406800	0.695000
O181	O18	0.478800	0.906800	0.195000
O191	O19	0.021200	0.406800	0.305000
O201	O20	0.521200	0.906800	0.805000
O211	O21	0.978800	0.593200	0.305000
O221	O22	0.478800	0.093200	0.805000
O231	O23	0.021200	0.593200	0.695000
O241	O24	0.521200	0.093200	0.195000
O251	O25	0.978800	0.695000	0.406800
O261	O26	0.478800	0.195000	0.906800
O271	O27	0.021200	0.305000	0.406800
O281	O28	0.521200	0.805000	0.906800
O291	O29	0.978800	0.305000	0.593200
O301	O30	0.478800	0.805000	0.093200
O311	O31	0.021200	0.695000	0.593200
O321	O32	0.521200	0.195000	0.093200
O331	O33	0.695000	0.406800	0.978800
O341	O34	0.195000	0.906800	0.478800
O351	O35	0.305000	0.406800	0.021200
O361	O36	0.805000	0.906800	0.521200
O371	O37	0.305000	0.593200	0.978800
O381	O38	0.805000	0.093200	0.478800
O391	O39	0.695000	0.593200	0.021200
O401	O40	0.195000	0.093200	0.521200
O411	O41	0.406800	0.978800	0.695000
O421	O42	0.906800	0.478800	0.195000
O431	O43	0.406800	0.021200	0.305000
O441	O44	0.906800	0.521200	0.805000
O451	O45	0.593200	0.978800	0.305000
O461	O46	0.093200	0.478800	0.805000
O471	O47	0.593200	0.021200	0.695000
O481	O48	0.093200	0.521200	0.195000
Al11	Al1	0.500000	0.000000	0.500000
Al21	Al2	0.000000	0.500000	0.000000
Al31	Al3	0.500000	0.500000	0.000000
Al41	Al4	0.000000	0.000000	0.500000
Al51	Al5	0.000000	0.500000	0.500000
Al61	Al6	0.500000	0.000000	0.000000
Al71	Al7	0.750000	0.000000	0.500000
Al81	Al8	0.250000	0.000000	0.500000
Al91	Al9	0.500000	0.750000	0.000000
Al101	Al10	0.500000	0.250000	0.000000
Al111	Al11	0.000000	0.500000	0.750000
Al121	Al12	0.000000	0.500000	0.250000
Al131	Al13	0.000000	0.750000	0.500000
Al141	Al14	0.000000	0.250000	0.500000
Al151	Al15	0.750000	0.500000	0.000000
Al161	Al16	0.250000	0.500000	0.000000
Al171	Al17	0.500000	0.000000	0.750000
Al181	Al18	0.500000	0.000000	0.250000
P11	P1	0.632540	0.932400	0.367460
O491	O49	0.644400	0.846900	0.355600
O501	O50	0.558000	0.932700	0.442000
P21	P2	0.132540	0.432400	0.867460
O511	O51	0.144400	0.346900	0.855600
O521	O52	0.058000	0.432700	0.942000
P31	P3	0.367460	0.067600	0.367460
O531	O53	0.355600	0.153100	0.355600
O541	O54	0.442000	0.067300	0.442000
P41	P4	0.867460	0.567600	0.867460
O551	O55	0.855600	0.653100	0.855600
O561	O56	0.942000	0.567300	0.942000
P51	P5	0.367460	0.932400	0.632540
O571	O57	0.355600	0.846900	0.644400
O581	O58	0.442000	0.932700	0.558000
P61	P6	0.867460	0.432400	0.132540
O591	O59	0.855600	0.346900	0.144400
O601	O60	0.942000	0.432700	0.058000
P71	P7	0.632540	0.067600	0.632540
O611	O61	0.644400	0.153100	0.644400
O621	O62	0.558000	0.067300	0.558000
P81	P8	0.132540	0.567600	0.132540
O631	O63	0.144400	0.653100	0.144400
O641	O64	0.058000	0.567300	0.058000
P91	P9	0.367460	0.632540	0.932400
O651	O65	0.355600	0.644400	0.846900
O661	O66	0.442000	0.558000	0.932700
P101	P10	0.867460	0.132540	0.432400
O671	O67	0.855600	0.144400	0.346900
O681	O68	0.942000	0.058000	0.432700
P111	P11	0.367460	0.367460	0.067600
O691	O69	0.355600	0.355600	0.153100
O701	O70	0.442000	0.442000	0.067300
P121	P12	0.867460	0.867460	0.567600
O711	O71	0.855600	0.855600	0.653100
O721	O72	0.942000	0.942000	0.567300
P131	P13	0.632540	0.367460	0.932400
O731	O73	0.644400	0.355600	0.846900
O741	O74	0.558000	0.442000	0.932700
P141	P14	0.132540	0.867460	0.432400
O751	O75	0.144400	0.855600	0.346900
O761	O76	0.058000	0.942000	0.432700
P151	P15	0.632540	0.632540	0.067600
O771	O77	0.644400	0.644400	0.153100
O781	O78	0.558000	0.558000	0.067300
P161	P16	0.132540	0.132540	0.567600
O791	O79	0.144400	0.144400	0.653100
O801	O80	0.058000	0.058000	0.567300
P171	P17	0.932400	0.367460	0.632540
O811	O81	0.846900	0.355600	0.644400
O821	O82	0.932700	0.442000	0.558000
P181	P18	0.432400	0.867460	0.132540
O831	O83	0.346900	0.855600	0.144400
O841	O84	0.432700	0.942000	0.058000
P191	P19	0.067600	0.367460	0.367460
O851	O85	0.153100	0.355600	0.355600
O861	O86	0.067300	0.442000	0.442000
P201	P20	0.567600	0.867460	0.867460
O871	O87	0.653100	0.855600	0.855600
O881	O88	0.567300	0.942000	0.942000
P211	P21	0.932400	0.632540	0.367460
O891	O89	0.846900	0.644400	0.355600
O901	O90	0.932700	0.558000	0.442000
P221	P22	0.432400	0.132540	0.867460
O911	O91	0.346900	0.144400	0.855600
O921	O92	0.432700	0.058000	0.942000
P231	P23	0.067600	0.632540	0.632540
O931	O93	0.153100	0.644400	0.644400
O941	O94	0.067300	0.558000	0.558000
P241	P24	0.567600	0.132540	0.132540
O951	O95	0.653100	0.144400	0.144400
O961	O96	0.567300	0.058000	0.058000
