data_OFUDUQ_freeONLY_PM
_symmetry_space_group_name_H-M	'P1'
_cell_length_a	5.195300
_cell_length_b	10.530000
_cell_length_c	14.260000
_cell_angle_alpha	74.290000
_cell_angle_beta	89.020000
_cell_angle_gamma	82.300000
_symmetry_Int_Tables_number 1

loop_
_symmetry_equiv_pos_as_xyz
'x,y,z'

loop_
_atom_site_label
_atom_site_type_symbol
_atom_site_fract_x
_atom_site_fract_y
_atom_site_fract_z
Co11	Co1	0.000000	0.500000	0.500000
Co21	Co2	0.500000	0.000000	0.500000
P11	P1	0.911560	0.197300	0.474030
P21	P2	0.088440	0.802700	0.525970
H11	H1	0.371000	0.946400	0.329200
H21	H2	0.674000	0.698000	0.464000
H31	H3	0.510000	0.620000	0.480000
H41	H4	0.078100	0.280800	0.275000
H51	H5	0.986900	0.227700	0.132500
H61	H6	0.687600	0.082700	0.133700
H71	H7	0.079600	0.245300	0.700500
H81	H8	0.781600	0.212700	0.836000
H91	H9	0.563000	0.564000	0.653600
H101	H10	0.250100	0.494400	0.787900
H111	H11	0.290400	0.343800	0.846200
H121	H12	0.711200	0.576700	0.862100
H131	H13	0.208400	0.358100	0.002900
H141	H14	0.629000	0.053600	0.670800
H151	H15	0.326000	0.302000	0.536000
H161	H16	0.490000	0.380000	0.520000
H171	H17	0.921900	0.719200	0.725000
H181	H18	0.013100	0.772300	0.867500
H191	H19	0.312400	0.917300	0.866300
H201	H20	0.920400	0.754700	0.299500
H211	H21	0.218400	0.787300	0.164000
H221	H22	0.437000	0.436000	0.346400
H231	H23	0.749900	0.505600	0.212100
H241	H24	0.709600	0.656200	0.153800
H251	H25	0.288800	0.423300	0.137900
H261	H26	0.791600	0.641900	0.997100
C11	C1	0.831900	0.167400	0.357700
C21	C2	0.958100	0.222900	0.274500
C31	C3	0.903400	0.191100	0.189800
C41	C4	0.725300	0.105400	0.190100
C51	C5	0.603900	0.053600	0.276300
C61	C6	0.938300	0.305800	0.707900
C71	C7	0.774700	0.287400	0.782800
C81	C8	0.656000	0.480800	0.681900
C91	C9	0.374600	0.423600	0.826700
C101	C10	0.445800	0.461300	0.917200
C111	C11	0.621100	0.544400	0.918600
C121	C12	0.328600	0.417100	0.999700
C131	C13	0.168100	0.832600	0.642300
C141	C14	0.041900	0.777100	0.725500
C151	C15	0.096600	0.808900	0.810200
C161	C16	0.274700	0.894600	0.809900
C171	C17	0.396100	0.946400	0.723700
C181	C18	0.061700	0.694200	0.292100
C191	C19	0.225300	0.712600	0.217200
C201	C20	0.344000	0.519200	0.318100
C211	C21	0.625400	0.576400	0.173300
C221	C22	0.554200	0.538700	0.082800
C231	C23	0.378900	0.455600	0.081400
C241	C24	0.671400	0.582900	0.000300
N11	N1	0.651600	0.084900	0.358530
N21	N2	0.863100	0.429200	0.643480
N31	N3	0.596000	0.399500	0.766300
N41	N4	0.348400	0.915100	0.641470
N51	N5	0.136900	0.570800	0.356520
N61	N6	0.404000	0.600500	0.233700
O11	O1	0.828500	0.344450	0.464930
O21	O2	0.754000	0.106290	0.547530
O31	O3	0.203900	0.161840	0.488370
O41	O4	0.436400	0.968300	0.275490
O51	O5	0.656500	0.634600	0.454740
O61	O6	0.171500	0.655550	0.535070
O71	O7	0.246000	0.893710	0.452470
O81	O8	0.796100	0.838160	0.511630
O91	O9	0.563600	0.031700	0.724510
O101	O10	0.343500	0.365400	0.545260
