data_OGIBUD_freeONLY_PM
_symmetry_space_group_name_H-M	'P1'
_cell_length_a	9.574100
_cell_length_b	14.504400
_cell_length_c	13.732900
_cell_angle_alpha	90.000000
_cell_angle_beta	100.582000
_cell_angle_gamma	90.000000
_symmetry_Int_Tables_number 1

loop_
_symmetry_equiv_pos_as_xyz
'x,y,z'

loop_
_atom_site_label
_atom_site_type_symbol
_atom_site_fract_x
_atom_site_fract_y
_atom_site_fract_z
Zn11	Zn1	0.462320	0.642070	0.360470
O11	O1	0.458700	0.777850	0.374000
O21	O2	0.568200	0.119700	0.282700
O31	O3	0.332000	0.560400	0.416700
C11	C1	0.101900	0.543600	0.454500
C21	C2	0.206500	0.592200	0.401900
C31	C3	0.957300	0.556400	0.420000
H11	H1	0.928300	0.595500	0.366400
O41	O4	0.167700	0.657100	0.347100
O51	O5	0.649500	0.605000	0.437900
O61	O6	0.343100	0.149500	0.294300
C41	C4	0.702200	0.528700	0.417000
C51	C5	0.486400	0.904100	0.484900
C61	C6	0.471900	0.802800	0.466400
C71	C7	0.461000	0.117300	0.325100
C81	C8	0.469800	0.964900	0.404500
H21	H2	0.447900	0.941700	0.340400
O71	O7	0.636200	0.470300	0.358200
O81	O8	0.472100	0.748900	0.535500
C91	C9	0.855000	0.512800	0.463000
C101	C10	0.485700	0.060400	0.419300
Zn21	Zn2	0.537680	0.142070	0.139530
O91	O9	0.541300	0.277850	0.126000
O101	O10	0.431800	0.619700	0.217300
O111	O11	0.668000	0.060400	0.083300
C111	C11	0.898100	0.043600	0.045500
C121	C12	0.793500	0.092200	0.098100
C131	C13	0.042700	0.056400	0.080000
H31	H3	0.071700	0.095500	0.133600
O121	O12	0.832300	0.157100	0.152900
O131	O13	0.350500	0.105000	0.062100
O141	O14	0.656900	0.649500	0.205700
C141	C14	0.297800	0.028700	0.083000
C151	C15	0.513600	0.404100	0.015100
C161	C16	0.528100	0.302800	0.033600
C171	C17	0.539000	0.617300	0.174900
C181	C18	0.530200	0.464900	0.095500
H41	H4	0.552100	0.441700	0.159600
O151	O15	0.363800	0.970300	0.141800
O161	O16	0.527900	0.248900	0.964500
C191	C19	0.145000	0.012800	0.037000
C201	C20	0.514300	0.560400	0.080700
Zn31	Zn3	0.537680	0.357930	0.639530
O171	O17	0.541300	0.222150	0.626000
O181	O18	0.431800	0.880300	0.717300
O191	O19	0.668000	0.439600	0.583300
C211	C21	0.898100	0.456400	0.545500
C221	C22	0.793500	0.407800	0.598100
C231	C23	0.042700	0.443600	0.580000
H51	H5	0.071700	0.404500	0.633600
O201	O20	0.832300	0.342900	0.652900
O211	O21	0.350500	0.395000	0.562100
O221	O22	0.656900	0.850500	0.705700
C241	C24	0.297800	0.471300	0.583000
C251	C25	0.513600	0.095900	0.515100
C261	C26	0.528100	0.197200	0.533600
C271	C27	0.539000	0.882700	0.674900
C281	C28	0.530200	0.035100	0.595500
H61	H6	0.552100	0.058300	0.659600
O231	O23	0.363800	0.529700	0.641800
O241	O24	0.527900	0.251100	0.464500
C291	C29	0.145000	0.487200	0.537000
C301	C30	0.514300	0.939600	0.580700
Zn41	Zn4	0.462320	0.857930	0.860470
O251	O25	0.458700	0.722150	0.874000
O261	O26	0.568200	0.380300	0.782700
O271	O27	0.332000	0.939600	0.916700
C311	C31	0.101900	0.956400	0.954500
C321	C32	0.206500	0.907800	0.901900
C331	C33	0.957300	0.943600	0.920000
H71	H7	0.928300	0.904500	0.866400
O281	O28	0.167700	0.842900	0.847100
O291	O29	0.649500	0.895000	0.937900
O301	O30	0.343100	0.350500	0.794300
C341	C34	0.702200	0.971300	0.917000
C351	C35	0.486400	0.595900	0.984900
C361	C36	0.471900	0.697200	0.966400
C371	C37	0.461000	0.382700	0.825100
C381	C38	0.469800	0.535100	0.904500
H81	H8	0.447900	0.558300	0.840400
O311	O31	0.636200	0.029700	0.858200
O321	O32	0.472100	0.751100	0.035500
C391	C39	0.855000	0.987200	0.963000
C401	C40	0.485700	0.439600	0.919300
