data_OGIKAR_freeONLY_PM
_symmetry_space_group_name_H-M	'P1'
_cell_length_a	27.859500
_cell_length_b	27.859500
_cell_length_c	27.859500
_cell_angle_alpha	96.358900
_cell_angle_beta	116.399000
_cell_angle_gamma	116.399000
_symmetry_Int_Tables_number 1

loop_
_symmetry_equiv_pos_as_xyz
'x,y,z'

loop_
_atom_site_label
_atom_site_type_symbol
_atom_site_fract_x
_atom_site_fract_y
_atom_site_fract_z
Cu11	Cu1	0.774270	0.597040	0.383530
Cu21	Cu2	0.709560	0.647720	0.360480
Cu31	Cu3	0.739940	0.649170	0.835090
Cu41	Cu4	0.725730	0.109270	0.822770
Cu51	Cu5	0.790440	0.150920	0.938160
Cu61	Cu6	0.760060	0.595150	0.909230
Cu71	Cu7	0.213510	0.616470	0.890740
Cu81	Cu8	0.287240	0.639520	0.849080
Cu91	Cu9	0.814080	0.164910	0.404850
Cu101	Cu10	0.286490	0.177230	0.402950
Cu111	Cu11	0.212760	0.061840	0.352280
Cu121	Cu12	0.685920	0.090770	0.350830
H11	H1	0.865800	0.655900	0.568100
H21	H2	0.744400	0.707700	0.531500
H31	H3	0.770100	0.727800	0.625100
H41	H4	0.842400	0.712000	0.689200
H51	H5	0.869800	0.651400	0.790200
H61	H6	0.898000	0.571200	0.901400
H71	H7	0.967000	0.563400	0.885200
H81	H8	0.978900	0.588500	0.813000
H91	H9	0.077800	0.644700	0.772300
H101	H10	0.179800	0.674300	0.701100
H111	H11	0.109300	0.690200	0.629900
H121	H12	0.028700	0.689400	0.635300
H131	H13	0.622500	0.591400	0.173300
H141	H14	0.736900	0.530200	0.217100
H151	H15	0.714100	0.506200	0.124300
H161	H16	0.648500	0.529800	0.055900
H171	H17	0.632100	0.598400	0.958300
H181	H18	0.546600	0.595700	0.796100
H191	H19	0.450300	0.562100	0.790400
H201	H20	0.450000	0.561500	0.874100
H211	H21	0.422500	0.610100	0.969000
H221	H22	0.313300	0.574900	0.035000
H231	H23	0.375300	0.551700	0.102000
H241	H24	0.462800	0.555800	0.102800
H251	H25	0.696400	0.631600	0.711800
H261	H26	0.658800	0.664900	0.637300
H271	H27	0.662500	0.749100	0.666600
H281	H28	0.693100	0.792200	0.755900
H291	H29	0.729000	0.752900	0.825300
H301	H30	0.833500	0.487800	0.402100
H311	H31	0.770000	0.472800	0.346800
H321	H32	0.776100	0.479300	0.406200
H331	H33	0.579800	0.615900	0.264300
H341	H34	0.572600	0.668700	0.265700
H351	H35	0.559700	0.634000	0.303900
H361	H36	0.634200	0.202300	0.790100
H371	H37	0.755600	0.287100	0.963300
H381	H38	0.729900	0.355000	0.957700
H391	H39	0.657600	0.346800	0.869600
H401	H40	0.630200	0.420400	0.781600
H411	H41	0.602000	0.503400	0.673200
H421	H42	0.533000	0.418200	0.596400
H431	H43	0.521100	0.334100	0.609600
H441	H44	0.422200	0.194500	0.566900
H451	H45	0.320200	0.021300	0.494500
H461	H46	0.390700	0.020600	0.580900
H471	H47	0.471300	0.106600	0.660700
H481	H48	0.877500	0.050800	0.968900
H491	H49	0.763100	0.980200	0.793300
H501	H50	0.785900	0.910200	0.792100
H511	H51	0.851500	0.907400	0.881300
H521	H52	0.867900	0.826200	0.966300
H531	H53	0.953400	0.749500	0.049100
H541	H54	0.049700	0.840100	0.111800
H551	H55	0.050000	0.924100	0.111500
H561	H56	0.077500	0.046500	0.187600
H571	H57	0.186700	0.221700	0.261600
H581	H58	0.124700	0.226700	0.176400
H591	H59	0.037200	0.140000	0.093000
H601	H60	0.803600	0.515400	0.935200
H611	H61	0.841200	0.478500	0.006100
H621	H62	0.837500	0.504100	0.086600
H631	H63	0.806900	0.562800	0.099100
H641	H64	0.771000	0.596300	0.023900
H651	H65	0.666500	0.068600	0.654300
H661	H66	0.730000	0.076800	0.702800
H671	H67	0.723900	0.130100	0.703200
H681	H68	0.920200	0.184500	0.036100
H691	H69	0.927400	0.193100	0.096100
H701	H70	0.940300	0.244200	0.074300
H711	H71	0.087800	0.431900	0.797700
H721	H72	0.176200	0.468500	0.712900
H731	H73	0.102700	0.374900	0.645000
H741	H74	0.022800	0.310800	0.653200
H751	H75	0.861200	0.209800	0.579600
H761	H76	0.669800	0.098600	0.496600
H771	H77	0.678200	0.114800	0.581800
H781	H78	0.775500	0.187000	0.665900
H791	H79	0.872400	0.227700	0.805500
H801	H80	0.973200	0.298900	0.978700
H811	H81	0.060300	0.370100	0.979400
H821	H82	0.054100	0.364700	0.893400
H831	H83	0.418100	0.826700	0.949200
H841	H84	0.313100	0.782900	0.019800
H851	H85	0.381900	0.875700	0.089800
H861	H86	0.473900	0.944100	0.092600
H871	H87	0.640100	0.041700	0.173800
H881	H88	0.799600	0.203900	0.250500
H891	H89	0.771700	0.209600	0.159900
H901	H90	0.687400	0.125900	0.075900
H911	H91	0.641100	0.031000	0.953500
H921	H92	0.539900	0.965000	0.778300
H931	H93	0.449700	0.898000	0.773300
H941	H94	0.453000	0.897200	0.860000
H951	H95	0.919800	0.288200	0.484600
H961	H96	0.027600	0.362700	0.521500
H971	H97	0.082500	0.333400	0.495900
H981	H98	0.036300	0.244100	0.437200
H991	H99	0.927600	0.174700	0.403700
H1001	H100	0.085700	0.597900	0.931400
H1011	H101	0.126000	0.653200	0.923200
H1021	H102	0.073100	0.593800	0.869900
H1031	H103	0.351600	0.735700	0.815500
H1041	H104	0.403000	0.734300	0.806900
H1051	H105	0.330100	0.696100	0.755800
H1061	H106	0.412200	0.209900	0.344100
H1071	H107	0.323800	0.036700	0.292300
H1081	H108	0.397300	0.042300	0.272200
H1091	H109	0.477200	0.130400	0.288000
H1101	H110	0.638800	0.218400	0.348600
H1111	H111	0.830200	0.326800	0.428800
H1121	H112	0.821800	0.403600	0.436600
H1131	H113	0.724500	0.390400	0.411500
H1141	H114	0.627600	0.433100	0.355300
H1151	H115	0.526800	0.505500	0.325700
H1161	H116	0.439700	0.419100	0.309800
H1171	H117	0.445900	0.339300	0.310600
H1181	H118	0.081900	0.031100	0.408600
H1191	H119	0.186900	0.206700	0.469800
H1201	H120	0.118100	0.207900	0.493800
H1211	H121	0.026100	0.118700	0.470200
H1221	H122	0.859900	0.033700	0.401600
H1231	H123	0.700400	0.950900	0.404300
H1241	H124	0.728300	0.888200	0.437900
H1251	H125	0.812600	0.888500	0.438500
H1261	H126	0.858900	0.812400	0.389900
H1271	H127	0.960100	0.738400	0.425100
H1281	H128	0.050300	0.823600	0.448300
H1291	H129	0.047000	0.907000	0.444200
H1301	H130	0.580200	0.064800	0.368400
H1311	H131	0.472400	0.993900	0.335100
H1321	H132	0.417500	0.913400	0.250900
H1331	H133	0.463700	0.900900	0.207800
H1341	H134	0.572400	0.976100	0.247100
H1351	H135	0.414300	0.345700	0.512200
H1361	H136	0.374000	0.297200	0.527200
H1371	H137	0.426900	0.296800	0.520700
H1381	H138	0.148400	0.963900	0.384100
H1391	H139	0.097000	0.903900	0.331300
H1401	H140	0.169900	0.925700	0.366000
C11	C1	0.909310	0.674110	0.677820
C21	C2	0.939900	0.646500	0.753000
C31	C3	0.991300	0.662280	0.707980
C41	C4	0.863100	0.684780	0.636480
C51	C5	0.846400	0.670430	0.579230
C61	C6	0.801200	0.677840	0.539040
C71	C7	0.773600	0.700930	0.557530
C81	C8	0.789200	0.713390	0.613390
C91	C9	0.832900	0.704520	0.651620
C101	C10	0.781010	0.660290	0.477140
C111	C11	0.930000	0.627800	0.798000
C121	C12	0.889900	0.634100	0.809400
C131	C13	0.879400	0.615200	0.849000
C141	C14	0.907100	0.585930	0.876030
C151	C15	0.946000	0.579660	0.865060
C161	C16	0.955600	0.597180	0.823780
C171	C17	0.833300	0.620160	0.860460
C181	C18	0.044100	0.665070	0.703770
C191	C19	0.084800	0.654500	0.744100
C201	C20	0.136600	0.657930	0.744130
C211	C21	0.145700	0.671700	0.701800
C221	C22	0.103700	0.682200	0.659300
C231	C23	0.054800	0.680400	0.661800
C241	C24	0.179300	0.645500	0.789000
C251	C25	0.583600	0.571210	0.065010
C261	C26	0.541400	0.577900	0.977500
C271	C27	0.502100	0.582900	0.031600
C281	C28	0.630800	0.562700	0.109100
C291	C29	0.641900	0.575500	0.164000
C301	C30	0.683600	0.563600	0.206200
C311	C31	0.709900	0.538100	0.190000
C321	C32	0.696900	0.524200	0.134500
C331	C33	0.656800	0.537800	0.093000
C341	C34	0.703050	0.583740	0.266310
C351	C35	0.542800	0.581400	0.926800
C361	C36	0.597100	0.593400	0.925500
C371	C37	0.601000	0.597900	0.879100
C381	C38	0.544300	0.589400	0.827300
C391	C39	0.487300	0.572100	0.824800
C401	C40	0.486500	0.570100	0.874600
C411	C41	0.658600	0.612300	0.879300
C421	C42	0.451100	0.583730	0.035630
C431	C43	0.413170	0.598270	0.995440
C441	C44	0.361970	0.595240	0.995010
C451	C45	0.348000	0.577240	0.035640
C461	C46	0.384700	0.563000	0.075500
C471	C47	0.437800	0.565700	0.076300
C481	C48	0.321400	0.609710	0.951510
C491	C49	0.696400	0.664700	0.721100
C501	C50	0.673500	0.683700	0.675400
C511	C51	0.675400	0.733500	0.693900
C521	C52	0.693800	0.759600	0.745800
C531	C53	0.715700	0.735400	0.787500
C541	C54	0.798900	0.493500	0.388000
C551	C55	0.585500	0.648100	0.288400
C561	C56	0.590690	0.268510	0.764800
C571	C57	0.560100	0.313100	0.706600
C581	C58	0.508700	0.216680	0.670980
C591	C59	0.636900	0.273380	0.821680
C601	C60	0.653600	0.232830	0.824030
C611	C61	0.698800	0.237840	0.876640
C621	C62	0.726400	0.283930	0.927330
C631	C63	0.710800	0.324190	0.924190
C641	C64	0.667100	0.318720	0.871620
C651	C65	0.718990	0.196130	0.879280
C661	C66	0.570000	0.368000	0.697800
C671	C67	0.610100	0.419500	0.744200
C681	C68	0.620600	0.469600	0.735800
C691	C69	0.592900	0.468930	0.678830
C701	C70	0.554000	0.419060	0.633660
C711	C71	0.544400	0.368180	0.641580
C721	C72	0.666700	0.527160	0.786860
C731	C73	0.455900	0.159670	0.620970
C741	C74	0.415200	0.159300	0.569700
C751	C75	0.363400	0.107530	0.521330
C761	C76	0.354300	0.056100	0.526000
C771	C77	0.396300	0.055600	0.578500
C781	C78	0.445200	0.107000	0.625600
C791	C79	0.320700	0.109700	0.466200
C801	C80	0.916400	0.981410	0.987610
C811	C81	0.958600	0.936100	0.036500
C821	C82	0.997900	0.029500	0.080800
C831	C83	0.869200	0.978300	0.931900
C841	C84	0.858100	0.022100	0.933600
C851	C85	0.816400	0.022600	0.880000
C861	C86	0.790100	0.980100	0.828200
C871	C87	0.803100	0.937600	0.827300
C881	C88	0.843200	0.936200	0.881000
C891	C89	0.796950	0.063260	0.880690
C901	C90	0.957200	0.884000	0.038600
C911	C91	0.902900	0.828400	0.996300
C921	C92	0.899000	0.778100	0.996900
C931	C93	0.955700	0.783000	0.045100
C941	C94	0.012700	0.837500	0.084800
C951	C95	0.013500	0.888100	0.083600
C961	C96	0.841400	0.720700	0.953700
C971	C97	0.048900	0.084530	0.132630
C981	C98	0.086830	0.082270	0.185100
C991	C99	0.138030	0.133040	0.233270
C1001	C100	0.152000	0.187640	0.229240
C1011	C101	0.115300	0.190800	0.178300
C1021	C102	0.062200	0.138500	0.127900
C1031	C103	0.178600	0.130110	0.288310
C1041	C104	0.803600	0.524700	0.968300
C1051	C105	0.826500	0.501900	0.010200
C1061	C106	0.824600	0.518500	0.058100
C1071	C107	0.806200	0.552000	0.065800
C1081	C108	0.784300	0.571800	0.019700
C1091	C109	0.701100	0.089100	0.694600
C1101	C110	0.914500	0.202900	0.062600
C1111	C111	0.996290	0.322180	0.731490
C1121	C112	0.893500	0.247000	0.686900
C1131	C113	0.954300	0.292020	0.783320
C1141	C114	0.048300	0.363520	0.726620
C1151	C115	0.091200	0.420770	0.767170
C1161	C116	0.138800	0.460960	0.762160
C1171	C117	0.143400	0.442470	0.716070
C1181	C118	0.100000	0.386610	0.675810
C1191	C119	0.052900	0.348380	0.681280
C1201	C120	0.183150	0.522860	0.803870
C1211	C121	0.829800	0.202000	0.632000
C1221	C122	0.824700	0.190600	0.580500
C1231	C123	0.766200	0.151000	0.530400
C1241	C124	0.709900	0.123970	0.531070
C1251	C125	0.714600	0.134940	0.580940
C1261	C126	0.773400	0.176220	0.631820
C1271	C127	0.759700	0.139540	0.472840
C1281	C128	0.961300	0.296230	0.840330
C1291	C129	0.910400	0.255900	0.840700
C1301	C130	0.913800	0.255870	0.892470
C1311	C131	0.969900	0.298200	0.943900
C1321	C132	0.022900	0.340700	0.944400
C1331	C133	0.018600	0.338200	0.893000
C1341	C134	0.856500	0.211000	0.890300
C1351	C135	0.506200	0.934990	0.018590
C1361	C136	0.600400	0.022500	0.063900
C1371	C137	0.551300	0.968400	0.970500
C1381	C138	0.453600	0.890900	0.021700
C1391	C139	0.411500	0.836000	0.977900
C1401	C140	0.357400	0.793800	0.977400
C1411	C141	0.348100	0.810000	0.019900
C1421	C142	0.389700	0.865500	0.062400
C1431	C143	0.444800	0.907000	0.063800
C1441	C144	0.317430	0.733690	0.936740
C1451	C145	0.654600	0.073200	0.116000
C1461	C146	0.667900	0.074500	0.171600
C1471	C147	0.718800	0.120900	0.221900
C1481	C148	0.762100	0.172700	0.217000
C1491	C149	0.747300	0.175200	0.162500
C1501	C150	0.695500	0.125400	0.111900
C1511	C151	0.733000	0.120700	0.279300
C1521	C152	0.548100	0.964370	0.915470
C1531	C153	0.602830	0.004560	0.917730
C1541	C154	0.600230	0.004990	0.866960
C1551	C155	0.541600	0.964360	0.812360
C1561	C156	0.487500	0.924500	0.809200
C1571	C157	0.489400	0.923700	0.861500
C1581	C158	0.658200	0.048490	0.869890
C1591	C159	0.943600	0.278900	0.475300
C1601	C160	0.008300	0.324600	0.498100
C1611	C161	0.039600	0.306100	0.481500
C1621	C162	0.013800	0.254200	0.448000
C1631	C163	0.947900	0.212500	0.428200
C1641	C164	0.105500	0.612000	0.910900
C1651	C165	0.359700	0.711600	0.797100
C1661	C166	0.503710	0.235200	0.325890
C1671	C167	0.606500	0.293400	0.353500
C1681	C168	0.545700	0.329020	0.337720
C1691	C169	0.451700	0.178320	0.315220
C1701	C170	0.408800	0.175970	0.329570
C1711	C171	0.361200	0.123360	0.322160
C1721	C172	0.356600	0.072670	0.299070
C1731	C173	0.400000	0.075810	0.286610
C1741	C174	0.447100	0.128380	0.295480
C1751	C175	0.316850	0.120720	0.339710
C1761	C176	0.670200	0.302200	0.372200
C1771	C177	0.675300	0.255800	0.365900
C1781	C178	0.733800	0.264200	0.384800
C1791	C179	0.790100	0.321170	0.414070
C1801	C180	0.785400	0.366340	0.420340
C1811	C181	0.726600	0.358420	0.402820
C1821	C182	0.740300	0.213140	0.379840
C1831	C183	0.538700	0.379030	0.334930
C1841	C184	0.589600	0.430300	0.345500
C1851	C185	0.586200	0.478670	0.342070
C1861	C186	0.530100	0.474000	0.328300
C1871	C187	0.477100	0.421500	0.317800
C1881	C188	0.481400	0.374400	0.319600
C1891	C189	0.643500	0.533800	0.354500
C1901	C190	0.993800	0.012390	0.428790
C1911	C191	0.899600	0.963500	0.422100
C1921	C192	0.948700	0.919200	0.417100
C1931	C193	0.046400	0.068100	0.437300
C1941	C194	0.088500	0.066400	0.424500
C1951	C195	0.142600	0.120000	0.436400
C1961	C196	0.151900	0.171800	0.461900
C1971	C197	0.110300	0.172700	0.475800
C1981	C198	0.055200	0.119000	0.462200
C1991	C199	0.182570	0.119310	0.416260
C2001	C200	0.845400	0.961400	0.418600
C2011	C201	0.832100	0.003700	0.406600
C2021	C202	0.781200	0.003100	0.402100
C2031	C203	0.737900	0.954900	0.410600
C2041	C204	0.752700	0.915200	0.427900
C2051	C205	0.804500	0.916400	0.429900
C2061	C206	0.767000	0.046300	0.387700
C2071	C207	0.951900	0.867370	0.416270
C2081	C208	0.897170	0.814900	0.401730
C2091	C209	0.899770	0.766730	0.404760
C2101	C210	0.958400	0.770760	0.422760
C2111	C211	0.012500	0.821700	0.437000
C2121	C212	0.010600	0.872100	0.434300
C2131	C213	0.841800	0.711690	0.390290
C2141	C214	0.556400	0.031700	0.335300
C2151	C215	0.491700	0.989800	0.316300
C2161	C216	0.460400	0.941900	0.266500
C2171	C217	0.486200	0.934200	0.240400
C2181	C218	0.552100	0.980300	0.264600
C2191	C219	0.394500	0.305400	0.506500
C2201	C220	0.140300	0.937400	0.351900
N11	N1	0.954080	0.675150	0.670350
N21	N2	0.902940	0.661560	0.720700
N31	N3	0.985770	0.646730	0.749300
N41	N4	0.542340	0.575060	0.073000
N51	N5	0.587220	0.572880	0.017900
N61	N6	0.499700	0.585130	0.982830
N71	N7	0.717340	0.689830	0.774470
N81	N8	0.545920	0.216270	0.721070
N91	N9	0.597060	0.317760	0.758620
N101	N10	0.514230	0.263530	0.660960
N111	N11	0.957660	0.030660	0.032720
N121	N12	0.912780	0.930680	0.985660
N131	N13	0.000300	0.983130	0.085430
N141	N14	0.782660	0.557130	0.972490
N151	N15	0.004800	0.329650	0.783730
N161	N16	0.940860	0.279300	0.682240
N171	N17	0.897430	0.250700	0.736470
N181	N18	0.502060	0.927000	0.969340
N191	N19	0.554980	0.982100	0.069320
N201	N20	0.602300	0.017170	0.016870
N211	N21	0.915360	0.225530	0.442870
N221	N22	0.495200	0.278930	0.324850
N231	N23	0.559140	0.241380	0.338440
N241	N24	0.602570	0.339040	0.353270
N251	N25	0.997940	0.967280	0.424940
N261	N26	0.945020	0.014340	0.427120
N271	N27	0.897700	0.914570	0.414870
N281	N28	0.584640	0.027510	0.310170
O11	O1	0.802640	0.633460	0.463980
O21	O2	0.744250	0.671950	0.444460
O31	O3	0.810230	0.646700	0.836370
O41	O4	0.819950	0.594830	0.891460
O51	O5	0.164030	0.629960	0.823830
O61	O6	0.227510	0.652310	0.790040
O71	O7	0.683870	0.613320	0.280450
O81	O8	0.736680	0.568660	0.300480
O91	O9	0.695380	0.600670	0.915630
O101	O10	0.669060	0.633770	0.845390
O111	O11	0.335020	0.622810	0.914290
O121	O12	0.275650	0.606830	0.951740
O131	O13	0.824900	0.555090	0.401910
O141	O14	0.661640	0.691920	0.341740
O151	O15	0.697360	0.161340	0.830820
O161	O16	0.755750	0.200210	0.927700
O171	O17	0.689770	0.526140	0.836470
O181	O18	0.680050	0.571510	0.774880
O191	O19	0.335970	0.159800	0.465930
O201	O20	0.272490	0.062530	0.424800
O211	O21	0.816130	0.096580	0.929450
O221	O22	0.763320	0.063800	0.831980
O231	O23	0.804620	0.720250	0.905290
O241	O24	0.830940	0.676330	0.964710
O251	O25	0.164980	0.079270	0.287790
O261	O26	0.224350	0.176090	0.331180
O271	O27	0.675100	0.077010	0.730190
O281	O28	0.838360	0.180100	0.030280
O291	O29	0.169480	0.536020	0.838660
O301	O30	0.227490	0.555540	0.799790
O311	O31	0.810330	0.163630	0.473860
O321	O32	0.703370	0.108540	0.428490
O331	O33	0.806130	0.176170	0.840200
O341	O34	0.862270	0.209960	0.937470
O351	O35	0.332870	0.719550	0.903420
O361	O36	0.268180	0.699520	0.936200
O371	O37	0.685040	0.084370	0.279750
O381	O38	0.788380	0.154610	0.323670
O391	O39	0.708520	0.085710	0.920730
O401	O40	0.655090	0.048260	0.823910
O411	O41	0.153180	0.598090	0.922990
O421	O42	0.350180	0.658260	0.819900
O431	O43	0.330520	0.169180	0.366540
O441	O44	0.272510	0.072300	0.328050
O451	O45	0.689670	0.163530	0.353300
O461	O46	0.796630	0.225120	0.405170
O471	O47	0.693870	0.534070	0.370040
O481	O48	0.637730	0.575200	0.347690
O491	O49	0.167130	0.070550	0.386680
O501	O50	0.231820	0.168020	0.431340
O511	O51	0.814960	0.094710	0.399330
O521	O52	0.711620	0.035290	0.366230
O531	O53	0.791480	0.712210	0.377190
O541	O54	0.844910	0.668820	0.393170
O551	O55	0.346820	0.269810	0.444910
O561	O56	0.149820	0.969720	0.308080
Cu131	Cu13	0.786490	0.383530	0.109260
Cu141	Cu14	0.712760	0.360480	0.150920
Cu151	Cu15	0.185920	0.835090	0.595150
Cu161	Cu16	0.713510	0.822770	0.597050
Cu171	Cu17	0.787240	0.938160	0.647720
Cu181	Cu18	0.314080	0.909230	0.649170
Cu191	Cu19	0.225730	0.402960	0.616470
Cu201	Cu20	0.290440	0.352280	0.639520
Cu211	Cu21	0.260060	0.350830	0.164910
Cu221	Cu22	0.274270	0.890730	0.177230
Cu231	Cu23	0.209560	0.849080	0.061840
Cu241	Cu24	0.239940	0.404850	0.090770
H1411	H141	0.912200	0.568100	0.202300
H1421	H142	0.823800	0.531500	0.287100
H1431	H143	0.897300	0.625100	0.355000
H1441	H144	0.977200	0.689200	0.346800
H1451	H145	0.138800	0.790200	0.420400
H1461	H146	0.330200	0.901400	0.503400
H1471	H147	0.321800	0.885200	0.418200
H1481	H148	0.224500	0.813000	0.334100
H1491	H149	0.127600	0.772300	0.194500
H1501	H150	0.026800	0.701100	0.021300
H1511	H151	0.939700	0.629900	0.020600
H1521	H152	0.945900	0.635300	0.106600
H1531	H153	0.581900	0.173300	0.050800
H1541	H154	0.686900	0.217100	0.980200
H1551	H155	0.618100	0.124300	0.910200
H1561	H156	0.526100	0.055900	0.907400
H1571	H157	0.359900	0.958300	0.826200
H1581	H158	0.200400	0.796100	0.749500
H1591	H159	0.228300	0.790400	0.840100
H1601	H160	0.312600	0.874100	0.924100
H1611	H161	0.358900	0.969000	0.046500
H1621	H162	0.460100	0.035000	0.221700
H1631	H163	0.550300	0.102000	0.226700
H1641	H164	0.547000	0.102800	0.140000
H1651	H165	0.080200	0.711800	0.515400
H1661	H166	0.972400	0.637300	0.478500
H1671	H167	0.917500	0.666600	0.504100
H1681	H168	0.963700	0.755900	0.562800
H1691	H169	0.072400	0.825300	0.596300
H1701	H170	0.914300	0.402100	0.068600
H1711	H171	0.874000	0.346800	0.076800
H1721	H172	0.926900	0.406200	0.130100
H1731	H173	0.648400	0.264300	0.184500
H1741	H174	0.597000	0.265700	0.193100
H1751	H175	0.669900	0.303900	0.244200
H1761	H176	0.587800	0.790100	0.655900
H1771	H177	0.676200	0.963300	0.707700
H1781	H178	0.602700	0.957700	0.727800
H1791	H179	0.522800	0.869600	0.712000
H1801	H180	0.361200	0.781600	0.651400
H1811	H181	0.169800	0.673200	0.571200
H1821	H182	0.178200	0.596400	0.563400
H1831	H183	0.275500	0.609600	0.588500
H1841	H184	0.372400	0.566900	0.644700
H1851	H185	0.473200	0.494500	0.674300
H1861	H186	0.560300	0.580900	0.690200
H1871	H187	0.554100	0.660700	0.689400
H1881	H188	0.918100	0.968900	0.591400
H1891	H189	0.813100	0.793300	0.530200
H1901	H190	0.881900	0.792100	0.506200
H1911	H191	0.973900	0.881300	0.529800
H1921	H192	0.140100	0.966300	0.598400
H1931	H193	0.299600	0.049100	0.595700
H1941	H194	0.271700	0.111800	0.562100
H1951	H195	0.187400	0.111500	0.561500
H1961	H196	0.141100	0.187600	0.610100
H1971	H197	0.039900	0.261600	0.574900
H1981	H198	0.949700	0.176400	0.551700
H1991	H199	0.953000	0.093000	0.555800
H2001	H200	0.419800	0.935200	0.631600
H2011	H201	0.527600	0.006100	0.664900
H2021	H202	0.582500	0.086600	0.749100
H2031	H203	0.536300	0.099100	0.792200
H2041	H204	0.427600	0.023900	0.752900
H2051	H205	0.585700	0.654300	0.487800
H2061	H206	0.626000	0.702800	0.472800
H2071	H207	0.573100	0.703200	0.479300
H2081	H208	0.851600	0.036100	0.615900
H2091	H209	0.903000	0.096100	0.668700
H2101	H210	0.830100	0.074300	0.634000
H2111	H211	0.134200	0.344100	0.431900
H2121	H212	0.255600	0.292300	0.468500
H2131	H213	0.229900	0.272200	0.374900
H2141	H214	0.157600	0.288000	0.310800
H2151	H215	0.130200	0.348600	0.209800
H2161	H216	0.102000	0.428800	0.098600
H2171	H217	0.033000	0.436600	0.114800
H2181	H218	0.021100	0.411500	0.187000
H2191	H219	0.922200	0.355300	0.227700
H2201	H220	0.820200	0.325700	0.298900
H2211	H221	0.890700	0.309800	0.370100
H2221	H222	0.971300	0.310600	0.364700
H2231	H223	0.377500	0.408600	0.826700
H2241	H224	0.263100	0.469800	0.782900
H2251	H225	0.285900	0.493800	0.875700
H2261	H226	0.351500	0.470200	0.944100
H2271	H227	0.367900	0.401600	0.041700
H2281	H228	0.453400	0.404300	0.203900
H2291	H229	0.549700	0.437900	0.209600
H2301	H230	0.550000	0.438500	0.125900
H2311	H231	0.577500	0.389900	0.031000
H2321	H232	0.686700	0.425100	0.965000
H2331	H233	0.624700	0.448300	0.898000
H2341	H234	0.537200	0.444200	0.897200
H2351	H235	0.303600	0.368400	0.288200
H2361	H236	0.341200	0.335100	0.362700
H2371	H237	0.337500	0.250900	0.333400
H2381	H238	0.306900	0.207800	0.244100
H2391	H239	0.271000	0.247100	0.174700
H2401	H240	0.166500	0.512200	0.597900
H2411	H241	0.230000	0.527200	0.653200
H2421	H242	0.223900	0.520700	0.593800
H2431	H243	0.420200	0.384100	0.735700
H2441	H244	0.427400	0.331300	0.734300
H2451	H245	0.440300	0.366000	0.696100
H2461	H246	0.365800	0.797700	0.209900
H2471	H247	0.244400	0.712900	0.036700
H2481	H248	0.270100	0.645000	0.042300
H2491	H249	0.342400	0.653200	0.130400
H2501	H250	0.369800	0.579600	0.218400
H2511	H251	0.398000	0.496600	0.326800
H2521	H252	0.467000	0.581800	0.403600
H2531	H253	0.478900	0.665900	0.390400
H2541	H254	0.577800	0.805500	0.433100
H2551	H255	0.679800	0.978700	0.505500
H2561	H256	0.609300	0.979400	0.419100
H2571	H257	0.528700	0.893400	0.339300
H2581	H258	0.122500	0.949200	0.031100
H2591	H259	0.236900	0.019800	0.206700
H2601	H260	0.214100	0.089800	0.207900
H2611	H261	0.148500	0.092600	0.118700
H2621	H262	0.132100	0.173800	0.033700
H2631	H263	0.046600	0.250500	0.950900
H2641	H264	0.950300	0.159900	0.888200
H2651	H265	0.950000	0.075900	0.888500
H2661	H266	0.922500	0.953500	0.812400
H2671	H267	0.813300	0.778300	0.738400
H2681	H268	0.875300	0.773300	0.823600
H2691	H269	0.962800	0.860000	0.907000
H2701	H270	0.196400	0.484600	0.064800
H2711	H271	0.158800	0.521500	0.993900
H2721	H272	0.162500	0.495900	0.913400
H2731	H273	0.193100	0.437200	0.900900
H2741	H274	0.229000	0.403700	0.976100
H2751	H275	0.333500	0.931400	0.345700
H2761	H276	0.270000	0.923200	0.297200
H2771	H277	0.276100	0.869900	0.296800
H2781	H278	0.079800	0.815500	0.963900
H2791	H279	0.072600	0.806900	0.903900
H2801	H280	0.059700	0.755800	0.925700
C2211	C221	0.003710	0.677820	0.268510
C2221	C222	0.106500	0.753000	0.313100
C2231	C223	0.045700	0.707980	0.216680
C2241	C224	0.951700	0.636480	0.273380
C2251	C225	0.908800	0.579230	0.232830
C2261	C226	0.861200	0.539040	0.237840
C2271	C227	0.856600	0.557530	0.283930
C2281	C228	0.900000	0.613390	0.324190
C2291	C229	0.947100	0.651620	0.318720
C2301	C230	0.816850	0.477140	0.196130
C2311	C231	0.170200	0.798000	0.368000
C2321	C232	0.175300	0.809400	0.419500
C2331	C233	0.233800	0.849000	0.469600
C2341	C234	0.290100	0.876030	0.468930
C2351	C235	0.285400	0.865060	0.419060
C2361	C236	0.226600	0.823780	0.368180
C2371	C237	0.240300	0.860460	0.527160
C2381	C238	0.038700	0.703770	0.159670
C2391	C239	0.089600	0.744100	0.159300
C2401	C240	0.086200	0.744130	0.107530
C2411	C241	0.030100	0.701800	0.056100
C2421	C242	0.977100	0.659300	0.055600
C2431	C243	0.981400	0.661800	0.107000
C2441	C244	0.143500	0.789000	0.109700
C2451	C245	0.493800	0.065010	0.981410
C2461	C246	0.399600	0.977500	0.936100
C2471	C247	0.448700	0.031600	0.029500
C2481	C248	0.546400	0.109100	0.978300
C2491	C249	0.588500	0.164000	0.022100
C2501	C250	0.642600	0.206200	0.022600
C2511	C251	0.651900	0.190000	0.980100
C2521	C252	0.610300	0.134500	0.937600
C2531	C253	0.555200	0.093000	0.936200
C2541	C254	0.682570	0.266310	0.063260
C2551	C255	0.345400	0.926800	0.884000
C2561	C256	0.332100	0.925500	0.828400
C2571	C257	0.281200	0.879100	0.778100
C2581	C258	0.237900	0.827300	0.783000
C2591	C259	0.252700	0.824800	0.837500
C2601	C260	0.304500	0.874600	0.888100
C2611	C261	0.267000	0.879300	0.720700
C2621	C262	0.451900	0.035630	0.084530
C2631	C263	0.397170	0.995440	0.082270
C2641	C264	0.399770	0.995010	0.133040
C2651	C265	0.458400	0.035640	0.187640
C2661	C266	0.512500	0.075500	0.190800
C2671	C267	0.510600	0.076300	0.138500
C2681	C268	0.341800	0.951510	0.130110
C2691	C269	0.056400	0.721100	0.524700
C2701	C270	0.991700	0.675400	0.501900
C2711	C271	0.960400	0.693900	0.518500
C2721	C272	0.986200	0.745800	0.552000
C2731	C273	0.052100	0.787500	0.571800
C2741	C274	0.894500	0.388000	0.089100
C2751	C275	0.640300	0.288400	0.202900
C2761	C276	0.496290	0.764800	0.674110
C2771	C277	0.393500	0.706600	0.646500
C2781	C278	0.454300	0.670980	0.662280
C2791	C279	0.548300	0.821680	0.684780
C2801	C280	0.591200	0.824030	0.670430
C2811	C281	0.638800	0.876640	0.677840
C2821	C282	0.643400	0.927330	0.700930
C2831	C283	0.600000	0.924190	0.713390
C2841	C284	0.552900	0.871620	0.704520
C2851	C285	0.683150	0.879280	0.660290
C2861	C286	0.329800	0.697800	0.627800
C2871	C287	0.324700	0.744200	0.634100
C2881	C288	0.266200	0.735800	0.615200
C2891	C289	0.209900	0.678830	0.585930
C2901	C290	0.214600	0.633660	0.579660
C2911	C291	0.273400	0.641580	0.597180
C2921	C292	0.259700	0.786860	0.620160
C2931	C293	0.461300	0.620970	0.665070
C2941	C294	0.410400	0.569700	0.654500
C2951	C295	0.413800	0.521330	0.657930
C2961	C296	0.469900	0.526000	0.671700
C2971	C297	0.522900	0.578500	0.682200
C2981	C298	0.518600	0.625600	0.680400
C2991	C299	0.356500	0.466200	0.645500
C3001	C300	0.006200	0.987610	0.571210
C3011	C301	0.100400	0.036500	0.577900
C3021	C302	0.051300	0.080800	0.582900
C3031	C303	0.953600	0.931900	0.562700
C3041	C304	0.911500	0.933600	0.575500
C3051	C305	0.857400	0.880000	0.563600
C3061	C306	0.848100	0.828200	0.538100
C3071	C307	0.889700	0.827300	0.524200
C3081	C308	0.944800	0.881000	0.537800
C3091	C309	0.817430	0.880690	0.583740
C3101	C310	0.154600	0.038600	0.581400
C3111	C311	0.167900	0.996300	0.593400
C3121	C312	0.218800	0.996900	0.597900
C3131	C313	0.262100	0.045100	0.589400
C3141	C314	0.247300	0.084800	0.572100
C3151	C315	0.195500	0.083600	0.570100
C3161	C316	0.233000	0.953700	0.612300
C3171	C317	0.048100	0.132630	0.583730
C3181	C318	0.102830	0.185100	0.598270
C3191	C319	0.100230	0.233270	0.595240
C3201	C320	0.041600	0.229240	0.577240
C3211	C321	0.987500	0.178300	0.563000
C3221	C322	0.989400	0.127900	0.565700
C3231	C323	0.158200	0.288310	0.609710
C3241	C324	0.443600	0.968300	0.664700
C3251	C325	0.508300	0.010200	0.683700
C3261	C326	0.539600	0.058100	0.733500
C3271	C327	0.513800	0.065800	0.759600
C3281	C328	0.447900	0.019700	0.735400
C3291	C329	0.605500	0.694600	0.493500
C3301	C330	0.859700	0.062600	0.648100
C3311	C331	0.090690	0.325890	0.322180
C3321	C332	0.060100	0.353500	0.247000
C3331	C333	0.008700	0.337720	0.292020
C3341	C334	0.136900	0.315220	0.363520
C3351	C335	0.153600	0.329570	0.420770
C3361	C336	0.198800	0.322160	0.460960
C3371	C337	0.226400	0.299070	0.442470
C3381	C338	0.210800	0.286610	0.386610
C3391	C339	0.167100	0.295480	0.348380
C3401	C340	0.218990	0.339710	0.522860
C3411	C341	0.070000	0.372200	0.202000
C3421	C342	0.110100	0.365900	0.190600
C3431	C343	0.120600	0.384800	0.151000
C3441	C344	0.092900	0.414070	0.123970
C3451	C345	0.054000	0.420340	0.134940
C3461	C346	0.044400	0.402820	0.176220
C3471	C347	0.166700	0.379840	0.139540
C3481	C348	0.955900	0.334930	0.296230
C3491	C349	0.915200	0.345500	0.255900
C3501	C350	0.863400	0.342070	0.255870
C3511	C351	0.854300	0.328300	0.298200
C3521	C352	0.896300	0.317800	0.340700
C3531	C353	0.945200	0.319600	0.338200
C3541	C354	0.820700	0.354500	0.211000
C3551	C355	0.416400	0.428790	0.934990
C3561	C356	0.458600	0.422100	0.022500
C3571	C357	0.497900	0.417100	0.968400
C3581	C358	0.369200	0.437300	0.890900
C3591	C359	0.358100	0.424500	0.836000
C3601	C360	0.316400	0.436400	0.793800
C3611	C361	0.290100	0.461900	0.810000
C3621	C362	0.303100	0.475800	0.865500
C3631	C363	0.343200	0.462200	0.907000
C3641	C364	0.296950	0.416260	0.733690
C3651	C365	0.457200	0.418600	0.073200
C3661	C366	0.402900	0.406600	0.074500
C3671	C367	0.399000	0.402100	0.120900
C3681	C368	0.455700	0.410600	0.172700
C3691	C369	0.512700	0.427900	0.175200
C3701	C370	0.513500	0.429900	0.125400
C3711	C371	0.341400	0.387700	0.120700
C3721	C372	0.548900	0.416270	0.964370
C3731	C373	0.586830	0.401730	0.004560
C3741	C374	0.638030	0.404760	0.004990
C3751	C375	0.652000	0.422760	0.964360
C3761	C376	0.615300	0.437000	0.924500
C3771	C377	0.562200	0.434300	0.923700
C3781	C378	0.678600	0.390290	0.048490
C3791	C379	0.303600	0.335300	0.278900
C3801	C380	0.326500	0.316300	0.324600
C3811	C381	0.324600	0.266500	0.306100
C3821	C382	0.306200	0.240400	0.254200
C3831	C383	0.284300	0.264600	0.212500
C3841	C384	0.201100	0.506500	0.612000
C3851	C385	0.414500	0.351900	0.711600
C3861	C386	0.409310	0.731490	0.235200
C3871	C387	0.439900	0.686900	0.293400
C3881	C388	0.491300	0.783320	0.329020
C3891	C389	0.363100	0.726620	0.178320
C3901	C390	0.346400	0.767170	0.175970
C3911	C391	0.301200	0.762160	0.123360
C3921	C392	0.273600	0.716070	0.072670
C3931	C393	0.289200	0.675810	0.075810
C3941	C394	0.332900	0.681280	0.128380
C3951	C395	0.281010	0.803870	0.120720
C3961	C396	0.430000	0.632000	0.302200
C3971	C397	0.389900	0.580500	0.255800
C3981	C398	0.379400	0.530400	0.264200
C3991	C399	0.407100	0.531070	0.321170
C4001	C400	0.446000	0.580940	0.366340
C4011	C401	0.455600	0.631820	0.358420
C4021	C402	0.333300	0.472840	0.213140
C4031	C403	0.544100	0.840330	0.379030
C4041	C404	0.584800	0.840700	0.430300
C4051	C405	0.636600	0.892470	0.478670
C4061	C406	0.645700	0.943900	0.474000
C4071	C407	0.603700	0.944400	0.421500
C4081	C408	0.554800	0.893000	0.374400
C4091	C409	0.679300	0.890300	0.533800
C4101	C410	0.083600	0.018590	0.012390
C4111	C411	0.041400	0.063900	0.963500
C4121	C412	0.002100	0.970500	0.919200
C4131	C413	0.130800	0.021700	0.068100
C4141	C414	0.141900	0.977900	0.066400
C4151	C415	0.183600	0.977400	0.120000
C4161	C416	0.209900	0.019900	0.171800
C4171	C417	0.196900	0.062400	0.172700
C4181	C418	0.156800	0.063800	0.119000
C4191	C419	0.203050	0.936740	0.119310
C4201	C420	0.042800	0.116000	0.961400
C4211	C421	0.097100	0.171600	0.003700
C4221	C422	0.101000	0.221900	0.003100
C4231	C423	0.044300	0.217000	0.954900
C4241	C424	0.987300	0.162500	0.915200
C4251	C425	0.986500	0.111900	0.916400
C4261	C426	0.158600	0.279300	0.046300
C4271	C427	0.951100	0.915470	0.867370
C4281	C428	0.913170	0.917730	0.814900
C4291	C429	0.861970	0.866960	0.766730
C4301	C430	0.848000	0.812360	0.770760
C4311	C431	0.884700	0.809200	0.821700
C4321	C432	0.937800	0.861500	0.872100
C4331	C433	0.821400	0.869890	0.711690
C4341	C434	0.196400	0.475300	0.031700
C4351	C435	0.173500	0.498100	0.989800
C4361	C436	0.175400	0.481500	0.941900
C4371	C437	0.193800	0.448000	0.934200
C4381	C438	0.215700	0.428200	0.980300
C4391	C439	0.298900	0.910900	0.305400
C4401	C440	0.085500	0.797100	0.937400
N291	N29	0.995200	0.670350	0.216270
N301	N30	0.059140	0.720700	0.317760
N311	N31	0.102570	0.749300	0.263530
N321	N32	0.497940	0.073000	0.030660
N331	N33	0.445020	0.017900	0.930680
N341	N34	0.397700	0.982830	0.983130
N351	N35	0.084640	0.774470	0.557130
N361	N36	0.504800	0.721070	0.675150
N371	N37	0.440860	0.758620	0.661560
N381	N38	0.397430	0.660960	0.646730
N391	N39	0.002060	0.032720	0.575060
N401	N40	0.054980	0.985660	0.572880
N411	N41	0.102300	0.085430	0.585130
N421	N42	0.415360	0.972490	0.689830
N431	N43	0.045920	0.324850	0.329650
N441	N44	0.097060	0.338440	0.279300
N451	N45	0.014230	0.353270	0.250700
N461	N46	0.457660	0.424940	0.927000
N471	N47	0.412780	0.427120	0.982100
N481	N48	0.500300	0.414870	0.017170
N491	N49	0.282660	0.310170	0.225530
N501	N50	0.454080	0.783730	0.278930
N511	N51	0.402940	0.682240	0.241380
N521	N52	0.485770	0.736470	0.339040
N531	N53	0.042340	0.969340	0.967280
N541	N54	0.087220	0.069320	0.014340
N551	N55	0.999700	0.016870	0.914570
N561	N56	0.217340	0.442870	0.027510
O571	O57	0.830520	0.463980	0.161340
O581	O58	0.772510	0.444460	0.200210
O591	O59	0.189670	0.836370	0.526140
O601	O60	0.296630	0.891460	0.571510
O611	O61	0.193870	0.823830	0.159800
O621	O62	0.137730	0.790040	0.062530
O631	O63	0.667130	0.280450	0.096580
O641	O64	0.731820	0.300480	0.063800
O651	O65	0.314960	0.915630	0.720250
O661	O66	0.211620	0.845390	0.676330
O671	O67	0.291480	0.914290	0.079270
O681	O68	0.344910	0.951740	0.176090
O691	O69	0.846820	0.401910	0.077010
O701	O70	0.649820	0.341740	0.180100
O711	O71	0.669480	0.830820	0.633460
O721	O72	0.727490	0.927700	0.671950
O731	O73	0.310330	0.836470	0.646700
O741	O74	0.203370	0.774880	0.594830
O751	O75	0.306130	0.465930	0.629960
O761	O76	0.362270	0.424800	0.652310
O771	O77	0.832870	0.929450	0.613320
O781	O78	0.768180	0.831980	0.568660
O791	O79	0.185040	0.905290	0.600670
O801	O80	0.288380	0.964710	0.633770
O811	O81	0.208520	0.287790	0.622810
O821	O82	0.155090	0.331180	0.606830
O831	O83	0.653180	0.730190	0.555090
O841	O84	0.850180	0.030280	0.691920
O851	O85	0.197360	0.366540	0.536020
O861	O86	0.255750	0.328050	0.555540
O871	O87	0.189770	0.353300	0.163630
O881	O88	0.180050	0.405170	0.108540
O891	O89	0.835970	0.370040	0.176170
O901	O90	0.772490	0.347690	0.209960
O911	O91	0.316130	0.386680	0.719550
O921	O92	0.263320	0.431340	0.699520
O931	O93	0.304620	0.399330	0.084370
O941	O94	0.330940	0.366230	0.154610
O951	O95	0.664980	0.377190	0.085710
O961	O96	0.724350	0.393170	0.048260
O971	O97	0.175100	0.444910	0.598090
O981	O98	0.338360	0.308080	0.658260
O991	O99	0.302640	0.838660	0.169180
O1001	O100	0.244250	0.799790	0.072300
O1011	O101	0.310230	0.473860	0.163530
O1021	O102	0.319950	0.428490	0.225120
O1031	O103	0.664030	0.840200	0.534070
O1041	O104	0.727510	0.937470	0.575200
O1051	O105	0.183870	0.903420	0.070550
O1061	O106	0.236680	0.936200	0.168020
O1071	O107	0.195380	0.279750	0.094710
O1081	O108	0.169060	0.323670	0.035290
O1091	O109	0.835020	0.920730	0.712210
O1101	O110	0.775650	0.823910	0.668820
O1111	O111	0.324900	0.922990	0.269810
O1121	O112	0.161640	0.819900	0.969720
