data_OGOJOJ_charged_PM
_symmetry_space_group_name_H-M	'P1'
_cell_length_a	15.069900
_cell_length_b	15.700200
_cell_length_c	27.248000
_cell_angle_alpha	90.000000
_cell_angle_beta	101.910000
_cell_angle_gamma	90.000000
_symmetry_Int_Tables_number 1

loop_
_symmetry_equiv_pos_as_xyz
'x,y,z'

loop_
_atom_site_label
_atom_site_type_symbol
_atom_site_fract_x
_atom_site_fract_y
_atom_site_fract_z
Gd11	Gd1	0.718430	0.616940	0.627310
H11	H1	0.952200	0.633300	0.677100
H21	H2	0.064000	0.767300	0.583600
H31	H3	0.990200	0.698500	0.558400
H41	H4	0.958500	0.784300	0.581500
H51	H5	0.142900	0.735600	0.651500
H61	H6	0.094100	0.731800	0.698300
H71	H7	0.124200	0.645600	0.675000
H81	H8	0.689100	0.774900	0.534800
H91	H9	0.829400	0.694100	0.436200
H101	H10	0.853300	0.651600	0.490700
H111	H11	0.761700	0.626100	0.452400
H121	H12	0.787000	0.820600	0.432000
H131	H13	0.690000	0.839000	0.445100
H141	H14	0.780600	0.867000	0.483400
H151	H15	0.825000	0.510400	0.542900
H161	H16	0.980400	0.337600	0.623300
H171	H17	0.942700	0.411000	0.654300
H181	H18	0.875900	0.338200	0.627200
H191	H19	0.007400	0.370200	0.554000
H201	H20	0.921700	0.393700	0.510800
H211	H21	0.989800	0.467000	0.536200
H221	H22	0.633000	0.432400	0.570800
H231	H23	0.366100	0.436200	0.546500
H241	H24	0.417300	0.497500	0.590200
H251	H25	0.412200	0.522300	0.532700
H261	H26	0.429000	0.323400	0.536900
H271	H27	0.518900	0.329600	0.514500
H281	H28	0.525900	0.305600	0.572300
H291	H29	0.789700	0.428400	0.698300
H301	H30	0.573200	0.332800	0.737000
H311	H31	0.582900	0.434300	0.738500
H321	H32	0.555500	0.386200	0.685800
H331	H33	0.695400	0.262900	0.754300
H341	H34	0.764800	0.271200	0.717400
H351	H35	0.784400	0.320400	0.769900
H361	H36	0.581900	0.578900	0.713800
H371	H37	0.357000	0.604000	0.722900
H381	H38	0.418400	0.523600	0.715800
H391	H39	0.451800	0.588800	0.761000
H401	H40	0.351300	0.694300	0.668900
H411	H41	0.439800	0.749000	0.666200
H421	H42	0.407900	0.674100	0.626700
H431	H43	0.774000	0.610900	0.766800
H441	H44	0.957000	0.794200	0.794200
H451	H45	0.958900	0.737200	0.745700
H461	H46	0.880000	0.805900	0.744600
H471	H47	0.919700	0.735100	0.854500
H481	H48	0.817500	0.701700	0.847800
H491	H49	0.898400	0.635300	0.848600
H501	H50	0.631400	0.807700	0.666600
H511	H51	0.716800	0.011600	0.693600
H521	H52	0.617600	0.971600	0.675700
H531	H53	0.684000	0.935900	0.725000
H541	H54	0.813400	0.978800	0.650500
H551	H55	0.844100	0.881100	0.651100
H561	H56	0.776600	0.919300	0.602900
C11	C1	0.943900	0.659900	0.645150
C21	C2	0.005900	0.740600	0.585300
C31	C3	0.100700	0.703300	0.667300
C41	C4	0.716600	0.727500	0.522100
C51	C5	0.804100	0.672600	0.464200
C61	C6	0.753200	0.823700	0.459050
C71	C7	0.838200	0.479000	0.573400
C81	C8	0.928200	0.373900	0.624800
C91	C9	0.960700	0.413200	0.542100
C101	C10	0.580600	0.466500	0.569620
C111	C11	0.417400	0.475000	0.556600
C121	C12	0.493100	0.339700	0.544200
C131	C13	0.727100	0.435400	0.698430
C141	C14	0.591900	0.382700	0.720000
C151	C15	0.737000	0.301300	0.741900
C161	C16	0.549900	0.620800	0.692000
C171	C17	0.419400	0.583500	0.726000
C181	C18	0.412200	0.692300	0.661500
C191	C19	0.809300	0.651000	0.753100
C201	C20	0.919600	0.764700	0.765600
C211	C21	0.876000	0.692400	0.838100
C221	C22	0.681400	0.821700	0.651900
C231	C23	0.680900	0.959100	0.691300
C241	C24	0.794000	0.921000	0.639600
N11	N1	0.013500	0.698800	0.633450
N21	N2	0.756300	0.741300	0.483870
N31	N3	0.906500	0.426000	0.579510
N41	N4	0.501300	0.429600	0.557400
N51	N5	0.687000	0.374900	0.718020
N61	N6	0.465500	0.634600	0.693700
N71	N7	0.864400	0.700300	0.783680
N81	N8	0.717100	0.896900	0.660910
O11	O1	0.868000	0.655600	0.617440
O21	O2	0.712400	0.657100	0.542800
O31	O3	0.789400	0.491700	0.604050
O41	O4	0.591600	0.544100	0.579940
O51	O5	0.689600	0.502100	0.679790
O61	O6	0.592300	0.659300	0.663220
O71	O7	0.800800	0.654000	0.706550
O81	O8	0.708100	0.766800	0.625340
Gd21	Gd2	0.281570	0.116940	0.872690
H571	H57	0.047800	0.133300	0.822900
H581	H58	0.936000	0.267300	0.916400
H591	H59	0.009800	0.198500	0.941600
H601	H60	0.041500	0.284300	0.918500
H611	H61	0.857100	0.235600	0.848500
H621	H62	0.905900	0.231800	0.801700
H631	H63	0.875800	0.145600	0.825000
H641	H64	0.310900	0.274900	0.965200
H651	H65	0.170600	0.194100	0.063800
H661	H66	0.146700	0.151600	0.009300
H671	H67	0.238300	0.126100	0.047600
H681	H68	0.213000	0.320600	0.068000
H691	H69	0.310000	0.339000	0.054900
H701	H70	0.219400	0.367000	0.016600
H711	H71	0.175000	0.010400	0.957100
H721	H72	0.019600	0.837600	0.876700
H731	H73	0.057300	0.911000	0.845700
H741	H74	0.124100	0.838200	0.872800
H751	H75	0.992600	0.870200	0.946000
H761	H76	0.078300	0.893700	0.989200
H771	H77	0.010200	0.967000	0.963800
H781	H78	0.367000	0.932400	0.929200
H791	H79	0.633900	0.936200	0.953500
H801	H80	0.582700	0.997500	0.909800
H811	H81	0.587800	0.022300	0.967300
H821	H82	0.571000	0.823400	0.963100
H831	H83	0.481100	0.829600	0.985500
H841	H84	0.474100	0.805600	0.927700
H851	H85	0.210300	0.928400	0.801700
H861	H86	0.426800	0.832800	0.763000
H871	H87	0.417100	0.934300	0.761500
H881	H88	0.444500	0.886200	0.814200
H891	H89	0.304600	0.762900	0.745700
H901	H90	0.235200	0.771200	0.782600
H911	H91	0.215600	0.820400	0.730100
H921	H92	0.418100	0.078900	0.786200
H931	H93	0.643000	0.104000	0.777100
H941	H94	0.581600	0.023600	0.784200
H951	H95	0.548200	0.088800	0.739000
H961	H96	0.648700	0.194300	0.831100
H971	H97	0.560200	0.249000	0.833800
H981	H98	0.592100	0.174100	0.873300
H991	H99	0.226000	0.110900	0.733200
H1001	H100	0.043000	0.294200	0.705800
H1011	H101	0.041100	0.237200	0.754300
H1021	H102	0.120000	0.305900	0.755400
H1031	H103	0.080300	0.235100	0.645500
H1041	H104	0.182500	0.201700	0.652200
H1051	H105	0.101600	0.135300	0.651400
H1061	H106	0.368600	0.307700	0.833400
H1071	H107	0.283200	0.511600	0.806400
H1081	H108	0.382400	0.471600	0.824300
H1091	H109	0.316000	0.435900	0.775000
H1101	H110	0.186600	0.478800	0.849500
H1111	H111	0.155900	0.381100	0.848900
H1121	H112	0.223400	0.419300	0.897100
C251	C25	0.056100	0.159900	0.854850
C261	C26	0.994100	0.240600	0.914700
C271	C27	0.899300	0.203300	0.832700
C281	C28	0.283400	0.227500	0.977900
C291	C29	0.195900	0.172600	0.035800
C301	C30	0.246800	0.323700	0.040950
C311	C31	0.161800	0.979000	0.926600
C321	C32	0.071800	0.873900	0.875200
C331	C33	0.039300	0.913200	0.957900
C341	C34	0.419400	0.966500	0.930380
C351	C35	0.582600	0.975000	0.943400
C361	C36	0.506900	0.839700	0.955800
C371	C37	0.272900	0.935400	0.801570
C381	C38	0.408100	0.882700	0.780000
C391	C39	0.263000	0.801300	0.758100
C401	C40	0.450100	0.120800	0.808000
C411	C41	0.580600	0.083500	0.774000
C421	C42	0.587800	0.192300	0.838500
C431	C43	0.190700	0.151000	0.746900
C441	C44	0.080400	0.264700	0.734400
C451	C45	0.124000	0.192400	0.661900
C461	C46	0.318600	0.321700	0.848100
C471	C47	0.319100	0.459100	0.808700
C481	C48	0.206000	0.421000	0.860400
N91	N9	0.986500	0.198800	0.866550
N101	N10	0.243700	0.241300	0.016130
N111	N11	0.093500	0.926000	0.920490
N121	N12	0.498700	0.929600	0.942600
N131	N13	0.313000	0.874900	0.781980
N141	N14	0.534500	0.134600	0.806300
N151	N15	0.135600	0.200300	0.716320
N161	N16	0.282900	0.396900	0.839090
O91	O9	0.132000	0.155600	0.882560
O101	O10	0.287600	0.157100	0.957200
O111	O11	0.210600	0.991700	0.895950
O121	O12	0.408400	0.044100	0.920060
O131	O13	0.310400	0.002100	0.820210
O141	O14	0.407700	0.159300	0.836780
O151	O15	0.199200	0.154000	0.793450
O161	O16	0.291900	0.266800	0.874660
Gd31	Gd3	0.281570	0.383060	0.372690
H1131	H113	0.047800	0.366700	0.322900
H1141	H114	0.936000	0.232700	0.416400
H1151	H115	0.009800	0.301500	0.441600
H1161	H116	0.041500	0.215700	0.418500
H1171	H117	0.857100	0.264400	0.348500
H1181	H118	0.905900	0.268200	0.301700
H1191	H119	0.875800	0.354400	0.325000
H1201	H120	0.310900	0.225100	0.465200
H1211	H121	0.170600	0.305900	0.563800
H1221	H122	0.146700	0.348400	0.509300
H1231	H123	0.238300	0.373900	0.547600
H1241	H124	0.213000	0.179400	0.568000
H1251	H125	0.310000	0.161000	0.554900
H1261	H126	0.219400	0.133000	0.516600
H1271	H127	0.175000	0.489600	0.457100
H1281	H128	0.019600	0.662400	0.376700
H1291	H129	0.057300	0.589000	0.345700
H1301	H130	0.124100	0.661800	0.372800
H1311	H131	0.992600	0.629800	0.446000
H1321	H132	0.078300	0.606300	0.489200
H1331	H133	0.010200	0.533000	0.463800
H1341	H134	0.367000	0.567600	0.429200
H1351	H135	0.633900	0.563800	0.453500
H1361	H136	0.582700	0.502500	0.409800
H1371	H137	0.587800	0.477700	0.467300
H1381	H138	0.571000	0.676600	0.463100
H1391	H139	0.481100	0.670400	0.485500
H1401	H140	0.474100	0.694400	0.427700
H1411	H141	0.210300	0.571600	0.301700
H1421	H142	0.426800	0.667200	0.263000
H1431	H143	0.417100	0.565700	0.261500
H1441	H144	0.444500	0.613800	0.314200
H1451	H145	0.304600	0.737100	0.245700
H1461	H146	0.235200	0.728800	0.282600
H1471	H147	0.215600	0.679600	0.230100
H1481	H148	0.418100	0.421100	0.286200
H1491	H149	0.643000	0.396000	0.277100
H1501	H150	0.581600	0.476400	0.284200
H1511	H151	0.548200	0.411200	0.239000
H1521	H152	0.648700	0.305700	0.331100
H1531	H153	0.560200	0.251000	0.333800
H1541	H154	0.592100	0.325900	0.373300
H1551	H155	0.226000	0.389100	0.233200
H1561	H156	0.043000	0.205800	0.205800
H1571	H157	0.041100	0.262800	0.254300
H1581	H158	0.120000	0.194100	0.255400
H1591	H159	0.080300	0.264900	0.145500
H1601	H160	0.182500	0.298300	0.152200
H1611	H161	0.101600	0.364700	0.151400
H1621	H162	0.368600	0.192300	0.333400
H1631	H163	0.283200	0.988400	0.306400
H1641	H164	0.382400	0.028400	0.324300
H1651	H165	0.316000	0.064100	0.275000
H1661	H166	0.186600	0.021200	0.349500
H1671	H167	0.155900	0.118900	0.348900
H1681	H168	0.223400	0.080700	0.397100
C491	C49	0.056100	0.340100	0.354850
C501	C50	0.994100	0.259400	0.414700
C511	C51	0.899300	0.296700	0.332700
C521	C52	0.283400	0.272500	0.477900
C531	C53	0.195900	0.327400	0.535800
C541	C54	0.246800	0.176300	0.540950
C551	C55	0.161800	0.521000	0.426600
C561	C56	0.071800	0.626100	0.375200
C571	C57	0.039300	0.586800	0.457900
C581	C58	0.419400	0.533500	0.430380
C591	C59	0.582600	0.525000	0.443400
C601	C60	0.506900	0.660300	0.455800
C611	C61	0.272900	0.564600	0.301570
C621	C62	0.408100	0.617300	0.280000
C631	C63	0.263000	0.698700	0.258100
C641	C64	0.450100	0.379200	0.308000
C651	C65	0.580600	0.416500	0.274000
C661	C66	0.587800	0.307700	0.338500
C671	C67	0.190700	0.349000	0.246900
C681	C68	0.080400	0.235300	0.234400
C691	C69	0.124000	0.307600	0.161900
C701	C70	0.318600	0.178300	0.348100
C711	C71	0.319100	0.040900	0.308700
C721	C72	0.206000	0.079000	0.360400
N171	N17	0.986500	0.301200	0.366550
N181	N18	0.243700	0.258700	0.516130
N191	N19	0.093500	0.574000	0.420490
N201	N20	0.498700	0.570400	0.442600
N211	N21	0.313000	0.625100	0.281980
N221	N22	0.534500	0.365400	0.306300
N231	N23	0.135600	0.299700	0.216320
N241	N24	0.282900	0.103100	0.339090
O171	O17	0.132000	0.344400	0.382560
O181	O18	0.287600	0.342900	0.457200
O191	O19	0.210600	0.508300	0.395950
O201	O20	0.408400	0.455900	0.420060
O211	O21	0.310400	0.497900	0.320210
O221	O22	0.407700	0.340700	0.336780
O231	O23	0.199200	0.346000	0.293450
O241	O24	0.291900	0.233200	0.374660
Gd41	Gd4	0.718430	0.883060	0.127310
H1691	H169	0.952200	0.866700	0.177100
H1701	H170	0.064000	0.732700	0.083600
H1711	H171	0.990200	0.801500	0.058400
H1721	H172	0.958500	0.715700	0.081500
H1731	H173	0.142900	0.764400	0.151500
H1741	H174	0.094100	0.768200	0.198300
H1751	H175	0.124200	0.854400	0.175000
H1761	H176	0.689100	0.725100	0.034800
H1771	H177	0.829400	0.805900	0.936200
H1781	H178	0.853300	0.848400	0.990700
H1791	H179	0.761700	0.873900	0.952400
H1801	H180	0.787000	0.679400	0.932000
H1811	H181	0.690000	0.661000	0.945100
H1821	H182	0.780600	0.633000	0.983400
H1831	H183	0.825000	0.989600	0.042900
H1841	H184	0.980400	0.162400	0.123300
H1851	H185	0.942700	0.089000	0.154300
H1861	H186	0.875900	0.161800	0.127200
H1871	H187	0.007400	0.129800	0.054000
H1881	H188	0.921700	0.106300	0.010800
H1891	H189	0.989800	0.033000	0.036200
H1901	H190	0.633000	0.067600	0.070800
H1911	H191	0.366100	0.063800	0.046500
H1921	H192	0.417300	0.002500	0.090200
H1931	H193	0.412200	0.977700	0.032700
H1941	H194	0.429000	0.176600	0.036900
H1951	H195	0.518900	0.170400	0.014500
H1961	H196	0.525900	0.194400	0.072300
H1971	H197	0.789700	0.071600	0.198300
H1981	H198	0.573200	0.167200	0.237000
H1991	H199	0.582900	0.065700	0.238500
H2001	H200	0.555500	0.113800	0.185800
H2011	H201	0.695400	0.237100	0.254300
H2021	H202	0.764800	0.228800	0.217400
H2031	H203	0.784400	0.179600	0.269900
H2041	H204	0.581900	0.921100	0.213800
H2051	H205	0.357000	0.896000	0.222900
H2061	H206	0.418400	0.976400	0.215800
H2071	H207	0.451800	0.911200	0.261000
H2081	H208	0.351300	0.805700	0.168900
H2091	H209	0.439800	0.751000	0.166200
H2101	H210	0.407900	0.825900	0.126700
H2111	H211	0.774000	0.889100	0.266800
H2121	H212	0.957000	0.705800	0.294200
H2131	H213	0.958900	0.762800	0.245700
H2141	H214	0.880000	0.694100	0.244600
H2151	H215	0.919700	0.764900	0.354500
H2161	H216	0.817500	0.798300	0.347800
H2171	H217	0.898400	0.864700	0.348600
H2181	H218	0.631400	0.692300	0.166600
H2191	H219	0.716800	0.488400	0.193600
H2201	H220	0.617600	0.528400	0.175700
H2211	H221	0.684000	0.564100	0.225000
H2221	H222	0.813400	0.521200	0.150500
H2231	H223	0.844100	0.618900	0.151100
H2241	H224	0.776600	0.580700	0.102900
C731	C73	0.943900	0.840100	0.145150
C741	C74	0.005900	0.759400	0.085300
C751	C75	0.100700	0.796700	0.167300
C761	C76	0.716600	0.772500	0.022100
C771	C77	0.804100	0.827400	0.964200
C781	C78	0.753200	0.676300	0.959050
C791	C79	0.838200	0.021000	0.073400
C801	C80	0.928200	0.126100	0.124800
C811	C81	0.960700	0.086800	0.042100
C821	C82	0.580600	0.033500	0.069620
C831	C83	0.417400	0.025000	0.056600
C841	C84	0.493100	0.160300	0.044200
C851	C85	0.727100	0.064600	0.198430
C861	C86	0.591900	0.117300	0.220000
C871	C87	0.737000	0.198700	0.241900
C881	C88	0.549900	0.879200	0.192000
C891	C89	0.419400	0.916500	0.226000
C901	C90	0.412200	0.807700	0.161500
C911	C91	0.809300	0.849000	0.253100
C921	C92	0.919600	0.735300	0.265600
C931	C93	0.876000	0.807600	0.338100
C941	C94	0.681400	0.678300	0.151900
C951	C95	0.680900	0.540900	0.191300
C961	C96	0.794000	0.579000	0.139600
N251	N25	0.013500	0.801200	0.133450
N261	N26	0.756300	0.758700	0.983870
N271	N27	0.906500	0.074000	0.079510
N281	N28	0.501300	0.070400	0.057400
N291	N29	0.687000	0.125100	0.218020
N301	N30	0.465500	0.865400	0.193700
N311	N31	0.864400	0.799700	0.283680
N321	N32	0.717100	0.603100	0.160910
O251	O25	0.868000	0.844400	0.117440
O261	O26	0.712400	0.842900	0.042800
O271	O27	0.789400	0.008300	0.104050
O281	O28	0.591600	0.955900	0.079940
O291	O29	0.689600	0.997900	0.179790
O301	O30	0.592300	0.840700	0.163220
O311	O31	0.800800	0.846000	0.206550
O321	O32	0.708100	0.733200	0.125340
Cu11	Cu1	0.424660	0.192240	0.665920
Cu21	Cu2	0.231510	0.934660	0.653300
Cu31	Cu3	0.971360	0.024640	0.726150
Cu41	Cu4	0.731000	0.199590	0.622840
Cu51	Cu5	0.224500	0.444540	0.656130
Cu61	Cu6	0.245660	0.682700	0.541860
Cu71	Cu7	0.575340	0.692240	0.834080
Cu81	Cu8	0.768490	0.434660	0.846700
Cu91	Cu9	0.028640	0.524640	0.773850
Cu101	Cu10	0.269000	0.699590	0.877160
Cu111	Cu11	0.775500	0.944540	0.843870
Cu121	Cu12	0.754340	0.182700	0.958140
Cu131	Cu13	0.575340	0.807760	0.334080
Cu141	Cu14	0.768490	0.065340	0.346700
Cu151	Cu15	0.028640	0.975360	0.273850
Cu161	Cu16	0.269000	0.800410	0.377160
Cu171	Cu17	0.775500	0.555460	0.343870
Cu181	Cu18	0.754340	0.317300	0.458140
Cu191	Cu19	0.424660	0.307760	0.165920
Cu201	Cu20	0.231510	0.565340	0.153300
Cu211	Cu21	0.971360	0.475360	0.226150
Cu221	Cu22	0.731000	0.300410	0.122840
Cu231	Cu23	0.224500	0.055460	0.156130
Cu241	Cu24	0.245660	0.817300	0.041860
C971	C97	0.836900	0.152000	0.663700
C981	C98	0.137300	0.473400	0.694200
C991	C99	0.068400	0.977500	0.701900
C1001	C100	0.362500	0.089600	0.672900
C1011	C101	0.241100	0.841700	0.610900
C1021	C102	0.311400	0.356900	0.668300
C1031	C103	0.540300	0.188600	0.649000
C1041	C104	0.226100	0.579800	0.574000
C1051	C105	0.738500	0.289100	0.522100
C1061	C106	0.163100	0.652000	0.836300
C1071	C107	0.862700	0.973400	0.805800
C1081	C108	0.931600	0.477500	0.798100
C1091	C109	0.637500	0.589600	0.827100
C1101	C110	0.758900	0.341700	0.889100
C1111	C111	0.688600	0.856900	0.831700
C1121	C112	0.459700	0.688600	0.851000
C1131	C113	0.773900	0.079800	0.926000
C1141	C114	0.261500	0.789100	0.977900
C1151	C115	0.163100	0.848000	0.336300
C1161	C116	0.862700	0.526600	0.305800
C1171	C117	0.931600	0.022500	0.298100
C1181	C118	0.637500	0.910400	0.327100
C1191	C119	0.758900	0.158300	0.389100
C1201	C120	0.688600	0.643100	0.331700
C1211	C121	0.459700	0.811400	0.351000
C1221	C122	0.773900	0.420200	0.426000
C1231	C123	0.261500	0.710900	0.477900
C1241	C124	0.836900	0.348000	0.163700
C1251	C125	0.137300	0.026600	0.194200
C1261	C126	0.068400	0.522500	0.201900
C1271	C127	0.362500	0.410400	0.172900
C1281	C128	0.241100	0.658300	0.110900
C1291	C129	0.311400	0.143100	0.168300
C1301	C130	0.540300	0.311400	0.149000
C1311	C131	0.226100	0.920200	0.074000
C1321	C132	0.738500	0.210900	0.022100
N331	N33	0.897500	0.117600	0.688250
N341	N34	0.088400	0.495200	0.719970
N351	N35	0.128300	0.953400	0.685090
N361	N36	0.318400	0.028500	0.669380
N371	N37	0.245800	0.784100	0.585270
N381	N38	0.359300	0.297900	0.671500
N391	N39	0.610300	0.187500	0.638150
N401	N40	0.220600	0.521200	0.599060
N411	N41	0.733600	0.262100	0.561700
N421	N42	0.102500	0.617600	0.811750
N431	N43	0.911600	0.995200	0.780030
N441	N44	0.871700	0.453400	0.814910
N451	N45	0.681600	0.528500	0.830620
N461	N46	0.754200	0.284100	0.914730
N471	N47	0.640700	0.797900	0.828500
N481	N48	0.389700	0.687500	0.861850
N491	N49	0.779400	0.021200	0.900940
N501	N50	0.266400	0.762100	0.938300
N511	N51	0.102500	0.882400	0.311750
N521	N52	0.911600	0.504800	0.280030
N531	N53	0.871700	0.046600	0.314910
N541	N54	0.681600	0.971500	0.330620
N551	N55	0.754200	0.215900	0.414730
N561	N56	0.640700	0.702100	0.328500
N571	N57	0.389700	0.812500	0.361850
N581	N58	0.779400	0.478800	0.400940
N591	N59	0.266400	0.737900	0.438300
N601	N60	0.897500	0.382400	0.188250
N611	N61	0.088400	0.004800	0.219970
N621	N62	0.128300	0.546600	0.185090
N631	N63	0.318400	0.471500	0.169380
N641	N64	0.245800	0.715900	0.085270
N651	N65	0.359300	0.202100	0.171500
N661	N66	0.610300	0.312500	0.138150
N671	N67	0.220600	0.978800	0.099060
N681	N68	0.733600	0.237900	0.061700
