data_OGUPIQ_freeONLY_PM
_symmetry_space_group_name_H-M	'P1'
_cell_length_a	11.183200
_cell_length_b	18.577500
_cell_length_c	21.475000
_cell_angle_alpha	94.611200
_cell_angle_beta	90.000000
_cell_angle_gamma	107.517000
_symmetry_Int_Tables_number 1

loop_
_symmetry_equiv_pos_as_xyz
'x,y,z'

loop_
_atom_site_label
_atom_site_type_symbol
_atom_site_fract_x
_atom_site_fract_y
_atom_site_fract_z
Co11	Co1	0.245310	0.651960	0.239960
Co21	Co2	0.179680	0.804540	0.180160
Co31	Co3	0.680700	0.257440	0.373420
Co41	Co4	0.746210	0.721040	0.563760
Co51	Co5	0.685130	0.859400	0.504600
Co61	Co6	0.593350	0.348040	0.260040
Co71	Co7	0.375140	0.195460	0.319840
Co81	Co8	0.423260	0.742560	0.126580
Co91	Co9	0.025170	0.278960	0.936240
Co101	Co10	0.825730	0.140600	0.995400
Co111	Co11	0.754690	0.348040	0.760040
Co121	Co12	0.820320	0.195460	0.819840
Co131	Co13	0.319300	0.742560	0.626580
Co141	Co14	0.253790	0.278960	0.436240
Co151	Co15	0.314870	0.140600	0.495400
Co161	Co16	0.406650	0.651960	0.739960
Co171	Co17	0.624860	0.804540	0.680160
Co181	Co18	0.576740	0.257440	0.873420
Co191	Co19	0.974830	0.721040	0.063760
Co201	Co20	0.174270	0.859400	0.004600
H11	H1	0.198300	0.677000	0.129900
H21	H2	0.194700	0.757000	0.069300
H31	H3	0.768900	0.876000	0.390700
H41	H4	0.800500	0.953000	0.423000
H51	H5	0.715200	0.467200	0.340400
H61	H6	0.583000	0.466600	0.339100
H71	H7	0.813700	0.961800	0.589100
H81	H8	0.680600	0.959000	0.596300
H91	H9	0.181800	0.650600	0.356300
H101	H10	0.134700	0.571400	0.328700
H111	H11	0.379200	0.968400	0.298000
H121	H12	0.716300	0.040000	0.389700
H131	H13	0.539600	0.815200	0.354800
H141	H14	0.770100	0.706800	0.194900
H151	H15	0.506000	0.538800	0.271200
H161	H16	0.873000	0.551000	0.285900
H171	H17	0.840900	0.209600	0.458600
H181	H18	0.953500	0.044600	0.530000
H191	H19	0.589700	0.040600	0.540500
H201	H20	0.556400	0.544000	0.444800
H211	H21	0.215200	0.480600	0.357200
H221	H22	0.412200	0.703200	0.385700
H231	H23	0.013000	0.873000	0.185000
H241	H24	0.108400	0.914800	0.227000
H251	H25	0.521300	0.323000	0.370100
H261	H26	0.437700	0.243000	0.430700
H271	H27	0.892900	0.124000	0.109300
H281	H28	0.847500	0.047000	0.077000
H291	H29	0.248000	0.532800	0.159600
H301	H30	0.116400	0.533400	0.160900
H311	H31	0.851900	0.038200	0.910900
H321	H32	0.721600	0.041000	0.903700
H331	H33	0.531200	0.349400	0.143700
H341	H34	0.563300	0.428600	0.171300
H351	H35	0.410800	0.031600	0.202000
H361	H36	0.676300	0.960000	0.110300
H371	H37	0.724400	0.184800	0.145200
H381	H38	0.063300	0.293200	0.305100
H391	H39	0.967200	0.461200	0.228800
H401	H40	0.322000	0.449000	0.214100
H411	H41	0.631300	0.790400	0.041400
H421	H42	0.908900	0.955400	0.970000
H431	H43	0.549100	0.959400	0.959500
H441	H44	0.012400	0.456000	0.055200
H451	H45	0.734600	0.519400	0.142800
H461	H46	0.709000	0.296800	0.114300
H471	H47	0.140000	0.127000	0.315000
H481	H48	0.193600	0.085200	0.273000
H491	H49	0.801700	0.323000	0.870100
H501	H50	0.805300	0.243000	0.930700
H511	H51	0.231100	0.124000	0.609300
H521	H52	0.199500	0.047000	0.577000
H531	H53	0.284800	0.532800	0.659600
H541	H54	0.417000	0.533400	0.660900
H551	H55	0.186300	0.038200	0.410900
H561	H56	0.319400	0.041000	0.403700
H571	H57	0.818200	0.349400	0.643700
H581	H58	0.865300	0.428600	0.671300
H591	H59	0.620800	0.031600	0.702000
H601	H60	0.283700	0.960000	0.610300
H611	H61	0.460400	0.184800	0.645200
H621	H62	0.229900	0.293200	0.805100
H631	H63	0.494000	0.461200	0.728800
H641	H64	0.127000	0.449000	0.714100
H651	H65	0.159100	0.790400	0.541400
H661	H66	0.046500	0.955400	0.470000
H671	H67	0.410300	0.959400	0.459500
H681	H68	0.443600	0.456000	0.555200
H691	H69	0.784800	0.519400	0.642800
H701	H70	0.587800	0.296800	0.614300
H711	H71	0.987000	0.127000	0.815000
H721	H72	0.891600	0.085200	0.773000
H731	H73	0.478700	0.677000	0.629900
H741	H74	0.562300	0.757000	0.569300
H751	H75	0.107100	0.876000	0.890700
H761	H76	0.152500	0.953000	0.923000
H771	H77	0.752000	0.467200	0.840400
H781	H78	0.883600	0.466600	0.839100
H791	H79	0.148100	0.961800	0.089100
H801	H80	0.278400	0.959000	0.096300
H811	H81	0.468800	0.650600	0.856300
H821	H82	0.436700	0.571400	0.828700
H831	H83	0.589200	0.968400	0.798000
H841	H84	0.323700	0.040000	0.889700
H851	H85	0.275600	0.815200	0.854800
H861	H86	0.936700	0.706800	0.694900
H871	H87	0.032800	0.538800	0.771200
H881	H88	0.678000	0.551000	0.785900
H891	H89	0.368700	0.209600	0.958600
H901	H90	0.091100	0.044600	0.030000
H911	H91	0.450900	0.040600	0.040500
H921	H92	0.987600	0.544000	0.944800
H931	H93	0.265400	0.480600	0.857200
H941	H94	0.291000	0.703200	0.885700
H951	H95	0.860000	0.873000	0.685000
H961	H96	0.806400	0.914800	0.727000
C11	C1	0.443270	0.882540	0.322400
C21	C2	0.446480	0.957360	0.318100
C31	C3	0.548220	0.016040	0.343100
C41	C4	0.646760	0.999920	0.372500
C51	C5	0.643550	0.925100	0.376900
C61	C6	0.541810	0.866420	0.351800
C71	C7	0.335980	0.817960	0.292900
C81	C8	0.551080	0.095960	0.339900
C91	C9	0.841390	0.634580	0.238500
C101	C10	0.748290	0.662980	0.217600
C111	C11	0.623330	0.627260	0.229800
C121	C12	0.591370	0.563140	0.262900
C131	C13	0.684470	0.534740	0.283800
C141	C14	0.809420	0.570440	0.271600
C151	C15	0.977750	0.674100	0.226000
C161	C16	0.520070	0.657140	0.208600
C171	C17	0.700380	0.130160	0.497700
C181	C18	0.822110	0.164420	0.479400
C191	C19	0.916450	0.132500	0.491400
C201	C20	0.888970	0.066340	0.521800
C211	C21	0.767240	0.032080	0.540100
C221	C22	0.672890	0.063980	0.528000
C231	C23	0.593870	0.160740	0.483000
C241	C24	0.050190	0.167980	0.473900
C251	C25	0.501170	0.632540	0.418900
C261	C26	0.490790	0.556980	0.424900
C271	C27	0.384180	0.500360	0.401900
C281	C28	0.288060	0.519320	0.372900
C291	C29	0.298440	0.594880	0.366800
C301	C30	0.405050	0.651500	0.389800
C311	C31	0.609310	0.694420	0.448600
C321	C32	0.367930	0.419460	0.410100
C331	C33	0.560730	0.117460	0.177600
C341	C34	0.489120	0.042640	0.181900
C351	C35	0.532180	0.983960	0.156900
C361	C36	0.646840	0.000080	0.127500
C371	C37	0.718450	0.074900	0.123100
C381	C38	0.675390	0.133580	0.148200
C391	C39	0.518020	0.182040	0.207100
C401	C40	0.455120	0.904040	0.160100
C411	C41	0.206810	0.365420	0.261500
C421	C42	0.085310	0.337020	0.282400
C431	C43	0.996070	0.372740	0.270200
C441	C44	0.028230	0.436860	0.237100
C451	C45	0.149730	0.465260	0.216200
C461	C46	0.238980	0.429560	0.228400
C471	C47	0.303650	0.325900	0.274000
C481	C48	0.862930	0.342860	0.291400
C491	C49	0.570220	0.869840	0.002300
C501	C50	0.657690	0.835580	0.020600
C511	C51	0.783950	0.867500	0.008600
C521	C52	0.822630	0.933660	0.978200
C531	C53	0.735160	0.967920	0.959900
C541	C54	0.608910	0.936020	0.972000
C551	C55	0.433130	0.839260	0.017000
C561	C56	0.882210	0.832020	0.026100
C571	C57	0.868630	0.367460	0.081100
C581	C58	0.933810	0.443020	0.075100
C591	C59	0.883820	0.499640	0.098100
C601	C60	0.768740	0.480680	0.127100
C611	C61	0.703560	0.405120	0.133200
C621	C62	0.753550	0.348500	0.110200
C631	C63	0.914890	0.305580	0.051400
C641	C64	0.948470	0.580540	0.089900
C651	C65	0.556730	0.117460	0.677600
C661	C66	0.553520	0.042640	0.681900
C671	C67	0.451780	0.983960	0.656900
C681	C68	0.353240	0.000080	0.627500
C691	C69	0.356450	0.074900	0.623100
C701	C70	0.458190	0.133580	0.648200
C711	C71	0.664020	0.182040	0.707100
C721	C72	0.448920	0.904040	0.660100
C731	C73	0.158610	0.365420	0.761500
C741	C74	0.251710	0.337020	0.782400
C751	C75	0.376670	0.372740	0.770200
C761	C76	0.408630	0.436860	0.737100
C771	C77	0.315530	0.465260	0.716200
C781	C78	0.190580	0.429560	0.728400
C791	C79	0.022250	0.325900	0.774000
C801	C80	0.479930	0.342860	0.791400
C811	C81	0.299620	0.869840	0.502300
C821	C82	0.177890	0.835580	0.520600
C831	C83	0.083550	0.867500	0.508600
C841	C84	0.111030	0.933660	0.478200
C851	C85	0.232760	0.967920	0.459900
C861	C86	0.327110	0.936020	0.472000
C871	C87	0.406130	0.839260	0.517000
C881	C88	0.949810	0.832020	0.526100
C891	C89	0.498830	0.367460	0.581100
C901	C90	0.509210	0.443020	0.575100
C911	C91	0.615820	0.499640	0.598100
C921	C92	0.711940	0.480680	0.627100
C931	C93	0.701560	0.405120	0.633200
C941	C94	0.594950	0.348500	0.610200
C951	C95	0.390690	0.305580	0.551400
C961	C96	0.632070	0.580540	0.589900
C971	C97	0.439270	0.882540	0.822400
C981	C98	0.510880	0.957360	0.818100
C991	C99	0.467820	0.016040	0.843100
C1001	C100	0.353160	0.999920	0.872500
C1011	C101	0.281550	0.925100	0.876900
C1021	C102	0.324610	0.866420	0.851800
C1031	C103	0.481980	0.817960	0.792900
C1041	C104	0.544880	0.095960	0.839900
C1051	C105	0.793190	0.634580	0.738500
C1061	C106	0.914690	0.662980	0.717600
C1071	C107	0.003930	0.627260	0.729800
C1081	C108	0.971770	0.563140	0.762900
C1091	C109	0.850270	0.534740	0.783800
C1101	C110	0.761020	0.570440	0.771600
C1111	C111	0.696350	0.674100	0.726000
C1121	C112	0.137070	0.657140	0.708600
C1131	C113	0.429780	0.130160	0.997700
C1141	C114	0.342310	0.164420	0.979400
C1151	C115	0.216050	0.132500	0.991400
C1161	C116	0.177370	0.066340	0.021800
C1171	C117	0.264840	0.032080	0.040100
C1181	C118	0.391090	0.063980	0.028000
C1191	C119	0.566870	0.160740	0.983000
C1201	C120	0.117790	0.167980	0.973900
C1211	C121	0.131370	0.632540	0.918900
C1221	C122	0.066190	0.556980	0.924900
C1231	C123	0.116180	0.500360	0.901900
C1241	C124	0.231260	0.519320	0.872900
C1251	C125	0.296440	0.594880	0.866800
C1261	C126	0.246450	0.651500	0.889800
C1271	C127	0.085110	0.694420	0.948600
C1281	C128	0.051530	0.419460	0.910100
N11	N1	0.736370	0.908540	0.414800
N21	N2	0.649200	0.465200	0.314000
N31	N3	0.742380	0.961560	0.567500
N41	N4	0.204170	0.613540	0.332400
N51	N5	0.827830	0.091460	0.085200
N61	N6	0.184000	0.534800	0.186000
N71	N7	0.780820	0.038440	0.932500
N81	N8	0.590630	0.386460	0.167600
N91	N9	0.263630	0.091460	0.585200
N101	N10	0.350800	0.534800	0.686000
N111	N11	0.257620	0.038440	0.432500
N121	N12	0.795830	0.386460	0.667600
N131	N13	0.172170	0.908540	0.914800
N141	N14	0.816000	0.465200	0.814000
N151	N15	0.219180	0.961560	0.067500
N161	N16	0.409370	0.613540	0.832400
O11	O1	0.349390	0.753580	0.289500
O21	O2	0.239650	0.833100	0.273500
O31	O3	0.446550	0.108500	0.338700
O41	O4	0.655370	0.146940	0.339700
O51	O5	0.055230	0.643660	0.245100
O61	O6	0.004010	0.732820	0.197700
O71	O7	0.548700	0.705400	0.168000
O81	O8	0.415610	0.632220	0.231100
O91	O9	0.487840	0.122680	0.497700
O101	O10	0.616950	0.221900	0.457100
O111	O11	0.072410	0.220020	0.437100
O121	O12	0.130260	0.143320	0.496300
O131	O13	0.604810	0.761020	0.447600
O141	O14	0.695570	0.676540	0.474900
O151	O15	0.460940	0.396080	0.415400
O161	O16	0.255610	0.376620	0.409400
O171	O17	0.254740	0.712480	0.162600
O181	O18	0.143480	0.791160	0.082200
O191	O19	0.090610	0.890620	0.192700
O201	O20	0.595810	0.246420	0.210500
O211	O21	0.406550	0.166900	0.226500
O221	O22	0.338050	0.891500	0.161300
O231	O23	0.508430	0.853060	0.160300
O241	O24	0.411570	0.356340	0.254900
O251	O25	0.271190	0.267180	0.302300
O261	O26	0.843300	0.294600	0.332000
O271	O27	0.783390	0.367780	0.268900
O281	O28	0.365160	0.877320	0.002300
O291	O29	0.395050	0.778100	0.042900
O301	O30	0.852390	0.779980	0.062900
O311	O31	0.986940	0.856680	0.003700
O321	O32	0.843790	0.238980	0.052400
O331	O33	0.019030	0.323460	0.025100
O341	O34	0.064860	0.603920	0.084600
O351	O35	0.878990	0.623380	0.090600
O361	O36	0.542260	0.287520	0.337400
O371	O37	0.352320	0.208840	0.417800
O381	O38	0.199990	0.109380	0.307300
O391	O39	0.650610	0.246420	0.710500
O401	O40	0.760350	0.166900	0.726500
O411	O41	0.553450	0.891500	0.661300
O421	O42	0.344630	0.853060	0.660300
O431	O43	0.944770	0.356340	0.754900
O441	O44	0.995990	0.267180	0.802300
O451	O45	0.451300	0.294600	0.832000
O461	O46	0.584390	0.367780	0.768900
O471	O47	0.512160	0.877320	0.502300
O481	O48	0.383050	0.778100	0.542900
O491	O49	0.927590	0.779980	0.562900
O501	O50	0.869740	0.856680	0.503700
O511	O51	0.395190	0.238980	0.552400
O521	O52	0.304430	0.323460	0.525100
O531	O53	0.539060	0.603920	0.584600
O541	O54	0.744390	0.623380	0.590600
O551	O55	0.745260	0.287520	0.837400
O561	O56	0.856520	0.208840	0.917800
O571	O57	0.909390	0.109380	0.807300
O581	O58	0.404190	0.753580	0.789500
O591	O59	0.593450	0.833100	0.773500
O601	O60	0.661950	0.108500	0.838700
O611	O61	0.491570	0.146940	0.839700
O621	O62	0.588430	0.643660	0.745100
O631	O63	0.728810	0.732820	0.697700
O641	O64	0.156700	0.705400	0.668000
O651	O65	0.216610	0.632220	0.731100
O661	O66	0.634840	0.122680	0.997700
O671	O67	0.604950	0.221900	0.957100
O681	O68	0.147610	0.220020	0.937100
O691	O69	0.013060	0.143320	0.996300
O701	O70	0.156210	0.761020	0.947600
O711	O71	0.980970	0.676540	0.974900
O721	O72	0.935140	0.396080	0.915400
O731	O73	0.121010	0.376620	0.909400
O741	O74	0.457740	0.712480	0.662600
O751	O75	0.647680	0.791160	0.582200
O761	O76	0.800010	0.890620	0.692700
