data_OHAZAZ_freeONLY_PM
_symmetry_space_group_name_H-M	'P1'
_cell_length_a	7.962600
_cell_length_b	12.133100
_cell_length_c	13.318200
_cell_angle_alpha	111.951000
_cell_angle_beta	104.938000
_cell_angle_gamma	91.576000
_symmetry_Int_Tables_number 1

loop_
_symmetry_equiv_pos_as_xyz
'x,y,z'

loop_
_atom_site_label
_atom_site_type_symbol
_atom_site_fract_x
_atom_site_fract_y
_atom_site_fract_z
Gd11	Gd1	0.748700	0.981280	0.010580
Gd21	Gd2	0.251300	0.018720	0.989420
H11	H1	0.076500	0.152900	0.415700
H21	H2	0.067900	0.275200	0.401300
H31	H3	0.291500	0.112300	0.314800
H41	H4	0.256000	0.227900	0.290400
H51	H5	0.586300	0.109500	0.673500
H61	H6	0.690100	0.226000	0.776400
H71	H7	0.352700	0.120200	0.751400
H81	H8	0.448200	0.240800	0.851800
H91	H9	0.613900	0.601400	0.770300
H101	H10	0.503300	0.610800	0.658400
H111	H11	0.347600	0.591500	0.820100
H121	H12	0.250900	0.617200	0.714500
H131	H13	0.923500	0.847100	0.584300
H141	H14	0.932100	0.724800	0.598700
H151	H15	0.708500	0.887700	0.685200
H161	H16	0.744000	0.772100	0.709600
H171	H17	0.413700	0.890500	0.326500
H181	H18	0.309900	0.774000	0.223600
H191	H19	0.647300	0.879800	0.248600
H201	H20	0.551800	0.759200	0.148200
H211	H21	0.386100	0.398600	0.229700
H221	H22	0.496700	0.389200	0.341600
H231	H23	0.652400	0.408500	0.179900
H241	H24	0.749100	0.382800	0.285500
C11	C1	0.336200	0.396800	0.555200
C21	C2	0.364000	0.201800	0.567000
C31	C3	0.532900	0.381700	0.722500
C41	C4	0.144400	0.216200	0.409200
C51	C5	0.203400	0.163700	0.304000
C61	C6	0.050800	0.092200	0.203500
C71	C7	0.573800	0.185800	0.728500
C81	C8	0.466700	0.164200	0.800100
C91	C9	0.555800	0.094700	0.866900
C101	C10	0.499400	0.578900	0.714800
C111	C11	0.362100	0.632300	0.772100
C121	C12	0.404900	0.765100	0.842600
C131	C13	0.663800	0.603200	0.444800
C141	C14	0.636000	0.798200	0.433000
C151	C15	0.467100	0.618300	0.277500
C161	C16	0.855600	0.783800	0.590800
C171	C17	0.796600	0.836300	0.696000
C181	C18	0.949200	0.907800	0.796500
C191	C19	0.426200	0.814200	0.271500
C201	C20	0.533300	0.835800	0.199900
C211	C21	0.444200	0.905300	0.133100
C221	C22	0.500600	0.421100	0.285200
C231	C23	0.637900	0.367700	0.227900
C241	C24	0.595100	0.234900	0.157400
N11	N1	0.458700	0.446900	0.660100
N21	N2	0.290100	0.273500	0.513500
N31	N3	0.489300	0.259600	0.669400
N41	N4	0.541300	0.553100	0.339900
N51	N5	0.709900	0.726500	0.486500
N61	N6	0.510700	0.740400	0.330600
O11	O1	0.923100	0.043800	0.214600
O21	O2	0.054800	0.086800	0.105400
O31	O3	0.556100	0.815500	0.859900
O41	O4	0.284800	0.815000	0.880000
O51	O5	0.468000	0.051100	0.913800
O61	O6	0.714100	0.082800	0.878100
O71	O7	0.632700	0.430200	0.816500
O81	O8	0.272200	0.455900	0.503900
O91	O9	0.321800	0.094100	0.525400
O101	O10	0.849000	0.807100	0.040500
O111	O11	0.076900	0.956200	0.785400
O121	O12	0.945200	0.913200	0.894600
O131	O13	0.443900	0.184500	0.140100
O141	O14	0.715200	0.185000	0.120000
O151	O15	0.532000	0.948900	0.086200
O161	O16	0.285900	0.917200	0.121900
O171	O17	0.367300	0.569800	0.183500
O181	O18	0.727800	0.544100	0.496100
O191	O19	0.678200	0.905900	0.474600
O201	O20	0.151000	0.192900	0.959500
