data_OHUMIP_freeONLY_PM
_symmetry_space_group_name_H-M	'P1'
_cell_length_a	28.881800
_cell_length_b	27.401700
_cell_length_c	26.788900
_cell_angle_alpha	90.000000
_cell_angle_beta	104.860000
_cell_angle_gamma	90.000000
_symmetry_Int_Tables_number 1

loop_
_symmetry_equiv_pos_as_xyz
'x,y,z'

loop_
_atom_site_label
_atom_site_type_symbol
_atom_site_fract_x
_atom_site_fract_y
_atom_site_fract_z
Mo11	Mo1	0.278720	0.439890	0.172880
Mo21	Mo2	0.192540	0.463210	0.177540
Mo31	Mo3	0.109980	0.369040	0.190610
Mo41	Mo4	0.137910	0.278160	0.196260
Mo51	Mo5	0.250580	0.239960	0.192150
Mo61	Mo6	0.323620	0.323630	0.180350
Mo71	Mo7	0.299990	0.379610	0.061520
Mo81	Mo8	0.158630	0.216820	0.085110
Mo91	Mo9	0.092700	0.437930	0.080610
Mo101	Mo10	0.110150	0.383590	0.981930
Mo111	Mo11	0.146890	0.264720	0.998460
Mo121	Mo12	0.227060	0.357010	0.984370
Zn11	Zn1	0.238860	0.351420	0.249330
Zn21	Zn2	0.198790	0.464910	0.044870
Zn31	Zn3	0.066080	0.312280	0.067020
Zn41	Zn4	0.226340	0.247190	0.929640
P11	P1	0.193700	0.346880	0.109570
O11	O1	0.261600	0.355400	0.322500
O21	O2	0.203300	0.408900	0.324300
O31	O3	0.207660	0.480020	0.503100
O41	O4	0.280400	0.478400	0.558100
O51	O5	0.502500	0.215200	0.546900
O61	O6	0.530800	0.280300	0.596200
O71	O7	0.374700	0.299800	0.218000
O81	O8	0.288900	0.201600	0.231400
O91	O9	0.322950	0.386000	0.205300
O101	O10	0.275950	0.305400	0.219840
O111	O11	0.309100	0.487300	0.204500
O121	O12	0.202000	0.247800	0.224400
O131	O13	0.238860	0.416280	0.217100
O141	O14	0.169440	0.337500	0.228000
O151	O15	0.108600	0.256200	0.237500
O161	O16	0.204000	0.515900	0.209100
O171	O17	0.148000	0.432200	0.218500
O181	O18	0.073500	0.369200	0.229800
O191	O19	0.338560	0.339900	0.120800
O201	O20	0.289760	0.264130	0.145000
O211	O21	0.310580	0.438240	0.112400
O221	O22	0.217360	0.201110	0.140660
O231	O23	0.246710	0.364530	0.124890
O241	O24	0.188430	0.296660	0.134580
O251	O25	0.223860	0.467760	0.121300
O261	O26	0.124190	0.221710	0.144200
O271	O27	0.163000	0.385260	0.130000
O281	O28	0.133740	0.479940	0.122700
O291	O29	0.090860	0.314000	0.143600
O301	O30	0.071110	0.408610	0.131700
O311	O31	0.341000	0.393400	0.030400
O321	O32	0.271810	0.316900	0.035190
O331	O33	0.241850	0.415470	0.027510
O341	O34	0.204300	0.238920	0.047150
O351	O35	0.139600	0.161790	0.062900
O361	O36	0.177130	0.341810	0.050070
O371	O37	0.109240	0.263040	0.049630
O381	O38	0.133340	0.440220	0.030980
O391	O39	0.078610	0.375900	0.040500
O401	O40	0.046500	0.473400	0.050700
O411	O41	0.251280	0.366300	0.934900
O421	O42	0.191940	0.294650	0.961110
O431	O43	0.124580	0.219610	0.957000
O441	O44	0.163170	0.390480	0.958100
O451	O45	0.100670	0.319140	0.968610
O461	O46	0.066500	0.410700	0.936800
C11	C1	0.238800	0.384300	0.345700
C21	C2	0.260800	0.387700	0.403100
C31	C3	0.300500	0.360200	0.425700
H11	H1	0.312200	0.338000	0.405700
C41	C4	0.323600	0.364800	0.477800
C51	C5	0.305800	0.398700	0.506300
H21	H2	0.321300	0.402800	0.541000
C61	C6	0.266300	0.426600	0.485200
C71	C7	0.242800	0.421400	0.433000
H31	H3	0.215800	0.439900	0.418300
C81	C8	0.250700	0.464100	0.518800
C91	C9	0.367700	0.336100	0.501200
C101	C10	0.404300	0.355900	0.539300
H41	H4	0.401100	0.387400	0.550900
C111	C11	0.445300	0.330300	0.560300
H51	H5	0.469000	0.344400	0.586500
C121	C12	0.452400	0.283500	0.543200
C131	C13	0.415800	0.263100	0.506200
H61	H6	0.419200	0.231500	0.495000
C141	C14	0.373700	0.288700	0.484900
H71	H7	0.349400	0.274100	0.459800
C151	C15	0.498900	0.258500	0.564500
Mo131	Mo13	0.778720	0.939890	0.172880
Mo141	Mo14	0.692540	0.963210	0.177540
Mo151	Mo15	0.609980	0.869040	0.190610
Mo161	Mo16	0.637910	0.778160	0.196260
Mo171	Mo17	0.750580	0.739960	0.192150
Mo181	Mo18	0.823620	0.823630	0.180350
Mo191	Mo19	0.799990	0.879610	0.061520
Mo201	Mo20	0.658630	0.716820	0.085110
Mo211	Mo21	0.592700	0.937930	0.080610
Mo221	Mo22	0.610150	0.883590	0.981930
Mo231	Mo23	0.646890	0.764720	0.998460
Mo241	Mo24	0.727060	0.857010	0.984370
Zn51	Zn5	0.738860	0.851420	0.249330
Zn61	Zn6	0.698790	0.964910	0.044870
Zn71	Zn7	0.566080	0.812280	0.067020
Zn81	Zn8	0.726340	0.747190	0.929640
P21	P2	0.693700	0.846880	0.109570
O471	O47	0.761600	0.855400	0.322500
O481	O48	0.703300	0.908900	0.324300
O491	O49	0.707660	0.980020	0.503100
O501	O50	0.780400	0.978400	0.558100
O511	O51	0.002500	0.715200	0.546900
O521	O52	0.030800	0.780300	0.596200
O531	O53	0.874700	0.799800	0.218000
O541	O54	0.788900	0.701600	0.231400
O551	O55	0.822950	0.886000	0.205300
O561	O56	0.775950	0.805400	0.219840
O571	O57	0.809100	0.987300	0.204500
O581	O58	0.702000	0.747800	0.224400
O591	O59	0.738860	0.916280	0.217100
O601	O60	0.669440	0.837500	0.228000
O611	O61	0.608600	0.756200	0.237500
O621	O62	0.704000	0.015900	0.209100
O631	O63	0.648000	0.932200	0.218500
O641	O64	0.573500	0.869200	0.229800
O651	O65	0.838560	0.839900	0.120800
O661	O66	0.789760	0.764130	0.145000
O671	O67	0.810580	0.938240	0.112400
O681	O68	0.717360	0.701110	0.140660
O691	O69	0.746710	0.864530	0.124890
O701	O70	0.688430	0.796660	0.134580
O711	O71	0.723860	0.967760	0.121300
O721	O72	0.624190	0.721710	0.144200
O731	O73	0.663000	0.885260	0.130000
O741	O74	0.633740	0.979940	0.122700
O751	O75	0.590860	0.814000	0.143600
O761	O76	0.571110	0.908610	0.131700
O771	O77	0.841000	0.893400	0.030400
O781	O78	0.771810	0.816900	0.035190
O791	O79	0.741850	0.915470	0.027510
O801	O80	0.704300	0.738920	0.047150
O811	O81	0.639600	0.661790	0.062900
O821	O82	0.677130	0.841810	0.050070
O831	O83	0.609240	0.763040	0.049630
O841	O84	0.633340	0.940220	0.030980
O851	O85	0.578610	0.875900	0.040500
O861	O86	0.546500	0.973400	0.050700
O871	O87	0.751280	0.866300	0.934900
O881	O88	0.691940	0.794650	0.961110
O891	O89	0.624580	0.719610	0.957000
O901	O90	0.663170	0.890480	0.958100
O911	O91	0.600670	0.819140	0.968610
O921	O92	0.566500	0.910700	0.936800
C161	C16	0.738800	0.884300	0.345700
C171	C17	0.760800	0.887700	0.403100
C181	C18	0.800500	0.860200	0.425700
H81	H8	0.812200	0.838000	0.405700
C191	C19	0.823600	0.864800	0.477800
C201	C20	0.805800	0.898700	0.506300
H91	H9	0.821300	0.902800	0.541000
C211	C21	0.766300	0.926600	0.485200
C221	C22	0.742800	0.921400	0.433000
H101	H10	0.715800	0.939900	0.418300
C231	C23	0.750700	0.964100	0.518800
C241	C24	0.867700	0.836100	0.501200
C251	C25	0.904300	0.855900	0.539300
H111	H11	0.901100	0.887400	0.550900
C261	C26	0.945300	0.830300	0.560300
H121	H12	0.969000	0.844400	0.586500
C271	C27	0.952400	0.783500	0.543200
C281	C28	0.915800	0.763100	0.506200
H131	H13	0.919200	0.731500	0.495000
C291	C29	0.873700	0.788700	0.484900
H141	H14	0.849400	0.774100	0.459800
C301	C30	0.998900	0.758500	0.564500
Mo251	Mo25	0.721280	0.439890	0.327120
Mo261	Mo26	0.807460	0.463210	0.322460
Mo271	Mo27	0.890020	0.369040	0.309390
Mo281	Mo28	0.862090	0.278160	0.303740
Mo291	Mo29	0.749420	0.239960	0.307850
Mo301	Mo30	0.676380	0.323630	0.319650
Mo311	Mo31	0.700010	0.379610	0.438480
Mo321	Mo32	0.841370	0.216820	0.414890
Mo331	Mo33	0.907300	0.437930	0.419390
Mo341	Mo34	0.889850	0.383590	0.518070
Mo351	Mo35	0.853110	0.264720	0.501540
Mo361	Mo36	0.772940	0.357010	0.515630
Zn91	Zn9	0.761140	0.351420	0.250670
Zn101	Zn10	0.801210	0.464910	0.455130
Zn111	Zn11	0.933920	0.312280	0.432980
Zn121	Zn12	0.773660	0.247190	0.570360
P31	P3	0.806300	0.346880	0.390430
O931	O93	0.738400	0.355400	0.177500
O941	O94	0.796700	0.408900	0.175700
O951	O95	0.792340	0.480020	0.996900
O961	O96	0.719600	0.478400	0.941900
O971	O97	0.497500	0.215200	0.953100
O981	O98	0.469200	0.280300	0.903800
O991	O99	0.625300	0.299800	0.282000
O1001	O100	0.711100	0.201600	0.268600
O1011	O101	0.677050	0.386000	0.294700
O1021	O102	0.724050	0.305400	0.280160
O1031	O103	0.690900	0.487300	0.295500
O1041	O104	0.798000	0.247800	0.275600
O1051	O105	0.761140	0.416280	0.282900
O1061	O106	0.830560	0.337500	0.272000
O1071	O107	0.891400	0.256200	0.262500
O1081	O108	0.796000	0.515900	0.290900
O1091	O109	0.852000	0.432200	0.281500
O1101	O110	0.926500	0.369200	0.270200
O1111	O111	0.661440	0.339900	0.379200
O1121	O112	0.710240	0.264130	0.355000
O1131	O113	0.689420	0.438240	0.387600
O1141	O114	0.782640	0.201110	0.359340
O1151	O115	0.753290	0.364530	0.375110
O1161	O116	0.811570	0.296660	0.365420
O1171	O117	0.776140	0.467760	0.378700
O1181	O118	0.875810	0.221710	0.355800
O1191	O119	0.837000	0.385260	0.370000
O1201	O120	0.866260	0.479940	0.377300
O1211	O121	0.909140	0.314000	0.356400
O1221	O122	0.928890	0.408610	0.368300
O1231	O123	0.659000	0.393400	0.469600
O1241	O124	0.728190	0.316900	0.464810
O1251	O125	0.758150	0.415470	0.472490
O1261	O126	0.795700	0.238920	0.452850
O1271	O127	0.860400	0.161790	0.437100
O1281	O128	0.822870	0.341810	0.449930
O1291	O129	0.890760	0.263040	0.450370
O1301	O130	0.866660	0.440220	0.469020
O1311	O131	0.921390	0.375900	0.459500
O1321	O132	0.953500	0.473400	0.449300
O1331	O133	0.748720	0.366300	0.565100
O1341	O134	0.808060	0.294650	0.538890
O1351	O135	0.875420	0.219610	0.543000
O1361	O136	0.836830	0.390480	0.541900
O1371	O137	0.899330	0.319140	0.531390
O1381	O138	0.933500	0.410700	0.563200
C311	C31	0.761200	0.384300	0.154300
C321	C32	0.739200	0.387700	0.096900
C331	C33	0.699500	0.360200	0.074300
H151	H15	0.687800	0.338000	0.094300
C341	C34	0.676400	0.364800	0.022200
C351	C35	0.694200	0.398700	0.993700
H161	H16	0.678700	0.402800	0.959000
C361	C36	0.733700	0.426600	0.014800
C371	C37	0.757200	0.421400	0.067000
H171	H17	0.784200	0.439900	0.081700
C381	C38	0.749300	0.464100	0.981200
C391	C39	0.632300	0.336100	0.998800
C401	C40	0.595700	0.355900	0.960700
H181	H18	0.598900	0.387400	0.949100
C411	C41	0.554700	0.330300	0.939700
H191	H19	0.531000	0.344400	0.913500
C421	C42	0.547600	0.283500	0.956800
C431	C43	0.584200	0.263100	0.993800
H201	H20	0.580800	0.231500	0.005000
C441	C44	0.626300	0.288700	0.015100
H211	H21	0.650600	0.274100	0.040200
C451	C45	0.501100	0.258500	0.935500
Mo371	Mo37	0.221280	0.939890	0.327120
Mo381	Mo38	0.307460	0.963210	0.322460
Mo391	Mo39	0.390020	0.869040	0.309390
Mo401	Mo40	0.362090	0.778160	0.303740
Mo411	Mo41	0.249420	0.739960	0.307850
Mo421	Mo42	0.176380	0.823630	0.319650
Mo431	Mo43	0.200010	0.879610	0.438480
Mo441	Mo44	0.341370	0.716820	0.414890
Mo451	Mo45	0.407300	0.937930	0.419390
Mo461	Mo46	0.389850	0.883590	0.518070
Mo471	Mo47	0.353110	0.764720	0.501540
Mo481	Mo48	0.272940	0.857010	0.515630
Zn131	Zn13	0.261140	0.851420	0.250670
Zn141	Zn14	0.301210	0.964910	0.455130
Zn151	Zn15	0.433920	0.812280	0.432980
Zn161	Zn16	0.273660	0.747190	0.570360
P41	P4	0.306300	0.846880	0.390430
O1391	O139	0.238400	0.855400	0.177500
O1401	O140	0.296700	0.908900	0.175700
O1411	O141	0.292340	0.980020	0.996900
O1421	O142	0.219600	0.978400	0.941900
O1431	O143	0.997500	0.715200	0.953100
O1441	O144	0.969200	0.780300	0.903800
O1451	O145	0.125300	0.799800	0.282000
O1461	O146	0.211100	0.701600	0.268600
O1471	O147	0.177050	0.886000	0.294700
O1481	O148	0.224050	0.805400	0.280160
O1491	O149	0.190900	0.987300	0.295500
O1501	O150	0.298000	0.747800	0.275600
O1511	O151	0.261140	0.916280	0.282900
O1521	O152	0.330560	0.837500	0.272000
O1531	O153	0.391400	0.756200	0.262500
O1541	O154	0.296000	0.015900	0.290900
O1551	O155	0.352000	0.932200	0.281500
O1561	O156	0.426500	0.869200	0.270200
O1571	O157	0.161440	0.839900	0.379200
O1581	O158	0.210240	0.764130	0.355000
O1591	O159	0.189420	0.938240	0.387600
O1601	O160	0.282640	0.701110	0.359340
O1611	O161	0.253290	0.864530	0.375110
O1621	O162	0.311570	0.796660	0.365420
O1631	O163	0.276140	0.967760	0.378700
O1641	O164	0.375810	0.721710	0.355800
O1651	O165	0.337000	0.885260	0.370000
O1661	O166	0.366260	0.979940	0.377300
O1671	O167	0.409140	0.814000	0.356400
O1681	O168	0.428890	0.908610	0.368300
O1691	O169	0.159000	0.893400	0.469600
O1701	O170	0.228190	0.816900	0.464810
O1711	O171	0.258150	0.915470	0.472490
O1721	O172	0.295700	0.738920	0.452850
O1731	O173	0.360400	0.661790	0.437100
O1741	O174	0.322870	0.841810	0.449930
O1751	O175	0.390760	0.763040	0.450370
O1761	O176	0.366660	0.940220	0.469020
O1771	O177	0.421390	0.875900	0.459500
O1781	O178	0.453500	0.973400	0.449300
O1791	O179	0.248720	0.866300	0.565100
O1801	O180	0.308060	0.794650	0.538890
O1811	O181	0.375420	0.719610	0.543000
O1821	O182	0.336830	0.890480	0.541900
O1831	O183	0.399330	0.819140	0.531390
O1841	O184	0.433500	0.910700	0.563200
C461	C46	0.261200	0.884300	0.154300
C471	C47	0.239200	0.887700	0.096900
C481	C48	0.199500	0.860200	0.074300
H221	H22	0.187800	0.838000	0.094300
C491	C49	0.176400	0.864800	0.022200
C501	C50	0.194200	0.898700	0.993700
H231	H23	0.178700	0.902800	0.959000
C511	C51	0.233700	0.926600	0.014800
C521	C52	0.257200	0.921400	0.067000
H241	H24	0.284200	0.939900	0.081700
C531	C53	0.249300	0.964100	0.981200
C541	C54	0.132300	0.836100	0.998800
C551	C55	0.095700	0.855900	0.960700
H251	H25	0.098900	0.887400	0.949100
C561	C56	0.054700	0.830300	0.939700
H261	H26	0.031000	0.844400	0.913500
C571	C57	0.047600	0.783500	0.956800
C581	C58	0.084200	0.763100	0.993800
H271	H27	0.080800	0.731500	0.005000
C591	C59	0.126300	0.788700	0.015100
H281	H28	0.150600	0.774100	0.040200
C601	C60	0.001100	0.758500	0.935500
Mo491	Mo49	0.721280	0.560110	0.827120
Mo501	Mo50	0.807460	0.536790	0.822460
Mo511	Mo51	0.890020	0.630960	0.809390
Mo521	Mo52	0.862090	0.721840	0.803740
Mo531	Mo53	0.749420	0.760040	0.807850
Mo541	Mo54	0.676380	0.676370	0.819650
Mo551	Mo55	0.700010	0.620390	0.938480
Mo561	Mo56	0.841370	0.783180	0.914890
Mo571	Mo57	0.907300	0.562070	0.919390
Mo581	Mo58	0.889850	0.616410	0.018070
Mo591	Mo59	0.853110	0.735280	0.001540
Mo601	Mo60	0.772940	0.642990	0.015630
Zn171	Zn17	0.761140	0.648580	0.750670
Zn181	Zn18	0.801210	0.535090	0.955130
Zn191	Zn19	0.933920	0.687720	0.932980
Zn201	Zn20	0.773660	0.752810	0.070360
P51	P5	0.806300	0.653120	0.890430
O1851	O185	0.738400	0.644600	0.677500
O1861	O186	0.796700	0.591100	0.675700
O1871	O187	0.792340	0.519980	0.496900
O1881	O188	0.719600	0.521600	0.441900
O1891	O189	0.497500	0.784800	0.453100
O1901	O190	0.469200	0.719700	0.403800
O1911	O191	0.625300	0.700200	0.782000
O1921	O192	0.711100	0.798400	0.768600
O1931	O193	0.677050	0.614000	0.794700
O1941	O194	0.724050	0.694600	0.780160
O1951	O195	0.690900	0.512700	0.795500
O1961	O196	0.798000	0.752200	0.775600
O1971	O197	0.761140	0.583720	0.782900
O1981	O198	0.830560	0.662500	0.772000
O1991	O199	0.891400	0.743800	0.762500
O2001	O200	0.796000	0.484100	0.790900
O2011	O201	0.852000	0.567800	0.781500
O2021	O202	0.926500	0.630800	0.770200
O2031	O203	0.661440	0.660100	0.879200
O2041	O204	0.710240	0.735870	0.855000
O2051	O205	0.689420	0.561760	0.887600
O2061	O206	0.782640	0.798890	0.859340
O2071	O207	0.753290	0.635470	0.875110
O2081	O208	0.811570	0.703340	0.865420
O2091	O209	0.776140	0.532240	0.878700
O2101	O210	0.875810	0.778290	0.855800
O2111	O211	0.837000	0.614740	0.870000
O2121	O212	0.866260	0.520060	0.877300
O2131	O213	0.909140	0.686000	0.856400
O2141	O214	0.928890	0.591390	0.868300
O2151	O215	0.659000	0.606600	0.969600
O2161	O216	0.728190	0.683100	0.964810
O2171	O217	0.758150	0.584530	0.972490
O2181	O218	0.795700	0.761080	0.952850
O2191	O219	0.860400	0.838210	0.937100
O2201	O220	0.822870	0.658190	0.949930
O2211	O221	0.890760	0.736960	0.950370
O2221	O222	0.866660	0.559780	0.969020
O2231	O223	0.921390	0.624100	0.959500
O2241	O224	0.953500	0.526600	0.949300
O2251	O225	0.748720	0.633700	0.065100
O2261	O226	0.808060	0.705350	0.038890
O2271	O227	0.875420	0.780390	0.043000
O2281	O228	0.836830	0.609520	0.041900
O2291	O229	0.899330	0.680860	0.031390
O2301	O230	0.933500	0.589300	0.063200
C611	C61	0.761200	0.615700	0.654300
C621	C62	0.739200	0.612300	0.596900
C631	C63	0.699500	0.639800	0.574300
H291	H29	0.687800	0.662000	0.594300
C641	C64	0.676400	0.635200	0.522200
C651	C65	0.694200	0.601300	0.493700
H301	H30	0.678700	0.597200	0.459000
C661	C66	0.733700	0.573400	0.514800
C671	C67	0.757200	0.578600	0.567000
H311	H31	0.784200	0.560100	0.581700
C681	C68	0.749300	0.535900	0.481200
C691	C69	0.632300	0.663900	0.498800
C701	C70	0.595700	0.644100	0.460700
H321	H32	0.598900	0.612600	0.449100
C711	C71	0.554700	0.669700	0.439700
H331	H33	0.531000	0.655600	0.413500
C721	C72	0.547600	0.716500	0.456800
C731	C73	0.584200	0.736900	0.493800
H341	H34	0.580800	0.768500	0.505000
C741	C74	0.626300	0.711300	0.515100
H351	H35	0.650600	0.725900	0.540200
C751	C75	0.501100	0.741500	0.435500
Mo611	Mo61	0.221280	0.060110	0.827120
Mo621	Mo62	0.307460	0.036790	0.822460
Mo631	Mo63	0.390020	0.130960	0.809390
Mo641	Mo64	0.362090	0.221840	0.803740
Mo651	Mo65	0.249420	0.260040	0.807850
Mo661	Mo66	0.176380	0.176370	0.819650
Mo671	Mo67	0.200010	0.120390	0.938480
Mo681	Mo68	0.341370	0.283180	0.914890
Mo691	Mo69	0.407300	0.062070	0.919390
Mo701	Mo70	0.389850	0.116410	0.018070
Mo711	Mo71	0.353110	0.235280	0.001540
Mo721	Mo72	0.272940	0.142990	0.015630
Zn211	Zn21	0.261140	0.148580	0.750670
Zn221	Zn22	0.301210	0.035090	0.955130
Zn231	Zn23	0.433920	0.187720	0.932980
Zn241	Zn24	0.273660	0.252810	0.070360
P61	P6	0.306300	0.153120	0.890430
O2311	O231	0.238400	0.144600	0.677500
O2321	O232	0.296700	0.091100	0.675700
O2331	O233	0.292340	0.019980	0.496900
O2341	O234	0.219600	0.021600	0.441900
O2351	O235	0.997500	0.284800	0.453100
O2361	O236	0.969200	0.219700	0.403800
O2371	O237	0.125300	0.200200	0.782000
O2381	O238	0.211100	0.298400	0.768600
O2391	O239	0.177050	0.114000	0.794700
O2401	O240	0.224050	0.194600	0.780160
O2411	O241	0.190900	0.012700	0.795500
O2421	O242	0.298000	0.252200	0.775600
O2431	O243	0.261140	0.083720	0.782900
O2441	O244	0.330560	0.162500	0.772000
O2451	O245	0.391400	0.243800	0.762500
O2461	O246	0.296000	0.984100	0.790900
O2471	O247	0.352000	0.067800	0.781500
O2481	O248	0.426500	0.130800	0.770200
O2491	O249	0.161440	0.160100	0.879200
O2501	O250	0.210240	0.235870	0.855000
O2511	O251	0.189420	0.061760	0.887600
O2521	O252	0.282640	0.298890	0.859340
O2531	O253	0.253290	0.135470	0.875110
O2541	O254	0.311570	0.203340	0.865420
O2551	O255	0.276140	0.032240	0.878700
O2561	O256	0.375810	0.278290	0.855800
O2571	O257	0.337000	0.114740	0.870000
O2581	O258	0.366260	0.020060	0.877300
O2591	O259	0.409140	0.186000	0.856400
O2601	O260	0.428890	0.091390	0.868300
O2611	O261	0.159000	0.106600	0.969600
O2621	O262	0.228190	0.183100	0.964810
O2631	O263	0.258150	0.084530	0.972490
O2641	O264	0.295700	0.261080	0.952850
O2651	O265	0.360400	0.338210	0.937100
O2661	O266	0.322870	0.158190	0.949930
O2671	O267	0.390760	0.236960	0.950370
O2681	O268	0.366660	0.059780	0.969020
O2691	O269	0.421390	0.124100	0.959500
O2701	O270	0.453500	0.026600	0.949300
O2711	O271	0.248720	0.133700	0.065100
O2721	O272	0.308060	0.205350	0.038890
O2731	O273	0.375420	0.280390	0.043000
O2741	O274	0.336830	0.109520	0.041900
O2751	O275	0.399330	0.180860	0.031390
O2761	O276	0.433500	0.089300	0.063200
C761	C76	0.261200	0.115700	0.654300
C771	C77	0.239200	0.112300	0.596900
C781	C78	0.199500	0.139800	0.574300
H361	H36	0.187800	0.162000	0.594300
C791	C79	0.176400	0.135200	0.522200
C801	C80	0.194200	0.101300	0.493700
H371	H37	0.178700	0.097200	0.459000
C811	C81	0.233700	0.073400	0.514800
C821	C82	0.257200	0.078600	0.567000
H381	H38	0.284200	0.060100	0.581700
C831	C83	0.249300	0.035900	0.481200
C841	C84	0.132300	0.163900	0.498800
C851	C85	0.095700	0.144100	0.460700
H391	H39	0.098900	0.112600	0.449100
C861	C86	0.054700	0.169700	0.439700
H401	H40	0.031000	0.155600	0.413500
C871	C87	0.047600	0.216500	0.456800
C881	C88	0.084200	0.236900	0.493800
H411	H41	0.080800	0.268500	0.505000
C891	C89	0.126300	0.211300	0.515100
H421	H42	0.150600	0.225900	0.540200
C901	C90	0.001100	0.241500	0.435500
Mo731	Mo73	0.278720	0.560110	0.672880
Mo741	Mo74	0.192540	0.536790	0.677540
Mo751	Mo75	0.109980	0.630960	0.690610
Mo761	Mo76	0.137910	0.721840	0.696260
Mo771	Mo77	0.250580	0.760040	0.692150
Mo781	Mo78	0.323620	0.676370	0.680350
Mo791	Mo79	0.299990	0.620390	0.561520
Mo801	Mo80	0.158630	0.783180	0.585110
Mo811	Mo81	0.092700	0.562070	0.580610
Mo821	Mo82	0.110150	0.616410	0.481930
Mo831	Mo83	0.146890	0.735280	0.498460
Mo841	Mo84	0.227060	0.642990	0.484370
Zn251	Zn25	0.238860	0.648580	0.749330
Zn261	Zn26	0.198790	0.535090	0.544870
Zn271	Zn27	0.066080	0.687720	0.567020
Zn281	Zn28	0.226340	0.752810	0.429640
P71	P7	0.193700	0.653120	0.609570
O2771	O277	0.261600	0.644600	0.822500
O2781	O278	0.203300	0.591100	0.824300
O2791	O279	0.207660	0.519980	0.003100
O2801	O280	0.280400	0.521600	0.058100
O2811	O281	0.502500	0.784800	0.046900
O2821	O282	0.530800	0.719700	0.096200
O2831	O283	0.374700	0.700200	0.718000
O2841	O284	0.288900	0.798400	0.731400
O2851	O285	0.322950	0.614000	0.705300
O2861	O286	0.275950	0.694600	0.719840
O2871	O287	0.309100	0.512700	0.704500
O2881	O288	0.202000	0.752200	0.724400
O2891	O289	0.238860	0.583720	0.717100
O2901	O290	0.169440	0.662500	0.728000
O2911	O291	0.108600	0.743800	0.737500
O2921	O292	0.204000	0.484100	0.709100
O2931	O293	0.148000	0.567800	0.718500
O2941	O294	0.073500	0.630800	0.729800
O2951	O295	0.338560	0.660100	0.620800
O2961	O296	0.289760	0.735870	0.645000
O2971	O297	0.310580	0.561760	0.612400
O2981	O298	0.217360	0.798890	0.640660
O2991	O299	0.246710	0.635470	0.624890
O3001	O300	0.188430	0.703340	0.634580
O3011	O301	0.223860	0.532240	0.621300
O3021	O302	0.124190	0.778290	0.644200
O3031	O303	0.163000	0.614740	0.630000
O3041	O304	0.133740	0.520060	0.622700
O3051	O305	0.090860	0.686000	0.643600
O3061	O306	0.071110	0.591390	0.631700
O3071	O307	0.341000	0.606600	0.530400
O3081	O308	0.271810	0.683100	0.535190
O3091	O309	0.241850	0.584530	0.527510
O3101	O310	0.204300	0.761080	0.547150
O3111	O311	0.139600	0.838210	0.562900
O3121	O312	0.177130	0.658190	0.550070
O3131	O313	0.109240	0.736960	0.549630
O3141	O314	0.133340	0.559780	0.530980
O3151	O315	0.078610	0.624100	0.540500
O3161	O316	0.046500	0.526600	0.550700
O3171	O317	0.251280	0.633700	0.434900
O3181	O318	0.191940	0.705350	0.461110
O3191	O319	0.124580	0.780390	0.457000
O3201	O320	0.163170	0.609520	0.458100
O3211	O321	0.100670	0.680860	0.468610
O3221	O322	0.066500	0.589300	0.436800
C911	C91	0.238800	0.615700	0.845700
C921	C92	0.260800	0.612300	0.903100
C931	C93	0.300500	0.639800	0.925700
H431	H43	0.312200	0.662000	0.905700
C941	C94	0.323600	0.635200	0.977800
C951	C95	0.305800	0.601300	0.006300
H441	H44	0.321300	0.597200	0.041000
C961	C96	0.266300	0.573400	0.985200
C971	C97	0.242800	0.578600	0.933000
H451	H45	0.215800	0.560100	0.918300
C981	C98	0.250700	0.535900	0.018800
C991	C99	0.367700	0.663900	0.001200
C1001	C100	0.404300	0.644100	0.039300
H461	H46	0.401100	0.612600	0.050900
C1011	C101	0.445300	0.669700	0.060300
H471	H47	0.469000	0.655600	0.086500
C1021	C102	0.452400	0.716500	0.043200
C1031	C103	0.415800	0.736900	0.006200
H481	H48	0.419200	0.768500	0.995000
C1041	C104	0.373700	0.711300	0.984900
H491	H49	0.349400	0.725900	0.959800
C1051	C105	0.498900	0.741500	0.064500
Mo851	Mo85	0.778720	0.060110	0.672880
Mo861	Mo86	0.692540	0.036790	0.677540
Mo871	Mo87	0.609980	0.130960	0.690610
Mo881	Mo88	0.637910	0.221840	0.696260
Mo891	Mo89	0.750580	0.260040	0.692150
Mo901	Mo90	0.823620	0.176370	0.680350
Mo911	Mo91	0.799990	0.120390	0.561520
Mo921	Mo92	0.658630	0.283180	0.585110
Mo931	Mo93	0.592700	0.062070	0.580610
Mo941	Mo94	0.610150	0.116410	0.481930
Mo951	Mo95	0.646890	0.235280	0.498460
Mo961	Mo96	0.727060	0.142990	0.484370
Zn291	Zn29	0.738860	0.148580	0.749330
Zn301	Zn30	0.698790	0.035090	0.544870
Zn311	Zn31	0.566080	0.187720	0.567020
Zn321	Zn32	0.726340	0.252810	0.429640
P81	P8	0.693700	0.153120	0.609570
O3231	O323	0.761600	0.144600	0.822500
O3241	O324	0.703300	0.091100	0.824300
O3251	O325	0.707660	0.019980	0.003100
O3261	O326	0.780400	0.021600	0.058100
O3271	O327	0.002500	0.284800	0.046900
O3281	O328	0.030800	0.219700	0.096200
O3291	O329	0.874700	0.200200	0.718000
O3301	O330	0.788900	0.298400	0.731400
O3311	O331	0.822950	0.114000	0.705300
O3321	O332	0.775950	0.194600	0.719840
O3331	O333	0.809100	0.012700	0.704500
O3341	O334	0.702000	0.252200	0.724400
O3351	O335	0.738860	0.083720	0.717100
O3361	O336	0.669440	0.162500	0.728000
O3371	O337	0.608600	0.243800	0.737500
O3381	O338	0.704000	0.984100	0.709100
O3391	O339	0.648000	0.067800	0.718500
O3401	O340	0.573500	0.130800	0.729800
O3411	O341	0.838560	0.160100	0.620800
O3421	O342	0.789760	0.235870	0.645000
O3431	O343	0.810580	0.061760	0.612400
O3441	O344	0.717360	0.298890	0.640660
O3451	O345	0.746710	0.135470	0.624890
O3461	O346	0.688430	0.203340	0.634580
O3471	O347	0.723860	0.032240	0.621300
O3481	O348	0.624190	0.278290	0.644200
O3491	O349	0.663000	0.114740	0.630000
O3501	O350	0.633740	0.020060	0.622700
O3511	O351	0.590860	0.186000	0.643600
O3521	O352	0.571110	0.091390	0.631700
O3531	O353	0.841000	0.106600	0.530400
O3541	O354	0.771810	0.183100	0.535190
O3551	O355	0.741850	0.084530	0.527510
O3561	O356	0.704300	0.261080	0.547150
O3571	O357	0.639600	0.338210	0.562900
O3581	O358	0.677130	0.158190	0.550070
O3591	O359	0.609240	0.236960	0.549630
O3601	O360	0.633340	0.059780	0.530980
O3611	O361	0.578610	0.124100	0.540500
O3621	O362	0.546500	0.026600	0.550700
O3631	O363	0.751280	0.133700	0.434900
O3641	O364	0.691940	0.205350	0.461110
O3651	O365	0.624580	0.280390	0.457000
O3661	O366	0.663170	0.109520	0.458100
O3671	O367	0.600670	0.180860	0.468610
O3681	O368	0.566500	0.089300	0.436800
C1061	C106	0.738800	0.115700	0.845700
C1071	C107	0.760800	0.112300	0.903100
C1081	C108	0.800500	0.139800	0.925700
H501	H50	0.812200	0.162000	0.905700
C1091	C109	0.823600	0.135200	0.977800
C1101	C110	0.805800	0.101300	0.006300
H511	H51	0.821300	0.097200	0.041000
C1111	C111	0.766300	0.073400	0.985200
C1121	C112	0.742800	0.078600	0.933000
H521	H52	0.715800	0.060100	0.918300
C1131	C113	0.750700	0.035900	0.018800
C1141	C114	0.867700	0.163900	0.001200
C1151	C115	0.904300	0.144100	0.039300
H531	H53	0.901100	0.112600	0.050900
C1161	C116	0.945300	0.169700	0.060300
H541	H54	0.969000	0.155600	0.086500
C1171	C117	0.952400	0.216500	0.043200
C1181	C118	0.915800	0.236900	0.006200
H551	H55	0.919200	0.268500	0.995000
C1191	C119	0.873700	0.211300	0.984900
H561	H56	0.849400	0.225900	0.959800
C1201	C120	0.998900	0.241500	0.064500
