data_OKABAE_freeONLY_PM
_symmetry_space_group_name_H-M	'P1'
_cell_length_a	18.445600
_cell_length_b	18.445600
_cell_length_c	39.536900
_cell_angle_alpha	90.000000
_cell_angle_beta	90.000000
_cell_angle_gamma	120.000000
_symmetry_Int_Tables_number 1

loop_
_symmetry_equiv_pos_as_xyz
'x,y,z'

loop_
_atom_site_label
_atom_site_type_symbol
_atom_site_fract_x
_atom_site_fract_y
_atom_site_fract_z
Cu11	Cu1	0.524500	0.049000	0.472660
Cu21	Cu2	0.524500	0.475500	0.472660
Cu31	Cu3	0.951000	0.475500	0.472660
Cu41	Cu4	0.475500	0.951000	0.972660
Cu51	Cu5	0.475500	0.524500	0.972660
Cu61	Cu6	0.049000	0.524500	0.972660
Cu71	Cu7	0.475500	0.951000	0.527340
Cu81	Cu8	0.049000	0.524500	0.527340
Cu91	Cu9	0.475500	0.524500	0.527340
Cu101	Cu10	0.524500	0.049000	0.027340
Cu111	Cu11	0.951000	0.475500	0.027340
Cu121	Cu12	0.524500	0.475500	0.027340
Cu131	Cu13	0.062420	0.937590	0.750000
Cu141	Cu14	0.875170	0.937590	0.750000
Cu151	Cu15	0.062420	0.124840	0.750000
Cu161	Cu16	0.937580	0.062410	0.250000
Cu171	Cu17	0.124830	0.062410	0.250000
Cu181	Cu18	0.937580	0.875160	0.250000
H11	H1	0.367000	0.074100	0.583800
H21	H2	0.219100	0.216400	0.669500
H31	H3	0.707100	0.633000	0.583800
H41	H4	0.997300	0.780900	0.669500
H51	H5	0.925900	0.292900	0.583800
H61	H6	0.783600	0.002700	0.669500
H71	H7	0.633000	0.925900	0.083800
H81	H8	0.780900	0.783600	0.169500
H91	H9	0.292900	0.367000	0.083800
H101	H10	0.002700	0.219100	0.169500
H111	H11	0.074100	0.707100	0.083800
H121	H12	0.216400	0.997300	0.169500
H131	H13	0.292900	0.925900	0.416200
H141	H14	0.002700	0.783600	0.330500
H151	H15	0.074100	0.367000	0.416200
H161	H16	0.216400	0.219100	0.330500
H171	H17	0.633000	0.707100	0.416200
H181	H18	0.780900	0.997300	0.330500
H191	H19	0.707100	0.074100	0.916200
H201	H20	0.997300	0.216400	0.830500
H211	H21	0.925900	0.633000	0.916200
H221	H22	0.783600	0.780900	0.830500
H231	H23	0.367000	0.292900	0.916200
H241	H24	0.219100	0.002700	0.830500
H251	H25	0.633000	0.925900	0.416200
H261	H26	0.780900	0.783600	0.330500
H271	H27	0.292900	0.367000	0.416200
H281	H28	0.002700	0.219100	0.330500
H291	H29	0.074100	0.707100	0.416200
H301	H30	0.216400	0.997300	0.330500
H311	H31	0.367000	0.074100	0.916200
H321	H32	0.219100	0.216400	0.830500
H331	H33	0.707100	0.633000	0.916200
H341	H34	0.997300	0.780900	0.830500
H351	H35	0.925900	0.292900	0.916200
H361	H36	0.783600	0.002700	0.830500
H371	H37	0.707100	0.074100	0.583800
H381	H38	0.997300	0.216400	0.669500
H391	H39	0.925900	0.633000	0.583800
H401	H40	0.783600	0.780900	0.669500
H411	H41	0.367000	0.292900	0.583800
H421	H42	0.219100	0.002700	0.669500
H431	H43	0.292900	0.925900	0.083800
H441	H44	0.002700	0.783600	0.169500
H451	H45	0.074100	0.367000	0.083800
H461	H46	0.216400	0.219100	0.169500
H471	H47	0.633000	0.707100	0.083800
H481	H48	0.780900	0.997300	0.169500
H491	H49	0.471700	0.235850	0.506200
H501	H50	0.764150	0.528300	0.506200
H511	H51	0.764150	0.235850	0.506200
H521	H52	0.528300	0.764150	0.006200
H531	H53	0.235850	0.471700	0.006200
H541	H54	0.235850	0.764150	0.006200
H551	H55	0.235850	0.764150	0.493800
H561	H56	0.235850	0.471700	0.493800
H571	H57	0.528300	0.764150	0.493800
H581	H58	0.764150	0.235850	0.993800
H591	H59	0.764150	0.528300	0.993800
H601	H60	0.471700	0.235850	0.993800
C11	C1	0.450000	0.091100	0.526870
C21	C2	0.423600	0.146000	0.542800
C31	C3	0.380700	0.125500	0.573170
C41	C4	0.236400	0.180300	0.659890
C51	C5	0.641100	0.550000	0.526870
C61	C6	0.722400	0.576400	0.542800
C71	C7	0.744800	0.619300	0.573170
C81	C8	0.943900	0.763600	0.659890
C91	C9	0.908900	0.358900	0.526870
C101	C10	0.854000	0.277600	0.542800
C111	C11	0.874500	0.255200	0.573170
C121	C12	0.819700	0.056100	0.659890
C131	C13	0.550000	0.908900	0.026870
C141	C14	0.576400	0.854000	0.042800
C151	C15	0.619300	0.874500	0.073170
C161	C16	0.763600	0.819700	0.159890
C171	C17	0.358900	0.450000	0.026870
C181	C18	0.277600	0.423600	0.042800
C191	C19	0.255200	0.380700	0.073170
C201	C20	0.056100	0.236400	0.159890
C211	C21	0.091100	0.641100	0.026870
C221	C22	0.146000	0.722400	0.042800
C231	C23	0.125500	0.744800	0.073170
C241	C24	0.180300	0.943900	0.159890
C251	C25	0.358900	0.908900	0.473130
C261	C26	0.277600	0.854000	0.457200
C271	C27	0.255200	0.874500	0.426830
C281	C28	0.056100	0.819700	0.340110
C291	C29	0.091100	0.450000	0.473130
C301	C30	0.146000	0.423600	0.457200
C311	C31	0.125500	0.380700	0.426830
C321	C32	0.180300	0.236400	0.340110
C331	C33	0.550000	0.641100	0.473130
C341	C34	0.576400	0.722400	0.457200
C351	C35	0.619300	0.744800	0.426830
C361	C36	0.763600	0.943900	0.340110
C371	C37	0.641100	0.091100	0.973130
C381	C38	0.722400	0.146000	0.957200
C391	C39	0.744800	0.125500	0.926830
C401	C40	0.943900	0.180300	0.840110
C411	C41	0.908900	0.550000	0.973130
C421	C42	0.854000	0.576400	0.957200
C431	C43	0.874500	0.619300	0.926830
C441	C44	0.819700	0.763600	0.840110
C451	C45	0.450000	0.358900	0.973130
C461	C46	0.423600	0.277600	0.957200
C471	C47	0.380700	0.255200	0.926830
C481	C48	0.236400	0.056100	0.840110
C491	C49	0.550000	0.908900	0.473130
C501	C50	0.576400	0.854000	0.457200
C511	C51	0.619300	0.874500	0.426830
C521	C52	0.763600	0.819700	0.340110
C531	C53	0.358900	0.450000	0.473130
C541	C54	0.277600	0.423600	0.457200
C551	C55	0.255200	0.380700	0.426830
C561	C56	0.056100	0.236400	0.340110
C571	C57	0.091100	0.641100	0.473130
C581	C58	0.146000	0.722400	0.457200
C591	C59	0.125500	0.744800	0.426830
C601	C60	0.180300	0.943900	0.340110
C611	C61	0.450000	0.091100	0.973130
C621	C62	0.423600	0.146000	0.957200
C631	C63	0.380700	0.125500	0.926830
C641	C64	0.236400	0.180300	0.840110
C651	C65	0.641100	0.550000	0.973130
C661	C66	0.722400	0.576400	0.957200
C671	C67	0.744800	0.619300	0.926830
C681	C68	0.943900	0.763600	0.840110
C691	C69	0.908900	0.358900	0.973130
C701	C70	0.854000	0.277600	0.957200
C711	C71	0.874500	0.255200	0.926830
C721	C72	0.819700	0.056100	0.840110
C731	C73	0.641100	0.091100	0.526870
C741	C74	0.722400	0.146000	0.542800
C751	C75	0.744800	0.125500	0.573170
C761	C76	0.943900	0.180300	0.659890
C771	C77	0.908900	0.550000	0.526870
C781	C78	0.854000	0.576400	0.542800
C791	C79	0.874500	0.619300	0.573170
C801	C80	0.819700	0.763600	0.659890
C811	C81	0.450000	0.358900	0.526870
C821	C82	0.423600	0.277600	0.542800
C831	C83	0.380700	0.255200	0.573170
C841	C84	0.236400	0.056100	0.659890
C851	C85	0.358900	0.908900	0.026870
C861	C86	0.277600	0.854000	0.042800
C871	C87	0.255200	0.874500	0.073170
C881	C88	0.056100	0.819700	0.159890
C891	C89	0.091100	0.450000	0.026870
C901	C90	0.146000	0.423600	0.042800
C911	C91	0.125500	0.380700	0.073170
C921	C92	0.180300	0.236400	0.159890
C931	C93	0.550000	0.641100	0.026870
C941	C94	0.576400	0.722400	0.042800
C951	C95	0.619300	0.744800	0.073170
C961	C96	0.763600	0.943900	0.159890
C971	C97	0.443800	0.221900	0.527430
C981	C98	0.357200	0.178600	0.588460
C991	C99	0.305600	0.152800	0.619800
C1001	C100	0.209700	0.104850	0.674820
C1011	C101	0.152500	0.076250	0.703520
C1021	C102	0.778100	0.556200	0.527430
C1031	C103	0.821400	0.642800	0.588460
C1041	C104	0.847200	0.694400	0.619800
C1051	C105	0.895150	0.790300	0.674820
C1061	C106	0.923750	0.847500	0.703520
C1071	C107	0.778100	0.221900	0.527430
C1081	C108	0.821400	0.178600	0.588460
C1091	C109	0.847200	0.152800	0.619800
C1101	C110	0.895150	0.104850	0.674820
C1111	C111	0.923750	0.076250	0.703520
C1121	C112	0.556200	0.778100	0.027430
C1131	C113	0.642800	0.821400	0.088460
C1141	C114	0.694400	0.847200	0.119800
C1151	C115	0.790300	0.895150	0.174820
C1161	C116	0.847500	0.923750	0.203520
C1171	C117	0.221900	0.443800	0.027430
C1181	C118	0.178600	0.357200	0.088460
C1191	C119	0.152800	0.305600	0.119800
C1201	C120	0.104850	0.209700	0.174820
C1211	C121	0.076250	0.152500	0.203520
C1221	C122	0.221900	0.778100	0.027430
C1231	C123	0.178600	0.821400	0.088460
C1241	C124	0.152800	0.847200	0.119800
C1251	C125	0.104850	0.895150	0.174820
C1261	C126	0.076250	0.923750	0.203520
C1271	C127	0.221900	0.778100	0.472570
C1281	C128	0.178600	0.821400	0.411540
C1291	C129	0.152800	0.847200	0.380200
C1301	C130	0.104850	0.895150	0.325180
C1311	C131	0.076250	0.923750	0.296480
C1321	C132	0.221900	0.443800	0.472570
C1331	C133	0.178600	0.357200	0.411540
C1341	C134	0.152800	0.305600	0.380200
C1351	C135	0.104850	0.209700	0.325180
C1361	C136	0.076250	0.152500	0.296480
C1371	C137	0.556200	0.778100	0.472570
C1381	C138	0.642800	0.821400	0.411540
C1391	C139	0.694400	0.847200	0.380200
C1401	C140	0.790300	0.895150	0.325180
C1411	C141	0.847500	0.923750	0.296480
C1421	C142	0.778100	0.221900	0.972570
C1431	C143	0.821400	0.178600	0.911540
C1441	C144	0.847200	0.152800	0.880200
C1451	C145	0.895150	0.104850	0.825180
C1461	C146	0.923750	0.076250	0.796480
C1471	C147	0.778100	0.556200	0.972570
C1481	C148	0.821400	0.642800	0.911540
C1491	C149	0.847200	0.694400	0.880200
C1501	C150	0.895150	0.790300	0.825180
C1511	C151	0.923750	0.847500	0.796480
C1521	C152	0.443800	0.221900	0.972570
C1531	C153	0.357200	0.178600	0.911540
C1541	C154	0.305600	0.152800	0.880200
C1551	C155	0.209700	0.104850	0.825180
C1561	C156	0.152500	0.076250	0.796480
N11	N1	0.285400	0.206800	0.632470
N21	N2	0.921400	0.714600	0.632470
N31	N3	0.793200	0.078600	0.632470
N41	N4	0.714600	0.793200	0.132470
N51	N5	0.078600	0.285400	0.132470
N61	N6	0.206800	0.921400	0.132470
N71	N7	0.078600	0.793200	0.367530
N81	N8	0.206800	0.285400	0.367530
N91	N9	0.714600	0.921400	0.367530
N101	N10	0.921400	0.206800	0.867530
N111	N11	0.793200	0.714600	0.867530
N121	N12	0.285400	0.078600	0.867530
N131	N13	0.714600	0.793200	0.367530
N141	N14	0.078600	0.285400	0.367530
N151	N15	0.206800	0.921400	0.367530
N161	N16	0.285400	0.206800	0.867530
N171	N17	0.921400	0.714600	0.867530
N181	N18	0.793200	0.078600	0.867530
N191	N19	0.921400	0.206800	0.632470
N201	N20	0.793200	0.714600	0.632470
N211	N21	0.285400	0.078600	0.632470
N221	N22	0.078600	0.793200	0.132470
N231	N23	0.206800	0.285400	0.132470
N241	N24	0.714600	0.921400	0.132470
O11	O1	0.480810	0.109430	0.498190
O21	O2	0.438700	0.027400	0.543690
O31	O3	0.132900	0.008600	0.715850
O41	O4	0.628620	0.519190	0.498190
O51	O5	0.588700	0.561300	0.543690
O61	O6	0.875700	0.867100	0.715850
O71	O7	0.890570	0.371380	0.498190
O81	O8	0.972600	0.411300	0.543690
O91	O9	0.991400	0.124300	0.715850
O101	O10	0.519190	0.890570	0.998190
O111	O11	0.561300	0.972600	0.043690
O121	O12	0.867100	0.991400	0.215850
O131	O13	0.371380	0.480810	0.998190
O141	O14	0.411300	0.438700	0.043690
O151	O15	0.124300	0.132900	0.215850
O161	O16	0.109430	0.628620	0.998190
O171	O17	0.027400	0.588700	0.043690
O181	O18	0.008600	0.875700	0.215850
O191	O19	0.371380	0.890570	0.501810
O201	O20	0.411300	0.972600	0.456310
O211	O21	0.124300	0.991400	0.284150
O221	O22	0.109430	0.480810	0.501810
O231	O23	0.027400	0.438700	0.456310
O241	O24	0.008600	0.132900	0.284150
O251	O25	0.519190	0.628620	0.501810
O261	O26	0.561300	0.588700	0.456310
O271	O27	0.867100	0.875700	0.284150
O281	O28	0.628620	0.109430	0.001810
O291	O29	0.588700	0.027400	0.956310
O301	O30	0.875700	0.008600	0.784150
O311	O31	0.890570	0.519190	0.001810
O321	O32	0.972600	0.561300	0.956310
O331	O33	0.991400	0.867100	0.784150
O341	O34	0.480810	0.371380	0.001810
O351	O35	0.438700	0.411300	0.956310
O361	O36	0.132900	0.124300	0.784150
O371	O37	0.519190	0.890570	0.501810
O381	O38	0.561300	0.972600	0.456310
O391	O39	0.867100	0.991400	0.284150
O401	O40	0.371380	0.480810	0.501810
O411	O41	0.411300	0.438700	0.456310
O421	O42	0.124300	0.132900	0.284150
O431	O43	0.109430	0.628620	0.501810
O441	O44	0.027400	0.588700	0.456310
O451	O45	0.008600	0.875700	0.284150
O461	O46	0.480810	0.109430	0.001810
O471	O47	0.438700	0.027400	0.956310
O481	O48	0.132900	0.008600	0.784150
O491	O49	0.628620	0.519190	0.001810
O501	O50	0.588700	0.561300	0.956310
O511	O51	0.875700	0.867100	0.784150
O521	O52	0.890570	0.371380	0.001810
O531	O53	0.972600	0.411300	0.956310
O541	O54	0.991400	0.124300	0.784150
O551	O55	0.628620	0.109430	0.498190
O561	O56	0.588700	0.027400	0.543690
O571	O57	0.875700	0.008600	0.715850
O581	O58	0.890570	0.519190	0.498190
O591	O59	0.972600	0.561300	0.543690
O601	O60	0.991400	0.867100	0.715850
O611	O61	0.480810	0.371380	0.498190
O621	O62	0.438700	0.411300	0.543690
O631	O63	0.132900	0.124300	0.715850
O641	O64	0.371380	0.890570	0.998190
O651	O65	0.411300	0.972600	0.043690
O661	O66	0.124300	0.991400	0.215850
O671	O67	0.109430	0.480810	0.998190
O681	O68	0.027400	0.438700	0.043690
O691	O69	0.008600	0.132900	0.215850
O701	O70	0.519190	0.628620	0.998190
O711	O71	0.561300	0.588700	0.043690
O721	O72	0.867100	0.875700	0.215850
O731	O73	0.562190	0.124380	0.427830
O741	O74	0.562190	0.437810	0.427830
O751	O75	0.875620	0.437810	0.427830
O761	O76	0.437810	0.875620	0.927830
O771	O77	0.437810	0.562190	0.927830
O781	O78	0.124380	0.562190	0.927830
O791	O79	0.437810	0.875620	0.572170
O801	O80	0.124380	0.562190	0.572170
O811	O81	0.437810	0.562190	0.572170
O821	O82	0.562190	0.124380	0.072170
O831	O83	0.875620	0.437810	0.072170
O841	O84	0.562190	0.437810	0.072170
O851	O85	0.133100	0.866900	0.750000
O861	O86	0.733800	0.866900	0.750000
O871	O87	0.133100	0.266200	0.750000
O881	O88	0.866900	0.133100	0.250000
O891	O89	0.266200	0.133100	0.250000
O901	O90	0.866900	0.733800	0.250000
