data_OKAYIK_freeONLY_PM
_symmetry_space_group_name_H-M	'P1'
_cell_length_a	11.666700
_cell_length_b	5.558600
_cell_length_c	22.935000
_cell_angle_alpha	90.000000
_cell_angle_beta	101.011000
_cell_angle_gamma	90.000000
_symmetry_Int_Tables_number 1

loop_
_symmetry_equiv_pos_as_xyz
'x,y,z'

loop_
_atom_site_label
_atom_site_type_symbol
_atom_site_fract_x
_atom_site_fract_y
_atom_site_fract_z
S11	S1	0.396110	0.034600	0.105980
O11	O1	0.986900	0.475600	0.247100
O21	O2	0.259500	0.083400	0.809700
O31	O3	0.958800	0.080200	0.255600
O41	O4	0.264100	0.476800	0.827270
O51	O5	0.412700	0.775500	0.110000
O61	O6	0.493600	0.196400	0.129130
C11	C1	0.188600	0.942200	0.139200
H11	H1	0.187700	0.797000	0.117300
C21	C2	0.279200	0.109400	0.140900
C31	C3	0.290600	0.940600	0.991300
H21	H2	0.267600	0.792800	0.006400
C41	C4	0.352000	0.109700	0.029000
C51	C5	0.278100	0.329400	0.170500
H31	H3	0.338500	0.443900	0.170300
C61	C6	0.380600	0.335200	0.010600
H41	H4	0.417900	0.452100	0.038000
C71	C7	0.263500	0.989800	0.931500
H51	H5	0.222800	0.874600	0.904600
C81	C8	0.100300	0.992900	0.170100
H61	H6	0.040100	0.878300	0.170700
C91	C9	0.188200	0.377100	0.199800
H71	H7	0.187200	0.526300	0.220000
C101	C10	0.352100	0.382700	0.949600
H81	H8	0.371300	0.534800	0.935100
C111	C11	0.273800	0.260600	0.845000
C121	C12	0.006100	0.256200	0.237200
C131	C13	0.098700	0.212800	0.200800
C141	C14	0.296600	0.213100	0.910000
Ca11	Ca1	0.636590	0.243720	0.221290
S21	S2	0.103890	0.534600	0.394020
O71	O7	0.513100	0.975600	0.252900
O81	O8	0.240500	0.583400	0.690300
O91	O9	0.541200	0.580200	0.244400
O101	O10	0.235900	0.976800	0.672730
O111	O11	0.087300	0.275500	0.390000
O121	O12	0.006400	0.696400	0.370870
C151	C15	0.311400	0.442200	0.360800
H91	H9	0.312300	0.297000	0.382700
C161	C16	0.220800	0.609400	0.359100
C171	C17	0.209400	0.440600	0.508700
H101	H10	0.232400	0.292800	0.493600
C181	C18	0.148000	0.609700	0.471000
C191	C19	0.221900	0.829400	0.329500
H111	H11	0.161500	0.943900	0.329700
C201	C20	0.119400	0.835200	0.489400
H121	H12	0.082100	0.952100	0.462000
C211	C21	0.236500	0.489800	0.568500
H131	H13	0.277200	0.374600	0.595400
C221	C22	0.399700	0.492900	0.329900
H141	H14	0.459900	0.378300	0.329300
C231	C23	0.311800	0.877100	0.300200
H151	H15	0.312800	0.026300	0.280000
C241	C24	0.147900	0.882700	0.550400
H161	H16	0.128700	0.034800	0.564900
C251	C25	0.226200	0.760600	0.655000
C261	C26	0.493900	0.756200	0.262800
C271	C27	0.401300	0.712800	0.299200
C281	C28	0.203400	0.713100	0.590000
Ca21	Ca2	0.863410	0.743720	0.278710
S31	S3	0.603890	0.965400	0.894020
O131	O13	0.013100	0.524400	0.752900
O141	O14	0.740500	0.916600	0.190300
O151	O15	0.041200	0.919800	0.744400
O161	O16	0.735900	0.523200	0.172730
O171	O17	0.587300	0.224500	0.890000
O181	O18	0.506400	0.803600	0.870870
C291	C29	0.811400	0.057800	0.860800
H171	H17	0.812300	0.203000	0.882700
C301	C30	0.720800	0.890600	0.859100
C311	C31	0.709400	0.059400	0.008700
H181	H18	0.732400	0.207200	0.993600
C321	C32	0.648000	0.890300	0.971000
C331	C33	0.721900	0.670600	0.829500
H191	H19	0.661500	0.556100	0.829700
C341	C34	0.619400	0.664800	0.989400
H201	H20	0.582100	0.547900	0.962000
C351	C35	0.736500	0.010200	0.068500
H211	H21	0.777200	0.125400	0.095400
C361	C36	0.899700	0.007100	0.829900
H221	H22	0.959900	0.121700	0.829300
C371	C37	0.811800	0.622900	0.800200
H231	H23	0.812800	0.473700	0.780000
C381	C38	0.647900	0.617300	0.050400
H241	H24	0.628700	0.465200	0.064900
C391	C39	0.726200	0.739400	0.155000
C401	C40	0.993900	0.743800	0.762800
C411	C41	0.901300	0.787200	0.799200
C421	C42	0.703400	0.786900	0.090000
Ca31	Ca3	0.363410	0.756280	0.778710
S41	S4	0.896110	0.465400	0.605980
O191	O19	0.486900	0.024400	0.747100
O201	O20	0.759500	0.416600	0.309700
O211	O21	0.458800	0.419800	0.755600
O221	O22	0.764100	0.023200	0.327270
O231	O23	0.912700	0.724500	0.610000
O241	O24	0.993600	0.303600	0.629130
C431	C43	0.688600	0.557800	0.639200
H251	H25	0.687700	0.703000	0.617300
C441	C44	0.779200	0.390600	0.640900
C451	C45	0.790600	0.559400	0.491300
H261	H26	0.767600	0.707200	0.506400
C461	C46	0.852000	0.390300	0.529000
C471	C47	0.778100	0.170600	0.670500
H271	H27	0.838500	0.056100	0.670300
C481	C48	0.880600	0.164800	0.510600
H281	H28	0.917900	0.047900	0.538000
C491	C49	0.763500	0.510200	0.431500
H291	H29	0.722800	0.625400	0.404600
C501	C50	0.600300	0.507100	0.670100
H301	H30	0.540100	0.621700	0.670700
C511	C51	0.688200	0.122900	0.699800
H311	H31	0.687200	0.973700	0.720000
C521	C52	0.852100	0.117300	0.449600
H321	H32	0.871300	0.965200	0.435100
C531	C53	0.773800	0.239400	0.345000
C541	C54	0.506100	0.243800	0.737200
C551	C55	0.598700	0.287200	0.700800
C561	C56	0.796600	0.286900	0.410000
Ca41	Ca4	0.136590	0.256280	0.721290
