data_OKIPOO_freeONLY_PM
_symmetry_space_group_name_H-M	'P1'
_cell_length_a	18.490500
_cell_length_b	18.490500
_cell_length_c	33.540800
_cell_angle_alpha	106.000000
_cell_angle_beta	106.000000
_cell_angle_gamma	90.000000
_symmetry_Int_Tables_number 1

loop_
_symmetry_equiv_pos_as_xyz
'x,y,z'

loop_
_atom_site_label
_atom_site_type_symbol
_atom_site_fract_x
_atom_site_fract_y
_atom_site_fract_z
Co11	Co1	0.278180	0.790150	0.866500
Co21	Co2	0.088320	0.076350	0.866500
Co31	Co3	0.790150	0.088320	0.366500
Co41	Co4	0.076350	0.278180	0.366500
Co51	Co5	0.588320	0.290150	0.866500
Co61	Co6	0.778180	0.576350	0.866500
Co71	Co7	0.576350	0.588320	0.366500
Co81	Co8	0.290150	0.778180	0.366500
H11	H1	0.476700	0.997400	0.923800
H21	H2	0.531800	0.106300	0.918000
H31	H3	0.379400	0.081600	0.803000
H41	H4	0.322200	0.974500	0.808400
H51	H5	0.312900	0.842900	0.969200
H61	H6	0.316600	0.840300	0.037600
H71	H7	0.347200	0.885000	0.112800
H81	H8	0.159100	0.986200	0.028800
H91	H9	0.182000	0.024400	0.103000
H101	H10	0.284700	0.122300	0.197400
H111	H11	0.180700	0.918400	0.171000
H121	H12	0.178000	0.193500	0.308000
H131	H13	0.970500	0.128400	0.297800
H141	H14	0.005800	0.042100	0.237800
H151	H15	0.105200	0.969000	0.216400
H161	H16	0.209100	0.174400	0.241400
H171	H17	0.130200	0.949200	0.958400
H181	H18	0.140900	0.884000	0.885800
H191	H19	0.947100	0.926400	0.923800
H201	H20	0.886200	0.811700	0.918000
H211	H21	0.923600	0.721400	0.803000
H221	H22	0.986200	0.833900	0.808400
H231	H23	0.156300	0.126300	0.969200
H241	H24	0.221000	0.197300	0.037600
H251	H25	0.265600	0.227800	0.112800
H261	H26	0.369700	0.042600	0.028800
H271	H27	0.421000	0.078600	0.103000
H281	H28	0.412700	0.075100	0.197400
H291	H29	0.490300	0.252600	0.171000
H301	H30	0.630000	0.114500	0.308000
H311	H31	0.827300	0.169400	0.297800
H321	H32	0.732000	0.195700	0.237800
H331	H33	0.611200	0.247400	0.216400
H341	H34	0.532300	0.067000	0.241400
H351	H35	0.328200	0.009200	0.958400
H361	H36	0.244900	0.001800	0.885800
H371	H37	0.997400	0.947100	0.423800
H381	H38	0.106300	0.886200	0.418000
H391	H39	0.081600	0.923600	0.303000
H401	H40	0.974500	0.986200	0.308400
H411	H41	0.842900	0.156300	0.469200
H421	H42	0.840300	0.221000	0.537600
H431	H43	0.885000	0.265600	0.612800
H441	H44	0.986200	0.369700	0.528800
H451	H45	0.024400	0.421000	0.603000
H461	H46	0.122300	0.412700	0.697400
H471	H47	0.918400	0.490300	0.671000
H481	H48	0.193500	0.630000	0.808000
H491	H49	0.128400	0.827300	0.797800
H501	H50	0.042100	0.732000	0.737800
H511	H51	0.969000	0.611200	0.716400
H521	H52	0.174400	0.532300	0.741400
H531	H53	0.949200	0.328200	0.458400
H541	H54	0.884000	0.244900	0.385800
H551	H55	0.926400	0.476700	0.423800
H561	H56	0.811700	0.531800	0.418000
H571	H57	0.721400	0.379400	0.303000
H581	H58	0.833900	0.322200	0.308400
H591	H59	0.126300	0.312900	0.469200
H601	H60	0.197300	0.316600	0.537600
H611	H61	0.227800	0.347200	0.612800
H621	H62	0.042600	0.159100	0.528800
H631	H63	0.078600	0.182000	0.603000
H641	H64	0.075100	0.284700	0.697400
H651	H65	0.252600	0.180700	0.671000
H661	H66	0.114500	0.178000	0.808000
H671	H67	0.169400	0.970500	0.797800
H681	H68	0.195700	0.005800	0.737800
H691	H69	0.247400	0.105200	0.716400
H701	H70	0.067000	0.209100	0.741400
H711	H71	0.009200	0.130200	0.458400
H721	H72	0.001800	0.140900	0.385800
H731	H73	0.447100	0.497400	0.923800
H741	H74	0.386200	0.606300	0.918000
H751	H75	0.423600	0.581600	0.803000
H761	H76	0.486200	0.474500	0.808400
H771	H77	0.656300	0.342900	0.969200
H781	H78	0.721000	0.340300	0.037600
H791	H79	0.765600	0.385000	0.112800
H801	H80	0.869700	0.486200	0.028800
H811	H81	0.921000	0.524400	0.103000
H821	H82	0.912700	0.622300	0.197400
H831	H83	0.990300	0.418400	0.171000
H841	H84	0.130000	0.693500	0.308000
H851	H85	0.327300	0.628400	0.297800
H861	H86	0.232000	0.542100	0.237800
H871	H87	0.111200	0.469000	0.216400
H881	H88	0.032300	0.674400	0.241400
H891	H89	0.828200	0.449200	0.958400
H901	H90	0.744900	0.384000	0.885800
H911	H91	0.976700	0.426400	0.923800
H921	H92	0.031800	0.311700	0.918000
H931	H93	0.879400	0.221400	0.803000
H941	H94	0.822200	0.333900	0.808400
H951	H95	0.812900	0.626300	0.969200
H961	H96	0.816600	0.697300	0.037600
H971	H97	0.847200	0.727800	0.112800
H981	H98	0.659100	0.542600	0.028800
H991	H99	0.682000	0.578600	0.103000
H1001	H100	0.784700	0.575100	0.197400
H1011	H101	0.680700	0.752600	0.171000
H1021	H102	0.678000	0.614500	0.308000
H1031	H103	0.470500	0.669400	0.297800
H1041	H104	0.505800	0.695700	0.237800
H1051	H105	0.605200	0.747400	0.216400
H1061	H106	0.709100	0.567000	0.241400
H1071	H107	0.630200	0.509200	0.958400
H1081	H108	0.640900	0.501800	0.885800
H1091	H109	0.426400	0.447100	0.423800
H1101	H110	0.311700	0.386200	0.418000
H1111	H111	0.221400	0.423600	0.303000
H1121	H112	0.333900	0.486200	0.308400
H1131	H113	0.626300	0.656300	0.469200
H1141	H114	0.697300	0.721000	0.537600
H1151	H115	0.727800	0.765600	0.612800
H1161	H116	0.542600	0.869700	0.528800
H1171	H117	0.578600	0.921000	0.603000
H1181	H118	0.575100	0.912700	0.697400
H1191	H119	0.752600	0.990300	0.671000
H1201	H120	0.614500	0.130000	0.808000
H1211	H121	0.669400	0.327300	0.797800
H1221	H122	0.695700	0.232000	0.737800
H1231	H123	0.747400	0.111200	0.716400
H1241	H124	0.567000	0.032300	0.741400
H1251	H125	0.509200	0.828200	0.458400
H1261	H126	0.501800	0.744900	0.385800
H1271	H127	0.497400	0.976700	0.423800
H1281	H128	0.606300	0.031800	0.418000
H1291	H129	0.581600	0.879400	0.303000
H1301	H130	0.474500	0.822200	0.308400
H1311	H131	0.342900	0.812900	0.469200
H1321	H132	0.340300	0.816600	0.537600
H1331	H133	0.385000	0.847200	0.612800
H1341	H134	0.486200	0.659100	0.528800
H1351	H135	0.524400	0.682000	0.603000
H1361	H136	0.622300	0.784700	0.697400
H1371	H137	0.418400	0.680700	0.671000
H1381	H138	0.693500	0.678000	0.808000
H1391	H139	0.628400	0.470500	0.797800
H1401	H140	0.542100	0.505800	0.737800
H1411	H141	0.469000	0.605200	0.716400
H1421	H142	0.674400	0.709100	0.741400
H1431	H143	0.449200	0.630200	0.458400
H1441	H144	0.384000	0.640900	0.385800
C11	C1	0.357070	0.906470	0.870740
C21	C2	0.393450	0.975350	0.866900
C31	C3	0.456180	0.014580	0.899160
C41	C4	0.489300	0.079100	0.895400
C51	C5	0.462040	0.103740	0.860280
C61	C6	0.399040	0.064340	0.827680
C71	C7	0.365150	0.000850	0.830900
C81	C8	0.499310	0.171410	0.855220
C91	C9	0.262710	0.853210	0.956820
C101	C10	0.234700	0.910400	0.026200
C111	C11	0.290140	0.879340	0.050880
C121	C12	0.307380	0.904980	0.095360
C131	C13	0.197140	0.964040	0.046080
C141	C14	0.211210	0.988110	0.090020
C151	C15	0.267600	0.958900	0.114400
C161	C16	0.240790	0.015690	0.181780
C171	C17	0.248590	0.090790	0.201580
C181	C18	0.187390	0.970590	0.186180
C191	C19	0.129620	0.166620	0.297840
C201	C20	0.017930	0.131130	0.292260
C211	C21	0.036420	0.083720	0.259240
C221	C22	0.153390	0.075990	0.234180
C231	C23	0.142450	0.000250	0.212900
C241	C24	0.204180	0.121580	0.227760
C251	C25	0.165100	0.913400	0.951600
C261	C26	0.172800	0.878900	0.912200
C271	C27	0.013670	0.964270	0.870740
C281	C28	0.973450	0.891550	0.866900
C291	C29	0.942980	0.884580	0.899160
C301	C30	0.906100	0.816300	0.895400
C311	C31	0.898240	0.756540	0.860280
C321	C32	0.928640	0.763340	0.827680
C331	C33	0.965750	0.830050	0.830900
C341	C34	0.855910	0.683810	0.855220
C351	C35	0.194110	0.103610	0.956820
C361	C36	0.291500	0.115800	0.026200
C371	C37	0.260740	0.171540	0.050880
C381	C38	0.287980	0.190380	0.095360
C391	C39	0.348940	0.082040	0.046080
C401	C40	0.378810	0.101910	0.090020
C411	C41	0.346800	0.155500	0.114400
C421	C42	0.440990	0.166090	0.181780
C431	C43	0.452990	0.110790	0.201580
C441	C44	0.498790	0.215590	0.186180
C451	C45	0.668220	0.131220	0.297840
C461	C46	0.774330	0.161130	0.292260
C471	C47	0.722820	0.175520	0.259240
C481	C48	0.580790	0.158190	0.234180
C491	C49	0.570450	0.212650	0.212900
C501	C50	0.523580	0.106180	0.227760
C511	C51	0.286500	0.038200	0.951600
C521	C52	0.239400	0.033300	0.912200
C531	C53	0.906470	0.013670	0.370740
C541	C54	0.975350	0.973450	0.366900
C551	C55	0.014580	0.942980	0.399160
C561	C56	0.079100	0.906100	0.395400
C571	C57	0.103740	0.898240	0.360280
C581	C58	0.064340	0.928640	0.327680
C591	C59	0.000850	0.965750	0.330900
C601	C60	0.171410	0.855910	0.355220
C611	C61	0.853210	0.194110	0.456820
C621	C62	0.910400	0.291500	0.526200
C631	C63	0.879340	0.260740	0.550880
C641	C64	0.904980	0.287980	0.595360
C651	C65	0.964040	0.348940	0.546080
C661	C66	0.988110	0.378810	0.590020
C671	C67	0.958900	0.346800	0.614400
C681	C68	0.015690	0.440990	0.681780
C691	C69	0.090790	0.452990	0.701580
C701	C70	0.970590	0.498790	0.686180
C711	C71	0.166620	0.668220	0.797840
C721	C72	0.131130	0.774330	0.792260
C731	C73	0.083720	0.722820	0.759240
C741	C74	0.075990	0.580790	0.734180
C751	C75	0.000250	0.570450	0.712900
C761	C76	0.121580	0.523580	0.727760
C771	C77	0.913400	0.286500	0.451600
C781	C78	0.878900	0.239400	0.412200
C791	C79	0.964270	0.357070	0.370740
C801	C80	0.891550	0.393450	0.366900
C811	C81	0.884580	0.456180	0.399160
C821	C82	0.816300	0.489300	0.395400
C831	C83	0.756540	0.462040	0.360280
C841	C84	0.763340	0.399040	0.327680
C851	C85	0.830050	0.365150	0.330900
C861	C86	0.683810	0.499310	0.355220
C871	C87	0.103610	0.262710	0.456820
C881	C88	0.115800	0.234700	0.526200
C891	C89	0.171540	0.290140	0.550880
C901	C90	0.190380	0.307380	0.595360
C911	C91	0.082040	0.197140	0.546080
C921	C92	0.101910	0.211210	0.590020
C931	C93	0.155500	0.267600	0.614400
C941	C94	0.166090	0.240790	0.681780
C951	C95	0.110790	0.248590	0.701580
C961	C96	0.215590	0.187390	0.686180
C971	C97	0.131220	0.129620	0.797840
C981	C98	0.161130	0.017930	0.792260
C991	C99	0.175520	0.036420	0.759240
C1001	C100	0.158190	0.153390	0.734180
C1011	C101	0.212650	0.142450	0.712900
C1021	C102	0.106180	0.204180	0.727760
C1031	C103	0.038200	0.165100	0.451600
C1041	C104	0.033300	0.172800	0.412200
C1051	C105	0.513670	0.406470	0.870740
C1061	C106	0.473450	0.475350	0.866900
C1071	C107	0.442980	0.514580	0.899160
C1081	C108	0.406100	0.579100	0.895400
C1091	C109	0.398240	0.603740	0.860280
C1101	C110	0.428640	0.564340	0.827680
C1111	C111	0.465750	0.500850	0.830900
C1121	C112	0.355910	0.671410	0.855220
C1131	C113	0.694110	0.353210	0.956820
C1141	C114	0.791500	0.410400	0.026200
C1151	C115	0.760740	0.379340	0.050880
C1161	C116	0.787980	0.404980	0.095360
C1171	C117	0.848940	0.464040	0.046080
C1181	C118	0.878810	0.488110	0.090020
C1191	C119	0.846800	0.458900	0.114400
C1201	C120	0.940990	0.515690	0.181780
C1211	C121	0.952990	0.590790	0.201580
C1221	C122	0.998790	0.470590	0.186180
C1231	C123	0.168220	0.666620	0.297840
C1241	C124	0.274330	0.631130	0.292260
C1251	C125	0.222820	0.583720	0.259240
C1261	C126	0.080790	0.575990	0.234180
C1271	C127	0.070450	0.500250	0.212900
C1281	C128	0.023580	0.621580	0.227760
C1291	C129	0.786500	0.413400	0.951600
C1301	C130	0.739400	0.378900	0.912200
C1311	C131	0.857070	0.464270	0.870740
C1321	C132	0.893450	0.391550	0.866900
C1331	C133	0.956180	0.384580	0.899160
C1341	C134	0.989300	0.316300	0.895400
C1351	C135	0.962040	0.256540	0.860280
C1361	C136	0.899040	0.263340	0.827680
C1371	C137	0.865150	0.330050	0.830900
C1381	C138	0.999310	0.183810	0.855220
C1391	C139	0.762710	0.603610	0.956820
C1401	C140	0.734700	0.615800	0.026200
C1411	C141	0.790140	0.671540	0.050880
C1421	C142	0.807380	0.690380	0.095360
C1431	C143	0.697140	0.582040	0.046080
C1441	C144	0.711210	0.601910	0.090020
C1451	C145	0.767600	0.655500	0.114400
C1461	C146	0.740790	0.666090	0.181780
C1471	C147	0.748590	0.610790	0.201580
C1481	C148	0.687390	0.715590	0.186180
C1491	C149	0.629620	0.631220	0.297840
C1501	C150	0.517930	0.661130	0.292260
C1511	C151	0.536420	0.675520	0.259240
C1521	C152	0.653390	0.658190	0.234180
C1531	C153	0.642450	0.712650	0.212900
C1541	C154	0.704180	0.606180	0.227760
C1551	C155	0.665100	0.538200	0.951600
C1561	C156	0.672800	0.533300	0.912200
C1571	C157	0.464270	0.513670	0.370740
C1581	C158	0.391550	0.473450	0.366900
C1591	C159	0.384580	0.442980	0.399160
C1601	C160	0.316300	0.406100	0.395400
C1611	C161	0.256540	0.398240	0.360280
C1621	C162	0.263340	0.428640	0.327680
C1631	C163	0.330050	0.465750	0.330900
C1641	C164	0.183810	0.355910	0.355220
C1651	C165	0.603610	0.694110	0.456820
C1661	C166	0.615800	0.791500	0.526200
C1671	C167	0.671540	0.760740	0.550880
C1681	C168	0.690380	0.787980	0.595360
C1691	C169	0.582040	0.848940	0.546080
C1701	C170	0.601910	0.878810	0.590020
C1711	C171	0.655500	0.846800	0.614400
C1721	C172	0.666090	0.940990	0.681780
C1731	C173	0.610790	0.952990	0.701580
C1741	C174	0.715590	0.998790	0.686180
C1751	C175	0.631220	0.168220	0.797840
C1761	C176	0.661130	0.274330	0.792260
C1771	C177	0.675520	0.222820	0.759240
C1781	C178	0.658190	0.080790	0.734180
C1791	C179	0.712650	0.070450	0.712900
C1801	C180	0.606180	0.023580	0.727760
C1811	C181	0.538200	0.786500	0.451600
C1821	C182	0.533300	0.739400	0.412200
C1831	C183	0.406470	0.857070	0.370740
C1841	C184	0.475350	0.893450	0.366900
C1851	C185	0.514580	0.956180	0.399160
C1861	C186	0.579100	0.989300	0.395400
C1871	C187	0.603740	0.962040	0.360280
C1881	C188	0.564340	0.899040	0.327680
C1891	C189	0.500850	0.865150	0.330900
C1901	C190	0.671410	0.999310	0.355220
C1911	C191	0.353210	0.762710	0.456820
C1921	C192	0.410400	0.734700	0.526200
C1931	C193	0.379340	0.790140	0.550880
C1941	C194	0.404980	0.807380	0.595360
C1951	C195	0.464040	0.697140	0.546080
C1961	C196	0.488110	0.711210	0.590020
C1971	C197	0.458900	0.767600	0.614400
C1981	C198	0.515690	0.740790	0.681780
C1991	C199	0.590790	0.748590	0.701580
C2001	C200	0.470590	0.687390	0.686180
C2011	C201	0.666620	0.629620	0.797840
C2021	C202	0.631130	0.517930	0.792260
C2031	C203	0.583720	0.536420	0.759240
C2041	C204	0.575990	0.653390	0.734180
C2051	C205	0.500250	0.642450	0.712900
C2061	C206	0.621580	0.704180	0.727760
C2071	C207	0.413400	0.665100	0.451600
C2081	C208	0.378900	0.672800	0.412200
N11	N1	0.231860	0.836260	0.915320
N21	N2	0.218950	0.885650	0.980100
N31	N3	0.075950	0.183750	0.316700
N41	N4	0.108560	0.107260	0.262720
N51	N5	0.183460	0.079060	0.915320
N61	N6	0.261150	0.094450	0.980100
N71	N7	0.740750	0.132950	0.316700
N81	N8	0.654160	0.155460	0.262720
N91	N9	0.836260	0.183460	0.415320
N101	N10	0.885650	0.261150	0.480100
N111	N11	0.183750	0.740750	0.816700
N121	N12	0.107260	0.654160	0.762720
N131	N13	0.079060	0.231860	0.415320
N141	N14	0.094450	0.218950	0.480100
N151	N15	0.132950	0.075950	0.816700
N161	N16	0.155460	0.108560	0.762720
N171	N17	0.683460	0.336260	0.915320
N181	N18	0.761150	0.385650	0.980100
N191	N19	0.240750	0.683750	0.316700
N201	N20	0.154160	0.607260	0.262720
N211	N21	0.731860	0.579060	0.915320
N221	N22	0.718950	0.594450	0.980100
N231	N23	0.575950	0.632950	0.316700
N241	N24	0.608560	0.655460	0.262720
N251	N25	0.579060	0.683460	0.415320
N261	N26	0.594450	0.761150	0.480100
N271	N27	0.632950	0.240750	0.816700
N281	N28	0.655460	0.154160	0.762720
N291	N29	0.336260	0.731860	0.415320
N301	N30	0.385650	0.718950	0.480100
N311	N31	0.683750	0.575950	0.816700
N321	N32	0.607260	0.608560	0.762720
O11	O1	0.296480	0.876280	0.842760
O21	O2	0.385810	0.879510	0.901020
O31	O3	0.476890	0.190390	0.821780
O41	O4	0.555160	0.206960	0.886120
O51	O5	0.291550	0.982850	0.159500
O61	O6	0.046280	0.966480	0.842760
O71	O7	0.015210	0.021510	0.901020
O81	O8	0.844890	0.631390	0.821780
O91	O9	0.830960	0.679160	0.886120
O101	O10	0.367950	0.176650	0.159500
O111	O11	0.876280	0.046280	0.342760
O121	O12	0.879510	0.015210	0.401020
O131	O13	0.190390	0.844890	0.321780
O141	O14	0.206960	0.830960	0.386120
O151	O15	0.982850	0.367950	0.659500
O161	O16	0.966480	0.296480	0.342760
O171	O17	0.021510	0.385810	0.401020
O181	O18	0.631390	0.476890	0.321780
O191	O19	0.679160	0.555160	0.386120
O201	O20	0.176650	0.291550	0.659500
O211	O21	0.546280	0.376280	0.842760
O221	O22	0.515210	0.379510	0.901020
O231	O23	0.344890	0.690390	0.821780
O241	O24	0.330960	0.706960	0.886120
O251	O25	0.867950	0.482850	0.159500
O261	O26	0.796480	0.466480	0.842760
O271	O27	0.885810	0.521510	0.901020
O281	O28	0.976890	0.131390	0.821780
O291	O29	0.055160	0.179160	0.886120
O301	O30	0.791550	0.676650	0.159500
O311	O31	0.466480	0.546280	0.342760
O321	O32	0.521510	0.515210	0.401020
O331	O33	0.131390	0.344890	0.321780
O341	O34	0.179160	0.330960	0.386120
O351	O35	0.676650	0.867950	0.659500
O361	O36	0.376280	0.796480	0.342760
O371	O37	0.379510	0.885810	0.401020
O381	O38	0.690390	0.976890	0.321780
O391	O39	0.706960	0.055160	0.386120
O401	O40	0.482850	0.791550	0.659500
Co91	Co9	0.411680	0.709850	0.133500
Co101	Co10	0.221820	0.423650	0.133500
Co111	Co11	0.423650	0.411680	0.633500
Co121	Co12	0.709850	0.221820	0.633500
Co131	Co13	0.721820	0.209850	0.133500
Co141	Co14	0.911680	0.923650	0.133500
Co151	Co15	0.209850	0.911680	0.633500
Co161	Co16	0.923650	0.721820	0.633500
H1451	H145	0.552900	0.502600	0.076200
H1461	H146	0.613800	0.393700	0.082000
H1471	H147	0.576400	0.418400	0.197000
H1481	H148	0.513800	0.525500	0.191600
H1491	H149	0.343700	0.657100	0.030800
H1501	H150	0.279000	0.659700	0.962400
H1511	H151	0.234400	0.615000	0.887200
H1521	H152	0.130300	0.513800	0.971200
H1531	H153	0.079000	0.475600	0.897000
H1541	H154	0.087300	0.377700	0.802600
H1551	H155	0.009700	0.581600	0.829000
H1561	H156	0.870000	0.306500	0.692000
H1571	H157	0.672700	0.371600	0.702200
H1581	H158	0.768000	0.457900	0.762200
H1591	H159	0.888800	0.531000	0.783600
H1601	H160	0.967700	0.325600	0.758600
H1611	H161	0.171800	0.550800	0.041600
H1621	H162	0.255100	0.616000	0.114200
H1631	H163	0.023300	0.573600	0.076200
H1641	H164	0.968200	0.688300	0.082000
H1651	H165	0.120600	0.778600	0.197000
H1661	H166	0.177800	0.666100	0.191600
H1671	H167	0.187100	0.373700	0.030800
H1681	H168	0.183400	0.302700	0.962400
H1691	H169	0.152800	0.272200	0.887200
H1701	H170	0.340900	0.457400	0.971200
H1711	H171	0.318000	0.421400	0.897000
H1721	H172	0.215300	0.424900	0.802600
H1731	H173	0.319300	0.247400	0.829000
H1741	H174	0.322000	0.385500	0.692000
H1751	H175	0.529500	0.330600	0.702200
H1761	H176	0.494200	0.304300	0.762200
H1771	H177	0.394800	0.252600	0.783600
H1781	H178	0.290900	0.433000	0.758600
H1791	H179	0.369800	0.490800	0.041600
H1801	H180	0.359100	0.498200	0.114200
H1811	H181	0.573600	0.552900	0.576200
H1821	H182	0.688300	0.613800	0.582000
H1831	H183	0.778600	0.576400	0.697000
H1841	H184	0.666100	0.513800	0.691600
H1851	H185	0.373700	0.343700	0.530800
H1861	H186	0.302700	0.279000	0.462400
H1871	H187	0.272200	0.234400	0.387200
H1881	H188	0.457400	0.130300	0.471200
H1891	H189	0.421400	0.079000	0.397000
H1901	H190	0.424900	0.087300	0.302600
H1911	H191	0.247400	0.009700	0.329000
H1921	H192	0.385500	0.870000	0.192000
H1931	H193	0.330600	0.672700	0.202200
H1941	H194	0.304300	0.768000	0.262200
H1951	H195	0.252600	0.888800	0.283600
H1961	H196	0.433000	0.967700	0.258600
H1971	H197	0.490800	0.171800	0.541600
H1981	H198	0.498200	0.255100	0.614200
H1991	H199	0.502600	0.023300	0.576200
H2001	H200	0.393700	0.968200	0.582000
H2011	H201	0.418400	0.120600	0.697000
H2021	H202	0.525500	0.177800	0.691600
H2031	H203	0.657100	0.187100	0.530800
H2041	H204	0.659700	0.183400	0.462400
H2051	H205	0.615000	0.152800	0.387200
H2061	H206	0.513800	0.340900	0.471200
H2071	H207	0.475600	0.318000	0.397000
H2081	H208	0.377700	0.215300	0.302600
H2091	H209	0.581600	0.319300	0.329000
H2101	H210	0.306500	0.322000	0.192000
H2111	H211	0.371600	0.529500	0.202200
H2121	H212	0.457900	0.494200	0.262200
H2131	H213	0.531000	0.394800	0.283600
H2141	H214	0.325600	0.290900	0.258600
H2151	H215	0.550800	0.369800	0.541600
H2161	H216	0.616000	0.359100	0.614200
H2171	H217	0.523300	0.002600	0.076200
H2181	H218	0.468200	0.893700	0.082000
H2191	H219	0.620600	0.918400	0.197000
H2201	H220	0.677800	0.025500	0.191600
H2211	H221	0.687100	0.157100	0.030800
H2221	H222	0.683400	0.159700	0.962400
H2231	H223	0.652800	0.115000	0.887200
H2241	H224	0.840900	0.013800	0.971200
H2251	H225	0.818000	0.975600	0.897000
H2261	H226	0.715300	0.877700	0.802600
H2271	H227	0.819300	0.081600	0.829000
H2281	H228	0.822000	0.806500	0.692000
H2291	H229	0.029500	0.871600	0.702200
H2301	H230	0.994200	0.957900	0.762200
H2311	H231	0.894800	0.031000	0.783600
H2321	H232	0.790900	0.825600	0.758600
H2331	H233	0.869800	0.050800	0.041600
H2341	H234	0.859100	0.116000	0.114200
H2351	H235	0.052900	0.073600	0.076200
H2361	H236	0.113800	0.188300	0.082000
H2371	H237	0.076400	0.278600	0.197000
H2381	H238	0.013800	0.166100	0.191600
H2391	H239	0.843700	0.873700	0.030800
H2401	H240	0.779000	0.802700	0.962400
H2411	H241	0.734400	0.772200	0.887200
H2421	H242	0.630300	0.957400	0.971200
H2431	H243	0.579000	0.921400	0.897000
H2441	H244	0.587300	0.924900	0.802600
H2451	H245	0.509700	0.747400	0.829000
H2461	H246	0.370000	0.885500	0.692000
H2471	H247	0.172700	0.830600	0.702200
H2481	H248	0.268000	0.804300	0.762200
H2491	H249	0.388800	0.752600	0.783600
H2501	H250	0.467700	0.933000	0.758600
H2511	H251	0.671800	0.990800	0.041600
H2521	H252	0.755100	0.998200	0.114200
H2531	H253	0.002600	0.052900	0.576200
H2541	H254	0.893700	0.113800	0.582000
H2551	H255	0.918400	0.076400	0.697000
H2561	H256	0.025500	0.013800	0.691600
H2571	H257	0.157100	0.843700	0.530800
H2581	H258	0.159700	0.779000	0.462400
H2591	H259	0.115000	0.734400	0.387200
H2601	H260	0.013800	0.630300	0.471200
H2611	H261	0.975600	0.579000	0.397000
H2621	H262	0.877700	0.587300	0.302600
H2631	H263	0.081600	0.509700	0.329000
H2641	H264	0.806500	0.370000	0.192000
H2651	H265	0.871600	0.172700	0.202200
H2661	H266	0.957900	0.268000	0.262200
H2671	H267	0.031000	0.388800	0.283600
H2681	H268	0.825600	0.467700	0.258600
H2691	H269	0.050800	0.671800	0.541600
H2701	H270	0.116000	0.755100	0.614200
H2711	H271	0.073600	0.523300	0.576200
H2721	H272	0.188300	0.468200	0.582000
H2731	H273	0.278600	0.620600	0.697000
H2741	H274	0.166100	0.677800	0.691600
H2751	H275	0.873700	0.687100	0.530800
H2761	H276	0.802700	0.683400	0.462400
H2771	H277	0.772200	0.652800	0.387200
H2781	H278	0.957400	0.840900	0.471200
H2791	H279	0.921400	0.818000	0.397000
H2801	H280	0.924900	0.715300	0.302600
H2811	H281	0.747400	0.819300	0.329000
H2821	H282	0.885500	0.822000	0.192000
H2831	H283	0.830600	0.029500	0.202200
H2841	H284	0.804300	0.994200	0.262200
H2851	H285	0.752600	0.894800	0.283600
H2861	H286	0.933000	0.790900	0.258600
H2871	H287	0.990800	0.869800	0.541600
H2881	H288	0.998200	0.859100	0.614200
C2091	C209	0.486330	0.593530	0.129260
C2101	C210	0.526550	0.524650	0.133100
C2111	C211	0.557020	0.485420	0.100840
C2121	C212	0.593900	0.420900	0.104600
C2131	C213	0.601760	0.396260	0.139720
C2141	C214	0.571360	0.435660	0.172320
C2151	C215	0.534250	0.499150	0.169100
C2161	C216	0.644090	0.328590	0.144780
C2171	C217	0.305890	0.646790	0.043180
C2181	C218	0.208500	0.589600	0.973800
C2191	C219	0.239260	0.620660	0.949120
C2201	C220	0.212020	0.595020	0.904640
C2211	C221	0.151060	0.535960	0.953920
C2221	C222	0.121190	0.511890	0.909980
C2231	C223	0.153200	0.541100	0.885600
C2241	C224	0.059010	0.484310	0.818220
C2251	C225	0.047010	0.409210	0.798420
C2261	C226	0.001210	0.529410	0.813820
C2271	C227	0.831780	0.333380	0.702160
C2281	C228	0.725670	0.368870	0.707740
C2291	C229	0.777180	0.416280	0.740760
C2301	C230	0.919210	0.424010	0.765820
C2311	C231	0.929550	0.499750	0.787100
C2321	C232	0.976420	0.378420	0.772240
C2331	C233	0.213500	0.586600	0.048400
C2341	C234	0.260600	0.621100	0.087800
C2351	C235	0.142930	0.535730	0.129260
C2361	C236	0.106550	0.608450	0.133100
C2371	C237	0.043820	0.615420	0.100840
C2381	C238	0.010700	0.683700	0.104600
C2391	C239	0.037960	0.743460	0.139720
C2401	C240	0.100960	0.736660	0.172320
C2411	C241	0.134850	0.669950	0.169100
C2421	C242	0.000690	0.816190	0.144780
C2431	C243	0.237290	0.396390	0.043180
C2441	C244	0.265300	0.384200	0.973800
C2451	C245	0.209860	0.328460	0.949120
C2461	C246	0.192620	0.309620	0.904640
C2471	C247	0.302860	0.417960	0.953920
C2481	C248	0.288790	0.398090	0.909980
C2491	C249	0.232400	0.344500	0.885600
C2501	C250	0.259210	0.333910	0.818220
C2511	C251	0.251410	0.389210	0.798420
C2521	C252	0.312610	0.284410	0.813820
C2531	C253	0.370380	0.368780	0.702160
C2541	C254	0.482070	0.338870	0.707740
C2551	C255	0.463580	0.324480	0.740760
C2561	C256	0.346610	0.341810	0.765820
C2571	C257	0.357550	0.287350	0.787100
C2581	C258	0.295820	0.393820	0.772240
C2591	C259	0.334900	0.461800	0.048400
C2601	C260	0.327200	0.466700	0.087800
C2611	C261	0.535730	0.486330	0.629260
C2621	C262	0.608450	0.526550	0.633100
C2631	C263	0.615420	0.557020	0.600840
C2641	C264	0.683700	0.593900	0.604600
C2651	C265	0.743460	0.601760	0.639720
C2661	C266	0.736660	0.571360	0.672320
C2671	C267	0.669950	0.534250	0.669100
C2681	C268	0.816190	0.644090	0.644780
C2691	C269	0.396390	0.305890	0.543180
C2701	C270	0.384200	0.208500	0.473800
C2711	C271	0.328460	0.239260	0.449120
C2721	C272	0.309620	0.212020	0.404640
C2731	C273	0.417960	0.151060	0.453920
C2741	C274	0.398090	0.121190	0.409980
C2751	C275	0.344500	0.153200	0.385600
C2761	C276	0.333910	0.059010	0.318220
C2771	C277	0.389210	0.047010	0.298420
C2781	C278	0.284410	0.001210	0.313820
C2791	C279	0.368780	0.831780	0.202160
C2801	C280	0.338870	0.725670	0.207740
C2811	C281	0.324480	0.777180	0.240760
C2821	C282	0.341810	0.919210	0.265820
C2831	C283	0.287350	0.929550	0.287100
C2841	C284	0.393820	0.976420	0.272240
C2851	C285	0.461800	0.213500	0.548400
C2861	C286	0.466700	0.260600	0.587800
C2871	C287	0.593530	0.142930	0.629260
C2881	C288	0.524650	0.106550	0.633100
C2891	C289	0.485420	0.043820	0.600840
C2901	C290	0.420900	0.010700	0.604600
C2911	C291	0.396260	0.037960	0.639720
C2921	C292	0.435660	0.100960	0.672320
C2931	C293	0.499150	0.134850	0.669100
C2941	C294	0.328590	0.000690	0.644780
C2951	C295	0.646790	0.237290	0.543180
C2961	C296	0.589600	0.265300	0.473800
C2971	C297	0.620660	0.209860	0.449120
C2981	C298	0.595020	0.192620	0.404640
C2991	C299	0.535960	0.302860	0.453920
C3001	C300	0.511890	0.288790	0.409980
C3011	C301	0.541100	0.232400	0.385600
C3021	C302	0.484310	0.259210	0.318220
C3031	C303	0.409210	0.251410	0.298420
C3041	C304	0.529410	0.312610	0.313820
C3051	C305	0.333380	0.370380	0.202160
C3061	C306	0.368870	0.482070	0.207740
C3071	C307	0.416280	0.463580	0.240760
C3081	C308	0.424010	0.346610	0.265820
C3091	C309	0.499750	0.357550	0.287100
C3101	C310	0.378420	0.295820	0.272240
C3111	C311	0.586600	0.334900	0.548400
C3121	C312	0.621100	0.327200	0.587800
C3131	C313	0.642930	0.093530	0.129260
C3141	C314	0.606550	0.024650	0.133100
C3151	C315	0.543820	0.985420	0.100840
C3161	C316	0.510700	0.920900	0.104600
C3171	C317	0.537960	0.896260	0.139720
C3181	C318	0.600960	0.935660	0.172320
C3191	C319	0.634850	0.999150	0.169100
C3201	C320	0.500690	0.828590	0.144780
C3211	C321	0.737290	0.146790	0.043180
C3221	C322	0.765300	0.089600	0.973800
C3231	C323	0.709860	0.120660	0.949120
C3241	C324	0.692620	0.095020	0.904640
C3251	C325	0.802860	0.035960	0.953920
C3261	C326	0.788790	0.011890	0.909980
C3271	C327	0.732400	0.041100	0.885600
C3281	C328	0.759210	0.984310	0.818220
C3291	C329	0.751410	0.909210	0.798420
C3301	C330	0.812610	0.029410	0.813820
C3311	C331	0.870380	0.833380	0.702160
C3321	C332	0.982070	0.868870	0.707740
C3331	C333	0.963580	0.916280	0.740760
C3341	C334	0.846610	0.924010	0.765820
C3351	C335	0.857550	0.999750	0.787100
C3361	C336	0.795820	0.878420	0.772240
C3371	C337	0.834900	0.086600	0.048400
C3381	C338	0.827200	0.121100	0.087800
C3391	C339	0.986330	0.035730	0.129260
C3401	C340	0.026550	0.108450	0.133100
C3411	C341	0.057020	0.115420	0.100840
C3421	C342	0.093900	0.183700	0.104600
C3431	C343	0.101760	0.243460	0.139720
C3441	C344	0.071360	0.236660	0.172320
C3451	C345	0.034250	0.169950	0.169100
C3461	C346	0.144090	0.316190	0.144780
C3471	C347	0.805890	0.896390	0.043180
C3481	C348	0.708500	0.884200	0.973800
C3491	C349	0.739260	0.828460	0.949120
C3501	C350	0.712020	0.809620	0.904640
C3511	C351	0.651060	0.917960	0.953920
C3521	C352	0.621190	0.898090	0.909980
C3531	C353	0.653200	0.844500	0.885600
C3541	C354	0.559010	0.833910	0.818220
C3551	C355	0.547010	0.889210	0.798420
C3561	C356	0.501210	0.784410	0.813820
C3571	C357	0.331780	0.868780	0.702160
C3581	C358	0.225670	0.838870	0.707740
C3591	C359	0.277180	0.824480	0.740760
C3601	C360	0.419210	0.841810	0.765820
C3611	C361	0.429550	0.787350	0.787100
C3621	C362	0.476420	0.893820	0.772240
C3631	C363	0.713500	0.961800	0.048400
C3641	C364	0.760600	0.966700	0.087800
C3651	C365	0.093530	0.986330	0.629260
C3661	C366	0.024650	0.026550	0.633100
C3671	C367	0.985420	0.057020	0.600840
C3681	C368	0.920900	0.093900	0.604600
C3691	C369	0.896260	0.101760	0.639720
C3701	C370	0.935660	0.071360	0.672320
C3711	C371	0.999150	0.034250	0.669100
C3721	C372	0.828590	0.144090	0.644780
C3731	C373	0.146790	0.805890	0.543180
C3741	C374	0.089600	0.708500	0.473800
C3751	C375	0.120660	0.739260	0.449120
C3761	C376	0.095020	0.712020	0.404640
C3771	C377	0.035960	0.651060	0.453920
C3781	C378	0.011890	0.621190	0.409980
C3791	C379	0.041100	0.653200	0.385600
C3801	C380	0.984310	0.559010	0.318220
C3811	C381	0.909210	0.547010	0.298420
C3821	C382	0.029410	0.501210	0.313820
C3831	C383	0.833380	0.331780	0.202160
C3841	C384	0.868870	0.225670	0.207740
C3851	C385	0.916280	0.277180	0.240760
C3861	C386	0.924010	0.419210	0.265820
C3871	C387	0.999750	0.429550	0.287100
C3881	C388	0.878420	0.476420	0.272240
C3891	C389	0.086600	0.713500	0.548400
C3901	C390	0.121100	0.760600	0.587800
C3911	C391	0.035730	0.642930	0.629260
C3921	C392	0.108450	0.606550	0.633100
C3931	C393	0.115420	0.543820	0.600840
C3941	C394	0.183700	0.510700	0.604600
C3951	C395	0.243460	0.537960	0.639720
C3961	C396	0.236660	0.600960	0.672320
C3971	C397	0.169950	0.634850	0.669100
C3981	C398	0.316190	0.500690	0.644780
C3991	C399	0.896390	0.737290	0.543180
C4001	C400	0.884200	0.765300	0.473800
C4011	C401	0.828460	0.709860	0.449120
C4021	C402	0.809620	0.692620	0.404640
C4031	C403	0.917960	0.802860	0.453920
C4041	C404	0.898090	0.788790	0.409980
C4051	C405	0.844500	0.732400	0.385600
C4061	C406	0.833910	0.759210	0.318220
C4071	C407	0.889210	0.751410	0.298420
C4081	C408	0.784410	0.812610	0.313820
C4091	C409	0.868780	0.870380	0.202160
C4101	C410	0.838870	0.982070	0.207740
C4111	C411	0.824480	0.963580	0.240760
C4121	C412	0.841810	0.846610	0.265820
C4131	C413	0.787350	0.857550	0.287100
C4141	C414	0.893820	0.795820	0.272240
C4151	C415	0.961800	0.834900	0.548400
C4161	C416	0.966700	0.827200	0.587800
N331	N33	0.316540	0.663740	0.084680
N341	N34	0.238850	0.614350	0.019900
N351	N35	0.759250	0.316250	0.683300
N361	N36	0.845840	0.392740	0.737280
N371	N37	0.268140	0.420940	0.084680
N381	N38	0.281050	0.405550	0.019900
N391	N39	0.424050	0.367050	0.683300
N401	N40	0.391440	0.344540	0.737280
N411	N41	0.420940	0.316540	0.584680
N421	N42	0.405550	0.238850	0.519900
N431	N43	0.367050	0.759250	0.183300
N441	N44	0.344540	0.845840	0.237280
N451	N45	0.663740	0.268140	0.584680
N461	N46	0.614350	0.281050	0.519900
N471	N47	0.316250	0.424050	0.183300
N481	N48	0.392740	0.391440	0.237280
N491	N49	0.768140	0.163740	0.084680
N501	N50	0.781050	0.114350	0.019900
N511	N51	0.924050	0.816250	0.683300
N521	N52	0.891440	0.892740	0.737280
N531	N53	0.816540	0.920940	0.084680
N541	N54	0.738850	0.905550	0.019900
N551	N55	0.259250	0.867050	0.683300
N561	N56	0.345840	0.844540	0.737280
N571	N57	0.163740	0.816540	0.584680
N581	N58	0.114350	0.738850	0.519900
N591	N59	0.816250	0.259250	0.183300
N601	N60	0.892740	0.345840	0.237280
N611	N61	0.920940	0.768140	0.584680
N621	N62	0.905550	0.781050	0.519900
N631	N63	0.867050	0.924050	0.183300
N641	N64	0.844540	0.891440	0.237280
O411	O41	0.453720	0.623720	0.157240
O421	O42	0.484790	0.620490	0.098980
O431	O43	0.655110	0.309610	0.178220
O441	O44	0.669040	0.293040	0.113880
O451	O45	0.132050	0.517150	0.840500
O461	O46	0.203520	0.533520	0.157240
O471	O47	0.114190	0.478490	0.098980
O481	O48	0.023110	0.868610	0.178220
O491	O49	0.944840	0.820840	0.113880
O501	O50	0.208450	0.323350	0.840500
O511	O51	0.533520	0.453720	0.657240
O521	O52	0.478490	0.484790	0.598980
O531	O53	0.868610	0.655110	0.678220
O541	O54	0.820840	0.669040	0.613880
O551	O55	0.323350	0.132050	0.340500
O561	O56	0.623720	0.203520	0.657240
O571	O57	0.620490	0.114190	0.598980
O581	O58	0.309610	0.023110	0.678220
O591	O59	0.293040	0.944840	0.613880
O601	O60	0.517150	0.208450	0.340500
O611	O61	0.703520	0.123720	0.157240
O621	O62	0.614190	0.120490	0.098980
O631	O63	0.523110	0.809610	0.178220
O641	O64	0.444840	0.793040	0.113880
O651	O65	0.708450	0.017150	0.840500
O661	O66	0.953720	0.033520	0.157240
O671	O67	0.984790	0.978490	0.098980
O681	O68	0.155110	0.368610	0.178220
O691	O69	0.169040	0.320840	0.113880
O701	O70	0.632050	0.823350	0.840500
O711	O71	0.123720	0.953720	0.657240
O721	O72	0.120490	0.984790	0.598980
O731	O73	0.809610	0.155110	0.678220
O741	O74	0.793040	0.169040	0.613880
O751	O75	0.017150	0.632050	0.340500
O761	O76	0.033520	0.703520	0.657240
O771	O77	0.978490	0.614190	0.598980
O781	O78	0.368610	0.523110	0.678220
O791	O79	0.320840	0.444840	0.613880
O801	O80	0.823350	0.708450	0.340500
