data_OKITIM01_charged_PM
_symmetry_space_group_name_H-M	'P1'
_cell_length_a	15.853900
_cell_length_b	15.853900
_cell_length_c	21.660000
_cell_angle_alpha	90.000000
_cell_angle_beta	90.000000
_cell_angle_gamma	90.000000
_symmetry_Int_Tables_number 1

loop_
_symmetry_equiv_pos_as_xyz
'x,y,z'

loop_
_atom_site_label
_atom_site_type_symbol
_atom_site_fract_x
_atom_site_fract_y
_atom_site_fract_z
Cd11	Cd1	0.941880	0.058120	0.750000
Cd21	Cd2	0.058120	0.941880	0.250000
Cd31	Cd3	0.441880	0.441880	0.500000
Cd41	Cd4	0.558120	0.558120	0.000000
H11	H1	0.462100	0.389300	0.650800
H21	H2	0.415100	0.285700	0.716200
H31	H3	0.213300	0.258600	0.604400
H41	H4	0.273200	0.357900	0.539200
H51	H5	0.348900	0.201900	0.779800
H61	H6	0.294300	0.092700	0.837300
H71	H7	0.197100	0.997200	0.792200
H81	H8	0.202000	0.135100	0.635600
H91	H9	0.954400	0.881100	0.538300
H101	H10	0.933600	0.768700	0.470300
H111	H11	0.036700	0.664900	0.459200
H121	H12	0.174200	0.776300	0.594900
H131	H13	0.231400	0.652400	0.607700
H141	H14	0.338200	0.555100	0.593400
H151	H15	0.264700	0.510100	0.424800
H161	H16	0.155300	0.605200	0.433600
H171	H17	0.250200	0.970200	0.593600
H181	H18	0.264400	0.917100	0.649200
H191	H19	0.537900	0.610700	0.150800
H201	H20	0.584900	0.714300	0.216200
H211	H21	0.786700	0.741400	0.104400
H221	H22	0.726800	0.642100	0.039200
H231	H23	0.651100	0.798100	0.279800
H241	H24	0.705700	0.907300	0.337300
H251	H25	0.802900	0.002800	0.292200
H261	H26	0.798000	0.864900	0.135600
H271	H27	0.045600	0.118900	0.038300
H281	H28	0.066400	0.231300	0.970300
H291	H29	0.963300	0.335100	0.959200
H301	H30	0.825800	0.223700	0.094900
H311	H31	0.768600	0.347600	0.107700
H321	H32	0.661800	0.444900	0.093400
H331	H33	0.735300	0.489900	0.924800
H341	H34	0.844700	0.394800	0.933600
H351	H35	0.749800	0.029800	0.093600
H361	H36	0.735600	0.082900	0.149200
H371	H37	0.110700	0.962100	0.400800
H381	H38	0.214300	0.915100	0.466200
H391	H39	0.241400	0.713300	0.354400
H401	H40	0.142100	0.773200	0.289200
H411	H41	0.298100	0.848900	0.529800
H421	H42	0.407300	0.794300	0.587300
H431	H43	0.502800	0.697100	0.542200
H441	H44	0.364900	0.702000	0.385600
H451	H45	0.618900	0.454400	0.288300
H461	H46	0.731300	0.433600	0.220300
H471	H47	0.835100	0.536700	0.209200
H481	H48	0.723700	0.674200	0.344900
H491	H49	0.847600	0.731400	0.357700
H501	H50	0.944900	0.838200	0.343400
H511	H51	0.989900	0.764700	0.174800
H521	H52	0.894800	0.655300	0.183600
H531	H53	0.529800	0.750200	0.343600
H541	H54	0.582900	0.764400	0.399200
H551	H55	0.889300	0.037900	0.900800
H561	H56	0.785700	0.084900	0.966200
H571	H57	0.758600	0.286700	0.854400
H581	H58	0.857900	0.226800	0.789200
H591	H59	0.701900	0.151100	0.029800
H601	H60	0.592700	0.205700	0.087300
H611	H61	0.497200	0.302900	0.042200
H621	H62	0.635100	0.298000	0.885600
H631	H63	0.381100	0.545600	0.788300
H641	H64	0.268700	0.566400	0.720300
H651	H65	0.164900	0.463300	0.709200
H661	H66	0.276300	0.325800	0.844900
H671	H67	0.152400	0.268600	0.857700
H681	H68	0.055100	0.161800	0.843400
H691	H69	0.010100	0.235300	0.674800
H701	H70	0.105200	0.344700	0.683600
H711	H71	0.470200	0.249800	0.843600
H721	H72	0.417100	0.235600	0.899200
H731	H73	0.037900	0.889300	0.099200
H741	H74	0.084900	0.785700	0.033800
H751	H75	0.286700	0.758600	0.145600
H761	H76	0.226800	0.857900	0.210800
H771	H77	0.151100	0.701900	0.970200
H781	H78	0.205700	0.592700	0.912700
H791	H79	0.302900	0.497200	0.957800
H801	H80	0.298000	0.635100	0.114400
H811	H81	0.545600	0.381100	0.211700
H821	H82	0.566400	0.268700	0.279700
H831	H83	0.463300	0.164900	0.290800
H841	H84	0.325800	0.276300	0.155100
H851	H85	0.268600	0.152400	0.142300
H861	H86	0.161800	0.055100	0.156600
H871	H87	0.235300	0.010100	0.325200
H881	H88	0.344700	0.105200	0.316400
H891	H89	0.249800	0.470200	0.156400
H901	H90	0.235600	0.417100	0.100800
H911	H91	0.962100	0.110700	0.599200
H921	H92	0.915100	0.214300	0.533800
H931	H93	0.713300	0.241400	0.645600
H941	H94	0.773200	0.142100	0.710800
H951	H95	0.848900	0.298100	0.470200
H961	H96	0.794300	0.407300	0.412700
H971	H97	0.697100	0.502800	0.457800
H981	H98	0.702000	0.364900	0.614400
H991	H99	0.454400	0.618900	0.711700
H1001	H100	0.433600	0.731300	0.779700
H1011	H101	0.536700	0.835100	0.790800
H1021	H102	0.674200	0.723700	0.655100
H1031	H103	0.731400	0.847600	0.642300
H1041	H104	0.838200	0.944900	0.656600
H1051	H105	0.764700	0.989900	0.825200
H1061	H106	0.655300	0.894800	0.816400
H1071	H107	0.750200	0.529800	0.656400
H1081	H108	0.764400	0.582900	0.600800
H1091	H109	0.389300	0.462100	0.349200
H1101	H110	0.285700	0.415100	0.283800
H1111	H111	0.258600	0.213300	0.395600
H1121	H112	0.357900	0.273200	0.460800
H1131	H113	0.201900	0.348900	0.220200
H1141	H114	0.092700	0.294300	0.162700
H1151	H115	0.997200	0.197100	0.207800
H1161	H116	0.135100	0.202000	0.364400
H1171	H117	0.881100	0.954400	0.461700
H1181	H118	0.768700	0.933600	0.529700
H1191	H119	0.664900	0.036700	0.540800
H1201	H120	0.776300	0.174200	0.405100
H1211	H121	0.652400	0.231400	0.392300
H1221	H122	0.555100	0.338200	0.406600
H1231	H123	0.510100	0.264700	0.575200
H1241	H124	0.605200	0.155300	0.566400
H1251	H125	0.970200	0.250200	0.406400
H1261	H126	0.917100	0.264400	0.350800
H1271	H127	0.610700	0.537900	0.849200
H1281	H128	0.714300	0.584900	0.783800
H1291	H129	0.741400	0.786700	0.895600
H1301	H130	0.642100	0.726800	0.960800
H1311	H131	0.798100	0.651100	0.720200
H1321	H132	0.907300	0.705700	0.662700
H1331	H133	0.002800	0.802900	0.707800
H1341	H134	0.864900	0.798000	0.864400
H1351	H135	0.118900	0.045600	0.961700
H1361	H136	0.231300	0.066400	0.029700
H1371	H137	0.335100	0.963300	0.040800
H1381	H138	0.223700	0.825800	0.905100
H1391	H139	0.347600	0.768600	0.892300
H1401	H140	0.444900	0.661800	0.906600
H1411	H141	0.489900	0.735300	0.075200
H1421	H142	0.394800	0.844700	0.066400
H1431	H143	0.029800	0.749800	0.906400
H1441	H144	0.082900	0.735600	0.850800
C11	C1	0.412500	0.359300	0.639800
C21	C2	0.384600	0.297900	0.679500
C31	C3	0.310800	0.253200	0.665200
C41	C4	0.267300	0.281200	0.613700
C51	C5	0.302600	0.342300	0.575600
C61	C6	0.279700	0.181800	0.701800
C71	C7	0.307400	0.166100	0.762100
C81	C8	0.276200	0.100600	0.795900
C91	C9	0.217200	0.044500	0.769600
C101	C10	0.189300	0.060100	0.709700
C111	C11	0.220800	0.126500	0.676800
C121	C12	0.127000	0.003400	0.679600
C131	C13	0.075000	0.907800	0.617200
C141	C14	0.067500	0.838500	0.572700
C151	C15	0.995000	0.837200	0.535400
C161	C16	0.983300	0.771100	0.494700
C171	C17	0.044000	0.708100	0.489100
C181	C18	0.115400	0.707700	0.526800
C191	C19	0.126000	0.775000	0.568900
C201	C20	0.181100	0.642100	0.521300
C211	C21	0.237000	0.624600	0.569000
C221	C22	0.301000	0.566200	0.560000
C231	C23	0.258600	0.540000	0.462500
C241	C24	0.192600	0.597100	0.467400
C251	C25	0.587500	0.640700	0.139800
C261	C26	0.615400	0.702100	0.179500
C271	C27	0.689200	0.746800	0.165200
C281	C28	0.732700	0.718800	0.113700
C291	C29	0.697400	0.657700	0.075600
C301	C30	0.720300	0.818200	0.201800
C311	C31	0.692600	0.833900	0.262100
C321	C32	0.723800	0.899400	0.295900
C331	C33	0.782800	0.955500	0.269600
C341	C34	0.810700	0.939900	0.209700
C351	C35	0.779200	0.873500	0.176800
C361	C36	0.873000	0.996600	0.179600
C371	C37	0.925000	0.092200	0.117200
C381	C38	0.932500	0.161500	0.072700
C391	C39	0.005000	0.162800	0.035400
C401	C40	0.016700	0.228900	0.994700
C411	C41	0.956000	0.291900	0.989100
C421	C42	0.884600	0.292300	0.026800
C431	C43	0.874000	0.225000	0.068900
C441	C44	0.818900	0.357900	0.021300
C451	C45	0.763000	0.375400	0.069000
C461	C46	0.699000	0.433800	0.060000
C471	C47	0.741400	0.460000	0.962500
C481	C48	0.807400	0.402900	0.967400
C491	C49	0.140700	0.912500	0.389800
C501	C50	0.202100	0.884600	0.429500
C511	C51	0.246800	0.810800	0.415200
C521	C52	0.218800	0.767300	0.363700
C531	C53	0.157700	0.802600	0.325600
C541	C54	0.318200	0.779700	0.451800
C551	C55	0.333900	0.807400	0.512100
C561	C56	0.399400	0.776200	0.545900
C571	C57	0.455500	0.717200	0.519600
C581	C58	0.439900	0.689300	0.459700
C591	C59	0.373500	0.720800	0.426800
C601	C60	0.496600	0.627000	0.429600
C611	C61	0.592200	0.575000	0.367200
C621	C62	0.661500	0.567500	0.322700
C631	C63	0.662800	0.495000	0.285400
C641	C64	0.728900	0.483300	0.244700
C651	C65	0.791900	0.544000	0.239100
C661	C66	0.792300	0.615400	0.276800
C671	C67	0.725000	0.626000	0.318900
C681	C68	0.857900	0.681100	0.271300
C691	C69	0.875400	0.737000	0.319000
C701	C70	0.933800	0.801000	0.310000
C711	C71	0.960000	0.758600	0.212500
C721	C72	0.902900	0.692600	0.217400
C731	C73	0.859300	0.087500	0.889800
C741	C74	0.797900	0.115400	0.929500
C751	C75	0.753200	0.189200	0.915200
C761	C76	0.781200	0.232700	0.863700
C771	C77	0.842300	0.197400	0.825600
C781	C78	0.681800	0.220300	0.951800
C791	C79	0.666100	0.192600	0.012100
C801	C80	0.600600	0.223800	0.045900
C811	C81	0.544500	0.282800	0.019600
C821	C82	0.560100	0.310700	0.959700
C831	C83	0.626500	0.279200	0.926800
C841	C84	0.503400	0.373000	0.929600
C851	C85	0.407800	0.425000	0.867200
C861	C86	0.338500	0.432500	0.822700
C871	C87	0.337200	0.505000	0.785400
C881	C88	0.271100	0.516700	0.744700
C891	C89	0.208100	0.456000	0.739100
C901	C90	0.207700	0.384600	0.776800
C911	C91	0.275000	0.374000	0.818900
C921	C92	0.142100	0.318900	0.771300
C931	C93	0.124600	0.263000	0.819000
C941	C94	0.066200	0.199000	0.810000
C951	C95	0.040000	0.241400	0.712500
C961	C96	0.097100	0.307400	0.717400
C971	C97	0.087500	0.859300	0.110200
C981	C98	0.115400	0.797900	0.070500
C991	C99	0.189200	0.753200	0.084800
C1001	C100	0.232700	0.781200	0.136300
C1011	C101	0.197400	0.842300	0.174400
C1021	C102	0.220300	0.681800	0.048200
C1031	C103	0.192600	0.666100	0.987900
C1041	C104	0.223800	0.600600	0.954100
C1051	C105	0.282800	0.544500	0.980400
C1061	C106	0.310700	0.560100	0.040300
C1071	C107	0.279200	0.626500	0.073200
C1081	C108	0.373000	0.503400	0.070400
C1091	C109	0.425000	0.407800	0.132800
C1101	C110	0.432500	0.338500	0.177300
C1111	C111	0.505000	0.337200	0.214600
C1121	C112	0.516700	0.271100	0.255300
C1131	C113	0.456000	0.208100	0.260900
C1141	C114	0.384600	0.207700	0.223200
C1151	C115	0.374000	0.275000	0.181100
C1161	C116	0.318900	0.142100	0.228700
C1171	C117	0.263000	0.124600	0.181000
C1181	C118	0.199000	0.066200	0.190000
C1191	C119	0.241400	0.040000	0.287500
C1201	C120	0.307400	0.097100	0.282600
C1211	C121	0.912500	0.140700	0.610200
C1221	C122	0.884600	0.202100	0.570500
C1231	C123	0.810800	0.246800	0.584800
C1241	C124	0.767300	0.218800	0.636300
C1251	C125	0.802600	0.157700	0.674400
C1261	C126	0.779700	0.318200	0.548200
C1271	C127	0.807400	0.333900	0.487900
C1281	C128	0.776200	0.399400	0.454100
C1291	C129	0.717200	0.455500	0.480400
C1301	C130	0.689300	0.439900	0.540300
C1311	C131	0.720800	0.373500	0.573200
C1321	C132	0.627000	0.496600	0.570400
C1331	C133	0.575000	0.592200	0.632800
C1341	C134	0.567500	0.661500	0.677300
C1351	C135	0.495000	0.662800	0.714600
C1361	C136	0.483300	0.728900	0.755300
C1371	C137	0.544000	0.791900	0.760900
C1381	C138	0.615400	0.792300	0.723200
C1391	C139	0.626000	0.725000	0.681100
C1401	C140	0.681100	0.857900	0.728700
C1411	C141	0.737000	0.875400	0.681000
C1421	C142	0.801000	0.933800	0.690000
C1431	C143	0.758600	0.960000	0.787500
C1441	C144	0.692600	0.902900	0.782600
C1451	C145	0.359300	0.412500	0.360200
C1461	C146	0.297900	0.384600	0.320500
C1471	C147	0.253200	0.310800	0.334800
C1481	C148	0.281200	0.267300	0.386300
C1491	C149	0.342300	0.302600	0.424400
C1501	C150	0.181800	0.279700	0.298200
C1511	C151	0.166100	0.307400	0.237900
C1521	C152	0.100600	0.276200	0.204100
C1531	C153	0.044500	0.217200	0.230400
C1541	C154	0.060100	0.189300	0.290300
C1551	C155	0.126500	0.220800	0.323200
C1561	C156	0.003400	0.127000	0.320400
C1571	C157	0.907800	0.075000	0.382800
C1581	C158	0.838500	0.067500	0.427300
C1591	C159	0.837200	0.995000	0.464600
C1601	C160	0.771100	0.983300	0.505300
C1611	C161	0.708100	0.044000	0.510900
C1621	C162	0.707700	0.115400	0.473200
C1631	C163	0.775000	0.126000	0.431100
C1641	C164	0.642100	0.181100	0.478700
C1651	C165	0.624600	0.237000	0.431000
C1661	C166	0.566200	0.301000	0.440000
C1671	C167	0.540000	0.258600	0.537500
C1681	C168	0.597100	0.192600	0.532600
C1691	C169	0.640700	0.587500	0.860200
C1701	C170	0.702100	0.615400	0.820500
C1711	C171	0.746800	0.689200	0.834800
C1721	C172	0.718800	0.732700	0.886300
C1731	C173	0.657700	0.697400	0.924400
C1741	C174	0.818200	0.720300	0.798200
C1751	C175	0.833900	0.692600	0.737900
C1761	C176	0.899400	0.723800	0.704100
C1771	C177	0.955500	0.782800	0.730400
C1781	C178	0.939900	0.810700	0.790300
C1791	C179	0.873500	0.779200	0.823200
C1801	C180	0.996600	0.873000	0.820400
C1811	C181	0.092200	0.925000	0.882800
C1821	C182	0.161500	0.932500	0.927300
C1831	C183	0.162800	0.005000	0.964600
C1841	C184	0.228900	0.016700	0.005300
C1851	C185	0.291900	0.956000	0.010900
C1861	C186	0.292300	0.884600	0.973200
C1871	C187	0.225000	0.874000	0.931100
C1881	C188	0.357900	0.818900	0.978700
C1891	C189	0.375400	0.763000	0.931000
C1901	C190	0.433800	0.699000	0.940000
C1911	C191	0.460000	0.741400	0.037500
C1921	C192	0.402900	0.807400	0.032600
N11	N1	0.375100	0.379700	0.587800
N21	N2	0.044700	0.005700	0.684500
N31	N3	0.011500	0.945100	0.644500
N41	N4	0.149100	0.942900	0.638000
N51	N5	0.230100	0.926100	0.616100
N61	N6	0.313400	0.524500	0.506800
N71	N7	0.624900	0.620300	0.087800
N81	N8	0.955300	0.994300	0.184500
N91	N9	0.988500	0.054900	0.144500
N101	N10	0.850900	0.057100	0.138000
N111	N11	0.769900	0.073900	0.116100
N121	N12	0.686600	0.475500	0.006800
N131	N13	0.120300	0.875100	0.337800
N141	N14	0.494300	0.544700	0.434500
N151	N15	0.554900	0.511500	0.394500
N161	N16	0.557100	0.649100	0.388000
N171	N17	0.573900	0.730100	0.366100
N181	N18	0.975500	0.813400	0.256800
N191	N19	0.879700	0.124900	0.837800
N201	N20	0.505700	0.455300	0.934500
N211	N21	0.445100	0.488500	0.894500
N221	N22	0.442900	0.350900	0.888000
N231	N23	0.426100	0.269900	0.866100
N241	N24	0.024500	0.186600	0.756800
N251	N25	0.124900	0.879700	0.162200
N261	N26	0.455300	0.505700	0.065500
N271	N27	0.488500	0.445100	0.105500
N281	N28	0.350900	0.442900	0.112000
N291	N29	0.269900	0.426100	0.133900
N301	N30	0.186600	0.024500	0.243200
N311	N31	0.875100	0.120300	0.662200
N321	N32	0.544700	0.494300	0.565500
N331	N33	0.511500	0.554900	0.605500
N341	N34	0.649100	0.557100	0.612000
N351	N35	0.730100	0.573900	0.633900
N361	N36	0.813400	0.975500	0.743200
N371	N37	0.379700	0.375100	0.412200
N381	N38	0.005700	0.044700	0.315500
N391	N39	0.945100	0.011500	0.355500
N401	N40	0.942900	0.149100	0.362000
N411	N41	0.926100	0.230100	0.383900
N421	N42	0.524500	0.313400	0.493200
N431	N43	0.620300	0.624900	0.912200
N441	N44	0.994300	0.955300	0.815500
N451	N45	0.054900	0.988500	0.855500
N461	N46	0.057100	0.850900	0.862000
N471	N47	0.073900	0.769900	0.883900
N481	N48	0.475500	0.686600	0.993200
Cl11	Cl1	0.379160	0.620840	0.250000
O11	O1	0.405000	0.661900	0.191100
O21	O2	0.338300	0.560100	0.218400
O31	O3	0.338100	0.595000	0.308900
O41	O4	0.439900	0.661700	0.281600
Cl21	Cl2	0.620840	0.379160	0.750000
O51	O5	0.595000	0.338100	0.691100
O61	O6	0.661700	0.439900	0.718400
O71	O7	0.661900	0.405000	0.808900
O81	O8	0.560100	0.338300	0.781600
Cl31	Cl3	0.879160	0.879160	0.000000
O91	O9	0.838100	0.905000	0.941100
O101	O10	0.939900	0.838300	0.968400
O111	O11	0.905000	0.838100	0.058900
O121	O12	0.838300	0.939900	0.031600
Cl41	Cl4	0.120840	0.120840	0.500000
O131	O13	0.161900	0.095000	0.441100
O141	O14	0.060100	0.161700	0.468400
O151	O15	0.095000	0.161900	0.558900
O161	O16	0.161700	0.060100	0.531600
Cl51	Cl5	0.269230	0.269230	0.000000
O171	O17	0.235500	0.235000	0.948300
O181	O18	0.343900	0.217700	0.996000
O191	O19	0.235000	0.235500	0.051700
O201	O20	0.217700	0.343900	0.004000
Cl61	Cl6	0.730770	0.730770	0.500000
O211	O21	0.764500	0.765000	0.448300
O221	O22	0.656100	0.782300	0.496000
O231	O23	0.765000	0.764500	0.551700
O241	O24	0.782300	0.656100	0.504000
Cl71	Cl7	0.230770	0.769230	0.750000
O251	O25	0.265000	0.735500	0.698300
O261	O26	0.282300	0.843900	0.746000
O271	O27	0.264500	0.735000	0.801700
O281	O28	0.156100	0.717700	0.754000
Cl81	Cl8	0.769230	0.230770	0.250000
O291	O29	0.735000	0.264500	0.198300
O301	O30	0.717700	0.156100	0.246000
O311	O31	0.735500	0.265000	0.301700
O321	O32	0.843900	0.282300	0.254000
