data_OKITIM02_charged_PM
_symmetry_space_group_name_H-M	'P1'
_cell_length_a	15.877300
_cell_length_b	15.877300
_cell_length_c	21.684000
_cell_angle_alpha	90.000000
_cell_angle_beta	90.000000
_cell_angle_gamma	90.000000
_symmetry_Int_Tables_number 1

loop_
_symmetry_equiv_pos_as_xyz
'x,y,z'

loop_
_atom_site_label
_atom_site_type_symbol
_atom_site_fract_x
_atom_site_fract_y
_atom_site_fract_z
Cd11	Cd1	0.942040	0.057960	0.750000
Cd21	Cd2	0.057960	0.942040	0.250000
Cd31	Cd3	0.442040	0.442040	0.500000
Cd41	Cd4	0.557960	0.557960	0.000000
H11	H1	0.462100	0.390000	0.652400
H21	H2	0.415000	0.284200	0.714600
H31	H3	0.213900	0.259200	0.605100
H41	H4	0.272600	0.357700	0.539400
H51	H5	0.348300	0.202500	0.779900
H61	H6	0.294800	0.092600	0.836600
H71	H7	0.196900	0.997900	0.792100
H81	H8	0.201500	0.134500	0.635600
H91	H9	0.952700	0.878300	0.539400
H101	H10	0.934900	0.769200	0.471000
H111	H11	0.037800	0.666000	0.458700
H121	H12	0.174500	0.775200	0.595100
H131	H13	0.230900	0.651600	0.608300
H141	H14	0.338900	0.554500	0.593200
H151	H15	0.266300	0.511100	0.424000
H161	H16	0.155600	0.606100	0.433800
H171	H17	0.250800	0.969000	0.594500
H181	H18	0.265000	0.915800	0.650100
H191	H19	0.537900	0.610000	0.152400
H201	H20	0.585000	0.715800	0.214600
H211	H21	0.786100	0.740800	0.105100
H221	H22	0.727400	0.642300	0.039400
H231	H23	0.651700	0.797500	0.279900
H241	H24	0.705200	0.907400	0.336600
H251	H25	0.803100	0.002100	0.292100
H261	H26	0.798500	0.865500	0.135600
H271	H27	0.047300	0.121700	0.039400
H281	H28	0.065100	0.230800	0.971000
H291	H29	0.962200	0.334000	0.958700
H301	H30	0.825500	0.224800	0.095100
H311	H31	0.769100	0.348400	0.108300
H321	H32	0.661100	0.445500	0.093200
H331	H33	0.733700	0.488900	0.924000
H341	H34	0.844400	0.393900	0.933800
H351	H35	0.749200	0.031000	0.094500
H361	H36	0.735000	0.084200	0.150100
H371	H37	0.110000	0.962100	0.402400
H381	H38	0.215800	0.915000	0.464600
H391	H39	0.240800	0.713900	0.355100
H401	H40	0.142300	0.772600	0.289400
H411	H41	0.297500	0.848300	0.529900
H421	H42	0.407400	0.794800	0.586600
H431	H43	0.502100	0.696900	0.542100
H441	H44	0.365500	0.701500	0.385600
H451	H45	0.621700	0.452700	0.289400
H461	H46	0.730800	0.434900	0.221000
H471	H47	0.834000	0.537800	0.208700
H481	H48	0.724800	0.674500	0.345100
H491	H49	0.848400	0.730900	0.358300
H501	H50	0.945500	0.838900	0.343200
H511	H51	0.988900	0.766300	0.174000
H521	H52	0.893900	0.655600	0.183800
H531	H53	0.531000	0.750800	0.344500
H541	H54	0.584200	0.765000	0.400100
H551	H55	0.890000	0.037900	0.902400
H561	H56	0.784200	0.085000	0.964600
H571	H57	0.759200	0.286100	0.855100
H581	H58	0.857700	0.227400	0.789400
H591	H59	0.702500	0.151700	0.029900
H601	H60	0.592600	0.205200	0.086600
H611	H61	0.497900	0.303100	0.042100
H621	H62	0.634500	0.298500	0.885600
H631	H63	0.378300	0.547300	0.789400
H641	H64	0.269200	0.565100	0.721000
H651	H65	0.166000	0.462200	0.708700
H661	H66	0.275200	0.325500	0.845100
H671	H67	0.151600	0.269100	0.858300
H681	H68	0.054500	0.161100	0.843200
H691	H69	0.011100	0.233700	0.674000
H701	H70	0.106100	0.344400	0.683800
H711	H71	0.469000	0.249200	0.844500
H721	H72	0.415800	0.235000	0.900100
H731	H73	0.037900	0.890000	0.097600
H741	H74	0.085000	0.784200	0.035400
H751	H75	0.286100	0.759200	0.144900
H761	H76	0.227400	0.857700	0.210600
H771	H77	0.151700	0.702500	0.970100
H781	H78	0.205200	0.592600	0.913400
H791	H79	0.303100	0.497900	0.957900
H801	H80	0.298500	0.634500	0.114400
H811	H81	0.547300	0.378300	0.210600
H821	H82	0.565100	0.269200	0.279000
H831	H83	0.462200	0.166000	0.291300
H841	H84	0.325500	0.275200	0.154900
H851	H85	0.269100	0.151600	0.141700
H861	H86	0.161100	0.054500	0.156800
H871	H87	0.233700	0.011100	0.326000
H881	H88	0.344400	0.106100	0.316200
H891	H89	0.249200	0.469000	0.155500
H901	H90	0.235000	0.415800	0.099900
H911	H91	0.962100	0.110000	0.597600
H921	H92	0.915000	0.215800	0.535400
H931	H93	0.713900	0.240800	0.644900
H941	H94	0.772600	0.142300	0.710600
H951	H95	0.848300	0.297500	0.470100
H961	H96	0.794800	0.407400	0.413400
H971	H97	0.696900	0.502100	0.457900
H981	H98	0.701500	0.365500	0.614400
H991	H99	0.452700	0.621700	0.710600
H1001	H100	0.434900	0.730800	0.779000
H1011	H101	0.537800	0.834000	0.791300
H1021	H102	0.674500	0.724800	0.654900
H1031	H103	0.730900	0.848400	0.641700
H1041	H104	0.838900	0.945500	0.656800
H1051	H105	0.766300	0.988900	0.826000
H1061	H106	0.655600	0.893900	0.816200
H1071	H107	0.750800	0.531000	0.655500
H1081	H108	0.765000	0.584200	0.599900
H1091	H109	0.390000	0.462100	0.347600
H1101	H110	0.284200	0.415000	0.285400
H1111	H111	0.259200	0.213900	0.394900
H1121	H112	0.357700	0.272600	0.460600
H1131	H113	0.202500	0.348300	0.220100
H1141	H114	0.092600	0.294800	0.163400
H1151	H115	0.997900	0.196900	0.207900
H1161	H116	0.134500	0.201500	0.364400
H1171	H117	0.878300	0.952700	0.460600
H1181	H118	0.769200	0.934900	0.529000
H1191	H119	0.666000	0.037800	0.541300
H1201	H120	0.775200	0.174500	0.404900
H1211	H121	0.651600	0.230900	0.391700
H1221	H122	0.554500	0.338900	0.406800
H1231	H123	0.511100	0.266300	0.576000
H1241	H124	0.606100	0.155600	0.566200
H1251	H125	0.969000	0.250800	0.405500
H1261	H126	0.915800	0.265000	0.349900
H1271	H127	0.610000	0.537900	0.847600
H1281	H128	0.715800	0.585000	0.785400
H1291	H129	0.740800	0.786100	0.894900
H1301	H130	0.642300	0.727400	0.960600
H1311	H131	0.797500	0.651700	0.720100
H1321	H132	0.907400	0.705200	0.663400
H1331	H133	0.002100	0.803100	0.707900
H1341	H134	0.865500	0.798500	0.864400
H1351	H135	0.121700	0.047300	0.960600
H1361	H136	0.230800	0.065100	0.029000
H1371	H137	0.334000	0.962200	0.041300
H1381	H138	0.224800	0.825500	0.904900
H1391	H139	0.348400	0.769100	0.891700
H1401	H140	0.445500	0.661100	0.906800
H1411	H141	0.488900	0.733700	0.076000
H1421	H142	0.393900	0.844400	0.066200
H1431	H143	0.031000	0.749200	0.905500
H1441	H144	0.084200	0.735000	0.849900
C11	C1	0.413200	0.359500	0.640500
C21	C2	0.384400	0.297700	0.678300
C31	C3	0.310300	0.253300	0.664600
C41	C4	0.268000	0.281500	0.614100
C51	C5	0.302400	0.342000	0.575600
C61	C6	0.279400	0.181800	0.701400
C71	C7	0.307300	0.166500	0.762100
C81	C8	0.276400	0.100800	0.795400
C91	C9	0.217200	0.044700	0.769200
C101	C10	0.189200	0.059400	0.709100
C111	C11	0.220500	0.125800	0.676700
C121	C12	0.126700	0.003500	0.679800
C131	C13	0.075000	0.908100	0.617400
C141	C14	0.067500	0.838800	0.573000
C151	C15	0.994500	0.835700	0.536000
C161	C16	0.984400	0.771500	0.495500
C171	C17	0.045000	0.708800	0.488900
C181	C18	0.115600	0.708500	0.526300
C191	C19	0.126500	0.774600	0.569000
C201	C20	0.180900	0.642500	0.521600
C211	C21	0.236700	0.624400	0.569500
C221	C22	0.301500	0.565600	0.560000
C231	C23	0.259500	0.540200	0.462000
C241	C24	0.192900	0.597700	0.467500
C251	C25	0.586800	0.640500	0.140500
C261	C26	0.615600	0.702300	0.178300
C271	C27	0.689700	0.746700	0.164600
C281	C28	0.732000	0.718500	0.114100
C291	C29	0.697600	0.658000	0.075600
C301	C30	0.720600	0.818200	0.201400
C311	C31	0.692700	0.833500	0.262100
C321	C32	0.723600	0.899200	0.295400
C331	C33	0.782800	0.955300	0.269200
C341	C34	0.810800	0.940600	0.209100
C351	C35	0.779500	0.874200	0.176700
C361	C36	0.873300	0.996500	0.179800
C371	C37	0.925000	0.091900	0.117400
C381	C38	0.932500	0.161200	0.073000
C391	C39	0.005500	0.164300	0.036000
C401	C40	0.015600	0.228500	0.995500
C411	C41	0.955000	0.291200	0.988900
C421	C42	0.884400	0.291500	0.026300
C431	C43	0.873500	0.225400	0.069000
C441	C44	0.819100	0.357500	0.021600
C451	C45	0.763300	0.375600	0.069500
C461	C46	0.698500	0.434400	0.060000
C471	C47	0.740500	0.459800	0.962000
C481	C48	0.807100	0.402300	0.967500
C491	C49	0.140500	0.913200	0.390500
C501	C50	0.202300	0.884400	0.428300
C511	C51	0.246700	0.810300	0.414600
C521	C52	0.218500	0.768000	0.364100
C531	C53	0.158000	0.802400	0.325600
C541	C54	0.318200	0.779400	0.451400
C551	C55	0.333500	0.807300	0.512100
C561	C56	0.399200	0.776400	0.545400
C571	C57	0.455300	0.717200	0.519200
C581	C58	0.440600	0.689200	0.459100
C591	C59	0.374200	0.720500	0.426700
C601	C60	0.496500	0.626700	0.429800
C611	C61	0.591900	0.575000	0.367400
C621	C62	0.661200	0.567500	0.323000
C631	C63	0.664300	0.494500	0.286000
C641	C64	0.728500	0.484400	0.245500
C651	C65	0.791200	0.545000	0.238900
C661	C66	0.791500	0.615600	0.276300
C671	C67	0.725400	0.626500	0.319000
C681	C68	0.857500	0.680900	0.271600
C691	C69	0.875600	0.736700	0.319500
C701	C70	0.934400	0.801500	0.310000
C711	C71	0.959800	0.759500	0.212000
C721	C72	0.902300	0.692900	0.217500
C731	C73	0.859500	0.086800	0.890500
C741	C74	0.797700	0.115600	0.928300
C751	C75	0.753300	0.189700	0.914600
C761	C76	0.781500	0.232000	0.864100
C771	C77	0.842000	0.197600	0.825600
C781	C78	0.681800	0.220600	0.951400
C791	C79	0.666500	0.192700	0.012100
C801	C80	0.600800	0.223600	0.045400
C811	C81	0.544700	0.282800	0.019200
C821	C82	0.559400	0.310800	0.959100
C831	C83	0.625800	0.279500	0.926700
C841	C84	0.503500	0.373300	0.929800
C851	C85	0.408100	0.425000	0.867400
C861	C86	0.338800	0.432500	0.823000
C871	C87	0.335700	0.505500	0.786000
C881	C88	0.271500	0.515600	0.745500
C891	C89	0.208800	0.455000	0.738900
C901	C90	0.208500	0.384400	0.776300
C911	C91	0.274600	0.373500	0.819000
C921	C92	0.142500	0.319100	0.771600
C931	C93	0.124400	0.263300	0.819500
C941	C94	0.065600	0.198500	0.810000
C951	C95	0.040200	0.240500	0.712000
C961	C96	0.097700	0.307100	0.717500
C971	C97	0.086800	0.859500	0.109500
C981	C98	0.115600	0.797700	0.071700
C991	C99	0.189700	0.753300	0.085400
C1001	C100	0.232000	0.781500	0.135900
C1011	C101	0.197600	0.842000	0.174400
C1021	C102	0.220600	0.681800	0.048600
C1031	C103	0.192700	0.666500	0.987900
C1041	C104	0.223600	0.600800	0.954600
C1051	C105	0.282800	0.544700	0.980800
C1061	C106	0.310800	0.559400	0.040900
C1071	C107	0.279500	0.625800	0.073300
C1081	C108	0.373300	0.503500	0.070200
C1091	C109	0.425000	0.408100	0.132600
C1101	C110	0.432500	0.338800	0.177000
C1111	C111	0.505500	0.335700	0.214000
C1121	C112	0.515600	0.271500	0.254500
C1131	C113	0.455000	0.208800	0.261100
C1141	C114	0.384400	0.208500	0.223700
C1151	C115	0.373500	0.274600	0.181000
C1161	C116	0.319100	0.142500	0.228400
C1171	C117	0.263300	0.124400	0.180500
C1181	C118	0.198500	0.065600	0.190000
C1191	C119	0.240500	0.040200	0.288000
C1201	C120	0.307100	0.097700	0.282500
C1211	C121	0.913200	0.140500	0.609500
C1221	C122	0.884400	0.202300	0.571700
C1231	C123	0.810300	0.246700	0.585400
C1241	C124	0.768000	0.218500	0.635900
C1251	C125	0.802400	0.158000	0.674400
C1261	C126	0.779400	0.318200	0.548600
C1271	C127	0.807300	0.333500	0.487900
C1281	C128	0.776400	0.399200	0.454600
C1291	C129	0.717200	0.455300	0.480800
C1301	C130	0.689200	0.440600	0.540900
C1311	C131	0.720500	0.374200	0.573300
C1321	C132	0.626700	0.496500	0.570200
C1331	C133	0.575000	0.591900	0.632600
C1341	C134	0.567500	0.661200	0.677000
C1351	C135	0.494500	0.664300	0.714000
C1361	C136	0.484400	0.728500	0.754500
C1371	C137	0.545000	0.791200	0.761100
C1381	C138	0.615600	0.791500	0.723700
C1391	C139	0.626500	0.725400	0.681000
C1401	C140	0.680900	0.857500	0.728400
C1411	C141	0.736700	0.875600	0.680500
C1421	C142	0.801500	0.934400	0.690000
C1431	C143	0.759500	0.959800	0.788000
C1441	C144	0.692900	0.902300	0.782500
C1451	C145	0.359500	0.413200	0.359500
C1461	C146	0.297700	0.384400	0.321700
C1471	C147	0.253300	0.310300	0.335400
C1481	C148	0.281500	0.268000	0.385900
C1491	C149	0.342000	0.302400	0.424400
C1501	C150	0.181800	0.279400	0.298600
C1511	C151	0.166500	0.307300	0.237900
C1521	C152	0.100800	0.276400	0.204600
C1531	C153	0.044700	0.217200	0.230800
C1541	C154	0.059400	0.189200	0.290900
C1551	C155	0.125800	0.220500	0.323300
C1561	C156	0.003500	0.126700	0.320200
C1571	C157	0.908100	0.075000	0.382600
C1581	C158	0.838800	0.067500	0.427000
C1591	C159	0.835700	0.994500	0.464000
C1601	C160	0.771500	0.984400	0.504500
C1611	C161	0.708800	0.045000	0.511100
C1621	C162	0.708500	0.115600	0.473700
C1631	C163	0.774600	0.126500	0.431000
C1641	C164	0.642500	0.180900	0.478400
C1651	C165	0.624400	0.236700	0.430500
C1661	C166	0.565600	0.301500	0.440000
C1671	C167	0.540200	0.259500	0.538000
C1681	C168	0.597700	0.192900	0.532500
C1691	C169	0.640500	0.586800	0.859500
C1701	C170	0.702300	0.615600	0.821700
C1711	C171	0.746700	0.689700	0.835400
C1721	C172	0.718500	0.732000	0.885900
C1731	C173	0.658000	0.697600	0.924400
C1741	C174	0.818200	0.720600	0.798600
C1751	C175	0.833500	0.692700	0.737900
C1761	C176	0.899200	0.723600	0.704600
C1771	C177	0.955300	0.782800	0.730800
C1781	C178	0.940600	0.810800	0.790900
C1791	C179	0.874200	0.779500	0.823300
C1801	C180	0.996500	0.873300	0.820200
C1811	C181	0.091900	0.925000	0.882600
C1821	C182	0.161200	0.932500	0.927000
C1831	C183	0.164300	0.005500	0.964000
C1841	C184	0.228500	0.015600	0.004500
C1851	C185	0.291200	0.955000	0.011100
C1861	C186	0.291500	0.884400	0.973700
C1871	C187	0.225400	0.873500	0.931000
C1881	C188	0.357500	0.819100	0.978400
C1891	C189	0.375600	0.763300	0.930500
C1901	C190	0.434400	0.698500	0.940000
C1911	C191	0.459800	0.740500	0.038000
C1921	C192	0.402300	0.807100	0.032500
N11	N1	0.376000	0.379200	0.587700
N21	N2	0.044600	0.005900	0.684500
N31	N3	0.011800	0.945400	0.644400
N41	N4	0.149400	0.943300	0.638200
N51	N5	0.230700	0.924800	0.617000
N61	N6	0.313600	0.524700	0.507400
N71	N7	0.624000	0.620800	0.087700
N81	N8	0.955400	0.994100	0.184500
N91	N9	0.988200	0.054600	0.144400
N101	N10	0.850600	0.056700	0.138200
N111	N11	0.769300	0.075200	0.117000
N121	N12	0.686400	0.475300	0.007400
N131	N13	0.120800	0.876000	0.337700
N141	N14	0.494100	0.544600	0.434500
N151	N15	0.554600	0.511800	0.394400
N161	N16	0.556700	0.649400	0.388200
N171	N17	0.575200	0.730700	0.367000
N181	N18	0.975300	0.813600	0.257400
N191	N19	0.879200	0.124000	0.837700
N201	N20	0.505900	0.455400	0.934500
N211	N21	0.445400	0.488200	0.894400
N221	N22	0.443300	0.350600	0.888200
N231	N23	0.424800	0.269300	0.867000
N241	N24	0.024700	0.186400	0.757400
N251	N25	0.124000	0.879200	0.162300
N261	N26	0.455400	0.505900	0.065500
N271	N27	0.488200	0.445400	0.105600
N281	N28	0.350600	0.443300	0.111800
N291	N29	0.269300	0.424800	0.133000
N301	N30	0.186400	0.024700	0.242600
N311	N31	0.876000	0.120800	0.662300
N321	N32	0.544600	0.494100	0.565500
N331	N33	0.511800	0.554600	0.605600
N341	N34	0.649400	0.556700	0.611800
N351	N35	0.730700	0.575200	0.633000
N361	N36	0.813600	0.975300	0.742600
N371	N37	0.379200	0.376000	0.412300
N381	N38	0.005900	0.044600	0.315500
N391	N39	0.945400	0.011800	0.355600
N401	N40	0.943300	0.149400	0.361800
N411	N41	0.924800	0.230700	0.383000
N421	N42	0.524700	0.313600	0.492600
N431	N43	0.620800	0.624000	0.912300
N441	N44	0.994100	0.955400	0.815500
N451	N45	0.054600	0.988200	0.855600
N461	N46	0.056700	0.850600	0.861800
N471	N47	0.075200	0.769300	0.883000
N481	N48	0.475300	0.686400	0.992600
Cl11	Cl1	0.379600	0.620400	0.250000
O11	O1	0.404500	0.666700	0.191900
O21	O2	0.437900	0.641100	0.287600
O31	O3	0.333300	0.595500	0.308100
O41	O4	0.358900	0.562100	0.212400
Cl21	Cl2	0.620400	0.379600	0.750000
O51	O5	0.595500	0.333300	0.691900
O61	O6	0.562100	0.358900	0.787600
O71	O7	0.666700	0.404500	0.808100
O81	O8	0.641100	0.437900	0.712400
Cl31	Cl3	0.879600	0.879600	0.000000
O91	O9	0.833300	0.904500	0.941900
O101	O10	0.858900	0.937900	0.037600
O111	O11	0.904500	0.833300	0.058100
O121	O12	0.937900	0.858900	0.962400
Cl41	Cl4	0.120400	0.120400	0.500000
O131	O13	0.166700	0.095500	0.441900
O141	O14	0.141100	0.062100	0.537600
O151	O15	0.095500	0.166700	0.558100
O161	O16	0.062100	0.141100	0.462400
Cl51	Cl5	0.269060	0.269060	0.000000
O171	O17	0.236500	0.232000	0.949200
O181	O18	0.345000	0.220500	0.993600
O191	O19	0.232000	0.236500	0.050800
O201	O20	0.220500	0.345000	0.006400
Cl61	Cl6	0.730940	0.730940	0.500000
O211	O21	0.763500	0.768000	0.449200
O221	O22	0.655000	0.779500	0.493600
O231	O23	0.768000	0.763500	0.550800
O241	O24	0.779500	0.655000	0.506400
Cl71	Cl7	0.230940	0.769060	0.750000
O251	O25	0.268000	0.736500	0.699200
O261	O26	0.279500	0.845000	0.743600
O271	O27	0.263500	0.732000	0.800800
O281	O28	0.155000	0.720500	0.756400
Cl81	Cl8	0.769060	0.230940	0.250000
O291	O29	0.732000	0.263500	0.199200
O301	O30	0.720500	0.155000	0.243600
O311	O31	0.736500	0.268000	0.300800
O321	O32	0.845000	0.279500	0.256400
