data_OKIWEL02_charged_PM
_symmetry_space_group_name_H-M	'P1'
_cell_length_a	15.872100
_cell_length_b	15.872100
_cell_length_c	21.636000
_cell_angle_alpha	90.000000
_cell_angle_beta	90.000000
_cell_angle_gamma	90.000000
_symmetry_Int_Tables_number 1

loop_
_symmetry_equiv_pos_as_xyz
'x,y,z'

loop_
_atom_site_label
_atom_site_type_symbol
_atom_site_fract_x
_atom_site_fract_y
_atom_site_fract_z
Cd11	Cd1	0.558310	0.441690	0.250000
Cd21	Cd2	0.441690	0.558310	0.750000
Cd31	Cd3	0.058310	0.058310	0.500000
Cd41	Cd4	0.941690	0.941690	0.000000
H11	H1	0.039300	0.110400	0.349300
H21	H2	0.086600	0.214600	0.283300
H31	H3	0.284900	0.244800	0.397900
H41	H4	0.230300	0.138700	0.459100
H51	H5	0.151900	0.298900	0.219800
H61	H6	0.204300	0.412100	0.164400
H71	H7	0.300800	0.505900	0.208800
H81	H8	0.301600	0.364100	0.364000
H91	H9	0.546100	0.620600	0.460200
H101	H10	0.564400	0.731700	0.530700
H111	H11	0.465300	0.837700	0.537200
H121	H12	0.326700	0.723400	0.404500
H131	H13	0.347200	0.897800	0.564800
H141	H14	0.233900	0.988400	0.575800
H151	H15	0.160000	0.942700	0.407000
H161	H16	0.267800	0.847600	0.391800
H171	H17	0.242800	0.527900	0.392000
H181	H18	0.242000	0.604800	0.353100
H191	H19	0.960700	0.889600	0.849300
H201	H20	0.913400	0.785400	0.783300
H211	H21	0.715100	0.755200	0.897900
H221	H22	0.769700	0.861300	0.959100
H231	H23	0.848100	0.701100	0.719800
H241	H24	0.795700	0.587900	0.664400
H251	H25	0.699200	0.494100	0.708800
H261	H26	0.698400	0.635900	0.864000
H271	H27	0.453900	0.379400	0.960200
H281	H28	0.435600	0.268300	0.030700
H291	H29	0.534700	0.162300	0.037200
H301	H30	0.673300	0.276600	0.904500
H311	H31	0.652800	0.102200	0.064800
H321	H32	0.766100	0.011600	0.075800
H331	H33	0.840000	0.057300	0.907000
H341	H34	0.732200	0.152400	0.891800
H351	H35	0.757200	0.472100	0.892000
H361	H36	0.758000	0.395200	0.853100
H371	H37	0.389600	0.539300	0.599300
H381	H38	0.285400	0.586600	0.533300
H391	H39	0.255200	0.784900	0.647900
H401	H40	0.361300	0.730300	0.709100
H411	H41	0.201100	0.651900	0.469800
H421	H42	0.087900	0.704300	0.414400
H431	H43	0.994100	0.800800	0.458800
H441	H44	0.135900	0.801600	0.614000
H451	H45	0.879400	0.046100	0.710200
H461	H46	0.768300	0.064400	0.780700
H471	H47	0.662300	0.965300	0.787200
H481	H48	0.776600	0.826700	0.654500
H491	H49	0.602200	0.847200	0.814800
H501	H50	0.511600	0.733900	0.825800
H511	H51	0.557300	0.660000	0.657000
H521	H52	0.652400	0.767800	0.641800
H531	H53	0.972100	0.742800	0.642000
H541	H54	0.895200	0.742000	0.603100
H551	H55	0.610400	0.460700	0.099300
H561	H56	0.714600	0.413400	0.033300
H571	H57	0.744800	0.215100	0.147900
H581	H58	0.638700	0.269700	0.209100
H591	H59	0.798900	0.348100	0.969800
H601	H60	0.912100	0.295700	0.914400
H611	H61	0.005900	0.199200	0.958800
H621	H62	0.864100	0.198400	0.114000
H631	H63	0.120600	0.953900	0.210200
H641	H64	0.231700	0.935600	0.280700
H651	H65	0.337700	0.034700	0.287200
H661	H66	0.223400	0.173300	0.154500
H671	H67	0.397800	0.152800	0.314800
H681	H68	0.488400	0.266100	0.325800
H691	H69	0.442700	0.340000	0.157000
H701	H70	0.347600	0.232200	0.141800
H711	H71	0.027900	0.257200	0.142000
H721	H72	0.104800	0.258000	0.103100
H731	H73	0.460700	0.610400	0.900700
H741	H74	0.413400	0.714600	0.966700
H751	H75	0.215100	0.744800	0.852100
H761	H76	0.269700	0.638700	0.790900
H771	H77	0.348100	0.798900	0.030200
H781	H78	0.295700	0.912100	0.085600
H791	H79	0.199200	0.005900	0.041200
H801	H80	0.198400	0.864100	0.886000
H811	H81	0.953900	0.120600	0.789800
H821	H82	0.935600	0.231700	0.719300
H831	H83	0.034700	0.337700	0.712800
H841	H84	0.173300	0.223400	0.845500
H851	H85	0.152800	0.397800	0.685200
H861	H86	0.266100	0.488400	0.674200
H871	H87	0.340000	0.442700	0.843000
H881	H88	0.232200	0.347600	0.858200
H891	H89	0.257200	0.027900	0.858000
H901	H90	0.258000	0.104800	0.896900
H911	H91	0.539300	0.389600	0.400700
H921	H92	0.586600	0.285400	0.466700
H931	H93	0.784900	0.255200	0.352100
H941	H94	0.730300	0.361300	0.290900
H951	H95	0.651900	0.201100	0.530200
H961	H96	0.704300	0.087900	0.585600
H971	H97	0.800800	0.994100	0.541200
H981	H98	0.801600	0.135900	0.386000
H991	H99	0.046100	0.879400	0.289800
H1001	H100	0.064400	0.768300	0.219300
H1011	H101	0.965300	0.662300	0.212800
H1021	H102	0.826700	0.776600	0.345500
H1031	H103	0.847200	0.602200	0.185200
H1041	H104	0.733900	0.511600	0.174200
H1051	H105	0.660000	0.557300	0.343000
H1061	H106	0.767800	0.652400	0.358200
H1071	H107	0.742800	0.972100	0.358000
H1081	H108	0.742000	0.895200	0.396900
H1091	H109	0.110400	0.039300	0.650700
H1101	H110	0.214600	0.086600	0.716700
H1111	H111	0.244800	0.284900	0.602100
H1121	H112	0.138700	0.230300	0.540900
H1131	H113	0.298900	0.151900	0.780200
H1141	H114	0.412100	0.204300	0.835600
H1151	H115	0.505900	0.300800	0.791200
H1161	H116	0.364100	0.301600	0.636000
H1171	H117	0.620600	0.546100	0.539800
H1181	H118	0.731700	0.564400	0.469300
H1191	H119	0.837700	0.465300	0.462800
H1201	H120	0.723400	0.326700	0.595500
H1211	H121	0.897800	0.347200	0.435200
H1221	H122	0.988400	0.233900	0.424200
H1231	H123	0.942700	0.160000	0.593000
H1241	H124	0.847600	0.267800	0.608200
H1251	H125	0.527900	0.242800	0.608000
H1261	H126	0.604800	0.242000	0.646900
H1271	H127	0.889600	0.960700	0.150700
H1281	H128	0.785400	0.913400	0.216700
H1291	H129	0.755200	0.715100	0.102100
H1301	H130	0.861300	0.769700	0.040900
H1311	H131	0.701100	0.848100	0.280200
H1321	H132	0.587900	0.795700	0.335600
H1331	H133	0.494100	0.699200	0.291200
H1341	H134	0.635900	0.698400	0.136000
H1351	H135	0.379400	0.453900	0.039800
H1361	H136	0.268300	0.435600	0.969300
H1371	H137	0.162300	0.534700	0.962800
H1381	H138	0.276600	0.673300	0.095500
H1391	H139	0.102200	0.652800	0.935200
H1401	H140	0.011600	0.766100	0.924200
H1411	H141	0.057300	0.840000	0.093000
H1421	H142	0.152400	0.732200	0.108200
H1431	H143	0.472100	0.757200	0.108000
H1441	H144	0.395200	0.758000	0.146900
C11	C1	0.088700	0.140600	0.360300
C21	C2	0.116700	0.202200	0.320200
C31	C3	0.191400	0.246600	0.335400
C41	C4	0.232500	0.219800	0.387000
C51	C5	0.199200	0.156900	0.424100
C61	C6	0.220600	0.319000	0.297800
C71	C7	0.192600	0.334900	0.238200
C81	C8	0.223400	0.402800	0.205400
C91	C9	0.281700	0.457900	0.231000
C101	C10	0.311300	0.440400	0.290100
C111	C11	0.281400	0.373800	0.323300
C121	C12	0.373900	0.496900	0.320000
C131	C13	0.425300	0.591500	0.382700
C141	C14	0.433300	0.662400	0.427100
C151	C15	0.505100	0.663900	0.463500
C161	C16	0.515900	0.730100	0.504900
C171	C17	0.456800	0.792900	0.508700
C181	C18	0.384800	0.792800	0.471900
C191	C19	0.374800	0.725200	0.430500
C201	C20	0.319300	0.858500	0.477500
C211	C21	0.308500	0.904400	0.531700
C221	C22	0.241400	0.960000	0.537600
C231	C23	0.198400	0.932900	0.439900
C241	C24	0.262600	0.875500	0.430500
C251	C25	0.911300	0.859400	0.860300
C261	C26	0.883300	0.797800	0.820200
C271	C27	0.808600	0.753400	0.835400
C281	C28	0.767500	0.780200	0.887000
C291	C29	0.800800	0.843100	0.924100
C301	C30	0.779400	0.681000	0.797800
C311	C31	0.807400	0.665100	0.738200
C321	C32	0.776600	0.597200	0.705400
C331	C33	0.718300	0.542100	0.731000
C341	C34	0.688700	0.559600	0.790100
C351	C35	0.718600	0.626200	0.823300
C361	C36	0.626100	0.503100	0.820000
C371	C37	0.574700	0.408500	0.882700
C381	C38	0.566700	0.337600	0.927100
C391	C39	0.494900	0.336100	0.963500
C401	C40	0.484100	0.269900	0.004900
C411	C41	0.543200	0.207100	0.008700
C421	C42	0.615200	0.207200	0.971900
C431	C43	0.625200	0.274800	0.930500
C441	C44	0.680700	0.141500	0.977500
C451	C45	0.691500	0.095600	0.031700
C461	C46	0.758600	0.040000	0.037600
C471	C47	0.801600	0.067100	0.939900
C481	C48	0.737400	0.124500	0.930500
C491	C49	0.359400	0.588700	0.610300
C501	C50	0.297800	0.616700	0.570200
C511	C51	0.253400	0.691400	0.585400
C521	C52	0.280200	0.732500	0.637000
C531	C53	0.343100	0.699200	0.674100
C541	C54	0.181000	0.720600	0.547800
C551	C55	0.165100	0.692600	0.488200
C561	C56	0.097200	0.723400	0.455400
C571	C57	0.042100	0.781700	0.481000
C581	C58	0.059600	0.811300	0.540100
C591	C59	0.126200	0.781400	0.573300
C601	C60	0.003100	0.873900	0.570000
C611	C61	0.908500	0.925300	0.632700
C621	C62	0.837600	0.933300	0.677100
C631	C63	0.836100	0.005100	0.713500
C641	C64	0.769900	0.015900	0.754900
C651	C65	0.707100	0.956800	0.758700
C661	C66	0.707200	0.884800	0.721900
C671	C67	0.774800	0.874800	0.680500
C681	C68	0.641500	0.819300	0.727500
C691	C69	0.595600	0.808500	0.781700
C701	C70	0.540000	0.741400	0.787600
C711	C71	0.567100	0.698400	0.689900
C721	C72	0.624500	0.762600	0.680500
C731	C73	0.640600	0.411300	0.110300
C741	C74	0.702200	0.383300	0.070200
C751	C75	0.746600	0.308600	0.085400
C761	C76	0.719800	0.267500	0.137000
C771	C77	0.656900	0.300800	0.174100
C781	C78	0.819000	0.279400	0.047800
C791	C79	0.834900	0.307400	0.988200
C801	C80	0.902800	0.276600	0.955400
C811	C81	0.957900	0.218300	0.981000
C821	C82	0.940400	0.188700	0.040100
C831	C83	0.873800	0.218600	0.073300
C841	C84	0.996900	0.126100	0.070000
C851	C85	0.091500	0.074700	0.132700
C861	C86	0.162400	0.066700	0.177100
C871	C87	0.163900	0.994900	0.213500
C881	C88	0.230100	0.984100	0.254900
C891	C89	0.292900	0.043200	0.258700
C901	C90	0.292800	0.115200	0.221900
C911	C91	0.225200	0.125200	0.180500
C921	C92	0.358500	0.180700	0.227500
C931	C93	0.404400	0.191500	0.281700
C941	C94	0.460000	0.258600	0.287600
C951	C95	0.432900	0.301600	0.189900
C961	C96	0.375500	0.237400	0.180500
C971	C97	0.411300	0.640600	0.889700
C981	C98	0.383300	0.702200	0.929800
C991	C99	0.308600	0.746600	0.914600
C1001	C100	0.267500	0.719800	0.863000
C1011	C101	0.300800	0.656900	0.825900
C1021	C102	0.279400	0.819000	0.952200
C1031	C103	0.307400	0.834900	0.011800
C1041	C104	0.276600	0.902800	0.044600
C1051	C105	0.218300	0.957900	0.019000
C1061	C106	0.188700	0.940400	0.959900
C1071	C107	0.218600	0.873800	0.926700
C1081	C108	0.126100	0.996900	0.930000
C1091	C109	0.074700	0.091500	0.867300
C1101	C110	0.066700	0.162400	0.822900
C1111	C111	0.994900	0.163900	0.786500
C1121	C112	0.984100	0.230100	0.745100
C1131	C113	0.043200	0.292900	0.741300
C1141	C114	0.115200	0.292800	0.778100
C1151	C115	0.125200	0.225200	0.819500
C1161	C116	0.180700	0.358500	0.772500
C1171	C117	0.191500	0.404400	0.718300
C1181	C118	0.258600	0.460000	0.712400
C1191	C119	0.301600	0.432900	0.810100
C1201	C120	0.237400	0.375500	0.819500
C1211	C121	0.588700	0.359400	0.389700
C1221	C122	0.616700	0.297800	0.429800
C1231	C123	0.691400	0.253400	0.414600
C1241	C124	0.732500	0.280200	0.363000
C1251	C125	0.699200	0.343100	0.325900
C1261	C126	0.720600	0.181000	0.452200
C1271	C127	0.692600	0.165100	0.511800
C1281	C128	0.723400	0.097200	0.544600
C1291	C129	0.781700	0.042100	0.519000
C1301	C130	0.811300	0.059600	0.459900
C1311	C131	0.781400	0.126200	0.426700
C1321	C132	0.873900	0.003100	0.430000
C1331	C133	0.925300	0.908500	0.367300
C1341	C134	0.933300	0.837600	0.322900
C1351	C135	0.005100	0.836100	0.286500
C1361	C136	0.015900	0.769900	0.245100
C1371	C137	0.956800	0.707100	0.241300
C1381	C138	0.884800	0.707200	0.278100
C1391	C139	0.874800	0.774800	0.319500
C1401	C140	0.819300	0.641500	0.272500
C1411	C141	0.808500	0.595600	0.218300
C1421	C142	0.741400	0.540000	0.212400
C1431	C143	0.698400	0.567100	0.310100
C1441	C144	0.762600	0.624500	0.319500
C1451	C145	0.140600	0.088700	0.639700
C1461	C146	0.202200	0.116700	0.679800
C1471	C147	0.246600	0.191400	0.664600
C1481	C148	0.219800	0.232500	0.613000
C1491	C149	0.156900	0.199200	0.575900
C1501	C150	0.319000	0.220600	0.702200
C1511	C151	0.334900	0.192600	0.761800
C1521	C152	0.402800	0.223400	0.794600
C1531	C153	0.457900	0.281700	0.769000
C1541	C154	0.440400	0.311300	0.709900
C1551	C155	0.373800	0.281400	0.676700
C1561	C156	0.496900	0.373900	0.680000
C1571	C157	0.591500	0.425300	0.617300
C1581	C158	0.662400	0.433300	0.572900
C1591	C159	0.663900	0.505100	0.536500
C1601	C160	0.730100	0.515900	0.495100
C1611	C161	0.792900	0.456800	0.491300
C1621	C162	0.792800	0.384800	0.528100
C1631	C163	0.725200	0.374800	0.569500
C1641	C164	0.858500	0.319300	0.522500
C1651	C165	0.904400	0.308500	0.468300
C1661	C166	0.960000	0.241400	0.462400
C1671	C167	0.932900	0.198400	0.560100
C1681	C168	0.875500	0.262600	0.569500
C1691	C169	0.859400	0.911300	0.139700
C1701	C170	0.797800	0.883300	0.179800
C1711	C171	0.753400	0.808600	0.164600
C1721	C172	0.780200	0.767500	0.113000
C1731	C173	0.843100	0.800800	0.075900
C1741	C174	0.681000	0.779400	0.202200
C1751	C175	0.665100	0.807400	0.261800
C1761	C176	0.597200	0.776600	0.294600
C1771	C177	0.542100	0.718300	0.269000
C1781	C178	0.559600	0.688700	0.209900
C1791	C179	0.626200	0.718600	0.176700
C1801	C180	0.503100	0.626100	0.180000
C1811	C181	0.408500	0.574700	0.117300
C1821	C182	0.337600	0.566700	0.072900
C1831	C183	0.336100	0.494900	0.036500
C1841	C184	0.269900	0.484100	0.995100
C1851	C185	0.207100	0.543200	0.991300
C1861	C186	0.207200	0.615200	0.028100
C1871	C187	0.274800	0.625200	0.069500
C1881	C188	0.141500	0.680700	0.022500
C1891	C189	0.095600	0.691500	0.968300
C1901	C190	0.040000	0.758600	0.962400
C1911	C191	0.067100	0.801600	0.060100
C1921	C192	0.124500	0.737400	0.069500
N11	N1	0.125300	0.121100	0.412300
N21	N2	0.455600	0.493900	0.316300
N31	N3	0.489000	0.554700	0.355700
N41	N4	0.351900	0.557600	0.361500
N51	N5	0.270400	0.576600	0.383000
N61	N6	0.187100	0.975200	0.492000
N71	N7	0.874700	0.878900	0.912300
N81	N8	0.544400	0.506100	0.816300
N91	N9	0.511000	0.445300	0.855700
N101	N10	0.648100	0.442400	0.861500
N111	N11	0.729600	0.423400	0.883000
N121	N12	0.812900	0.024800	0.992000
N131	N13	0.378900	0.625300	0.662300
N141	N14	0.006100	0.955600	0.566300
N151	N15	0.945300	0.989000	0.605700
N161	N16	0.942400	0.851900	0.611500
N171	N17	0.923400	0.770400	0.633000
N181	N18	0.524800	0.687100	0.742000
N191	N19	0.621100	0.374700	0.162300
N201	N20	0.993900	0.044400	0.066300
N211	N21	0.054700	0.011000	0.105700
N221	N22	0.057600	0.148100	0.111500
N231	N23	0.076600	0.229600	0.133000
N241	N24	0.475200	0.312900	0.242000
N251	N25	0.374700	0.621100	0.837700
N261	N26	0.044400	0.993900	0.933700
N271	N27	0.011000	0.054700	0.894300
N281	N28	0.148100	0.057600	0.888500
N291	N29	0.229600	0.076600	0.867000
N301	N30	0.312900	0.475200	0.758000
N311	N31	0.625300	0.378900	0.337700
N321	N32	0.955600	0.006100	0.433700
N331	N33	0.989000	0.945300	0.394300
N341	N34	0.851900	0.942400	0.388500
N351	N35	0.770400	0.923400	0.367000
N361	N36	0.687100	0.524800	0.258000
N371	N37	0.121100	0.125300	0.587700
N381	N38	0.493900	0.455600	0.683700
N391	N39	0.554700	0.489000	0.644300
N401	N40	0.557600	0.351900	0.638500
N411	N41	0.576600	0.270400	0.617000
N421	N42	0.975200	0.187100	0.508000
N431	N43	0.878900	0.874700	0.087700
N441	N44	0.506100	0.544400	0.183700
N451	N45	0.445300	0.511000	0.144300
N461	N46	0.442400	0.648100	0.138500
N471	N47	0.423400	0.729600	0.117000
N481	N48	0.024800	0.812900	0.008000
Cl11	Cl1	0.230770	0.230770	0.000000
O11	O1	0.261300	0.268100	0.052800
O21	O2	0.286300	0.155900	0.008000
O31	O3	0.268100	0.261300	0.947200
O41	O4	0.155900	0.286300	0.992000
Cl21	Cl2	0.620080	0.620080	0.000000
O51	O5	0.654700	0.552800	0.969200
O61	O6	0.672900	0.595300	0.050700
O71	O7	0.552800	0.654700	0.030800
O81	O8	0.595300	0.672900	0.949300
Cl31	Cl3	0.769230	0.769230	0.500000
O91	O9	0.738700	0.731900	0.552800
O101	O10	0.713700	0.844100	0.508000
O111	O11	0.731900	0.738700	0.447200
O121	O12	0.844100	0.713700	0.492000
Cl41	Cl4	0.379920	0.379920	0.500000
O131	O13	0.345300	0.447200	0.469200
O141	O14	0.327100	0.404700	0.550700
O151	O15	0.447200	0.345300	0.530800
O161	O16	0.404700	0.327100	0.449300
Cl51	Cl5	0.269230	0.730770	0.250000
O171	O17	0.231900	0.761300	0.302800
O181	O18	0.344100	0.786300	0.258000
O191	O19	0.238700	0.768100	0.197200
O201	O20	0.213700	0.655900	0.242000
Cl61	Cl6	0.879920	0.120080	0.250000
O211	O21	0.947200	0.154700	0.219200
O221	O22	0.904700	0.172900	0.300700
O231	O23	0.845300	0.052800	0.280800
O241	O24	0.827100	0.095300	0.199300
Cl71	Cl7	0.730770	0.269230	0.750000
O251	O25	0.768100	0.238700	0.802800
O261	O26	0.655900	0.213700	0.758000
O271	O27	0.761300	0.231900	0.697200
O281	O28	0.786300	0.344100	0.742000
Cl81	Cl8	0.120080	0.879920	0.750000
O291	O29	0.052800	0.845300	0.719200
O301	O30	0.095300	0.827100	0.800700
O311	O31	0.154700	0.947200	0.780800
O321	O32	0.172900	0.904700	0.699300
