data_OKIWEL_charged_PM
_symmetry_space_group_name_H-M	'P1'
_cell_length_a	15.873100
_cell_length_b	15.873100
_cell_length_c	21.776000
_cell_angle_alpha	90.000000
_cell_angle_beta	90.000000
_cell_angle_gamma	90.000000
_symmetry_Int_Tables_number 1

loop_
_symmetry_equiv_pos_as_xyz
'x,y,z'

loop_
_atom_site_label
_atom_site_type_symbol
_atom_site_fract_x
_atom_site_fract_y
_atom_site_fract_z
Cd11	Cd1	0.557860	0.442140	0.250000
Cd21	Cd2	0.442140	0.557860	0.750000
Cd31	Cd3	0.057860	0.057860	0.500000
Cd41	Cd4	0.942140	0.942140	0.000000
H11	H1	0.036500	0.111900	0.349600
H21	H2	0.083900	0.215000	0.284800
H31	H3	0.284600	0.243100	0.397200
H41	H4	0.227400	0.140900	0.459900
H51	H5	0.152600	0.296200	0.220000
H61	H6	0.204500	0.409800	0.164000
H71	H7	0.303000	0.503600	0.208400
H81	H8	0.297600	0.366400	0.364400
H91	H9	0.544800	0.619500	0.461200
H101	H10	0.563800	0.729200	0.529200
H111	H11	0.464800	0.833300	0.539100
H121	H12	0.325000	0.723400	0.404300
H131	H13	0.344400	0.892600	0.565200
H141	H14	0.233800	0.989100	0.574400
H151	H15	0.160400	0.943000	0.406000
H161	H16	0.266400	0.848000	0.390900
H171	H17	0.241300	0.527000	0.391000
H181	H18	0.240500	0.603900	0.352200
H191	H19	0.963500	0.888100	0.849600
H201	H20	0.916100	0.785000	0.784800
H211	H21	0.715400	0.756900	0.897200
H221	H22	0.772600	0.859100	0.959900
H231	H23	0.847400	0.703800	0.720000
H241	H24	0.795500	0.590200	0.664000
H251	H25	0.697000	0.496400	0.708400
H261	H26	0.702400	0.633600	0.864400
H271	H27	0.455200	0.380500	0.961200
H281	H28	0.436200	0.270800	0.029200
H291	H29	0.535200	0.166700	0.039100
H301	H30	0.675000	0.276600	0.904300
H311	H31	0.655600	0.107400	0.065200
H321	H32	0.766200	0.010900	0.074400
H331	H33	0.839600	0.057000	0.906000
H341	H34	0.733600	0.152000	0.890900
H351	H35	0.758700	0.473000	0.891000
H361	H36	0.759500	0.396100	0.852200
H371	H37	0.388100	0.536500	0.599600
H381	H38	0.285000	0.583900	0.534800
H391	H39	0.256900	0.784600	0.647200
H401	H40	0.359100	0.727400	0.709900
H411	H41	0.203800	0.652600	0.470000
H421	H42	0.090200	0.704500	0.414000
H431	H43	0.996400	0.803000	0.458400
H441	H44	0.133600	0.797600	0.614400
H451	H45	0.880500	0.044800	0.711200
H461	H46	0.770800	0.063800	0.779200
H471	H47	0.666700	0.964800	0.789100
H481	H48	0.776600	0.825000	0.654300
H491	H49	0.607400	0.844400	0.815200
H501	H50	0.510900	0.733800	0.824400
H511	H51	0.557000	0.660400	0.656000
H521	H52	0.652000	0.766400	0.640900
H531	H53	0.973000	0.741300	0.641000
H541	H54	0.896100	0.740500	0.602200
H551	H55	0.611900	0.463500	0.099600
H561	H56	0.715000	0.416100	0.034800
H571	H57	0.743100	0.215400	0.147200
H581	H58	0.640900	0.272600	0.209900
H591	H59	0.796200	0.347400	0.970000
H601	H60	0.909800	0.295500	0.914000
H611	H61	0.003600	0.197000	0.958400
H621	H62	0.866400	0.202400	0.114400
H631	H63	0.119500	0.955200	0.211200
H641	H64	0.229200	0.936200	0.279200
H651	H65	0.333300	0.035200	0.289100
H661	H66	0.223400	0.175000	0.154300
H671	H67	0.392600	0.155600	0.315200
H681	H68	0.489100	0.266200	0.324400
H691	H69	0.443000	0.339600	0.156000
H701	H70	0.348000	0.233600	0.140900
H711	H71	0.027000	0.258700	0.141000
H721	H72	0.103900	0.259500	0.102200
H731	H73	0.463500	0.611900	0.900400
H741	H74	0.416100	0.715000	0.965200
H751	H75	0.215400	0.743100	0.852800
H761	H76	0.272600	0.640900	0.790100
H771	H77	0.347400	0.796200	0.030000
H781	H78	0.295500	0.909800	0.086000
H791	H79	0.197000	0.003600	0.041600
H801	H80	0.202400	0.866400	0.885600
H811	H81	0.955200	0.119500	0.788800
H821	H82	0.936200	0.229200	0.720800
H831	H83	0.035200	0.333300	0.710900
H841	H84	0.175000	0.223400	0.845700
H851	H85	0.155600	0.392600	0.684800
H861	H86	0.266200	0.489100	0.675600
H871	H87	0.339600	0.443000	0.844000
H881	H88	0.233600	0.348000	0.859100
H891	H89	0.258700	0.027000	0.859000
H901	H90	0.259500	0.103900	0.897800
H911	H91	0.536500	0.388100	0.400400
H921	H92	0.583900	0.285000	0.465200
H931	H93	0.784600	0.256900	0.352800
H941	H94	0.727400	0.359100	0.290100
H951	H95	0.652600	0.203800	0.530000
H961	H96	0.704500	0.090200	0.586000
H971	H97	0.803000	0.996400	0.541600
H981	H98	0.797600	0.133600	0.385600
H991	H99	0.044800	0.880500	0.288800
H1001	H100	0.063800	0.770800	0.220800
H1011	H101	0.964800	0.666700	0.210900
H1021	H102	0.825000	0.776600	0.345700
H1031	H103	0.844400	0.607400	0.184800
H1041	H104	0.733800	0.510900	0.175600
H1051	H105	0.660400	0.557000	0.344000
H1061	H106	0.766400	0.652000	0.359100
H1071	H107	0.741300	0.973000	0.359000
H1081	H108	0.740500	0.896100	0.397800
H1091	H109	0.111900	0.036500	0.650400
H1101	H110	0.215000	0.083900	0.715200
H1111	H111	0.243100	0.284600	0.602800
H1121	H112	0.140900	0.227400	0.540100
H1131	H113	0.296200	0.152600	0.780000
H1141	H114	0.409800	0.204500	0.836000
H1151	H115	0.503600	0.303000	0.791600
H1161	H116	0.366400	0.297600	0.635600
H1171	H117	0.619500	0.544800	0.538800
H1181	H118	0.729200	0.563800	0.470800
H1191	H119	0.833300	0.464800	0.460900
H1201	H120	0.723400	0.325000	0.595700
H1211	H121	0.892600	0.344400	0.434800
H1221	H122	0.989100	0.233800	0.425600
H1231	H123	0.943000	0.160400	0.594000
H1241	H124	0.848000	0.266400	0.609100
H1251	H125	0.527000	0.241300	0.609000
H1261	H126	0.603900	0.240500	0.647800
H1271	H127	0.888100	0.963500	0.150400
H1281	H128	0.785000	0.916100	0.215200
H1291	H129	0.756900	0.715400	0.102800
H1301	H130	0.859100	0.772600	0.040100
H1311	H131	0.703800	0.847400	0.280000
H1321	H132	0.590200	0.795500	0.336000
H1331	H133	0.496400	0.697000	0.291600
H1341	H134	0.633600	0.702400	0.135600
H1351	H135	0.380500	0.455200	0.038800
H1361	H136	0.270800	0.436200	0.970800
H1371	H137	0.166700	0.535200	0.960900
H1381	H138	0.276600	0.675000	0.095700
H1391	H139	0.107400	0.655600	0.934800
H1401	H140	0.010900	0.766200	0.925600
H1411	H141	0.057000	0.839600	0.094000
H1421	H142	0.152000	0.733600	0.109100
H1431	H143	0.473000	0.758700	0.109000
H1441	H144	0.396100	0.759500	0.147800
C11	C1	0.086400	0.141400	0.360400
C21	C2	0.114300	0.202600	0.321300
C31	C3	0.188500	0.247000	0.335600
C41	C4	0.231400	0.219400	0.387200
C51	C5	0.197200	0.157500	0.424200
C61	C6	0.218500	0.319300	0.298400
C71	C7	0.192300	0.333300	0.238300
C81	C8	0.223300	0.400900	0.204900
C91	C9	0.282500	0.456600	0.230900
C101	C10	0.309900	0.440800	0.290300
C111	C11	0.278500	0.374900	0.323500
C121	C12	0.371900	0.496900	0.319700
C131	C13	0.424300	0.591600	0.381900
C141	C14	0.432600	0.661600	0.426300
C151	C15	0.504000	0.663200	0.463800
C161	C16	0.514700	0.727700	0.504200
C171	C17	0.456400	0.790000	0.509600
C181	C18	0.382900	0.792000	0.471800
C191	C19	0.373100	0.725100	0.430100
C201	C20	0.318100	0.857700	0.478000
C211	C21	0.307200	0.901400	0.531700
C221	C22	0.240400	0.959500	0.536800
C231	C23	0.198300	0.932500	0.439000
C241	C24	0.261000	0.875500	0.429400
C251	C25	0.913600	0.858600	0.860400
C261	C26	0.885700	0.797400	0.821300
C271	C27	0.811500	0.753000	0.835600
C281	C28	0.768600	0.780600	0.887200
C291	C29	0.802800	0.842500	0.924200
C301	C30	0.781500	0.680700	0.798400
C311	C31	0.807700	0.666700	0.738300
C321	C32	0.776700	0.599100	0.704900
C331	C33	0.717500	0.543400	0.730900
C341	C34	0.690100	0.559200	0.790300
C351	C35	0.721500	0.625100	0.823500
C361	C36	0.628100	0.503100	0.819700
C371	C37	0.575700	0.408400	0.881900
C381	C38	0.567400	0.338400	0.926300
C391	C39	0.496000	0.336800	0.963800
C401	C40	0.485300	0.272300	0.004200
C411	C41	0.543600	0.210000	0.009600
C421	C42	0.617100	0.208000	0.971800
C431	C43	0.626900	0.274900	0.930100
C441	C44	0.681900	0.142300	0.978000
C451	C45	0.692800	0.098600	0.031700
C461	C46	0.759600	0.040500	0.036800
C471	C47	0.801700	0.067500	0.939000
C481	C48	0.739000	0.124500	0.929400
C491	C49	0.358600	0.586400	0.610400
C501	C50	0.297400	0.614300	0.571300
C511	C51	0.253000	0.688500	0.585600
C521	C52	0.280600	0.731400	0.637200
C531	C53	0.342500	0.697200	0.674200
C541	C54	0.180700	0.718500	0.548400
C551	C55	0.166700	0.692300	0.488300
C561	C56	0.099100	0.723300	0.454900
C571	C57	0.043400	0.782500	0.480900
C581	C58	0.059200	0.809900	0.540300
C591	C59	0.125100	0.778500	0.573500
C601	C60	0.003100	0.871900	0.569700
C611	C61	0.908400	0.924300	0.631900
C621	C62	0.838400	0.932600	0.676300
C631	C63	0.836800	0.004000	0.713800
C641	C64	0.772300	0.014700	0.754200
C651	C65	0.710000	0.956400	0.759600
C661	C66	0.708000	0.882900	0.721800
C671	C67	0.774900	0.873100	0.680100
C681	C68	0.642300	0.818100	0.728000
C691	C69	0.598600	0.807200	0.781700
C701	C70	0.540500	0.740400	0.786800
C711	C71	0.567500	0.698300	0.689000
C721	C72	0.624500	0.761000	0.679400
C731	C73	0.641400	0.413600	0.110400
C741	C74	0.702600	0.385700	0.071300
C751	C75	0.747000	0.311500	0.085600
C761	C76	0.719400	0.268600	0.137200
C771	C77	0.657500	0.302800	0.174200
C781	C78	0.819300	0.281500	0.048400
C791	C79	0.833300	0.307700	0.988300
C801	C80	0.900900	0.276700	0.954900
C811	C81	0.956600	0.217500	0.980900
C821	C82	0.940800	0.190100	0.040300
C831	C83	0.874900	0.221500	0.073500
C841	C84	0.996900	0.128100	0.069700
C851	C85	0.091600	0.075700	0.131900
C861	C86	0.161600	0.067400	0.176300
C871	C87	0.163200	0.996000	0.213800
C881	C88	0.227700	0.985300	0.254200
C891	C89	0.290000	0.043600	0.259600
C901	C90	0.292000	0.117100	0.221800
C911	C91	0.225100	0.126900	0.180100
C921	C92	0.357700	0.181900	0.228000
C931	C93	0.401400	0.192800	0.281700
C941	C94	0.459500	0.259600	0.286800
C951	C95	0.432500	0.301700	0.189000
C961	C96	0.375500	0.239000	0.179400
C971	C97	0.413600	0.641400	0.889600
C981	C98	0.385700	0.702600	0.928700
C991	C99	0.311500	0.747000	0.914400
C1001	C100	0.268600	0.719400	0.862800
C1011	C101	0.302800	0.657500	0.825800
C1021	C102	0.281500	0.819300	0.951600
C1031	C103	0.307700	0.833300	0.011700
C1041	C104	0.276700	0.900900	0.045100
C1051	C105	0.217500	0.956600	0.019100
C1061	C106	0.190100	0.940800	0.959700
C1071	C107	0.221500	0.874900	0.926500
C1081	C108	0.128100	0.996900	0.930300
C1091	C109	0.075700	0.091600	0.868100
C1101	C110	0.067400	0.161600	0.823700
C1111	C111	0.996000	0.163200	0.786200
C1121	C112	0.985300	0.227700	0.745800
C1131	C113	0.043600	0.290000	0.740400
C1141	C114	0.117100	0.292000	0.778200
C1151	C115	0.126900	0.225100	0.819900
C1161	C116	0.181900	0.357700	0.772000
C1171	C117	0.192800	0.401400	0.718300
C1181	C118	0.259600	0.459500	0.713200
C1191	C119	0.301700	0.432500	0.811000
C1201	C120	0.239000	0.375500	0.820600
C1211	C121	0.586400	0.358600	0.389600
C1221	C122	0.614300	0.297400	0.428700
C1231	C123	0.688500	0.253000	0.414400
C1241	C124	0.731400	0.280600	0.362800
C1251	C125	0.697200	0.342500	0.325800
C1261	C126	0.718500	0.180700	0.451600
C1271	C127	0.692300	0.166700	0.511700
C1281	C128	0.723300	0.099100	0.545100
C1291	C129	0.782500	0.043400	0.519100
C1301	C130	0.809900	0.059200	0.459700
C1311	C131	0.778500	0.125100	0.426500
C1321	C132	0.871900	0.003100	0.430300
C1331	C133	0.924300	0.908400	0.368100
C1341	C134	0.932600	0.838400	0.323700
C1351	C135	0.004000	0.836800	0.286200
C1361	C136	0.014700	0.772300	0.245800
C1371	C137	0.956400	0.710000	0.240400
C1381	C138	0.882900	0.708000	0.278200
C1391	C139	0.873100	0.774900	0.319900
C1401	C140	0.818100	0.642300	0.272000
C1411	C141	0.807200	0.598600	0.218300
C1421	C142	0.740400	0.540500	0.213200
C1431	C143	0.698300	0.567500	0.311000
C1441	C144	0.761000	0.624500	0.320600
C1451	C145	0.141400	0.086400	0.639600
C1461	C146	0.202600	0.114300	0.678700
C1471	C147	0.247000	0.188500	0.664400
C1481	C148	0.219400	0.231400	0.612800
C1491	C149	0.157500	0.197200	0.575800
C1501	C150	0.319300	0.218500	0.701600
C1511	C151	0.333300	0.192300	0.761700
C1521	C152	0.400900	0.223300	0.795100
C1531	C153	0.456600	0.282500	0.769100
C1541	C154	0.440800	0.309900	0.709700
C1551	C155	0.374900	0.278500	0.676500
C1561	C156	0.496900	0.371900	0.680300
C1571	C157	0.591600	0.424300	0.618100
C1581	C158	0.661600	0.432600	0.573700
C1591	C159	0.663200	0.504000	0.536200
C1601	C160	0.727700	0.514700	0.495800
C1611	C161	0.790000	0.456400	0.490400
C1621	C162	0.792000	0.382900	0.528200
C1631	C163	0.725100	0.373100	0.569900
C1641	C164	0.857700	0.318100	0.522000
C1651	C165	0.901400	0.307200	0.468300
C1661	C166	0.959500	0.240400	0.463200
C1671	C167	0.932500	0.198300	0.561000
C1681	C168	0.875500	0.261000	0.570600
C1691	C169	0.858600	0.913600	0.139600
C1701	C170	0.797400	0.885700	0.178700
C1711	C171	0.753000	0.811500	0.164400
C1721	C172	0.780600	0.768600	0.112800
C1731	C173	0.842500	0.802800	0.075800
C1741	C174	0.680700	0.781500	0.201600
C1751	C175	0.666700	0.807700	0.261700
C1761	C176	0.599100	0.776700	0.295100
C1771	C177	0.543400	0.717500	0.269100
C1781	C178	0.559200	0.690100	0.209700
C1791	C179	0.625100	0.721500	0.176500
C1801	C180	0.503100	0.628100	0.180300
C1811	C181	0.408400	0.575700	0.118100
C1821	C182	0.338400	0.567400	0.073700
C1831	C183	0.336800	0.496000	0.036200
C1841	C184	0.272300	0.485300	0.995800
C1851	C185	0.210000	0.543600	0.990400
C1861	C186	0.208000	0.617100	0.028200
C1871	C187	0.274900	0.626900	0.069900
C1881	C188	0.142300	0.681900	0.022000
C1891	C189	0.098600	0.692800	0.968300
C1901	C190	0.040500	0.759600	0.963200
C1911	C191	0.067500	0.801700	0.061000
C1921	C192	0.124500	0.739000	0.070600
N11	N1	0.124200	0.120200	0.412600
N21	N2	0.455200	0.494600	0.316000
N31	N3	0.487900	0.554100	0.355100
N41	N4	0.350700	0.556600	0.360900
N51	N5	0.268900	0.575700	0.382100
N61	N6	0.186100	0.975000	0.491600
N71	N7	0.875800	0.879800	0.912600
N81	N8	0.544800	0.505400	0.816000
N91	N9	0.512100	0.445900	0.855100
N101	N10	0.649300	0.443400	0.860900
N111	N11	0.731100	0.424300	0.882100
N121	N12	0.813900	0.025000	0.991600
N131	N13	0.379800	0.624200	0.662600
N141	N14	0.005400	0.955200	0.566000
N151	N15	0.945900	0.987900	0.605100
N161	N16	0.943400	0.850700	0.610900
N171	N17	0.924300	0.768900	0.632100
N181	N18	0.525000	0.686100	0.741600
N191	N19	0.620200	0.375800	0.162600
N201	N20	0.994600	0.044800	0.066000
N211	N21	0.054100	0.012100	0.105100
N221	N22	0.056600	0.149300	0.110900
N231	N23	0.075700	0.231100	0.132100
N241	N24	0.475000	0.313900	0.241600
N251	N25	0.375800	0.620200	0.837400
N261	N26	0.044800	0.994600	0.934000
N271	N27	0.012100	0.054100	0.894900
N281	N28	0.149300	0.056600	0.889100
N291	N29	0.231100	0.075700	0.867900
N301	N30	0.313900	0.475000	0.758400
N311	N31	0.624200	0.379800	0.337400
N321	N32	0.955200	0.005400	0.434000
N331	N33	0.987900	0.945900	0.394900
N341	N34	0.850700	0.943400	0.389100
N351	N35	0.768900	0.924300	0.367900
N361	N36	0.686100	0.525000	0.258400
N371	N37	0.120200	0.124200	0.587400
N381	N38	0.494600	0.455200	0.684000
N391	N39	0.554100	0.487900	0.644900
N401	N40	0.556600	0.350700	0.639100
N411	N41	0.575700	0.268900	0.617900
N421	N42	0.975000	0.186100	0.508400
N431	N43	0.879800	0.875800	0.087400
N441	N44	0.505400	0.544800	0.184000
N451	N45	0.445900	0.512100	0.144900
N461	N46	0.443400	0.649300	0.139100
N471	N47	0.424300	0.731100	0.117900
N481	N48	0.025000	0.813900	0.008400
Cl11	Cl1	0.231620	0.231620	0.000000
O11	O1	0.261300	0.272700	0.052200
O21	O2	0.276900	0.157800	0.008000
O31	O3	0.272700	0.261300	0.947800
O41	O4	0.157800	0.276900	0.992000
Cl21	Cl2	0.621090	0.621090	0.000000
O51	O5	0.642000	0.551600	0.971300
O61	O6	0.664500	0.597000	0.053400
O71	O7	0.551600	0.642000	0.028700
O81	O8	0.597000	0.664500	0.946600
Cl31	Cl3	0.768380	0.768380	0.500000
O91	O9	0.738700	0.727300	0.552200
O101	O10	0.723100	0.842200	0.508000
O111	O11	0.727300	0.738700	0.447800
O121	O12	0.842200	0.723100	0.492000
Cl41	Cl4	0.378910	0.378910	0.500000
O131	O13	0.358000	0.448400	0.471300
O141	O14	0.335500	0.403000	0.553400
O151	O15	0.448400	0.358000	0.528700
O161	O16	0.403000	0.335500	0.446600
Cl51	Cl5	0.268380	0.731620	0.250000
O171	O17	0.227300	0.761300	0.302200
O181	O18	0.342200	0.776900	0.258000
O191	O19	0.238700	0.772700	0.197800
O201	O20	0.223100	0.657800	0.242000
Cl61	Cl6	0.878910	0.121090	0.250000
O211	O21	0.948400	0.142000	0.221300
O221	O22	0.903000	0.164500	0.303400
O231	O23	0.858000	0.051600	0.278700
O241	O24	0.835500	0.097000	0.196600
Cl71	Cl7	0.731620	0.268380	0.750000
O251	O25	0.772700	0.238700	0.802200
O261	O26	0.657800	0.223100	0.758000
O271	O27	0.761300	0.227300	0.697800
O281	O28	0.776900	0.342200	0.742000
Cl81	Cl8	0.121090	0.878910	0.750000
O291	O29	0.051600	0.858000	0.721300
O301	O30	0.097000	0.835500	0.803400
O311	O31	0.142000	0.948400	0.778700
O321	O32	0.164500	0.903000	0.696600
