data_OKIXIQ02_charged_PM
_symmetry_space_group_name_H-M	'P1'
_cell_length_a	15.887800
_cell_length_b	15.887800
_cell_length_c	21.703000
_cell_angle_alpha	90.000000
_cell_angle_beta	90.000000
_cell_angle_gamma	90.000000
_symmetry_Int_Tables_number 1

loop_
_symmetry_equiv_pos_as_xyz
'x,y,z'

loop_
_atom_site_label
_atom_site_type_symbol
_atom_site_fract_x
_atom_site_fract_y
_atom_site_fract_z
Cd11	Cd1	0.058830	0.941170	0.750000
Cd21	Cd2	0.941170	0.058830	0.250000
Cd31	Cd3	0.558830	0.558830	0.500000
Cd41	Cd4	0.441170	0.441170	0.000000
H11	H1	0.140000	0.197500	0.863000
H21	H2	0.089100	0.295900	0.664400
H31	H3	0.776000	0.176400	0.905300
H41	H4	0.766500	0.934000	0.026300
H51	H5	0.655700	0.237000	0.892800
H61	H6	0.661700	0.034800	0.035700
H71	H7	0.205000	0.345800	0.719100
H81	H8	0.263900	0.210200	0.894700
H91	H9	0.360400	0.269400	0.959200
H101	H10	0.388100	0.462600	0.849900
H111	H11	0.909200	0.262500	0.850100
H121	H12	0.972700	0.252900	0.899900
H131	H13	0.285500	0.413100	0.784000
H141	H14	0.877700	0.953800	0.959100
H151	H15	0.598400	0.148600	0.061800
H161	H16	0.996500	0.199100	0.709200
H171	H17	0.561700	0.344900	0.909400
H181	H18	0.505300	0.260000	0.073600
H191	H19	0.860000	0.802500	0.363000
H201	H20	0.910900	0.704100	0.164400
H211	H21	0.224000	0.823600	0.405300
H221	H22	0.233500	0.066000	0.526300
H231	H23	0.344300	0.763000	0.392800
H241	H24	0.338300	0.965200	0.535700
H251	H25	0.795000	0.654200	0.219100
H261	H26	0.736100	0.789800	0.394700
H271	H27	0.639600	0.730600	0.459200
H281	H28	0.611900	0.537400	0.349900
H291	H29	0.090800	0.737500	0.350100
H301	H30	0.027300	0.747100	0.399900
H311	H31	0.714500	0.586900	0.284000
H321	H32	0.122300	0.046200	0.459100
H331	H33	0.401600	0.851400	0.561800
H341	H34	0.003500	0.800900	0.209200
H351	H35	0.438300	0.655100	0.409400
H361	H36	0.494700	0.740000	0.573600
H371	H37	0.302500	0.640000	0.613000
H381	H38	0.204100	0.589100	0.414400
H391	H39	0.323600	0.276000	0.655300
H401	H40	0.566000	0.266500	0.776300
H411	H41	0.263000	0.155700	0.642800
H421	H42	0.465200	0.161700	0.785700
H431	H43	0.154200	0.705000	0.469100
H441	H44	0.289800	0.763900	0.644700
H451	H45	0.230600	0.860400	0.709200
H461	H46	0.037400	0.888100	0.599900
H471	H47	0.237500	0.409200	0.600100
H481	H48	0.247100	0.472700	0.649900
H491	H49	0.086900	0.785500	0.534000
H501	H50	0.546200	0.377700	0.709100
H511	H51	0.351400	0.098400	0.811800
H521	H52	0.300900	0.496500	0.459200
H531	H53	0.155100	0.061700	0.659400
H541	H54	0.240000	0.005300	0.823600
H551	H55	0.697500	0.360000	0.113000
H561	H56	0.795900	0.410900	0.914400
H571	H57	0.676400	0.724000	0.155300
H581	H58	0.434000	0.733500	0.276300
H591	H59	0.737000	0.844300	0.142800
H601	H60	0.534800	0.838300	0.285700
H611	H61	0.845800	0.295000	0.969100
H621	H62	0.710200	0.236100	0.144700
H631	H63	0.769400	0.139600	0.209200
H641	H64	0.962600	0.111900	0.099900
H651	H65	0.762500	0.590800	0.100100
H661	H66	0.752900	0.527300	0.149900
H671	H67	0.913100	0.214500	0.034000
H681	H68	0.453800	0.622300	0.209100
H691	H69	0.648600	0.901600	0.311800
H701	H70	0.699100	0.503500	0.959200
H711	H71	0.844900	0.938300	0.159400
H721	H72	0.760000	0.994700	0.323600
H731	H73	0.360000	0.697500	0.887000
H741	H74	0.410900	0.795900	0.085600
H751	H75	0.724000	0.676400	0.844700
H761	H76	0.733500	0.434000	0.723700
H771	H77	0.844300	0.737000	0.857200
H781	H78	0.838300	0.534800	0.714300
H791	H79	0.295000	0.845800	0.030900
H801	H80	0.236100	0.710200	0.855300
H811	H81	0.139600	0.769400	0.790800
H821	H82	0.111900	0.962600	0.900100
H831	H83	0.590800	0.762500	0.899900
H841	H84	0.527300	0.752900	0.850100
H851	H85	0.214500	0.913100	0.966000
H861	H86	0.622300	0.453800	0.790900
H871	H87	0.901600	0.648600	0.688200
H881	H88	0.503500	0.699100	0.040800
H891	H89	0.938300	0.844900	0.840600
H901	H90	0.994700	0.760000	0.676400
H911	H91	0.640000	0.302500	0.387000
H921	H92	0.589100	0.204100	0.585600
H931	H93	0.276000	0.323600	0.344700
H941	H94	0.266500	0.566000	0.223700
H951	H95	0.155700	0.263000	0.357200
H961	H96	0.161700	0.465200	0.214300
H971	H97	0.705000	0.154200	0.530900
H981	H98	0.763900	0.289800	0.355300
H991	H99	0.860400	0.230600	0.290800
H1001	H100	0.888100	0.037400	0.400100
H1011	H101	0.409200	0.237500	0.399900
H1021	H102	0.472700	0.247100	0.350100
H1031	H103	0.785500	0.086900	0.466000
H1041	H104	0.377700	0.546200	0.290900
H1051	H105	0.098400	0.351400	0.188200
H1061	H106	0.496500	0.300900	0.540800
H1071	H107	0.061700	0.155100	0.340600
H1081	H108	0.005300	0.240000	0.176400
H1091	H109	0.197500	0.140000	0.137000
H1101	H110	0.295900	0.089100	0.335600
H1111	H111	0.176400	0.776000	0.094700
H1121	H112	0.934000	0.766500	0.973700
H1131	H113	0.237000	0.655700	0.107200
H1141	H114	0.034800	0.661700	0.964300
H1151	H115	0.345800	0.205000	0.280900
H1161	H116	0.210200	0.263900	0.105300
H1171	H117	0.269400	0.360400	0.040800
H1181	H118	0.462600	0.388100	0.150100
H1191	H119	0.262500	0.909200	0.149900
H1201	H120	0.252900	0.972700	0.100100
H1211	H121	0.413100	0.285500	0.216000
H1221	H122	0.953800	0.877700	0.040900
H1231	H123	0.148600	0.598400	0.938200
H1241	H124	0.199100	0.996500	0.290800
H1251	H125	0.344900	0.561700	0.090600
H1261	H126	0.260000	0.505300	0.926400
H1271	H127	0.802500	0.860000	0.637000
H1281	H128	0.704100	0.910900	0.835600
H1291	H129	0.823600	0.224000	0.594700
H1301	H130	0.066000	0.233500	0.473700
H1311	H131	0.763000	0.344300	0.607200
H1321	H132	0.965200	0.338300	0.464300
H1331	H133	0.654200	0.795000	0.780900
H1341	H134	0.789800	0.736100	0.605300
H1351	H135	0.730600	0.639600	0.540800
H1361	H136	0.537400	0.611900	0.650100
H1371	H137	0.737500	0.090800	0.649900
H1381	H138	0.747100	0.027300	0.600100
H1391	H139	0.586900	0.714500	0.716000
H1401	H140	0.046200	0.122300	0.540900
H1411	H141	0.851400	0.401600	0.438200
H1421	H142	0.800900	0.003500	0.790800
H1431	H143	0.655100	0.438300	0.590600
H1441	H144	0.740000	0.494700	0.426400
C11	C1	0.838600	0.067200	0.925700
C21	C2	0.907800	0.074900	0.881900
C31	C3	0.005300	0.126300	0.820000
C41	C4	0.129500	0.217900	0.822500
C51	C5	0.099200	0.276200	0.705000
C61	C6	0.774300	0.127300	0.930300
C71	C7	0.768900	0.983600	0.002000
C81	C8	0.626700	0.240700	0.931000
C91	C9	0.641800	0.181300	0.977600
C101	C10	0.706400	0.043200	0.007200
C111	C11	0.168100	0.306000	0.737500
C121	C12	0.183400	0.277300	0.797600
C131	C13	0.285300	0.264700	0.885900
C141	C14	0.344000	0.299800	0.923400
C151	C15	0.359300	0.412300	0.860600
C161	C16	0.256300	0.308200	0.834600
C171	C17	0.298500	0.382900	0.820600
C181	C18	0.708100	0.115200	0.971200
C191	C19	0.834700	0.995100	0.962000
C201	C20	0.593200	0.189000	0.029800
C211	C21	0.061100	0.187300	0.790300
C221	C22	0.044600	0.217900	0.731300
C231	C23	0.569400	0.304400	0.941000
C241	C24	0.536400	0.255500	0.036400
C251	C25	0.161400	0.932800	0.425700
C261	C26	0.092200	0.925100	0.381900
C271	C27	0.994700	0.873700	0.320000
C281	C28	0.870500	0.782100	0.322500
C291	C29	0.900800	0.723800	0.205000
C301	C30	0.225700	0.872700	0.430300
C311	C31	0.231100	0.016400	0.502000
C321	C32	0.373300	0.759300	0.431000
C331	C33	0.358200	0.818700	0.477600
C341	C34	0.293600	0.956800	0.507200
C351	C35	0.831900	0.694000	0.237500
C361	C36	0.816600	0.722700	0.297600
C371	C37	0.714700	0.735300	0.385900
C381	C38	0.656000	0.700200	0.423400
C391	C39	0.640700	0.587700	0.360600
C401	C40	0.743700	0.691800	0.334600
C411	C41	0.701500	0.617100	0.320600
C421	C42	0.291900	0.884800	0.471200
C431	C43	0.165300	0.004900	0.462000
C441	C44	0.406800	0.811000	0.529800
C451	C45	0.938900	0.812700	0.290300
C461	C46	0.955400	0.782100	0.231300
C471	C47	0.430600	0.695600	0.441000
C481	C48	0.463600	0.744500	0.536400
C491	C49	0.432800	0.338600	0.675700
C501	C50	0.425100	0.407800	0.631900
C511	C51	0.373700	0.505300	0.570000
C521	C52	0.282100	0.629500	0.572500
C531	C53	0.223800	0.599200	0.455000
C541	C54	0.372700	0.274300	0.680300
C551	C55	0.516400	0.268900	0.752000
C561	C56	0.259300	0.126700	0.681000
C571	C57	0.318700	0.141800	0.727600
C581	C58	0.456800	0.206400	0.757200
C591	C59	0.194000	0.668100	0.487500
C601	C60	0.222700	0.683400	0.547600
C611	C61	0.235300	0.785300	0.635900
C621	C62	0.200200	0.844000	0.673400
C631	C63	0.087700	0.859300	0.610600
C641	C64	0.191800	0.756300	0.584600
C651	C65	0.117100	0.798500	0.570600
C661	C66	0.384800	0.208100	0.721200
C671	C67	0.504900	0.334700	0.712000
C681	C68	0.311000	0.093200	0.779800
C691	C69	0.312700	0.561100	0.540300
C701	C70	0.282100	0.544600	0.481300
C711	C71	0.195600	0.069400	0.691000
C721	C72	0.244500	0.036400	0.786400
C731	C73	0.567200	0.661400	0.175700
C741	C74	0.574900	0.592200	0.131900
C751	C75	0.626300	0.494700	0.070000
C761	C76	0.717900	0.370500	0.072500
C771	C77	0.776200	0.400800	0.955000
C781	C78	0.627300	0.725700	0.180300
C791	C79	0.483600	0.731100	0.252000
C801	C80	0.740700	0.873300	0.181000
C811	C81	0.681300	0.858200	0.227600
C821	C82	0.543200	0.793600	0.257200
C831	C83	0.806000	0.331900	0.987500
C841	C84	0.777300	0.316600	0.047600
C851	C85	0.764700	0.214700	0.135900
C861	C86	0.799800	0.156000	0.173400
C871	C87	0.912300	0.140700	0.110600
C881	C88	0.808200	0.243700	0.084600
C891	C89	0.882900	0.201500	0.070600
C901	C90	0.615200	0.791900	0.221200
C911	C91	0.495100	0.665300	0.212000
C921	C92	0.689000	0.906800	0.279800
C931	C93	0.687300	0.438900	0.040300
C941	C94	0.717900	0.455400	0.981300
C951	C95	0.804400	0.930600	0.191000
C961	C96	0.755500	0.963600	0.286400
C971	C97	0.661400	0.567200	0.824300
C981	C98	0.592200	0.574900	0.868100
C991	C99	0.494700	0.626300	0.930000
C1001	C100	0.370500	0.717900	0.927500
C1011	C101	0.400800	0.776200	0.045000
C1021	C102	0.725700	0.627300	0.819700
C1031	C103	0.731100	0.483600	0.748000
C1041	C104	0.873300	0.740700	0.819000
C1051	C105	0.858200	0.681300	0.772400
C1061	C106	0.793600	0.543200	0.742800
C1071	C107	0.331900	0.806000	0.012500
C1081	C108	0.316600	0.777300	0.952400
C1091	C109	0.214700	0.764700	0.864100
C1101	C110	0.156000	0.799800	0.826600
C1111	C111	0.140700	0.912300	0.889400
C1121	C112	0.243700	0.808200	0.915400
C1131	C113	0.201500	0.882900	0.929400
C1141	C114	0.791900	0.615200	0.778800
C1151	C115	0.665300	0.495100	0.788000
C1161	C116	0.906800	0.689000	0.720200
C1171	C117	0.438900	0.687300	0.959700
C1181	C118	0.455400	0.717900	0.018700
C1191	C119	0.930600	0.804400	0.809000
C1201	C120	0.963600	0.755500	0.713600
C1211	C121	0.338600	0.432800	0.324300
C1221	C122	0.407800	0.425100	0.368100
C1231	C123	0.505300	0.373700	0.430000
C1241	C124	0.629500	0.282100	0.427500
C1251	C125	0.599200	0.223800	0.545000
C1261	C126	0.274300	0.372700	0.319700
C1271	C127	0.268900	0.516400	0.248000
C1281	C128	0.126700	0.259300	0.319000
C1291	C129	0.141800	0.318700	0.272400
C1301	C130	0.206400	0.456800	0.242800
C1311	C131	0.668100	0.194000	0.512500
C1321	C132	0.683400	0.222700	0.452400
C1331	C133	0.785300	0.235300	0.364100
C1341	C134	0.844000	0.200200	0.326600
C1351	C135	0.859300	0.087700	0.389400
C1361	C136	0.756300	0.191800	0.415400
C1371	C137	0.798500	0.117100	0.429400
C1381	C138	0.208100	0.384800	0.278800
C1391	C139	0.334700	0.504900	0.288000
C1401	C140	0.093200	0.311000	0.220200
C1411	C141	0.561100	0.312700	0.459700
C1421	C142	0.544600	0.282100	0.518700
C1431	C143	0.069400	0.195600	0.309000
C1441	C144	0.036400	0.244500	0.213600
C1451	C145	0.067200	0.838600	0.074300
C1461	C146	0.074900	0.907800	0.118100
C1471	C147	0.126300	0.005300	0.180000
C1481	C148	0.217900	0.129500	0.177500
C1491	C149	0.276200	0.099200	0.295000
C1501	C150	0.127300	0.774300	0.069700
C1511	C151	0.983600	0.768900	0.998000
C1521	C152	0.240700	0.626700	0.069000
C1531	C153	0.181300	0.641800	0.022400
C1541	C154	0.043200	0.706400	0.992800
C1551	C155	0.306000	0.168100	0.262500
C1561	C156	0.277300	0.183400	0.202400
C1571	C157	0.264700	0.285300	0.114100
C1581	C158	0.299800	0.344000	0.076600
C1591	C159	0.412300	0.359300	0.139400
C1601	C160	0.308200	0.256300	0.165400
C1611	C161	0.382900	0.298500	0.179400
C1621	C162	0.115200	0.708100	0.028800
C1631	C163	0.995100	0.834700	0.038000
C1641	C164	0.189000	0.593200	0.970200
C1651	C165	0.187300	0.061100	0.209700
C1661	C166	0.217900	0.044600	0.268700
C1671	C167	0.304400	0.569400	0.059000
C1681	C168	0.255500	0.536400	0.963600
C1691	C169	0.932800	0.161400	0.574300
C1701	C170	0.925100	0.092200	0.618100
C1711	C171	0.873700	0.994700	0.680000
C1721	C172	0.782100	0.870500	0.677500
C1731	C173	0.723800	0.900800	0.795000
C1741	C174	0.872700	0.225700	0.569700
C1751	C175	0.016400	0.231100	0.498000
C1761	C176	0.759300	0.373300	0.569000
C1771	C177	0.818700	0.358200	0.522400
C1781	C178	0.956800	0.293600	0.492800
C1791	C179	0.694000	0.831900	0.762500
C1801	C180	0.722700	0.816600	0.702400
C1811	C181	0.735300	0.714700	0.614100
C1821	C182	0.700200	0.656000	0.576600
C1831	C183	0.587700	0.640700	0.639400
C1841	C184	0.691800	0.743700	0.665400
C1851	C185	0.617100	0.701500	0.679400
C1861	C186	0.884800	0.291900	0.528800
C1871	C187	0.004900	0.165300	0.538000
C1881	C188	0.811000	0.406800	0.470200
C1891	C189	0.812700	0.938900	0.709700
C1901	C190	0.782100	0.955400	0.768700
C1911	C191	0.695600	0.430600	0.559000
C1921	C192	0.744500	0.463600	0.463600
N11	N1	0.945000	0.148700	0.861200
N21	N2	0.380200	0.374700	0.913100
N31	N3	0.945200	0.012000	0.854800
N41	N4	0.006300	0.044100	0.816800
N51	N5	0.524300	0.312700	0.992500
N61	N6	0.925900	0.230000	0.882400
N71	N7	0.055000	0.851300	0.361200
N81	N8	0.619800	0.625300	0.413100
N91	N9	0.054800	0.988000	0.354800
N101	N10	0.993700	0.955900	0.316800
N111	N11	0.475700	0.687300	0.492500
N121	N12	0.074100	0.770000	0.382400
N131	N13	0.351300	0.445000	0.611200
N141	N14	0.125300	0.880200	0.663100
N151	N15	0.488000	0.445200	0.604800
N161	N16	0.455900	0.506300	0.566800
N171	N17	0.187300	0.024300	0.742500
N181	N18	0.270000	0.425900	0.632400
N191	N19	0.648700	0.555000	0.111200
N201	N20	0.874700	0.119800	0.163100
N211	N21	0.512000	0.554800	0.104800
N221	N22	0.544100	0.493700	0.066800
N231	N23	0.812700	0.975700	0.242500
N241	N24	0.730000	0.574100	0.132400
N251	N25	0.555000	0.648700	0.888800
N261	N26	0.119800	0.874700	0.836900
N271	N27	0.554800	0.512000	0.895200
N281	N28	0.493700	0.544100	0.933200
N291	N29	0.975700	0.812700	0.757500
N301	N30	0.574100	0.730000	0.867600
N311	N31	0.445000	0.351300	0.388800
N321	N32	0.880200	0.125300	0.336900
N331	N33	0.445200	0.488000	0.395200
N341	N34	0.506300	0.455900	0.433200
N351	N35	0.024300	0.187300	0.257500
N361	N36	0.425900	0.270000	0.367600
N371	N37	0.148700	0.945000	0.138800
N381	N38	0.374700	0.380200	0.086900
N391	N39	0.012000	0.945200	0.145200
N401	N40	0.044100	0.006300	0.183200
N411	N41	0.312700	0.524300	0.007500
N421	N42	0.230000	0.925900	0.117600
N431	N43	0.851300	0.055000	0.638800
N441	N44	0.625300	0.619800	0.586900
N451	N45	0.988000	0.054800	0.645200
N461	N46	0.955900	0.993700	0.683200
N471	N47	0.687300	0.475700	0.507500
N481	N48	0.770000	0.074100	0.617600
Cl11	Cl1	0.120980	0.120980	0.000000
O11	O1	0.059400	0.134200	0.965000
O21	O2	0.177300	0.110200	0.955100
O31	O3	0.134200	0.059400	0.035000
O41	O4	0.110200	0.177300	0.044900
Cl21	Cl2	0.879020	0.879020	0.500000
O51	O5	0.940600	0.865800	0.465000
O61	O6	0.822700	0.889800	0.455100
O71	O7	0.865800	0.940600	0.535000
O81	O8	0.889800	0.822700	0.544900
Cl31	Cl3	0.379020	0.620980	0.750000
O91	O9	0.365800	0.559400	0.715000
O101	O10	0.389800	0.677300	0.705100
O111	O11	0.440600	0.634200	0.785000
O121	O12	0.322700	0.610200	0.794900
Cl41	Cl4	0.620980	0.379020	0.250000
O131	O13	0.634200	0.440600	0.215000
O141	O14	0.610200	0.322700	0.205100
O151	O15	0.559400	0.365800	0.285000
O161	O16	0.677300	0.389800	0.294900
