data_OKIYAJ01_freeONLY_PM
_symmetry_space_group_name_H-M	'P1'
_cell_length_a	15.880900
_cell_length_b	15.880900
_cell_length_c	21.810000
_cell_angle_alpha	90.000000
_cell_angle_beta	90.000000
_cell_angle_gamma	90.000000
_symmetry_Int_Tables_number 1

loop_
_symmetry_equiv_pos_as_xyz
'x,y,z'

loop_
_atom_site_label
_atom_site_type_symbol
_atom_site_fract_x
_atom_site_fract_y
_atom_site_fract_z
C11	C1	0.199300	0.156800	0.575600
H11	H1	0.230100	0.140100	0.540200
C21	C2	0.233900	0.217500	0.613900
H21	H2	0.287500	0.240700	0.604600
C31	C3	0.191600	0.244200	0.664800
C41	C4	0.116900	0.201300	0.678800
H31	H3	0.087300	0.213700	0.715500
C51	C5	0.086800	0.141000	0.639100
H41	H4	0.036500	0.112200	0.649800
C61	C6	0.222200	0.317400	0.702200
C71	C7	0.281900	0.371100	0.676700
H51	H5	0.302500	0.360300	0.636500
C81	C8	0.311600	0.439800	0.709000
C91	C9	0.283000	0.455500	0.768000
H61	H6	0.302900	0.502600	0.790600
C101	C10	0.223500	0.399700	0.793700
H71	H7	0.203000	0.409600	0.834000
C111	C11	0.194700	0.331100	0.761300
H81	H8	0.155900	0.293300	0.779700
C121	C12	0.372900	0.495100	0.679500
C131	C13	0.424200	0.591100	0.618300
C141	C14	0.432000	0.661000	0.574200
C151	C15	0.504000	0.663600	0.537200
H91	H9	0.545400	0.620700	0.540200
C161	C16	0.514000	0.728500	0.496900
H101	H10	0.562900	0.730000	0.471800
C171	C17	0.455800	0.791400	0.491500
H111	H11	0.463600	0.834900	0.462200
C181	C18	0.384200	0.791300	0.529600
C191	C19	0.373300	0.725000	0.569900
H121	H12	0.324500	0.723400	0.595000
C201	C20	0.318300	0.857900	0.523500
C211	C21	0.308600	0.904200	0.471700
H131	H13	0.348100	0.897700	0.439400
C221	C22	0.242100	0.961400	0.464500
H141	H14	0.236800	0.991100	0.426800
C231	C23	0.197400	0.931900	0.561600
H151	H15	0.159000	0.941500	0.594200
C241	C24	0.260800	0.875200	0.570600
H161	H16	0.265900	0.847300	0.608900
N11	N1	0.124200	0.120700	0.586300
N21	N2	0.456000	0.494000	0.684000
N31	N3	0.488300	0.555700	0.645300
N41	N4	0.351000	0.555300	0.639100
N51	N5	0.270000	0.573000	0.616900
H171	H17	0.244000	0.523800	0.606800
H181	H18	0.239900	0.599600	0.646600
N61	N6	0.186300	0.975200	0.508800
C251	C25	0.800700	0.843200	0.075600
H191	H19	0.769900	0.859900	0.040200
C261	C26	0.766100	0.782500	0.113900
H201	H20	0.712500	0.759300	0.104600
C271	C27	0.808400	0.755800	0.164800
C281	C28	0.883100	0.798700	0.178800
H211	H21	0.912700	0.786300	0.215500
C291	C29	0.913200	0.859000	0.139100
H221	H22	0.963500	0.887800	0.149800
C301	C30	0.777800	0.682600	0.202200
C311	C31	0.718100	0.628900	0.176700
H231	H23	0.697500	0.639700	0.136500
C321	C32	0.688400	0.560200	0.209000
C331	C33	0.717000	0.544500	0.268000
H241	H24	0.697100	0.497400	0.290600
C341	C34	0.776500	0.600300	0.293700
H251	H25	0.797000	0.590400	0.334000
C351	C35	0.805300	0.668900	0.261300
H261	H26	0.844100	0.706700	0.279700
C361	C36	0.627100	0.504900	0.179500
C371	C37	0.575800	0.408900	0.118300
C381	C38	0.568000	0.339000	0.074200
C391	C39	0.496000	0.336400	0.037200
H271	H27	0.454600	0.379300	0.040200
C401	C40	0.486000	0.271500	0.996900
H281	H28	0.437100	0.270000	0.971800
C411	C41	0.544200	0.208600	0.991500
H291	H29	0.536400	0.165100	0.962200
C421	C42	0.615800	0.208700	0.029600
C431	C43	0.626700	0.275000	0.069900
H301	H30	0.675500	0.276600	0.095000
C441	C44	0.681700	0.142100	0.023500
C451	C45	0.691400	0.095800	0.971700
H311	H31	0.651900	0.102300	0.939400
C461	C46	0.757900	0.038600	0.964500
H321	H32	0.763200	0.008900	0.926800
C471	C47	0.802600	0.068100	0.061600
H331	H33	0.841000	0.058500	0.094200
C481	C48	0.739200	0.124800	0.070600
H341	H34	0.734100	0.152700	0.108900
N71	N7	0.875800	0.879300	0.086300
N81	N8	0.544000	0.506000	0.184000
N91	N9	0.511700	0.444300	0.145300
N101	N10	0.649000	0.444700	0.139100
N111	N11	0.730000	0.427000	0.116900
H351	H35	0.756000	0.476200	0.106800
H361	H36	0.760100	0.400400	0.146600
N121	N12	0.813700	0.024800	0.008800
C491	C49	0.343200	0.699300	0.325600
H371	H37	0.359900	0.730100	0.290200
C501	C50	0.282500	0.733900	0.363900
H381	H38	0.259300	0.787500	0.354600
C511	C51	0.255800	0.691600	0.414800
C521	C52	0.298700	0.616900	0.428800
H391	H39	0.286300	0.587300	0.465500
C531	C53	0.359000	0.586800	0.389100
H401	H40	0.387800	0.536500	0.399800
C541	C54	0.182600	0.722200	0.452200
C551	C55	0.128900	0.781900	0.426700
H411	H41	0.139700	0.802500	0.386500
C561	C56	0.060200	0.811600	0.459000
C571	C57	0.044500	0.783000	0.518000
H421	H42	0.997400	0.802900	0.540600
C581	C58	0.100300	0.723500	0.543700
H431	H43	0.090400	0.703000	0.584000
C591	C59	0.168900	0.694700	0.511300
H441	H44	0.206700	0.655900	0.529700
C601	C60	0.004900	0.872900	0.429500
C611	C61	0.908900	0.924200	0.368300
C621	C62	0.839000	0.932000	0.324200
C631	C63	0.836400	0.004000	0.287200
H451	H45	0.879300	0.045400	0.290200
C641	C64	0.771500	0.014000	0.246900
H461	H46	0.770000	0.062900	0.221800
C651	C65	0.708600	0.955800	0.241500
H471	H47	0.665100	0.963600	0.212200
C661	C66	0.708700	0.884200	0.279600
C671	C67	0.775000	0.873300	0.319900
H481	H48	0.776600	0.824500	0.345000
C681	C68	0.642100	0.818300	0.273500
C691	C69	0.595800	0.808600	0.221700
H491	H49	0.602300	0.848100	0.189400
C701	C70	0.538600	0.742100	0.214500
H501	H50	0.508900	0.736800	0.176800
C711	C71	0.568100	0.697400	0.311600
H511	H51	0.558500	0.659000	0.344200
C721	C72	0.624800	0.760800	0.320600
H521	H52	0.652700	0.765900	0.358900
N131	N13	0.379300	0.624200	0.336300
N141	N14	0.006000	0.956000	0.434000
N151	N15	0.944300	0.988300	0.395300
N161	N16	0.944700	0.851000	0.389100
N171	N17	0.927000	0.770000	0.366900
H531	H53	0.976200	0.744000	0.356800
H541	H54	0.900400	0.739900	0.396600
N181	N18	0.524800	0.686300	0.258800
C731	C73	0.656800	0.300700	0.825600
H551	H55	0.640100	0.269900	0.790200
C741	C74	0.717500	0.266100	0.863900
H561	H56	0.740700	0.212500	0.854600
C751	C75	0.744200	0.308400	0.914800
C761	C76	0.701300	0.383100	0.928800
H571	H57	0.713700	0.412700	0.965500
C771	C77	0.641000	0.413200	0.889100
H581	H58	0.612200	0.463500	0.899800
C781	C78	0.817400	0.277800	0.952200
C791	C79	0.871100	0.218100	0.926700
H591	H59	0.860300	0.197500	0.886500
C801	C80	0.939800	0.188400	0.959000
C811	C81	0.955500	0.217000	0.018000
H601	H60	0.002600	0.197100	0.040600
C821	C82	0.899700	0.276500	0.043700
H611	H61	0.909600	0.297000	0.084000
C831	C83	0.831100	0.305300	0.011300
H621	H62	0.793300	0.344100	0.029700
C841	C84	0.995100	0.127100	0.929500
C851	C85	0.091100	0.075800	0.868300
C861	C86	0.161000	0.068000	0.824200
C871	C87	0.163600	0.996000	0.787200
H631	H63	0.120700	0.954600	0.790200
C881	C88	0.228500	0.986000	0.746900
H641	H64	0.230000	0.937100	0.721800
C891	C89	0.291400	0.044200	0.741500
H651	H65	0.334900	0.036400	0.712200
C901	C90	0.291300	0.115800	0.779600
C911	C91	0.225000	0.126700	0.819900
H661	H66	0.223400	0.175500	0.845000
C921	C92	0.357900	0.181700	0.773500
C931	C93	0.404200	0.191400	0.721700
H671	H67	0.397700	0.151900	0.689400
C941	C94	0.461400	0.257900	0.714500
H681	H68	0.491100	0.263200	0.676800
C951	C95	0.431900	0.302600	0.811600
H691	H69	0.441500	0.341000	0.844200
C961	C96	0.375200	0.239200	0.820600
H701	H70	0.347300	0.234100	0.858900
N191	N19	0.620700	0.375800	0.836300
N201	N20	0.994000	0.044000	0.934000
N211	N21	0.055700	0.011700	0.895300
N221	N22	0.055300	0.149000	0.889100
N231	N23	0.073000	0.230000	0.866900
H711	H71	0.023800	0.256000	0.856800
H721	H72	0.099600	0.260100	0.896600
N241	N24	0.475200	0.313700	0.758800
C971	C97	0.300700	0.656800	0.174400
H731	H73	0.269900	0.640100	0.209800
C981	C98	0.266100	0.717500	0.136100
H741	H74	0.212500	0.740700	0.145400
C991	C99	0.308400	0.744200	0.085200
C1001	C100	0.383100	0.701300	0.071200
H751	H75	0.412700	0.713700	0.034500
C1011	C101	0.413200	0.641000	0.110900
H761	H76	0.463500	0.612200	0.100200
C1021	C102	0.277800	0.817400	0.047800
C1031	C103	0.218100	0.871100	0.073300
H771	H77	0.197500	0.860300	0.113500
C1041	C104	0.188400	0.939800	0.041000
C1051	C105	0.217000	0.955500	0.982000
H781	H78	0.197100	0.002600	0.959400
C1061	C106	0.276500	0.899700	0.956300
H791	H79	0.297000	0.909600	0.916000
C1071	C107	0.305300	0.831100	0.988700
H801	H80	0.344100	0.793300	0.970300
C1081	C108	0.127100	0.995100	0.070500
C1091	C109	0.075800	0.091100	0.131700
C1101	C110	0.068000	0.161000	0.175800
C1111	C111	0.996000	0.163600	0.212800
H811	H81	0.954600	0.120700	0.209800
C1121	C112	0.986000	0.228500	0.253100
H821	H82	0.937100	0.230000	0.278200
C1131	C113	0.044200	0.291400	0.258500
H831	H83	0.036400	0.334900	0.287800
C1141	C114	0.115800	0.291300	0.220400
C1151	C115	0.126700	0.225000	0.180100
H841	H84	0.175500	0.223400	0.155000
C1161	C116	0.181700	0.357900	0.226500
C1171	C117	0.191400	0.404200	0.278300
H851	H85	0.151900	0.397700	0.310600
C1181	C118	0.257900	0.461400	0.285500
H861	H86	0.263200	0.491100	0.323200
C1191	C119	0.302600	0.431900	0.188400
H871	H87	0.341000	0.441500	0.155800
C1201	C120	0.239200	0.375200	0.179400
H881	H88	0.234100	0.347300	0.141100
N251	N25	0.375800	0.620700	0.163700
N261	N26	0.044000	0.994000	0.066000
N271	N27	0.011700	0.055700	0.104700
N281	N28	0.149000	0.055300	0.110900
N291	N29	0.230000	0.073000	0.133100
H891	H89	0.256000	0.023800	0.143200
H901	H90	0.260100	0.099600	0.103400
N301	N30	0.313700	0.475200	0.241200
C1211	C121	0.699300	0.343200	0.674400
H911	H91	0.730100	0.359900	0.709800
C1221	C122	0.733900	0.282500	0.636100
H921	H92	0.787500	0.259300	0.645400
C1231	C123	0.691600	0.255800	0.585200
C1241	C124	0.616900	0.298700	0.571200
H931	H93	0.587300	0.286300	0.534500
C1251	C125	0.586800	0.359000	0.610900
H941	H94	0.536500	0.387800	0.600200
C1261	C126	0.722200	0.182600	0.547800
C1271	C127	0.781900	0.128900	0.573300
H951	H95	0.802500	0.139700	0.613500
C1281	C128	0.811600	0.060200	0.541000
C1291	C129	0.783000	0.044500	0.482000
H961	H96	0.802900	0.997400	0.459400
C1301	C130	0.723500	0.100300	0.456300
H971	H97	0.703000	0.090400	0.416000
C1311	C131	0.694700	0.168900	0.488700
H981	H98	0.655900	0.206700	0.470300
C1321	C132	0.872900	0.004900	0.570500
C1331	C133	0.924200	0.908900	0.631700
C1341	C134	0.932000	0.839000	0.675800
C1351	C135	0.004000	0.836400	0.712800
H991	H99	0.045400	0.879300	0.709800
C1361	C136	0.014000	0.771500	0.753100
H1001	H100	0.062900	0.770000	0.778200
C1371	C137	0.955800	0.708600	0.758500
H1011	H101	0.963600	0.665100	0.787800
C1381	C138	0.884200	0.708700	0.720400
C1391	C139	0.873300	0.775000	0.680100
H1021	H102	0.824500	0.776600	0.655000
C1401	C140	0.818300	0.642100	0.726500
C1411	C141	0.808600	0.595800	0.778300
H1031	H103	0.848100	0.602300	0.810600
C1421	C142	0.742100	0.538600	0.785500
H1041	H104	0.736800	0.508900	0.823200
C1431	C143	0.697400	0.568100	0.688400
H1051	H105	0.659000	0.558500	0.655800
C1441	C144	0.760800	0.624800	0.679400
H1061	H106	0.765900	0.652700	0.641100
N311	N31	0.624200	0.379300	0.663700
N321	N32	0.956000	0.006000	0.566000
N331	N33	0.988300	0.944300	0.604700
N341	N34	0.851000	0.944700	0.610900
N351	N35	0.770000	0.927000	0.633100
H1071	H107	0.744000	0.976200	0.643200
H1081	H108	0.739900	0.900400	0.603400
N361	N36	0.686300	0.524800	0.741200
C1451	C145	0.156800	0.199300	0.424400
H1091	H109	0.140100	0.230100	0.459800
C1461	C146	0.217500	0.233900	0.386100
H1101	H110	0.240700	0.287500	0.395400
C1471	C147	0.244200	0.191600	0.335200
C1481	C148	0.201300	0.116900	0.321200
H1111	H111	0.213700	0.087300	0.284500
C1491	C149	0.141000	0.086800	0.360900
H1121	H112	0.112200	0.036500	0.350200
C1501	C150	0.317400	0.222200	0.297800
C1511	C151	0.371100	0.281900	0.323300
H1131	H113	0.360300	0.302500	0.363500
C1521	C152	0.439800	0.311600	0.291000
C1531	C153	0.455500	0.283000	0.232000
H1141	H114	0.502600	0.302900	0.209400
C1541	C154	0.399700	0.223500	0.206300
H1151	H115	0.409600	0.203000	0.166000
C1551	C155	0.331100	0.194700	0.238700
H1161	H116	0.293300	0.155900	0.220300
C1561	C156	0.495100	0.372900	0.320500
C1571	C157	0.591100	0.424200	0.381700
C1581	C158	0.661000	0.432000	0.425800
C1591	C159	0.663600	0.504000	0.462800
H1171	H117	0.620700	0.545400	0.459800
C1601	C160	0.728500	0.514000	0.503100
H1181	H118	0.730000	0.562900	0.528200
C1611	C161	0.791400	0.455800	0.508500
H1191	H119	0.834900	0.463600	0.537800
C1621	C162	0.791300	0.384200	0.470400
C1631	C163	0.725000	0.373300	0.430100
H1201	H120	0.723400	0.324500	0.405000
C1641	C164	0.857900	0.318300	0.476500
C1651	C165	0.904200	0.308600	0.528300
H1211	H121	0.897700	0.348100	0.560600
C1661	C166	0.961400	0.242100	0.535500
H1221	H122	0.991100	0.236800	0.573200
C1671	C167	0.931900	0.197400	0.438400
H1231	H123	0.941500	0.159000	0.405800
C1681	C168	0.875200	0.260800	0.429400
H1241	H124	0.847300	0.265900	0.391100
N371	N37	0.120700	0.124200	0.413700
N381	N38	0.494000	0.456000	0.316000
N391	N39	0.555700	0.488300	0.354700
N401	N40	0.555300	0.351000	0.360900
N411	N41	0.573000	0.270000	0.383100
H1251	H125	0.523800	0.244000	0.393200
H1261	H126	0.599600	0.239900	0.353400
N421	N42	0.975200	0.186300	0.491200
C1691	C169	0.843200	0.800700	0.924400
H1271	H127	0.859900	0.769900	0.959800
C1701	C170	0.782500	0.766100	0.886100
H1281	H128	0.759300	0.712500	0.895400
C1711	C171	0.755800	0.808400	0.835200
C1721	C172	0.798700	0.883100	0.821200
H1291	H129	0.786300	0.912700	0.784500
C1731	C173	0.859000	0.913200	0.860900
H1301	H130	0.887800	0.963500	0.850200
C1741	C174	0.682600	0.777800	0.797800
C1751	C175	0.628900	0.718100	0.823300
H1311	H131	0.639700	0.697500	0.863500
C1761	C176	0.560200	0.688400	0.791000
C1771	C177	0.544500	0.717000	0.732000
H1321	H132	0.497400	0.697100	0.709400
C1781	C178	0.600300	0.776500	0.706300
H1331	H133	0.590400	0.797000	0.666000
C1791	C179	0.668900	0.805300	0.738700
H1341	H134	0.706700	0.844100	0.720300
C1801	C180	0.504900	0.627100	0.820500
C1811	C181	0.408900	0.575800	0.881700
C1821	C182	0.339000	0.568000	0.925800
C1831	C183	0.336400	0.496000	0.962800
H1351	H135	0.379300	0.454600	0.959800
C1841	C184	0.271500	0.486000	0.003100
H1361	H136	0.270000	0.437100	0.028200
C1851	C185	0.208600	0.544200	0.008500
H1371	H137	0.165100	0.536400	0.037800
C1861	C186	0.208700	0.615800	0.970400
C1871	C187	0.275000	0.626700	0.930100
H1381	H138	0.276600	0.675500	0.905000
C1881	C188	0.142100	0.681700	0.976500
C1891	C189	0.095800	0.691400	0.028300
H1391	H139	0.102300	0.651900	0.060600
C1901	C190	0.038600	0.757900	0.035500
H1401	H140	0.008900	0.763200	0.073200
C1911	C191	0.068100	0.802600	0.938400
H1411	H141	0.058500	0.841000	0.905800
C1921	C192	0.124800	0.739200	0.929400
H1421	H142	0.152700	0.734100	0.891100
N431	N43	0.879300	0.875800	0.913700
N441	N44	0.506000	0.544000	0.816000
N451	N45	0.444300	0.511700	0.854700
N461	N46	0.444700	0.649000	0.860900
N471	N47	0.427000	0.730000	0.883100
H1431	H143	0.476200	0.756000	0.893200
H1441	H144	0.400400	0.760100	0.853400
N481	N48	0.024800	0.813700	0.991200
Cd11	Cd1	0.558070	0.441930	0.750000
Cd21	Cd2	0.441930	0.558070	0.250000
Cd31	Cd3	0.058070	0.058070	0.500000
Cd41	Cd4	0.941930	0.941930	0.000000
