data_OLANAS_freeONLY_PM
_symmetry_space_group_name_H-M	'P1'
_cell_length_a	19.108000
_cell_length_b	28.704000
_cell_length_c	13.646000
_cell_angle_alpha	90.000000
_cell_angle_beta	99.582000
_cell_angle_gamma	90.000000
_symmetry_Int_Tables_number 1

loop_
_symmetry_equiv_pos_as_xyz
'x,y,z'

loop_
_atom_site_label
_atom_site_type_symbol
_atom_site_fract_x
_atom_site_fract_y
_atom_site_fract_z
Zn11	Zn1	0.197070	0.314110	0.606880
O11	O1	0.885100	0.201000	0.793200
O21	O2	0.905900	0.368620	0.165300
O31	O3	0.129400	0.295900	0.450600
O41	O4	0.191700	0.357400	0.483700
O51	O5	0.241500	0.451200	0.200900
O61	O6	0.172900	0.446500	0.056200
O71	O7	0.161900	0.264100	0.682200
O81	O8	0.179600	0.196200	0.607700
O91	O9	0.110900	0.052830	0.799100
O101	O10	0.101700	0.070500	0.952700
O111	O11	0.292800	0.288300	0.574900
O121	O12	0.110300	0.357300	0.639100
O131	O13	0.257600	0.346600	0.725700
O141	O14	0.199500	0.448500	0.861900
N11	N1	0.979500	0.231100	0.895900
N21	N2	0.901500	0.281600	0.982400
N31	N3	0.990800	0.325720	0.101000
C11	C1	0.911600	0.226100	0.859500
C21	C2	0.864600	0.256600	0.908900
C31	C3	0.792600	0.264000	0.881300
H11	H1	0.766600	0.247800	0.828300
C41	C4	0.759800	0.296800	0.936000
H21	H2	0.711300	0.302300	0.919300
C51	C5	0.799100	0.320900	0.014200
H31	H3	0.777700	0.341700	0.052200
C61	C6	0.871100	0.312880	0.033700
C71	C7	0.923800	0.338000	0.107200
C81	C8	0.049200	0.346700	0.164100
C91	C9	0.088300	0.380800	0.128600
H41	H4	0.074000	0.392400	0.064800
C101	C10	0.148100	0.398200	0.185800
C111	C11	0.167900	0.382900	0.281400
H51	H5	0.207700	0.395500	0.321100
C121	C12	0.128800	0.348600	0.319200
C131	C13	0.069500	0.330000	0.260400
H61	H6	0.043500	0.306700	0.284900
C141	C14	0.195600	0.434500	0.145100
C151	C15	0.151100	0.332400	0.424400
C161	C16	0.029900	0.204210	0.854700
C171	C17	0.067400	0.223300	0.787300
H71	H7	0.061100	0.254800	0.772000
C181	C18	0.113500	0.198200	0.741500
C191	C19	0.122500	0.150800	0.764700
H81	H8	0.151800	0.132600	0.732300
C201	C20	0.087700	0.131000	0.835700
C211	C21	0.041400	0.158000	0.881900
H91	H9	0.018600	0.145000	0.930400
C221	C22	0.154900	0.220700	0.670900
C231	C23	0.101400	0.081500	0.866100
Zn21	Zn2	0.697070	0.814110	0.606880
O151	O15	0.385100	0.701000	0.793200
O161	O16	0.405900	0.868620	0.165300
O171	O17	0.629400	0.795900	0.450600
O181	O18	0.691700	0.857400	0.483700
O191	O19	0.741500	0.951200	0.200900
O201	O20	0.672900	0.946500	0.056200
O211	O21	0.661900	0.764100	0.682200
O221	O22	0.679600	0.696200	0.607700
O231	O23	0.610900	0.552830	0.799100
O241	O24	0.601700	0.570500	0.952700
O251	O25	0.792800	0.788300	0.574900
O261	O26	0.610300	0.857300	0.639100
O271	O27	0.757600	0.846600	0.725700
O281	O28	0.699500	0.948500	0.861900
N41	N4	0.479500	0.731100	0.895900
N51	N5	0.401500	0.781600	0.982400
N61	N6	0.490800	0.825720	0.101000
C241	C24	0.411600	0.726100	0.859500
C251	C25	0.364600	0.756600	0.908900
C261	C26	0.292600	0.764000	0.881300
H101	H10	0.266600	0.747800	0.828300
C271	C27	0.259800	0.796800	0.936000
H111	H11	0.211300	0.802300	0.919300
C281	C28	0.299100	0.820900	0.014200
H121	H12	0.277700	0.841700	0.052200
C291	C29	0.371100	0.812880	0.033700
C301	C30	0.423800	0.838000	0.107200
C311	C31	0.549200	0.846700	0.164100
C321	C32	0.588300	0.880800	0.128600
H131	H13	0.574000	0.892400	0.064800
C331	C33	0.648100	0.898200	0.185800
C341	C34	0.667900	0.882900	0.281400
H141	H14	0.707700	0.895500	0.321100
C351	C35	0.628800	0.848600	0.319200
C361	C36	0.569500	0.830000	0.260400
H151	H15	0.543500	0.806700	0.284900
C371	C37	0.695600	0.934500	0.145100
C381	C38	0.651100	0.832400	0.424400
C391	C39	0.529900	0.704210	0.854700
C401	C40	0.567400	0.723300	0.787300
H161	H16	0.561100	0.754800	0.772000
C411	C41	0.613500	0.698200	0.741500
C421	C42	0.622500	0.650800	0.764700
H171	H17	0.651800	0.632600	0.732300
C431	C43	0.587700	0.631000	0.835700
C441	C44	0.541400	0.658000	0.881900
H181	H18	0.518600	0.645000	0.930400
C451	C45	0.654900	0.720700	0.670900
C461	C46	0.601400	0.581500	0.866100
Zn31	Zn3	0.802930	0.314110	0.393120
O291	O29	0.114900	0.201000	0.206800
O301	O30	0.094100	0.368620	0.834700
O311	O31	0.870600	0.295900	0.549400
O321	O32	0.808300	0.357400	0.516300
O331	O33	0.758500	0.451200	0.799100
O341	O34	0.827100	0.446500	0.943800
O351	O35	0.838100	0.264100	0.317800
O361	O36	0.820400	0.196200	0.392300
O371	O37	0.889100	0.052830	0.200900
O381	O38	0.898300	0.070500	0.047300
O391	O39	0.707200	0.288300	0.425100
O401	O40	0.889700	0.357300	0.360900
O411	O41	0.742400	0.346600	0.274300
O421	O42	0.800500	0.448500	0.138100
N71	N7	0.020500	0.231100	0.104100
N81	N8	0.098500	0.281600	0.017600
N91	N9	0.009200	0.325720	0.899000
C471	C47	0.088400	0.226100	0.140500
C481	C48	0.135400	0.256600	0.091100
C491	C49	0.207400	0.264000	0.118700
H191	H19	0.233400	0.247800	0.171700
C501	C50	0.240200	0.296800	0.064000
H201	H20	0.288700	0.302300	0.080700
C511	C51	0.200900	0.320900	0.985800
H211	H21	0.222300	0.341700	0.947800
C521	C52	0.128900	0.312880	0.966300
C531	C53	0.076200	0.338000	0.892800
C541	C54	0.950800	0.346700	0.835900
C551	C55	0.911700	0.380800	0.871400
H221	H22	0.926000	0.392400	0.935200
C561	C56	0.851900	0.398200	0.814200
C571	C57	0.832100	0.382900	0.718600
H231	H23	0.792300	0.395500	0.678900
C581	C58	0.871200	0.348600	0.680800
C591	C59	0.930500	0.330000	0.739600
H241	H24	0.956500	0.306700	0.715100
C601	C60	0.804400	0.434500	0.854900
C611	C61	0.848900	0.332400	0.575600
C621	C62	0.970100	0.204210	0.145300
C631	C63	0.932600	0.223300	0.212700
H251	H25	0.938900	0.254800	0.228000
C641	C64	0.886500	0.198200	0.258500
C651	C65	0.877500	0.150800	0.235300
H261	H26	0.848200	0.132600	0.267700
C661	C66	0.912300	0.131000	0.164300
C671	C67	0.958600	0.158000	0.118100
H271	H27	0.981400	0.145000	0.069600
C681	C68	0.845100	0.220700	0.329100
C691	C69	0.898600	0.081500	0.133900
Zn41	Zn4	0.302930	0.814110	0.393120
O431	O43	0.614900	0.701000	0.206800
O441	O44	0.594100	0.868620	0.834700
O451	O45	0.370600	0.795900	0.549400
O461	O46	0.308300	0.857400	0.516300
O471	O47	0.258500	0.951200	0.799100
O481	O48	0.327100	0.946500	0.943800
O491	O49	0.338100	0.764100	0.317800
O501	O50	0.320400	0.696200	0.392300
O511	O51	0.389100	0.552830	0.200900
O521	O52	0.398300	0.570500	0.047300
O531	O53	0.207200	0.788300	0.425100
O541	O54	0.389700	0.857300	0.360900
O551	O55	0.242400	0.846600	0.274300
O561	O56	0.300500	0.948500	0.138100
N101	N10	0.520500	0.731100	0.104100
N111	N11	0.598500	0.781600	0.017600
N121	N12	0.509200	0.825720	0.899000
C701	C70	0.588400	0.726100	0.140500
C711	C71	0.635400	0.756600	0.091100
C721	C72	0.707400	0.764000	0.118700
H281	H28	0.733400	0.747800	0.171700
C731	C73	0.740200	0.796800	0.064000
H291	H29	0.788700	0.802300	0.080700
C741	C74	0.700900	0.820900	0.985800
H301	H30	0.722300	0.841700	0.947800
C751	C75	0.628900	0.812880	0.966300
C761	C76	0.576200	0.838000	0.892800
C771	C77	0.450800	0.846700	0.835900
C781	C78	0.411700	0.880800	0.871400
H311	H31	0.426000	0.892400	0.935200
C791	C79	0.351900	0.898200	0.814200
C801	C80	0.332100	0.882900	0.718600
H321	H32	0.292300	0.895500	0.678900
C811	C81	0.371200	0.848600	0.680800
C821	C82	0.430500	0.830000	0.739600
H331	H33	0.456500	0.806700	0.715100
C831	C83	0.304400	0.934500	0.854900
C841	C84	0.348900	0.832400	0.575600
C851	C85	0.470100	0.704210	0.145300
C861	C86	0.432600	0.723300	0.212700
H341	H34	0.438900	0.754800	0.228000
C871	C87	0.386500	0.698200	0.258500
C881	C88	0.377500	0.650800	0.235300
H351	H35	0.348200	0.632600	0.267700
C891	C89	0.412300	0.631000	0.164300
C901	C90	0.458600	0.658000	0.118100
H361	H36	0.481400	0.645000	0.069600
C911	C91	0.345100	0.720700	0.329100
C921	C92	0.398600	0.581500	0.133900
Zn51	Zn5	0.802930	0.685890	0.393120
O571	O57	0.114900	0.799000	0.206800
O581	O58	0.094100	0.631380	0.834700
O591	O59	0.870600	0.704100	0.549400
O601	O60	0.808300	0.642600	0.516300
O611	O61	0.758500	0.548800	0.799100
O621	O62	0.827100	0.553500	0.943800
O631	O63	0.838100	0.735900	0.317800
O641	O64	0.820400	0.803800	0.392300
O651	O65	0.889100	0.947170	0.200900
O661	O66	0.898300	0.929500	0.047300
O671	O67	0.707200	0.711700	0.425100
O681	O68	0.889700	0.642700	0.360900
O691	O69	0.742400	0.653400	0.274300
O701	O70	0.800500	0.551500	0.138100
N131	N13	0.020500	0.768900	0.104100
N141	N14	0.098500	0.718400	0.017600
N151	N15	0.009200	0.674280	0.899000
C931	C93	0.088400	0.773900	0.140500
C941	C94	0.135400	0.743400	0.091100
C951	C95	0.207400	0.736000	0.118700
H371	H37	0.233400	0.752200	0.171700
C961	C96	0.240200	0.703200	0.064000
H381	H38	0.288700	0.697700	0.080700
C971	C97	0.200900	0.679100	0.985800
H391	H39	0.222300	0.658300	0.947800
C981	C98	0.128900	0.687120	0.966300
C991	C99	0.076200	0.662000	0.892800
C1001	C100	0.950800	0.653300	0.835900
C1011	C101	0.911700	0.619200	0.871400
H401	H40	0.926000	0.607600	0.935200
C1021	C102	0.851900	0.601800	0.814200
C1031	C103	0.832100	0.617100	0.718600
H411	H41	0.792300	0.604500	0.678900
C1041	C104	0.871200	0.651400	0.680800
C1051	C105	0.930500	0.670000	0.739600
H421	H42	0.956500	0.693300	0.715100
C1061	C106	0.804400	0.565500	0.854900
C1071	C107	0.848900	0.667600	0.575600
C1081	C108	0.970100	0.795790	0.145300
C1091	C109	0.932600	0.776700	0.212700
H431	H43	0.938900	0.745200	0.228000
C1101	C110	0.886500	0.801800	0.258500
C1111	C111	0.877500	0.849200	0.235300
H441	H44	0.848200	0.867400	0.267700
C1121	C112	0.912300	0.869000	0.164300
C1131	C113	0.958600	0.842000	0.118100
H451	H45	0.981400	0.855000	0.069600
C1141	C114	0.845100	0.779300	0.329100
C1151	C115	0.898600	0.918500	0.133900
Zn61	Zn6	0.302930	0.185890	0.393120
O711	O71	0.614900	0.299000	0.206800
O721	O72	0.594100	0.131380	0.834700
O731	O73	0.370600	0.204100	0.549400
O741	O74	0.308300	0.142600	0.516300
O751	O75	0.258500	0.048800	0.799100
O761	O76	0.327100	0.053500	0.943800
O771	O77	0.338100	0.235900	0.317800
O781	O78	0.320400	0.303800	0.392300
O791	O79	0.389100	0.447170	0.200900
O801	O80	0.398300	0.429500	0.047300
O811	O81	0.207200	0.211700	0.425100
O821	O82	0.389700	0.142700	0.360900
O831	O83	0.242400	0.153400	0.274300
O841	O84	0.300500	0.051500	0.138100
N161	N16	0.520500	0.268900	0.104100
N171	N17	0.598500	0.218400	0.017600
N181	N18	0.509200	0.174280	0.899000
C1161	C116	0.588400	0.273900	0.140500
C1171	C117	0.635400	0.243400	0.091100
C1181	C118	0.707400	0.236000	0.118700
H461	H46	0.733400	0.252200	0.171700
C1191	C119	0.740200	0.203200	0.064000
H471	H47	0.788700	0.197700	0.080700
C1201	C120	0.700900	0.179100	0.985800
H481	H48	0.722300	0.158300	0.947800
C1211	C121	0.628900	0.187120	0.966300
C1221	C122	0.576200	0.162000	0.892800
C1231	C123	0.450800	0.153300	0.835900
C1241	C124	0.411700	0.119200	0.871400
H491	H49	0.426000	0.107600	0.935200
C1251	C125	0.351900	0.101800	0.814200
C1261	C126	0.332100	0.117100	0.718600
H501	H50	0.292300	0.104500	0.678900
C1271	C127	0.371200	0.151400	0.680800
C1281	C128	0.430500	0.170000	0.739600
H511	H51	0.456500	0.193300	0.715100
C1291	C129	0.304400	0.065500	0.854900
C1301	C130	0.348900	0.167600	0.575600
C1311	C131	0.470100	0.295790	0.145300
C1321	C132	0.432600	0.276700	0.212700
H521	H52	0.438900	0.245200	0.228000
C1331	C133	0.386500	0.301800	0.258500
C1341	C134	0.377500	0.349200	0.235300
H531	H53	0.348200	0.367400	0.267700
C1351	C135	0.412300	0.369000	0.164300
C1361	C136	0.458600	0.342000	0.118100
H541	H54	0.481400	0.355000	0.069600
C1371	C137	0.345100	0.279300	0.329100
C1381	C138	0.398600	0.418500	0.133900
Zn71	Zn7	0.197070	0.685890	0.606880
O851	O85	0.885100	0.799000	0.793200
O861	O86	0.905900	0.631380	0.165300
O871	O87	0.129400	0.704100	0.450600
O881	O88	0.191700	0.642600	0.483700
O891	O89	0.241500	0.548800	0.200900
O901	O90	0.172900	0.553500	0.056200
O911	O91	0.161900	0.735900	0.682200
O921	O92	0.179600	0.803800	0.607700
O931	O93	0.110900	0.947170	0.799100
O941	O94	0.101700	0.929500	0.952700
O951	O95	0.292800	0.711700	0.574900
O961	O96	0.110300	0.642700	0.639100
O971	O97	0.257600	0.653400	0.725700
O981	O98	0.199500	0.551500	0.861900
N191	N19	0.979500	0.768900	0.895900
N201	N20	0.901500	0.718400	0.982400
N211	N21	0.990800	0.674280	0.101000
C1391	C139	0.911600	0.773900	0.859500
C1401	C140	0.864600	0.743400	0.908900
C1411	C141	0.792600	0.736000	0.881300
H551	H55	0.766600	0.752200	0.828300
C1421	C142	0.759800	0.703200	0.936000
H561	H56	0.711300	0.697700	0.919300
C1431	C143	0.799100	0.679100	0.014200
H571	H57	0.777700	0.658300	0.052200
C1441	C144	0.871100	0.687120	0.033700
C1451	C145	0.923800	0.662000	0.107200
C1461	C146	0.049200	0.653300	0.164100
C1471	C147	0.088300	0.619200	0.128600
H581	H58	0.074000	0.607600	0.064800
C1481	C148	0.148100	0.601800	0.185800
C1491	C149	0.167900	0.617100	0.281400
H591	H59	0.207700	0.604500	0.321100
C1501	C150	0.128800	0.651400	0.319200
C1511	C151	0.069500	0.670000	0.260400
H601	H60	0.043500	0.693300	0.284900
C1521	C152	0.195600	0.565500	0.145100
C1531	C153	0.151100	0.667600	0.424400
C1541	C154	0.029900	0.795790	0.854700
C1551	C155	0.067400	0.776700	0.787300
H611	H61	0.061100	0.745200	0.772000
C1561	C156	0.113500	0.801800	0.741500
C1571	C157	0.122500	0.849200	0.764700
H621	H62	0.151800	0.867400	0.732300
C1581	C158	0.087700	0.869000	0.835700
C1591	C159	0.041400	0.842000	0.881900
H631	H63	0.018600	0.855000	0.930400
C1601	C160	0.154900	0.779300	0.670900
C1611	C161	0.101400	0.918500	0.866100
Zn81	Zn8	0.697070	0.185890	0.606880
O991	O99	0.385100	0.299000	0.793200
O1001	O100	0.405900	0.131380	0.165300
O1011	O101	0.629400	0.204100	0.450600
O1021	O102	0.691700	0.142600	0.483700
O1031	O103	0.741500	0.048800	0.200900
O1041	O104	0.672900	0.053500	0.056200
O1051	O105	0.661900	0.235900	0.682200
O1061	O106	0.679600	0.303800	0.607700
O1071	O107	0.610900	0.447170	0.799100
O1081	O108	0.601700	0.429500	0.952700
O1091	O109	0.792800	0.211700	0.574900
O1101	O110	0.610300	0.142700	0.639100
O1111	O111	0.757600	0.153400	0.725700
O1121	O112	0.699500	0.051500	0.861900
N221	N22	0.479500	0.268900	0.895900
N231	N23	0.401500	0.218400	0.982400
N241	N24	0.490800	0.174280	0.101000
C1621	C162	0.411600	0.273900	0.859500
C1631	C163	0.364600	0.243400	0.908900
C1641	C164	0.292600	0.236000	0.881300
H641	H64	0.266600	0.252200	0.828300
C1651	C165	0.259800	0.203200	0.936000
H651	H65	0.211300	0.197700	0.919300
C1661	C166	0.299100	0.179100	0.014200
H661	H66	0.277700	0.158300	0.052200
C1671	C167	0.371100	0.187120	0.033700
C1681	C168	0.423800	0.162000	0.107200
C1691	C169	0.549200	0.153300	0.164100
C1701	C170	0.588300	0.119200	0.128600
H671	H67	0.574000	0.107600	0.064800
C1711	C171	0.648100	0.101800	0.185800
C1721	C172	0.667900	0.117100	0.281400
H681	H68	0.707700	0.104500	0.321100
C1731	C173	0.628800	0.151400	0.319200
C1741	C174	0.569500	0.170000	0.260400
H691	H69	0.543500	0.193300	0.284900
C1751	C175	0.695600	0.065500	0.145100
C1761	C176	0.651100	0.167600	0.424400
C1771	C177	0.529900	0.295790	0.854700
C1781	C178	0.567400	0.276700	0.787300
H701	H70	0.561100	0.245200	0.772000
C1791	C179	0.613500	0.301800	0.741500
C1801	C180	0.622500	0.349200	0.764700
H711	H71	0.651800	0.367400	0.732300
C1811	C181	0.587700	0.369000	0.835700
C1821	C182	0.541400	0.342000	0.881900
H721	H72	0.518600	0.355000	0.930400
C1831	C183	0.654900	0.279300	0.670900
C1841	C184	0.601400	0.418500	0.866100
Zn91	Zn9	0.316120	0.500000	0.198720
Zn101	Zn10	0.192140	0.500000	0.969170
O1131	O113	0.301500	0.500000	0.028700
O1141	O114	0.335400	0.500000	0.355500
Zn111	Zn11	0.816120	0.000000	0.198720
Zn121	Zn12	0.692140	0.000000	0.969170
O1151	O115	0.801500	0.000000	0.028700
O1161	O116	0.835400	0.000000	0.355500
Zn131	Zn13	0.683880	0.500000	0.801280
Zn141	Zn14	0.807860	0.500000	0.030830
O1171	O117	0.698500	0.500000	0.971300
O1181	O118	0.664600	0.500000	0.644500
Zn151	Zn15	0.183880	0.000000	0.801280
Zn161	Zn16	0.307860	0.000000	0.030830
O1191	O119	0.198500	0.000000	0.971300
O1201	O120	0.164600	0.000000	0.644500
Co11	Co1	0.000000	0.278670	0.000000
Co21	Co2	0.500000	0.778670	0.000000
Co31	Co3	0.000000	0.721330	0.000000
Co41	Co4	0.500000	0.221330	0.000000
Na11	Na1	0.096600	0.000000	0.985200
Na21	Na2	0.596600	0.500000	0.985200
Na31	Na3	0.903400	0.000000	0.014800
Na41	Na4	0.403400	0.500000	0.014800
O1211	O121	0.000000	0.000000	0.000000
O1221	O122	0.500000	0.500000	0.000000
