data_OLANEW_freeONLY_PM
_symmetry_space_group_name_H-M	'P1'
_cell_length_a	16.413000
_cell_length_b	18.430000
_cell_length_c	24.700000
_cell_angle_alpha	87.900000
_cell_angle_beta	85.395000
_cell_angle_gamma	75.058000
_symmetry_Int_Tables_number 1

loop_
_symmetry_equiv_pos_as_xyz
'x,y,z'

loop_
_atom_site_label
_atom_site_type_symbol
_atom_site_fract_x
_atom_site_fract_y
_atom_site_fract_z
Cd11	Cd1	0.246190	0.178420	0.352820
Cd21	Cd2	0.918890	0.329510	0.554070
Cd31	Cd3	0.635960	0.485840	0.496100
Cd41	Cd4	0.727530	0.235000	0.031380
Cd51	Cd5	0.834620	0.699900	0.155940
Cd61	Cd6	0.606390	0.996490	0.643640
Cd71	Cd7	0.609740	0.499410	0.185200
Cd81	Cd8	0.668980	0.052130	0.998950
Co11	Co1	0.790730	0.101400	0.337120
Co21	Co2	0.236310	0.364640	0.152320
O11	O1	0.665500	0.943900	0.320800
O21	O2	0.824200	0.254800	0.555300
O31	O3	0.727300	0.301300	0.259300
O41	O4	0.850200	0.198300	0.980900
O51	O5	0.115800	0.170600	0.323900
O61	O6	0.012000	0.403000	0.532300
O71	O7	0.120100	0.236100	0.396900
O81	O8	0.659600	0.413700	0.574200
O91	O9	0.852000	0.397900	0.483300
O101	O10	0.751800	0.533000	0.514100
O111	O11	0.737300	0.413600	0.439000
O121	O12	0.600200	0.555500	0.419200
O131	O13	0.637800	0.005200	0.549400
O141	O14	0.667800	0.090400	0.659600
O151	O15	0.737800	0.928300	0.591500
O161	O16	0.479300	0.080800	0.629900
O171	O17	0.976800	0.765900	0.480700
O181	O18	0.961900	0.682400	0.101500
O191	O19	0.987000	0.774200	0.392800
O201	O20	0.912600	0.619500	0.217300
O211	O21	0.019200	0.977600	0.278400
O221	O22	0.708100	0.709600	0.208900
O231	O23	0.756600	0.173300	0.491100
O241	O24	0.596600	0.252100	0.078200
O251	O25	0.354700	0.204800	0.384600
O261	O26	0.671200	0.181000	0.962700
O271	O27	0.453600	0.098100	0.368200
O281	O28	0.698700	0.923400	0.003000
O291	O29	0.437300	0.422600	0.451300
O301	O30	0.589200	0.055200	0.925200
O311	O31	0.561400	0.403100	0.482400
O321	O32	0.799200	0.028500	0.952400
O331	O33	0.804700	0.828600	0.129600
O341	O34	0.625900	0.446900	0.274700
O351	O35	0.859100	0.798800	0.207300
O361	O36	0.598000	0.622800	0.159400
O371	O37	0.793900	0.177800	0.106100
O381	O38	0.747500	0.496400	0.188600
O391	O39	0.746500	0.096700	0.062200
O401	O40	0.666800	0.371800	0.164600
O411	O41	0.076500	0.570400	0.158300
O421	O42	0.572400	0.484200	0.096400
O431	O43	0.195700	0.203000	0.060400
O441	O44	0.311200	0.096400	0.287200
O451	O45	0.429200	0.011100	0.264400
O461	O46	0.550400	0.130400	0.042800
O471	O47	0.557900	0.016700	0.069000
O481	O48	0.472300	0.516100	0.199900
O491	O49	0.454400	0.586800	0.269400
O501	O50	0.184900	0.610500	0.388100
O511	O51	0.075000	0.602100	0.351900
O521	O52	0.462700	0.386300	0.085500
O531	O53	0.212300	0.297300	0.308600
O541	O54	0.992600	0.196300	0.137900
O551	O55	0.865000	0.259200	0.164200
H11	H1	0.853200	0.229500	0.144200
O561	O56	0.817200	0.472300	0.289000
H21	H2	0.790600	0.504100	0.310700
O571	O57	0.921900	0.479100	0.336800
O581	O58	0.247800	0.651300	0.939400
O591	O59	0.308700	0.647600	0.015800
O601	O60	0.181100	0.415400	0.878300
O611	O61	0.231400	0.310600	0.924300
N11	N1	0.751500	0.011200	0.352400
N21	N2	0.706200	0.120000	0.289200
N31	N3	0.802000	0.200100	0.308600
N41	N4	0.878700	0.045000	0.285100
N51	N5	0.881600	0.079900	0.381100
N61	N6	0.729800	0.151300	0.402800
N71	N7	0.190600	0.470200	0.171200
N81	N8	0.143100	0.386500	0.110500
N91	N9	0.251700	0.265600	0.120900
N101	N10	0.182900	0.334100	0.219800
N111	N11	0.330300	0.342900	0.193800
N121	N12	0.320600	0.389700	0.098300
C11	C1	0.696900	0.999300	0.320700
C21	C2	0.670600	0.062800	0.281100
C31	C3	0.616100	0.071500	0.240800
H31	H3	0.588500	0.034500	0.235300
C41	C4	0.602500	0.135300	0.208600
H41	H4	0.566300	0.140300	0.180800
C51	C5	0.640400	0.191500	0.216300
H51	H5	0.631500	0.234300	0.194200
C61	C6	0.693500	0.181900	0.259200
C71	C7	0.742700	0.234900	0.276200
C81	C8	0.849800	0.240000	0.334500
C91	C9	0.937400	0.215100	0.331000
H61	H6	0.964500	0.178900	0.305700
C101	C10	0.984700	0.243600	0.364500
C111	C11	0.945400	0.297900	0.401500
H71	H7	0.977400	0.316400	0.424400
C121	C12	0.856900	0.325600	0.404700
C131	C13	0.810800	0.297100	0.370400
H81	H8	0.752500	0.316500	0.371400
C141	C14	0.080700	0.215000	0.362000
C151	C15	0.812200	0.382800	0.445200
C161	C16	0.775900	0.963300	0.398200
C171	C17	0.730300	0.980300	0.448800
H91	H9	0.681500	0.019500	0.451300
C181	C18	0.757800	0.939200	0.494700
C191	C19	0.829300	0.879600	0.491100
H101	H10	0.846500	0.851100	0.521900
C201	C20	0.875100	0.862300	0.441500
C211	C21	0.847400	0.904700	0.395500
H111	H11	0.878100	0.893000	0.362200
C221	C22	0.707300	0.958900	0.548100
C231	C23	0.951500	0.796700	0.438900
C241	C24	0.954600	0.018900	0.302900
C251	C25	0.957200	0.042100	0.360100
C261	C26	0.026600	0.030200	0.390800
H121	H12	0.079800	0.003900	0.376700
C271	C27	0.015200	0.058200	0.442400
H131	H13	0.061100	0.051000	0.463600
C281	C28	0.935200	0.097200	0.463300
H141	H14	0.926900	0.115800	0.498400
C291	C29	0.868700	0.107500	0.430600
C301	C30	0.778900	0.148500	0.444700
C311	C31	0.644000	0.192000	0.409200
C321	C32	0.620000	0.265100	0.429300
H151	H15	0.661300	0.287100	0.439500
C331	C33	0.535900	0.305600	0.434300
C341	C34	0.474500	0.273500	0.417800
H161	H16	0.418300	0.300900	0.419900
C351	C35	0.495800	0.201100	0.398200
C361	C36	0.580600	0.161800	0.394500
H171	H17	0.595100	0.113000	0.381500
C371	C37	0.510500	0.382300	0.459400
C381	C38	0.430500	0.163800	0.382800
C391	C39	0.862300	0.022000	0.233900
C401	C40	0.859700	0.947900	0.226200
H181	H18	0.874300	0.912700	0.254000
C411	C41	0.836000	0.925700	0.178600
C421	C42	0.810200	0.979800	0.137300
H191	H19	0.790300	0.966500	0.105800
C431	C43	0.814600	0.053000	0.144100
C441	C44	0.842500	0.072100	0.191600
H201	H20	0.848100	0.120700	0.195000
C451	C45	0.830900	0.846400	0.171000
C461	C46	0.783200	0.112300	0.101200
C471	C47	0.117900	0.504300	0.150600
C481	C48	0.091300	0.454900	0.113400
C491	C49	0.018700	0.471900	0.083900
H211	H21	0.980800	0.519100	0.085800
C501	C50	0.005500	0.417100	0.052600
H221	H22	0.957800	0.426900	0.032800
C511	C51	0.062600	0.346800	0.049900
H231	H23	0.054200	0.310100	0.027700
C521	C52	0.130200	0.332500	0.079800
C531	C53	0.197500	0.259400	0.085500
C541	C54	0.316100	0.200400	0.133900
C551	C55	0.311000	0.164100	0.184100
H241	H24	0.264600	0.181000	0.208700
C561	C56	0.375300	0.102900	0.197200
C571	C57	0.442200	0.075100	0.159500
H251	H25	0.483100	0.031600	0.167600
C581	C58	0.448800	0.111400	0.110000
C591	C59	0.386200	0.175600	0.097200
H261	H26	0.391300	0.201500	0.064600
C601	C60	0.370600	0.068400	0.252700
C611	C61	0.523100	0.083600	0.070400
C621	C62	0.221500	0.508100	0.211500
C631	C63	0.302600	0.517200	0.204400
H271	H27	0.334100	0.503500	0.171600
C641	C64	0.337900	0.546100	0.244300
C651	C65	0.286400	0.572600	0.291100
H281	H28	0.307300	0.596000	0.317600
C661	C66	0.206700	0.564600	0.298300
C671	C67	0.172200	0.532700	0.258700
H291	H29	0.117100	0.527900	0.263800
C681	C68	0.426600	0.552200	0.236500
C691	C69	0.150200	0.593700	0.349600
C701	C70	0.398100	0.376800	0.112800
C711	C71	0.404000	0.350300	0.171000
C721	C72	0.471100	0.341200	0.201700
H301	H30	0.522800	0.346300	0.186100
C731	C73	0.462000	0.324400	0.255800
H311	H31	0.507500	0.319100	0.277200
C741	C74	0.384000	0.315100	0.279700
H321	H32	0.376300	0.303900	0.316500
C751	C75	0.320600	0.323400	0.245600
C761	C76	0.231100	0.317800	0.260900
C771	C77	0.095000	0.334800	0.226900
C781	C78	0.038200	0.388000	0.261400
H331	H33	0.059200	0.418100	0.283100
C791	C79	0.952300	0.395300	0.263100
C801	C80	0.920600	0.349300	0.229900
H341	H34	0.862700	0.355500	0.229200
C811	C81	0.975600	0.296400	0.199300
C821	C82	0.062500	0.287800	0.199000
H351	H35	0.099100	0.249100	0.179200
C831	C83	0.893900	0.453600	0.299100
C841	C84	0.946000	0.246100	0.164400
C851	C85	0.299300	0.424700	0.047200
C861	C86	0.275900	0.387000	0.006800
H361	H36	0.280000	0.335800	0.010900
C871	C87	0.246100	0.424500	0.959700
C881	C88	0.244300	0.499900	0.951900
H371	H37	0.224900	0.524800	0.920200
C891	C89	0.271100	0.537800	0.991200
C901	C90	0.298600	0.500700	0.039700
H381	H38	0.316000	0.526300	0.066600
C911	C91	0.218900	0.381200	0.918200
C921	C92	0.275700	0.617200	0.981800
Cd91	Cd9	0.753810	0.821580	0.647180
Cd101	Cd10	0.081110	0.670490	0.445930
Cd111	Cd11	0.364040	0.514160	0.503900
Cd121	Cd12	0.272470	0.765000	0.968620
Cd131	Cd13	0.165380	0.300100	0.844060
Cd141	Cd14	0.393610	0.003510	0.356360
Cd151	Cd15	0.390260	0.500590	0.814800
Cd161	Cd16	0.331020	0.947870	0.001050
Co31	Co3	0.209270	0.898600	0.662880
Co41	Co4	0.763690	0.635360	0.847680
O621	O62	0.334500	0.056100	0.679200
O631	O63	0.175800	0.745200	0.444700
O641	O64	0.272700	0.698700	0.740700
O651	O65	0.149800	0.801700	0.019100
O661	O66	0.884200	0.829400	0.676100
O671	O67	0.988000	0.597000	0.467700
O681	O68	0.879900	0.763900	0.603100
O691	O69	0.340400	0.586300	0.425800
O701	O70	0.148000	0.602100	0.516700
O711	O71	0.248200	0.467000	0.485900
O721	O72	0.262700	0.586400	0.561000
O731	O73	0.399800	0.444500	0.580800
O741	O74	0.362200	0.994800	0.450600
O751	O75	0.332200	0.909600	0.340400
O761	O76	0.262200	0.071700	0.408500
O771	O77	0.520700	0.919200	0.370100
O781	O78	0.023200	0.234100	0.519300
O791	O79	0.038100	0.317600	0.898500
O801	O80	0.013000	0.225800	0.607200
O811	O81	0.087400	0.380500	0.782700
O821	O82	0.980800	0.022400	0.721600
O831	O83	0.291900	0.290400	0.791100
O841	O84	0.243400	0.826700	0.508900
O851	O85	0.403400	0.747900	0.921800
O861	O86	0.645300	0.795200	0.615400
O871	O87	0.328800	0.819000	0.037300
O881	O88	0.546400	0.901900	0.631800
O891	O89	0.301300	0.076600	0.997000
O901	O90	0.562700	0.577400	0.548700
O911	O91	0.410800	0.944800	0.074800
O921	O92	0.438600	0.596900	0.517600
O931	O93	0.200800	0.971500	0.047600
O941	O94	0.195300	0.171400	0.870400
O951	O95	0.374100	0.553100	0.725300
O961	O96	0.140900	0.201200	0.792700
O971	O97	0.402000	0.377200	0.840600
O981	O98	0.206100	0.822200	0.893900
O991	O99	0.252500	0.503600	0.811400
O1001	O100	0.253500	0.903300	0.937800
O1011	O101	0.333200	0.628200	0.835400
O1021	O102	0.923500	0.429600	0.841700
O1031	O103	0.427600	0.515800	0.903600
O1041	O104	0.804300	0.797000	0.939600
O1051	O105	0.688800	0.903600	0.712800
O1061	O106	0.570800	0.988900	0.735600
O1071	O107	0.449600	0.869600	0.957200
O1081	O108	0.442100	0.983300	0.931000
O1091	O109	0.527700	0.483900	0.800100
O1101	O110	0.545600	0.413200	0.730600
O1111	O111	0.815100	0.389500	0.611900
O1121	O112	0.925000	0.397900	0.648100
O1131	O113	0.537300	0.613700	0.914500
O1141	O114	0.787700	0.702700	0.691400
O1151	O115	0.007400	0.803700	0.862100
O1161	O116	0.135000	0.740800	0.835800
H391	H39	0.146800	0.770500	0.855800
O1171	O117	0.182800	0.527700	0.711000
H401	H40	0.209400	0.495900	0.689300
O1181	O118	0.078100	0.520900	0.663200
O1191	O119	0.752200	0.348700	0.060600
O1201	O120	0.691300	0.352400	0.984200
O1211	O121	0.818900	0.584600	0.121700
O1221	O122	0.768600	0.689400	0.075700
N131	N13	0.248500	0.988800	0.647600
N141	N14	0.293800	0.880000	0.710800
N151	N15	0.198000	0.799900	0.691400
N161	N16	0.121300	0.955000	0.714900
N171	N17	0.118400	0.920100	0.618900
N181	N18	0.270200	0.848700	0.597200
N191	N19	0.809400	0.529800	0.828800
N201	N20	0.856900	0.613500	0.889500
N211	N21	0.748300	0.734400	0.879100
N221	N22	0.817100	0.665900	0.780200
N231	N23	0.669700	0.657100	0.806200
N241	N24	0.679400	0.610300	0.901700
C931	C93	0.303100	0.000700	0.679300
C941	C94	0.329400	0.937200	0.718900
C951	C95	0.383900	0.928500	0.759200
H411	H41	0.411500	0.965500	0.764700
C961	C96	0.397500	0.864700	0.791400
H421	H42	0.433700	0.859700	0.819200
C971	C97	0.359600	0.808500	0.783700
H431	H43	0.368500	0.765700	0.805800
C981	C98	0.306500	0.818100	0.740800
C991	C99	0.257300	0.765100	0.723800
C1001	C100	0.150200	0.760000	0.665500
C1011	C101	0.062600	0.784900	0.669000
H441	H44	0.035500	0.821100	0.694300
C1021	C102	0.015300	0.756400	0.635500
C1031	C103	0.054600	0.702100	0.598500
H451	H45	0.022600	0.683600	0.575600
C1041	C104	0.143100	0.674400	0.595300
C1051	C105	0.189200	0.702900	0.629600
H461	H46	0.247500	0.683500	0.628600
C1061	C106	0.919300	0.785000	0.638000
C1071	C107	0.187800	0.617200	0.554800
C1081	C108	0.224100	0.036700	0.601800
C1091	C109	0.269700	0.019700	0.551200
H471	H47	0.318500	0.980500	0.548700
C1101	C110	0.242200	0.060800	0.505300
C1111	C111	0.170700	0.120400	0.508900
H481	H48	0.153500	0.148900	0.478100
C1121	C112	0.124900	0.137700	0.558500
C1131	C113	0.152600	0.095300	0.604500
H491	H49	0.121900	0.107000	0.637800
C1141	C114	0.292700	0.041100	0.451900
C1151	C115	0.048500	0.203300	0.561100
C1161	C116	0.045400	0.981100	0.697100
C1171	C117	0.042800	0.957900	0.639900
C1181	C118	0.973400	0.969800	0.609200
H501	H50	0.920200	0.996100	0.623300
C1191	C119	0.984800	0.941800	0.557600
H511	H51	0.938900	0.949000	0.536400
C1201	C120	0.064800	0.902800	0.536700
H521	H52	0.073100	0.884200	0.501600
C1211	C121	0.131300	0.892500	0.569400
C1221	C122	0.221100	0.851500	0.555300
C1231	C123	0.356000	0.808000	0.590800
C1241	C124	0.380000	0.734900	0.570700
H531	H53	0.338700	0.712900	0.560500
C1251	C125	0.464100	0.694400	0.565700
C1261	C126	0.525500	0.726500	0.582200
H541	H54	0.581700	0.699100	0.580100
C1271	C127	0.504200	0.798900	0.601800
C1281	C128	0.419400	0.838200	0.605500
H551	H55	0.404900	0.887000	0.618500
C1291	C129	0.489500	0.617700	0.540600
C1301	C130	0.569500	0.836200	0.617200
C1311	C131	0.137700	0.978000	0.766100
C1321	C132	0.140300	0.052100	0.773800
H561	H56	0.125700	0.087300	0.746000
C1331	C133	0.164000	0.074300	0.821400
C1341	C134	0.189800	0.020200	0.862700
H571	H57	0.209700	0.033500	0.894200
C1351	C135	0.185400	0.947000	0.855900
C1361	C136	0.157500	0.927900	0.808400
H581	H58	0.151900	0.879300	0.805000
C1371	C137	0.169100	0.153600	0.829000
C1381	C138	0.216800	0.887700	0.898800
C1391	C139	0.882100	0.495700	0.849400
C1401	C140	0.908700	0.545100	0.886600
C1411	C141	0.981300	0.528100	0.916100
H591	H59	0.019200	0.480900	0.914200
C1421	C142	0.994500	0.582900	0.947400
H601	H60	0.042200	0.573100	0.967200
C1431	C143	0.937400	0.653200	0.950100
H611	H61	0.945800	0.689900	0.972300
C1441	C144	0.869800	0.667500	0.920200
C1451	C145	0.802500	0.740600	0.914500
C1461	C146	0.683900	0.799600	0.866100
C1471	C147	0.689000	0.835900	0.815900
H621	H62	0.735400	0.819000	0.791300
C1481	C148	0.624700	0.897100	0.802800
C1491	C149	0.557800	0.924900	0.840500
H631	H63	0.516900	0.968400	0.832400
C1501	C150	0.551200	0.888600	0.890000
C1511	C151	0.613800	0.824400	0.902800
H641	H64	0.608700	0.798500	0.935400
C1521	C152	0.629400	0.931600	0.747300
C1531	C153	0.476900	0.916400	0.929600
C1541	C154	0.778500	0.491900	0.788500
C1551	C155	0.697400	0.482800	0.795600
H651	H65	0.665900	0.496500	0.828400
C1561	C156	0.662100	0.453900	0.755700
C1571	C157	0.713600	0.427400	0.708900
H661	H66	0.692700	0.404000	0.682400
C1581	C158	0.793300	0.435400	0.701700
C1591	C159	0.827800	0.467300	0.741300
H671	H67	0.882900	0.472100	0.736200
C1601	C160	0.573400	0.447800	0.763500
C1611	C161	0.849800	0.406300	0.650400
C1621	C162	0.601900	0.623200	0.887200
C1631	C163	0.596000	0.649700	0.829000
C1641	C164	0.528900	0.658800	0.798300
H681	H68	0.477200	0.653700	0.813900
C1651	C165	0.538000	0.675600	0.744200
H691	H69	0.492500	0.680900	0.722800
C1661	C166	0.616000	0.684900	0.720300
H701	H70	0.623700	0.696100	0.683500
C1671	C167	0.679400	0.676600	0.754400
C1681	C168	0.768900	0.682200	0.739100
C1691	C169	0.905000	0.665200	0.773100
C1701	C170	0.961800	0.612000	0.738600
H711	H71	0.940800	0.581900	0.716900
C1711	C171	0.047700	0.604700	0.736900
C1721	C172	0.079400	0.650700	0.770100
H721	H72	0.137300	0.644500	0.770800
C1731	C173	0.024400	0.703600	0.800700
C1741	C174	0.937500	0.712200	0.801000
H731	H73	0.900900	0.750900	0.820800
C1751	C175	0.106100	0.546400	0.700900
C1761	C176	0.054000	0.753900	0.835600
C1771	C177	0.700700	0.575300	0.952800
C1781	C178	0.724100	0.613000	0.993200
H741	H74	0.720000	0.664200	0.989100
C1791	C179	0.753900	0.575500	0.040300
C1801	C180	0.755700	0.500100	0.048100
H751	H75	0.775100	0.475200	0.079800
C1811	C181	0.728900	0.462200	0.008800
C1821	C182	0.701400	0.499300	0.960300
H761	H76	0.684000	0.473700	0.933400
C1831	C183	0.781100	0.618800	0.081800
C1841	C184	0.724300	0.382800	0.018200
