data_OLEKUM_manual_PM
_symmetry_space_group_name_H-M	'P1'
_cell_length_a	24.731800
_cell_length_b	24.731800
_cell_length_c	24.731800
_cell_angle_alpha	127.653000
_cell_angle_beta	127.653000
_cell_angle_gamma	77.188100
_symmetry_Int_Tables_number 1

loop_
_symmetry_equiv_pos_as_xyz
'x,y,z'

loop_
_atom_site_label
_atom_site_type_symbol
_atom_site_fract_x
_atom_site_fract_y
_atom_site_fract_z
Zn11	Zn1	0.028430	0.552640	0.003730
C11	C1	0.671270	0.491170	0.667700
C21	C2	0.804250	0.509150	0.809500
C31	C3	0.873250	0.512550	0.882100
C41	C4	0.602380	0.486880	0.595100
C51	C5	0.200260	0.625160	0.039900
C61	C6	0.094000	0.630400	0.930400
C71	C7	0.010200	0.252800	0.708000
C81	C8	0.728200	0.544800	0.719400
C91	C9	0.792840	0.552940	0.788500
C101	C10	0.005530	0.317430	0.763700
C111	C11	0.147500	0.724000	0.081700
N11	N1	0.162240	0.673140	0.018900
Cl11	Cl1	0.990820	0.140680	0.765080
Cl21	Cl2	0.011020	0.383730	0.760010
O11	O1	0.869350	0.495650	0.917900
O21	O2	0.928400	0.530800	0.898800
O31	O3	0.547160	0.471560	0.580000
O41	O4	0.949630	0.394530	0.894700
H11	H1	0.210200	0.585010	0.990930
H21	H2	0.252750	0.657420	0.107740
H31	H3	0.063670	0.666640	0.914210
H41	H4	0.104750	0.591620	0.881920
H51	H5	0.018270	0.245060	0.663180
H61	H6	0.721670	0.582520	0.704820
H71	H7	0.199350	0.756570	0.150180
H81	H8	0.117930	0.760430	0.065420
Zn21	Zn2	0.548910	0.024700	0.996270
C121	C12	0.823470	0.003570	0.332300
C131	C13	0.699650	0.994750	0.190500
C141	C14	0.630450	0.991150	0.117900
C151	C15	0.891780	0.007280	0.404900
C161	C16	0.585260	0.160360	0.960100
C171	C17	0.700000	0.163600	0.069600
C181	C18	0.544800	0.302200	0.292000
C191	C19	0.825400	0.008800	0.280600
C201	C20	0.764440	0.004340	0.211500
C211	C21	0.553730	0.241830	0.236300
C221	C22	0.642300	0.065800	0.918300
N21	N2	0.654240	0.143340	0.981100
Cl31	Cl3	0.375600	0.225740	0.234920
Cl41	Cl4	0.623720	0.251010	0.239990
O51	O5	0.577750	0.951450	0.082100
O61	O6	0.632000	0.029600	0.101200
O71	O7	0.891560	0.967160	0.420000
O81	O8	0.499830	0.054930	0.105300
H91	H9	0.594080	0.219270	0.009070
H101	H10	0.549680	0.145010	0.892260
H111	H11	0.752430	0.149460	0.085790
H121	H12	0.709700	0.222830	0.118080
H131	H13	0.581880	0.355100	0.336820
H141	H14	0.877700	0.016850	0.295180
H151	H15	0.606380	0.049170	0.849820
H161	H16	0.695000	0.052510	0.934580
Zn31	Zn3	0.302640	0.798910	0.024210
C231	C23	0.241170	0.073470	0.319900
C241	C24	0.259150	0.949650	0.204900
C251	C25	0.262550	0.880450	0.139300
C261	C26	0.236880	0.141780	0.384500
C271	C27	0.375160	0.835260	0.924900
C281	C28	0.380400	0.950000	0.036400
C291	C29	0.002800	0.794800	0.742600
C301	C30	0.294800	0.075400	0.316600
C311	C31	0.302940	0.014440	0.260100
C321	C32	0.067430	0.803730	0.811900
C331	C33	0.474000	0.892300	0.076500
N31	N3	0.423140	0.904240	0.010900
Cl51	Cl5	0.890680	0.625600	0.649860
Cl61	Cl6	0.133730	0.873720	0.872710
O91	O9	0.245650	0.827750	0.126300
O101	O10	0.280800	0.882000	0.102400
O111	O11	0.221560	0.141560	0.424400
O121	O12	0.144530	0.749830	0.944900
H171	H17	0.335010	0.844080	0.874800
H181	H18	0.407420	0.799680	0.904670
H191	H19	0.416640	0.002430	0.102970
H201	H20	0.341620	0.959700	0.986870
H211	H21	0.995060	0.831880	0.726780
H221	H22	0.332520	0.127700	0.360850
H231	H23	0.506570	0.856380	0.057220
H241	H24	0.510430	0.945000	0.142490
Zn41	Zn4	0.774700	0.278430	0.975790
C341	C34	0.753570	0.921270	0.680100
C351	C35	0.744750	0.054250	0.795100
C361	C36	0.741150	0.123250	0.860700
C371	C37	0.757280	0.852380	0.615500
C381	C38	0.910360	0.450260	0.075100
C391	C39	0.913600	0.344000	0.963600
C401	C40	0.052200	0.260200	0.257400
C411	C41	0.758800	0.978200	0.683400
C421	C42	0.754340	0.042840	0.739900
C431	C43	0.991830	0.255530	0.188100
C441	C44	0.815800	0.397500	0.923500
N41	N4	0.893340	0.412240	0.989100
Cl71	Cl7	0.975740	0.240820	0.350140
Cl81	Cl8	0.001010	0.261020	0.127290
O131	O13	0.701450	0.119350	0.873700
O141	O14	0.779600	0.178400	0.897600
O151	O15	0.717160	0.797160	0.575600
O161	O16	0.804930	0.199630	0.055100
H251	H25	0.969270	0.460200	0.125200
H261	H26	0.895010	0.502750	0.095330
H271	H27	0.899460	0.313670	0.897030
H281	H28	0.972830	0.354750	0.013130
H291	H29	0.105100	0.268270	0.273220
H301	H30	0.766850	0.971670	0.639150
H311	H31	0.799170	0.449350	0.942780
H321	H32	0.802510	0.367930	0.857510
Zn51	Zn5	0.701090	0.197360	0.975790
C451	C45	0.426530	0.258830	0.680100
C461	C46	0.550350	0.240850	0.795100
C471	C47	0.619550	0.237450	0.860700
C481	C48	0.358220	0.263120	0.615500
C491	C49	0.664740	0.124840	0.075100
C501	C50	0.550000	0.119600	0.963600
C511	C51	0.705200	0.497200	0.257400
C521	C52	0.424600	0.205200	0.683400
C531	C53	0.485560	0.197060	0.739900
C541	C54	0.696270	0.432570	0.188100
C551	C55	0.607700	0.026000	0.923500
N51	N5	0.595760	0.076860	0.989100
Cl91	Cl9	0.874400	0.609320	0.350140
Cl101	Cl10	0.626280	0.366270	0.127290
O171	O17	0.672250	0.254350	0.873700
O181	O18	0.618000	0.219200	0.897600
O191	O19	0.358440	0.278440	0.575600
O201	O20	0.750170	0.355470	0.055100
H331	H33	0.655920	0.164990	0.125200
H341	H34	0.700320	0.092580	0.095330
H351	H35	0.497570	0.083360	0.897030
H361	H36	0.540300	0.158380	0.013130
H371	H37	0.668120	0.504940	0.273220
H381	H38	0.372300	0.167480	0.639150
H391	H39	0.643620	0.993430	0.942780
H401	H40	0.555000	0.989570	0.857510
Zn61	Zn6	0.221570	0.725300	0.024210
C561	C56	0.578730	0.746430	0.319900
C571	C57	0.445750	0.755250	0.204900
C581	C58	0.376750	0.758850	0.139300
C591	C59	0.647620	0.742720	0.384500
C601	C60	0.049740	0.589640	0.924900
C611	C61	0.156000	0.586400	0.036400
C621	C62	0.239800	0.447800	0.742600
C631	C63	0.521800	0.741200	0.316600
C641	C64	0.457160	0.745660	0.260100
C651	C65	0.244470	0.508170	0.811900
C661	C66	0.102500	0.684200	0.076500
N61	N6	0.087760	0.606660	0.010900
Cl111	Cl11	0.259180	0.524260	0.649860
Cl121	Cl12	0.238980	0.498990	0.872710
O211	O21	0.380650	0.798550	0.126300
O221	O22	0.321600	0.720400	0.102400
O231	O23	0.702840	0.782840	0.424400
O241	O24	0.300370	0.695070	0.944900
H411	H41	0.039800	0.530730	0.874800
H421	H42	0.997250	0.604990	0.904670
H431	H43	0.186330	0.600540	0.102970
H441	H44	0.145250	0.527170	0.986870
H451	H45	0.231730	0.394900	0.726780
H461	H46	0.528330	0.733150	0.360850
H471	H47	0.050650	0.700830	0.057220
H481	H48	0.132070	0.697490	0.142490
Zn71	Zn7	0.475300	0.951090	0.003730
C671	C67	0.496430	0.676530	0.667700
C681	C68	0.505250	0.800350	0.809500
C691	C69	0.508850	0.869550	0.882100
C701	C70	0.492720	0.608220	0.595100
C711	C71	0.339640	0.914740	0.039900
C721	C72	0.336400	0.800000	0.930400
C731	C73	0.197800	0.955200	0.708000
C741	C74	0.491200	0.674600	0.719400
C751	C75	0.495660	0.735560	0.788500
C761	C76	0.258170	0.946270	0.763700
C771	C77	0.434200	0.857700	0.081700
N71	N7	0.356660	0.845760	0.018900
Cl131	Cl13	0.274260	0.124400	0.765080
Cl141	Cl14	0.248990	0.876280	0.760010
O251	O25	0.548550	0.922250	0.917900
O261	O26	0.470400	0.868000	0.898800
O271	O27	0.532840	0.608440	0.580000
O281	O28	0.445070	0.000170	0.894700
H491	H49	0.280730	0.905920	0.990930
H501	H50	0.354990	0.950320	0.107740
H511	H51	0.350540	0.747570	0.914210
H521	H52	0.277170	0.790300	0.881920
H531	H53	0.144900	0.918120	0.663180
H541	H54	0.483150	0.622300	0.704820
H551	H55	0.450830	0.893620	0.150180
H561	H56	0.447490	0.805000	0.065420
Zn81	Zn8	0.947360	0.471570	0.996270
C781	C78	0.008830	0.828730	0.332300
C791	C79	0.990850	0.695750	0.190500
C801	C80	0.987450	0.626750	0.117900
C811	C81	0.013120	0.897620	0.404900
C821	C82	0.874840	0.299740	0.960100
C831	C83	0.869600	0.406000	0.069600
C841	C84	0.247200	0.489800	0.292000
C851	C85	0.955200	0.771800	0.280600
C861	C86	0.947060	0.707160	0.211500
C871	C87	0.182570	0.494470	0.236300
C881	C88	0.776000	0.352500	0.918300
N81	N8	0.826860	0.337760	0.981100
Cl151	Cl15	0.359320	0.509180	0.234920
Cl161	Cl16	0.116270	0.488980	0.239990
O291	O29	0.004350	0.630650	0.082100
O301	O30	0.969200	0.571600	0.101200
O311	O31	0.028440	0.952840	0.420000
O321	O32	0.105470	0.550370	0.105300
H571	H57	0.914990	0.289800	0.009070
H581	H58	0.842580	0.247250	0.892260
H591	H59	0.833360	0.436330	0.085790
H601	H60	0.908380	0.395250	0.118080
H611	H61	0.254940	0.481730	0.336820
H621	H62	0.917480	0.778330	0.295180
H631	H63	0.743430	0.300650	0.849820
H641	H64	0.739570	0.382070	0.934580
Zn91	Zn9	0.721570	0.697360	0.496270
C891	C89	0.078730	0.758830	0.832300
C901	C90	0.945750	0.740850	0.690500
C911	C91	0.876750	0.737450	0.617900
C921	C92	0.147620	0.763120	0.904900
C931	C93	0.549740	0.624840	0.460100
C941	C94	0.656000	0.619600	0.569600
C951	C95	0.739800	0.997200	0.792000
C961	C96	0.021800	0.705200	0.780600
C971	C97	0.957160	0.697060	0.711500
C981	C98	0.744470	0.932570	0.736300
C991	C99	0.602500	0.526000	0.418300
N91	N9	0.587760	0.576860	0.481100
Cl171	Cl17	0.759180	0.109320	0.734920
Cl181	Cl18	0.738980	0.866270	0.739990
O331	O33	0.880650	0.754350	0.582100
O341	O34	0.821600	0.719200	0.601200
O351	O35	0.202840	0.778440	0.920000
O361	O36	0.800370	0.855470	0.605300
H651	H65	0.539800	0.664990	0.509070
H661	H66	0.497250	0.592580	0.392260
H671	H67	0.686330	0.583360	0.585790
H681	H68	0.645250	0.658380	0.618080
H691	H69	0.731730	0.004940	0.836820
H701	H70	0.028330	0.667480	0.795180
H711	H71	0.550650	0.493430	0.349820
H721	H72	0.632070	0.489570	0.434580
Zn101	Zn10	0.201090	0.225300	0.503730
C1001	C100	0.926530	0.246430	0.167700
C1011	C101	0.050350	0.255250	0.309500
C1021	C102	0.119550	0.258850	0.382100
C1031	C103	0.858220	0.242720	0.095100
C1041	C104	0.164740	0.089640	0.539900
C1051	C105	0.050000	0.086400	0.430400
C1061	C106	0.205200	0.947800	0.208000
C1071	C107	0.924600	0.241200	0.219400
C1081	C108	0.985560	0.245660	0.288500
C1091	C109	0.196270	0.008170	0.263700
C1101	C110	0.107700	0.184200	0.581700
N101	N10	0.095760	0.106660	0.518900
Cl191	Cl19	0.374400	0.024260	0.265080
Cl201	Cl20	0.126280	0.998990	0.260010
O371	O37	0.172250	0.298550	0.417900
O381	O38	0.118000	0.220400	0.398800
O391	O39	0.858440	0.282840	0.080000
O401	O40	0.250170	0.195070	0.394700
H731	H73	0.155920	0.030730	0.490930
H741	H74	0.200320	0.104990	0.607740
H751	H75	0.997570	0.100540	0.414210
H761	H76	0.040300	0.027170	0.381920
H771	H77	0.168120	0.894900	0.163180
H781	H78	0.872300	0.233150	0.204820
H791	H79	0.143620	0.200830	0.650180
H801	H80	0.055000	0.197490	0.565420
Zn111	Zn11	0.447360	0.451090	0.475790
C1111	C111	0.508830	0.176530	0.180100
C1121	C112	0.490850	0.300350	0.295100
C1131	C113	0.487450	0.369550	0.360700
C1141	C114	0.513120	0.108220	0.115500
C1151	C115	0.374840	0.414740	0.575100
C1161	C116	0.369600	0.300000	0.463600
C1171	C117	0.747200	0.455200	0.757400
C1181	C118	0.455200	0.174600	0.183400
C1191	C119	0.447060	0.235560	0.239900
C1201	C120	0.682570	0.446270	0.688100
C1211	C121	0.276000	0.357700	0.423500
N111	N11	0.326860	0.345760	0.489100
Cl211	Cl21	0.859320	0.624400	0.850140
Cl221	Cl22	0.616270	0.376280	0.627290
O411	O41	0.504350	0.422250	0.373700
O421	O42	0.469200	0.368000	0.397600
O431	O43	0.528440	0.108440	0.075600
O441	O44	0.605470	0.500170	0.555100
H811	H81	0.414990	0.405920	0.625200
H821	H82	0.342580	0.450320	0.595330
H831	H83	0.333360	0.247570	0.397030
H841	H84	0.408380	0.290300	0.513130
H851	H85	0.754940	0.418120	0.773220
H861	H86	0.417480	0.122300	0.139150
H871	H87	0.243430	0.393620	0.442780
H881	H88	0.239570	0.305000	0.357510
Zn121	Zn12	0.975300	0.971570	0.524210
C1221	C122	0.996430	0.328730	0.819900
C1231	C123	0.005250	0.195750	0.704900
C1241	C124	0.008850	0.126750	0.639300
C1251	C125	0.992720	0.397620	0.884500
C1261	C126	0.839640	0.799740	0.424900
C1271	C127	0.836400	0.906000	0.536400
C1281	C128	0.697800	0.989800	0.242600
C1291	C129	0.991200	0.271800	0.816600
C1301	C130	0.995660	0.207160	0.760100
C1311	C131	0.758170	0.994470	0.311900
C1321	C132	0.934200	0.852500	0.576500
N121	N12	0.856660	0.837760	0.510900
Cl231	Cl23	0.774260	0.009180	0.149860
Cl241	Cl24	0.748990	0.988980	0.372710
O451	O45	0.048550	0.130650	0.626300
O461	O46	0.970400	0.071600	0.602400
O471	O47	0.032840	0.452840	0.924400
O481	O48	0.945070	0.050370	0.444900
H891	H89	0.780730	0.789800	0.374800
H901	H90	0.854990	0.747250	0.404670
H911	H91	0.850540	0.936330	0.602970
H921	H92	0.777170	0.895250	0.486870
H931	H93	0.644900	0.981730	0.226780
H941	H94	0.983150	0.278330	0.860850
H951	H95	0.950830	0.800650	0.557220
H961	H96	0.947490	0.882070	0.642490
Zn131	Zn13	0.048910	0.052640	0.524210
C1331	C133	0.323470	0.991170	0.819900
C1341	C134	0.199650	0.009150	0.704900
C1351	C135	0.130450	0.012550	0.639300
C1361	C136	0.391780	0.986880	0.884500
C1371	C137	0.085260	0.125160	0.424900
C1381	C138	0.200000	0.130400	0.536400
C1391	C139	0.044800	0.752800	0.242600
C1401	C140	0.325400	0.044800	0.816600
C1411	C141	0.264440	0.052940	0.760100
C1421	C142	0.053730	0.817430	0.311900
C1431	C143	0.142300	0.224000	0.576500
N131	N13	0.154240	0.173140	0.510900
Cl251	Cl25	0.875600	0.640680	0.149860
Cl261	Cl26	0.123720	0.883730	0.372710
O491	O49	0.077750	0.995650	0.626300
O501	O50	0.132000	0.030800	0.602400
O511	O51	0.391560	0.971560	0.924400
O521	O52	0.999830	0.894530	0.444900
H971	H97	0.094080	0.085010	0.374800
H981	H98	0.049680	0.157420	0.404670
H991	H99	0.252430	0.166640	0.602970
H1001	H100	0.209700	0.091620	0.486870
H1011	H101	0.081880	0.745060	0.226780
H1021	H102	0.377700	0.082520	0.860850
H1031	H103	0.106380	0.256570	0.557220
H1041	H104	0.195000	0.260430	0.642490
Zn141	Zn14	0.528430	0.524700	0.475790
C1441	C144	0.171270	0.503570	0.180100
C1451	C145	0.304250	0.494750	0.295100
C1461	C146	0.373250	0.491150	0.360700
C1471	C147	0.102380	0.507280	0.115500
C1481	C148	0.700260	0.660360	0.575100
C1491	C149	0.594000	0.663600	0.463600
C1501	C150	0.510200	0.802200	0.757400
C1511	C151	0.228200	0.508800	0.183400
C1521	C152	0.292840	0.504340	0.239900
C1531	C153	0.505530	0.741830	0.688100
C1541	C154	0.647500	0.565800	0.423500
N141	N14	0.662240	0.643340	0.489100
Cl271	Cl27	0.490820	0.725740	0.850140
Cl281	Cl28	0.511020	0.751010	0.627290
O531	O53	0.369350	0.451450	0.373700
O541	O54	0.428400	0.529600	0.397600
O551	O55	0.047160	0.467160	0.075600
O561	O56	0.449630	0.554930	0.555100
H1051	H105	0.710200	0.719270	0.625200
H1061	H106	0.752750	0.645010	0.595330
H1071	H107	0.563670	0.649460	0.397030
H1081	H108	0.604750	0.722830	0.513130
H1091	H109	0.518270	0.855100	0.773220
H1101	H110	0.221670	0.516850	0.139150
H1111	H111	0.699350	0.549170	0.442780
H1121	H112	0.617930	0.552510	0.357510
Zn151	Zn15	0.274700	0.298910	0.496270
C1551	C155	0.253570	0.573470	0.832300
C1561	C156	0.244750	0.449650	0.690500
C1571	C157	0.241150	0.380450	0.617900
C1581	C158	0.257280	0.641780	0.904900
C1591	C159	0.410360	0.335260	0.460100
C1601	C160	0.413600	0.450000	0.569600
C1611	C161	0.552200	0.294800	0.792000
C1621	C162	0.258800	0.575400	0.780600
C1631	C163	0.254340	0.514440	0.711500
C1641	C164	0.491830	0.303730	0.736300
C1651	C165	0.315800	0.392300	0.418300
N151	N15	0.393340	0.404240	0.481100
Cl291	Cl29	0.475740	0.125600	0.734920
Cl301	Cl30	0.501010	0.373720	0.739990
O571	O57	0.201450	0.327750	0.582100
O581	O58	0.279600	0.382000	0.601200
O591	O59	0.217160	0.641560	0.920000
O601	O60	0.304930	0.249830	0.605300
H1131	H113	0.469270	0.344080	0.509070
H1141	H114	0.395010	0.299680	0.392260
H1151	H115	0.399460	0.502430	0.585790
H1161	H116	0.472830	0.459700	0.618080
H1171	H117	0.605100	0.331880	0.836820
H1181	H118	0.266850	0.627700	0.795180
H1191	H119	0.299170	0.356380	0.349820
H1201	H120	0.302510	0.445000	0.434580
Zn161	Zn16	0.802640	0.778430	0.503730
C1661	C166	0.741170	0.421270	0.167700
C1671	C167	0.759150	0.554250	0.309500
C1681	C168	0.762550	0.623250	0.382100
C1691	C169	0.736880	0.352380	0.095100
C1701	C170	0.875160	0.950260	0.539900
C1711	C171	0.880400	0.844000	0.430400
C1721	C172	0.502800	0.760200	0.208000
C1731	C173	0.794800	0.478200	0.219400
C1741	C174	0.802940	0.542840	0.288500
C1751	C175	0.567430	0.755530	0.263700
C1761	C176	0.974000	0.897500	0.581700
N161	N16	0.923140	0.912240	0.518900
Cl311	Cl31	0.390680	0.740820	0.265080
Cl321	Cl32	0.633730	0.761020	0.260010
O611	O61	0.745650	0.619350	0.417900
O621	O62	0.780800	0.678400	0.398800
O631	O63	0.721560	0.297160	0.080000
O641	O64	0.644530	0.699630	0.394700
H1211	H121	0.835010	0.960200	0.490930
H1221	H122	0.907420	0.002750	0.607740
H1231	H123	0.916640	0.813670	0.414210
H1241	H124	0.841620	0.854750	0.381920
H1251	H125	0.495060	0.768270	0.163180
H1261	H126	0.832520	0.471670	0.204820
H1271	H127	0.006570	0.949350	0.650180
H1281	H128	0.010430	0.867930	0.565420
