data_OMAXEG_freeONLY_PM
_symmetry_space_group_name_H-M	'P1'
_cell_length_a	8.010000
_cell_length_b	12.178000
_cell_length_c	14.622000
_cell_angle_alpha	90.000000
_cell_angle_beta	90.000000
_cell_angle_gamma	90.000000
_symmetry_Int_Tables_number 1

loop_
_symmetry_equiv_pos_as_xyz
'x,y,z'

loop_
_atom_site_label
_atom_site_type_symbol
_atom_site_fract_x
_atom_site_fract_y
_atom_site_fract_z
Ag11	Ag1	0.935630	0.568520	0.681190
Ag21	Ag2	0.064370	0.431480	0.181190
Ag31	Ag3	0.564370	0.068520	0.681190
Ag41	Ag4	0.435630	0.931480	0.181190
H11	H1	0.959800	0.312900	0.384900
H21	H2	0.922200	0.667900	0.469700
H31	H3	0.960000	0.622800	0.322500
H41	H4	0.219400	0.163000	0.585300
H51	H5	0.560300	0.334900	0.711600
H61	H6	0.384300	0.483700	0.713800
H71	H7	0.040200	0.687100	0.884900
H81	H8	0.077800	0.332100	0.969700
H91	H9	0.040000	0.377200	0.822500
H101	H10	0.780600	0.837000	0.085300
H111	H11	0.439700	0.665100	0.211600
H121	H12	0.615700	0.516300	0.213800
H131	H13	0.540200	0.812900	0.384900
H141	H14	0.577800	0.167900	0.469700
H151	H15	0.540000	0.122800	0.322500
H161	H16	0.280600	0.663000	0.585300
H171	H17	0.939700	0.834900	0.711600
H181	H18	0.115700	0.983700	0.713800
H191	H19	0.459800	0.187100	0.884900
H201	H20	0.422200	0.832100	0.969700
H211	H21	0.460000	0.877200	0.822500
H221	H22	0.719400	0.337000	0.085300
H231	H23	0.060300	0.165100	0.211600
H241	H24	0.884300	0.016300	0.213800
C11	C1	0.954400	0.386500	0.401600
C21	C2	0.939700	0.412400	0.490000
C31	C3	0.931500	0.594100	0.454300
C41	C4	0.952200	0.566400	0.365200
C51	C5	0.147200	0.317900	0.616100
C61	C6	0.254100	0.227600	0.613500
C71	C7	0.453900	0.328200	0.686700
C81	C8	0.347600	0.418500	0.687500
C91	C9	0.045600	0.613500	0.901600
C101	C10	0.060300	0.587600	0.990000
C111	C11	0.068500	0.405900	0.954300
C121	C12	0.047800	0.433600	0.865200
C131	C13	0.852800	0.682100	0.116100
C141	C14	0.745900	0.772400	0.113500
C151	C15	0.546100	0.671800	0.186700
C161	C16	0.652400	0.581500	0.187500
C171	C17	0.545600	0.886500	0.401600
C181	C18	0.560300	0.912400	0.490000
C191	C19	0.568500	0.094100	0.454300
C201	C20	0.547800	0.066400	0.365200
C211	C21	0.352800	0.817900	0.616100
C221	C22	0.245900	0.727600	0.613500
C231	C23	0.046100	0.828200	0.686700
C241	C24	0.152400	0.918500	0.687500
C251	C25	0.454400	0.113500	0.901600
C261	C26	0.439700	0.087600	0.990000
C271	C27	0.431500	0.905900	0.954300
C281	C28	0.452200	0.933600	0.865200
C291	C29	0.647200	0.182100	0.116100
C301	C30	0.754100	0.272400	0.113500
C311	C31	0.953900	0.171800	0.186700
C321	C32	0.847600	0.081500	0.187500
S11	S1	0.941900	0.310400	0.576520
S21	S2	0.058100	0.689600	0.076520
S31	S3	0.558100	0.810400	0.576520
S41	S4	0.441900	0.189600	0.076520
N11	N1	0.961800	0.464400	0.335300
N21	N2	0.923900	0.517500	0.521800
N31	N3	0.407300	0.232700	0.651500
N41	N4	0.194400	0.414500	0.651400
N51	N5	0.038200	0.535600	0.835300
N61	N6	0.076100	0.482500	0.021800
N71	N7	0.592700	0.767300	0.151500
N81	N8	0.805600	0.585500	0.151400
N91	N9	0.538200	0.964400	0.335300
N101	N10	0.576100	0.017500	0.521800
N111	N11	0.092700	0.732700	0.651500
N121	N12	0.305600	0.914500	0.651400
N131	N13	0.461800	0.035600	0.835300
N141	N14	0.423900	0.982500	0.021800
N151	N15	0.907300	0.267300	0.151500
N161	N16	0.694400	0.085500	0.151400
O11	O1	0.837800	0.344300	0.650000
O21	O2	0.916900	0.205700	0.534700
O31	O3	0.162200	0.655700	0.150000
O41	O4	0.083100	0.794300	0.034700
O51	O5	0.662200	0.844300	0.650000
O61	O6	0.583100	0.705700	0.534700
O71	O7	0.337800	0.155700	0.150000
O81	O8	0.416900	0.294300	0.034700
