data_OMIMEE_freeONLY_PM
_symmetry_space_group_name_H-M	'P1'
_cell_length_a	44.599300
_cell_length_b	44.599300
_cell_length_c	44.599300
_cell_angle_alpha	90.000000
_cell_angle_beta	90.000000
_cell_angle_gamma	90.000000
_symmetry_Int_Tables_number 1

loop_
_symmetry_equiv_pos_as_xyz
'x,y,z'

loop_
_atom_site_label
_atom_site_type_symbol
_atom_site_fract_x
_atom_site_fract_y
_atom_site_fract_z
O11	O1	0.151350	0.108020	0.031080
O21	O2	0.186900	0.143470	0.031010
C11	C1	0.216230	0.116360	0.078360
H11	H1	0.225300	0.132700	0.069200
C21	C2	0.190030	0.104760	0.066770
C31	C3	0.175110	0.120130	0.040840
N11	N1	0.270220	0.105950	0.140660
N21	N2	0.292730	0.125040	0.145200
O31	O3	0.151350	0.608020	0.531080
O41	O4	0.186900	0.643470	0.531010
C41	C4	0.216230	0.616360	0.578360
H21	H2	0.225300	0.632700	0.569200
C51	C5	0.190030	0.604760	0.566770
C61	C6	0.175110	0.620130	0.540840
N31	N3	0.270220	0.605950	0.640660
N41	N4	0.292730	0.625040	0.645200
O51	O5	0.651350	0.108020	0.531080
O61	O6	0.686900	0.143470	0.531010
C71	C7	0.716230	0.116360	0.578360
H31	H3	0.725300	0.132700	0.569200
C81	C8	0.690030	0.104760	0.566770
C91	C9	0.675110	0.120130	0.540840
N51	N5	0.770220	0.105950	0.640660
N61	N6	0.792730	0.125040	0.645200
O71	O7	0.651350	0.608020	0.031080
O81	O8	0.686900	0.643470	0.031010
C101	C10	0.716230	0.616360	0.078360
H41	H4	0.725300	0.632700	0.069200
C111	C11	0.690030	0.604760	0.066770
C121	C12	0.675110	0.620130	0.040840
N71	N7	0.770220	0.605950	0.140660
N81	N8	0.792730	0.625040	0.145200
O91	O9	0.848650	0.891980	0.031080
O101	O10	0.813100	0.856530	0.031010
C131	C13	0.783770	0.883640	0.078360
H51	H5	0.774700	0.867300	0.069200
C141	C14	0.809970	0.895240	0.066770
C151	C15	0.824890	0.879870	0.040840
N91	N9	0.729780	0.894050	0.140660
N101	N10	0.707270	0.874960	0.145200
O111	O11	0.848650	0.391980	0.531080
O121	O12	0.813100	0.356530	0.531010
C161	C16	0.783770	0.383640	0.578360
H61	H6	0.774700	0.367300	0.569200
C171	C17	0.809970	0.395240	0.566770
C181	C18	0.824890	0.379870	0.540840
N111	N11	0.729780	0.394050	0.640660
N121	N12	0.707270	0.374960	0.645200
O131	O13	0.348650	0.891980	0.531080
O141	O14	0.313100	0.856530	0.531010
C191	C19	0.283770	0.883640	0.578360
H71	H7	0.274700	0.867300	0.569200
C201	C20	0.309970	0.895240	0.566770
C211	C21	0.324890	0.879870	0.540840
N131	N13	0.229780	0.894050	0.640660
N141	N14	0.207270	0.874960	0.645200
O151	O15	0.348650	0.391980	0.031080
O161	O16	0.313100	0.356530	0.031010
C221	C22	0.283770	0.383640	0.078360
H81	H8	0.274700	0.367300	0.069200
C231	C23	0.309970	0.395240	0.066770
C241	C24	0.324890	0.379870	0.040840
N151	N15	0.229780	0.394050	0.140660
N161	N16	0.207270	0.374960	0.145200
O171	O17	0.848650	0.108020	0.968920
O181	O18	0.813100	0.143470	0.968990
C251	C25	0.783770	0.116360	0.921640
H91	H9	0.774700	0.132700	0.930800
C261	C26	0.809970	0.104760	0.933230
C271	C27	0.824890	0.120130	0.959160
N171	N17	0.729780	0.105950	0.859340
N181	N18	0.707270	0.125040	0.854800
O191	O19	0.848650	0.608020	0.468920
O201	O20	0.813100	0.643470	0.468990
C281	C28	0.783770	0.616360	0.421640
H101	H10	0.774700	0.632700	0.430800
C291	C29	0.809970	0.604760	0.433230
C301	C30	0.824890	0.620130	0.459160
N191	N19	0.729780	0.605950	0.359340
N201	N20	0.707270	0.625040	0.354800
O211	O21	0.348650	0.108020	0.468920
O221	O22	0.313100	0.143470	0.468990
C311	C31	0.283770	0.116360	0.421640
H111	H11	0.274700	0.132700	0.430800
C321	C32	0.309970	0.104760	0.433230
C331	C33	0.324890	0.120130	0.459160
N211	N21	0.229780	0.105950	0.359340
N221	N22	0.207270	0.125040	0.354800
O231	O23	0.348650	0.608020	0.968920
O241	O24	0.313100	0.643470	0.968990
C341	C34	0.283770	0.616360	0.921640
H121	H12	0.274700	0.632700	0.930800
C351	C35	0.309970	0.604760	0.933230
C361	C36	0.324890	0.620130	0.959160
N231	N23	0.229780	0.605950	0.859340
N241	N24	0.207270	0.625040	0.854800
O251	O25	0.151350	0.891980	0.968920
O261	O26	0.186900	0.856530	0.968990
C371	C37	0.216230	0.883640	0.921640
H131	H13	0.225300	0.867300	0.930800
C381	C38	0.190030	0.895240	0.933230
C391	C39	0.175110	0.879870	0.959160
N251	N25	0.270220	0.894050	0.859340
N261	N26	0.292730	0.874960	0.854800
O271	O27	0.151350	0.391980	0.468920
O281	O28	0.186900	0.356530	0.468990
C401	C40	0.216230	0.383640	0.421640
H141	H14	0.225300	0.367300	0.430800
C411	C41	0.190030	0.395240	0.433230
C421	C42	0.175110	0.379870	0.459160
N271	N27	0.270220	0.394050	0.359340
N281	N28	0.292730	0.374960	0.354800
O291	O29	0.651350	0.891980	0.468920
O301	O30	0.686900	0.856530	0.468990
C431	C43	0.716230	0.883640	0.421640
H151	H15	0.725300	0.867300	0.430800
C441	C44	0.690030	0.895240	0.433230
C451	C45	0.675110	0.879870	0.459160
N291	N29	0.770220	0.894050	0.359340
N301	N30	0.792730	0.874960	0.354800
O311	O31	0.651350	0.391980	0.968920
O321	O32	0.686900	0.356530	0.968990
C461	C46	0.716230	0.383640	0.921640
H161	H16	0.725300	0.367300	0.930800
C471	C47	0.690030	0.395240	0.933230
C481	C48	0.675110	0.379870	0.959160
N311	N31	0.770220	0.394050	0.859340
N321	N32	0.792730	0.374960	0.854800
O331	O33	0.031080	0.151350	0.108020
O341	O34	0.031010	0.186900	0.143470
C491	C49	0.078360	0.216230	0.116360
H171	H17	0.069200	0.225300	0.132700
C501	C50	0.066770	0.190030	0.104760
C511	C51	0.040840	0.175110	0.120130
N331	N33	0.140660	0.270220	0.105950
N341	N34	0.145200	0.292730	0.125040
O351	O35	0.031080	0.651350	0.608020
O361	O36	0.031010	0.686900	0.643470
C521	C52	0.078360	0.716230	0.616360
H181	H18	0.069200	0.725300	0.632700
C531	C53	0.066770	0.690030	0.604760
C541	C54	0.040840	0.675110	0.620130
N351	N35	0.140660	0.770220	0.605950
N361	N36	0.145200	0.792730	0.625040
O371	O37	0.531080	0.151350	0.608020
O381	O38	0.531010	0.186900	0.643470
C551	C55	0.578360	0.216230	0.616360
H191	H19	0.569200	0.225300	0.632700
C561	C56	0.566770	0.190030	0.604760
C571	C57	0.540840	0.175110	0.620130
N371	N37	0.640660	0.270220	0.605950
N381	N38	0.645200	0.292730	0.625040
O391	O39	0.531080	0.651350	0.108020
O401	O40	0.531010	0.686900	0.143470
C581	C58	0.578360	0.716230	0.116360
H201	H20	0.569200	0.725300	0.132700
C591	C59	0.566770	0.690030	0.104760
C601	C60	0.540840	0.675110	0.120130
N391	N39	0.640660	0.770220	0.105950
N401	N40	0.645200	0.792730	0.125040
O411	O41	0.031080	0.848650	0.891980
O421	O42	0.031010	0.813100	0.856530
C611	C61	0.078360	0.783770	0.883640
H211	H21	0.069200	0.774700	0.867300
C621	C62	0.066770	0.809970	0.895240
C631	C63	0.040840	0.824890	0.879870
N411	N41	0.140660	0.729780	0.894050
N421	N42	0.145200	0.707270	0.874960
O431	O43	0.031080	0.348650	0.391980
O441	O44	0.031010	0.313100	0.356530
C641	C64	0.078360	0.283770	0.383640
H221	H22	0.069200	0.274700	0.367300
C651	C65	0.066770	0.309970	0.395240
C661	C66	0.040840	0.324890	0.379870
N431	N43	0.140660	0.229780	0.394050
N441	N44	0.145200	0.207270	0.374960
O451	O45	0.531080	0.848650	0.391980
O461	O46	0.531010	0.813100	0.356530
C671	C67	0.578360	0.783770	0.383640
H231	H23	0.569200	0.774700	0.367300
C681	C68	0.566770	0.809970	0.395240
C691	C69	0.540840	0.824890	0.379870
N451	N45	0.640660	0.729780	0.394050
N461	N46	0.645200	0.707270	0.374960
O471	O47	0.531080	0.348650	0.891980
O481	O48	0.531010	0.313100	0.856530
C701	C70	0.578360	0.283770	0.883640
H241	H24	0.569200	0.274700	0.867300
C711	C71	0.566770	0.309970	0.895240
C721	C72	0.540840	0.324890	0.879870
N471	N47	0.640660	0.229780	0.894050
N481	N48	0.645200	0.207270	0.874960
O491	O49	0.968920	0.848650	0.108020
O501	O50	0.968990	0.813100	0.143470
C731	C73	0.921640	0.783770	0.116360
H251	H25	0.930800	0.774700	0.132700
C741	C74	0.933230	0.809970	0.104760
C751	C75	0.959160	0.824890	0.120130
N491	N49	0.859340	0.729780	0.105950
N501	N50	0.854800	0.707270	0.125040
O511	O51	0.968920	0.348650	0.608020
O521	O52	0.968990	0.313100	0.643470
C761	C76	0.921640	0.283770	0.616360
H261	H26	0.930800	0.274700	0.632700
C771	C77	0.933230	0.309970	0.604760
C781	C78	0.959160	0.324890	0.620130
N511	N51	0.859340	0.229780	0.605950
N521	N52	0.854800	0.207270	0.625040
O531	O53	0.468920	0.848650	0.608020
O541	O54	0.468990	0.813100	0.643470
C791	C79	0.421640	0.783770	0.616360
H271	H27	0.430800	0.774700	0.632700
C801	C80	0.433230	0.809970	0.604760
C811	C81	0.459160	0.824890	0.620130
N531	N53	0.359340	0.729780	0.605950
N541	N54	0.354800	0.707270	0.625040
O551	O55	0.468920	0.348650	0.108020
O561	O56	0.468990	0.313100	0.143470
C821	C82	0.421640	0.283770	0.116360
H281	H28	0.430800	0.274700	0.132700
C831	C83	0.433230	0.309970	0.104760
C841	C84	0.459160	0.324890	0.120130
N551	N55	0.359340	0.229780	0.105950
N561	N56	0.354800	0.207270	0.125040
O571	O57	0.968920	0.151350	0.891980
O581	O58	0.968990	0.186900	0.856530
C851	C85	0.921640	0.216230	0.883640
H291	H29	0.930800	0.225300	0.867300
C861	C86	0.933230	0.190030	0.895240
C871	C87	0.959160	0.175110	0.879870
N571	N57	0.859340	0.270220	0.894050
N581	N58	0.854800	0.292730	0.874960
O591	O59	0.968920	0.651350	0.391980
O601	O60	0.968990	0.686900	0.356530
C881	C88	0.921640	0.716230	0.383640
H301	H30	0.930800	0.725300	0.367300
C891	C89	0.933230	0.690030	0.395240
C901	C90	0.959160	0.675110	0.379870
N591	N59	0.859340	0.770220	0.394050
N601	N60	0.854800	0.792730	0.374960
O611	O61	0.468920	0.151350	0.391980
O621	O62	0.468990	0.186900	0.356530
C911	C91	0.421640	0.216230	0.383640
H311	H31	0.430800	0.225300	0.367300
C921	C92	0.433230	0.190030	0.395240
C931	C93	0.459160	0.175110	0.379870
N611	N61	0.359340	0.270220	0.394050
N621	N62	0.354800	0.292730	0.374960
O631	O63	0.468920	0.651350	0.891980
O641	O64	0.468990	0.686900	0.856530
C941	C94	0.421640	0.716230	0.883640
H321	H32	0.430800	0.725300	0.867300
C951	C95	0.433230	0.690030	0.895240
C961	C96	0.459160	0.675110	0.879870
N631	N63	0.359340	0.770220	0.894050
N641	N64	0.354800	0.792730	0.874960
O651	O65	0.108020	0.031080	0.151350
O661	O66	0.143470	0.031010	0.186900
C971	C97	0.116360	0.078360	0.216230
H331	H33	0.132700	0.069200	0.225300
C981	C98	0.104760	0.066770	0.190030
C991	C99	0.120130	0.040840	0.175110
N651	N65	0.105950	0.140660	0.270220
N661	N66	0.125040	0.145200	0.292730
O671	O67	0.108020	0.531080	0.651350
O681	O68	0.143470	0.531010	0.686900
C1001	C100	0.116360	0.578360	0.716230
H341	H34	0.132700	0.569200	0.725300
C1011	C101	0.104760	0.566770	0.690030
C1021	C102	0.120130	0.540840	0.675110
N671	N67	0.105950	0.640660	0.770220
N681	N68	0.125040	0.645200	0.792730
O691	O69	0.608020	0.031080	0.651350
O701	O70	0.643470	0.031010	0.686900
C1031	C103	0.616360	0.078360	0.716230
H351	H35	0.632700	0.069200	0.725300
C1041	C104	0.604760	0.066770	0.690030
C1051	C105	0.620130	0.040840	0.675110
N691	N69	0.605950	0.140660	0.770220
N701	N70	0.625040	0.145200	0.792730
O711	O71	0.608020	0.531080	0.151350
O721	O72	0.643470	0.531010	0.186900
C1061	C106	0.616360	0.578360	0.216230
H361	H36	0.632700	0.569200	0.225300
C1071	C107	0.604760	0.566770	0.190030
C1081	C108	0.620130	0.540840	0.175110
N711	N71	0.605950	0.640660	0.270220
N721	N72	0.625040	0.645200	0.292730
O731	O73	0.891980	0.031080	0.848650
O741	O74	0.856530	0.031010	0.813100
C1091	C109	0.883640	0.078360	0.783770
H371	H37	0.867300	0.069200	0.774700
C1101	C110	0.895240	0.066770	0.809970
C1111	C111	0.879870	0.040840	0.824890
N731	N73	0.894050	0.140660	0.729780
N741	N74	0.874960	0.145200	0.707270
O751	O75	0.891980	0.531080	0.348650
O761	O76	0.856530	0.531010	0.313100
C1121	C112	0.883640	0.578360	0.283770
H381	H38	0.867300	0.569200	0.274700
C1131	C113	0.895240	0.566770	0.309970
C1141	C114	0.879870	0.540840	0.324890
N751	N75	0.894050	0.640660	0.229780
N761	N76	0.874960	0.645200	0.207270
O771	O77	0.391980	0.031080	0.348650
O781	O78	0.356530	0.031010	0.313100
C1151	C115	0.383640	0.078360	0.283770
H391	H39	0.367300	0.069200	0.274700
C1161	C116	0.395240	0.066770	0.309970
C1171	C117	0.379870	0.040840	0.324890
N771	N77	0.394050	0.140660	0.229780
N781	N78	0.374960	0.145200	0.207270
O791	O79	0.391980	0.531080	0.848650
O801	O80	0.356530	0.531010	0.813100
C1181	C118	0.383640	0.578360	0.783770
H401	H40	0.367300	0.569200	0.774700
C1191	C119	0.395240	0.566770	0.809970
C1201	C120	0.379870	0.540840	0.824890
N791	N79	0.394050	0.640660	0.729780
N801	N80	0.374960	0.645200	0.707270
O811	O81	0.108020	0.968920	0.848650
O821	O82	0.143470	0.968990	0.813100
C1211	C121	0.116360	0.921640	0.783770
H411	H41	0.132700	0.930800	0.774700
C1221	C122	0.104760	0.933230	0.809970
C1231	C123	0.120130	0.959160	0.824890
N811	N81	0.105950	0.859340	0.729780
N821	N82	0.125040	0.854800	0.707270
O831	O83	0.108020	0.468920	0.348650
O841	O84	0.143470	0.468990	0.313100
C1241	C124	0.116360	0.421640	0.283770
H421	H42	0.132700	0.430800	0.274700
C1251	C125	0.104760	0.433230	0.309970
C1261	C126	0.120130	0.459160	0.324890
N831	N83	0.105950	0.359340	0.229780
N841	N84	0.125040	0.354800	0.207270
O851	O85	0.608020	0.968920	0.348650
O861	O86	0.643470	0.968990	0.313100
C1271	C127	0.616360	0.921640	0.283770
H431	H43	0.632700	0.930800	0.274700
C1281	C128	0.604760	0.933230	0.309970
C1291	C129	0.620130	0.959160	0.324890
N851	N85	0.605950	0.859340	0.229780
N861	N86	0.625040	0.854800	0.207270
O871	O87	0.608020	0.468920	0.848650
O881	O88	0.643470	0.468990	0.813100
C1301	C130	0.616360	0.421640	0.783770
H441	H44	0.632700	0.430800	0.774700
C1311	C131	0.604760	0.433230	0.809970
C1321	C132	0.620130	0.459160	0.824890
N871	N87	0.605950	0.359340	0.729780
N881	N88	0.625040	0.354800	0.707270
O891	O89	0.891980	0.968920	0.151350
O901	O90	0.856530	0.968990	0.186900
C1331	C133	0.883640	0.921640	0.216230
H451	H45	0.867300	0.930800	0.225300
C1341	C134	0.895240	0.933230	0.190030
C1351	C135	0.879870	0.959160	0.175110
N891	N89	0.894050	0.859340	0.270220
N901	N90	0.874960	0.854800	0.292730
O911	O91	0.891980	0.468920	0.651350
O921	O92	0.856530	0.468990	0.686900
C1361	C136	0.883640	0.421640	0.716230
H461	H46	0.867300	0.430800	0.725300
C1371	C137	0.895240	0.433230	0.690030
C1381	C138	0.879870	0.459160	0.675110
N911	N91	0.894050	0.359340	0.770220
N921	N92	0.874960	0.354800	0.792730
O931	O93	0.391980	0.968920	0.651350
O941	O94	0.356530	0.968990	0.686900
C1391	C139	0.383640	0.921640	0.716230
H471	H47	0.367300	0.930800	0.725300
C1401	C140	0.395240	0.933230	0.690030
C1411	C141	0.379870	0.959160	0.675110
N931	N93	0.394050	0.859340	0.770220
N941	N94	0.374960	0.854800	0.792730
O951	O95	0.391980	0.468920	0.151350
O961	O96	0.356530	0.468990	0.186900
C1421	C142	0.383640	0.421640	0.216230
H481	H48	0.367300	0.430800	0.225300
C1431	C143	0.395240	0.433230	0.190030
C1441	C144	0.379870	0.459160	0.175110
N951	N95	0.394050	0.359340	0.270220
N961	N96	0.374960	0.354800	0.292730
O971	O97	0.108020	0.151350	0.968920
O981	O98	0.143470	0.186900	0.968990
C1451	C145	0.116360	0.216230	0.921640
H491	H49	0.132700	0.225300	0.930800
C1461	C146	0.104760	0.190030	0.933230
C1471	C147	0.120130	0.175110	0.959160
N971	N97	0.105950	0.270220	0.859340
N981	N98	0.125040	0.292730	0.854800
O991	O99	0.108020	0.651350	0.468920
O1001	O100	0.143470	0.686900	0.468990
C1481	C148	0.116360	0.716230	0.421640
H501	H50	0.132700	0.725300	0.430800
C1491	C149	0.104760	0.690030	0.433230
C1501	C150	0.120130	0.675110	0.459160
N991	N99	0.105950	0.770220	0.359340
N1001	N100	0.125040	0.792730	0.354800
O1011	O101	0.608020	0.151350	0.468920
O1021	O102	0.643470	0.186900	0.468990
C1511	C151	0.616360	0.216230	0.421640
H511	H51	0.632700	0.225300	0.430800
C1521	C152	0.604760	0.190030	0.433230
C1531	C153	0.620130	0.175110	0.459160
N1011	N101	0.605950	0.270220	0.359340
N1021	N102	0.625040	0.292730	0.354800
O1031	O103	0.608020	0.651350	0.968920
O1041	O104	0.643470	0.686900	0.968990
C1541	C154	0.616360	0.716230	0.921640
H521	H52	0.632700	0.725300	0.930800
C1551	C155	0.604760	0.690030	0.933230
C1561	C156	0.620130	0.675110	0.959160
N1031	N103	0.605950	0.770220	0.859340
N1041	N104	0.625040	0.792730	0.854800
O1051	O105	0.891980	0.848650	0.968920
O1061	O106	0.856530	0.813100	0.968990
C1571	C157	0.883640	0.783770	0.921640
H531	H53	0.867300	0.774700	0.930800
C1581	C158	0.895240	0.809970	0.933230
C1591	C159	0.879870	0.824890	0.959160
N1051	N105	0.894050	0.729780	0.859340
N1061	N106	0.874960	0.707270	0.854800
O1071	O107	0.891980	0.348650	0.468920
O1081	O108	0.856530	0.313100	0.468990
C1601	C160	0.883640	0.283770	0.421640
H541	H54	0.867300	0.274700	0.430800
C1611	C161	0.895240	0.309970	0.433230
C1621	C162	0.879870	0.324890	0.459160
N1071	N107	0.894050	0.229780	0.359340
N1081	N108	0.874960	0.207270	0.354800
O1091	O109	0.391980	0.848650	0.468920
O1101	O110	0.356530	0.813100	0.468990
C1631	C163	0.383640	0.783770	0.421640
H551	H55	0.367300	0.774700	0.430800
C1641	C164	0.395240	0.809970	0.433230
C1651	C165	0.379870	0.824890	0.459160
N1091	N109	0.394050	0.729780	0.359340
N1101	N110	0.374960	0.707270	0.354800
O1111	O111	0.391980	0.348650	0.968920
O1121	O112	0.356530	0.313100	0.968990
C1661	C166	0.383640	0.283770	0.921640
H561	H56	0.367300	0.274700	0.930800
C1671	C167	0.395240	0.309970	0.933230
C1681	C168	0.379870	0.324890	0.959160
N1111	N111	0.394050	0.229780	0.859340
N1121	N112	0.374960	0.207270	0.854800
O1131	O113	0.108020	0.848650	0.031080
O1141	O114	0.143470	0.813100	0.031010
C1691	C169	0.116360	0.783770	0.078360
H571	H57	0.132700	0.774700	0.069200
C1701	C170	0.104760	0.809970	0.066770
C1711	C171	0.120130	0.824890	0.040840
N1131	N113	0.105950	0.729780	0.140660
N1141	N114	0.125040	0.707270	0.145200
O1151	O115	0.108020	0.348650	0.531080
O1161	O116	0.143470	0.313100	0.531010
C1721	C172	0.116360	0.283770	0.578360
H581	H58	0.132700	0.274700	0.569200
C1731	C173	0.104760	0.309970	0.566770
C1741	C174	0.120130	0.324890	0.540840
N1151	N115	0.105950	0.229780	0.640660
N1161	N116	0.125040	0.207270	0.645200
O1171	O117	0.608020	0.848650	0.531080
O1181	O118	0.643470	0.813100	0.531010
C1751	C175	0.616360	0.783770	0.578360
H591	H59	0.632700	0.774700	0.569200
C1761	C176	0.604760	0.809970	0.566770
C1771	C177	0.620130	0.824890	0.540840
N1171	N117	0.605950	0.729780	0.640660
N1181	N118	0.625040	0.707270	0.645200
O1191	O119	0.608020	0.348650	0.031080
O1201	O120	0.643470	0.313100	0.031010
C1781	C178	0.616360	0.283770	0.078360
H601	H60	0.632700	0.274700	0.069200
C1791	C179	0.604760	0.309970	0.066770
C1801	C180	0.620130	0.324890	0.040840
N1191	N119	0.605950	0.229780	0.140660
N1201	N120	0.625040	0.207270	0.145200
O1211	O121	0.891980	0.151350	0.031080
O1221	O122	0.856530	0.186900	0.031010
C1811	C181	0.883640	0.216230	0.078360
H611	H61	0.867300	0.225300	0.069200
C1821	C182	0.895240	0.190030	0.066770
C1831	C183	0.879870	0.175110	0.040840
N1211	N121	0.894050	0.270220	0.140660
N1221	N122	0.874960	0.292730	0.145200
O1231	O123	0.891980	0.651350	0.531080
O1241	O124	0.856530	0.686900	0.531010
C1841	C184	0.883640	0.716230	0.578360
H621	H62	0.867300	0.725300	0.569200
C1851	C185	0.895240	0.690030	0.566770
C1861	C186	0.879870	0.675110	0.540840
N1231	N123	0.894050	0.770220	0.640660
N1241	N124	0.874960	0.792730	0.645200
O1251	O125	0.391980	0.151350	0.531080
O1261	O126	0.356530	0.186900	0.531010
C1871	C187	0.383640	0.216230	0.578360
H631	H63	0.367300	0.225300	0.569200
C1881	C188	0.395240	0.190030	0.566770
C1891	C189	0.379870	0.175110	0.540840
N1251	N125	0.394050	0.270220	0.640660
N1261	N126	0.374960	0.292730	0.645200
O1271	O127	0.391980	0.651350	0.031080
O1281	O128	0.356530	0.686900	0.031010
C1901	C190	0.383640	0.716230	0.078360
H641	H64	0.367300	0.725300	0.069200
C1911	C191	0.395240	0.690030	0.066770
C1921	C192	0.379870	0.675110	0.040840
N1271	N127	0.394050	0.770220	0.140660
N1281	N128	0.374960	0.792730	0.145200
O1291	O129	0.151350	0.031080	0.891980
O1301	O130	0.186900	0.031010	0.856530
C1931	C193	0.216230	0.078360	0.883640
H651	H65	0.225300	0.069200	0.867300
C1941	C194	0.190030	0.066770	0.895240
C1951	C195	0.175110	0.040840	0.879870
N1291	N129	0.270220	0.140660	0.894050
N1301	N130	0.292730	0.145200	0.874960
O1311	O131	0.151350	0.531080	0.391980
O1321	O132	0.186900	0.531010	0.356530
C1961	C196	0.216230	0.578360	0.383640
H661	H66	0.225300	0.569200	0.367300
C1971	C197	0.190030	0.566770	0.395240
C1981	C198	0.175110	0.540840	0.379870
N1311	N131	0.270220	0.640660	0.394050
N1321	N132	0.292730	0.645200	0.374960
O1331	O133	0.651350	0.031080	0.391980
O1341	O134	0.686900	0.031010	0.356530
C1991	C199	0.716230	0.078360	0.383640
H671	H67	0.725300	0.069200	0.367300
C2001	C200	0.690030	0.066770	0.395240
C2011	C201	0.675110	0.040840	0.379870
N1331	N133	0.770220	0.140660	0.394050
N1341	N134	0.792730	0.145200	0.374960
O1351	O135	0.651350	0.531080	0.891980
O1361	O136	0.686900	0.531010	0.856530
C2021	C202	0.716230	0.578360	0.883640
H681	H68	0.725300	0.569200	0.867300
C2031	C203	0.690030	0.566770	0.895240
C2041	C204	0.675110	0.540840	0.879870
N1351	N135	0.770220	0.640660	0.894050
N1361	N136	0.792730	0.645200	0.874960
O1371	O137	0.848650	0.031080	0.108020
O1381	O138	0.813100	0.031010	0.143470
C2051	C205	0.783770	0.078360	0.116360
H691	H69	0.774700	0.069200	0.132700
C2061	C206	0.809970	0.066770	0.104760
C2071	C207	0.824890	0.040840	0.120130
N1371	N137	0.729780	0.140660	0.105950
N1381	N138	0.707270	0.145200	0.125040
O1391	O139	0.848650	0.531080	0.608020
O1401	O140	0.813100	0.531010	0.643470
C2081	C208	0.783770	0.578360	0.616360
H701	H70	0.774700	0.569200	0.632700
C2091	C209	0.809970	0.566770	0.604760
C2101	C210	0.824890	0.540840	0.620130
N1391	N139	0.729780	0.640660	0.605950
N1401	N140	0.707270	0.645200	0.625040
O1411	O141	0.348650	0.031080	0.608020
O1421	O142	0.313100	0.031010	0.643470
C2111	C211	0.283770	0.078360	0.616360
H711	H71	0.274700	0.069200	0.632700
C2121	C212	0.309970	0.066770	0.604760
C2131	C213	0.324890	0.040840	0.620130
N1411	N141	0.229780	0.140660	0.605950
N1421	N142	0.207270	0.145200	0.625040
O1431	O143	0.348650	0.531080	0.108020
O1441	O144	0.313100	0.531010	0.143470
C2141	C214	0.283770	0.578360	0.116360
H721	H72	0.274700	0.569200	0.132700
C2151	C215	0.309970	0.566770	0.104760
C2161	C216	0.324890	0.540840	0.120130
N1431	N143	0.229780	0.640660	0.105950
N1441	N144	0.207270	0.645200	0.125040
O1451	O145	0.848650	0.968920	0.891980
O1461	O146	0.813100	0.968990	0.856530
C2171	C217	0.783770	0.921640	0.883640
H731	H73	0.774700	0.930800	0.867300
C2181	C218	0.809970	0.933230	0.895240
C2191	C219	0.824890	0.959160	0.879870
N1451	N145	0.729780	0.859340	0.894050
N1461	N146	0.707270	0.854800	0.874960
O1471	O147	0.848650	0.468920	0.391980
O1481	O148	0.813100	0.468990	0.356530
C2201	C220	0.783770	0.421640	0.383640
H741	H74	0.774700	0.430800	0.367300
C2211	C221	0.809970	0.433230	0.395240
C2221	C222	0.824890	0.459160	0.379870
N1471	N147	0.729780	0.359340	0.394050
N1481	N148	0.707270	0.354800	0.374960
O1491	O149	0.348650	0.968920	0.391980
O1501	O150	0.313100	0.968990	0.356530
C2231	C223	0.283770	0.921640	0.383640
H751	H75	0.274700	0.930800	0.367300
C2241	C224	0.309970	0.933230	0.395240
C2251	C225	0.324890	0.959160	0.379870
N1491	N149	0.229780	0.859340	0.394050
N1501	N150	0.207270	0.854800	0.374960
O1511	O151	0.348650	0.468920	0.891980
O1521	O152	0.313100	0.468990	0.856530
C2261	C226	0.283770	0.421640	0.883640
H761	H76	0.274700	0.430800	0.867300
C2271	C227	0.309970	0.433230	0.895240
C2281	C228	0.324890	0.459160	0.879870
N1511	N151	0.229780	0.359340	0.894050
N1521	N152	0.207270	0.354800	0.874960
O1531	O153	0.151350	0.968920	0.108020
O1541	O154	0.186900	0.968990	0.143470
C2291	C229	0.216230	0.921640	0.116360
H771	H77	0.225300	0.930800	0.132700
C2301	C230	0.190030	0.933230	0.104760
C2311	C231	0.175110	0.959160	0.120130
N1531	N153	0.270220	0.859340	0.105950
N1541	N154	0.292730	0.854800	0.125040
O1551	O155	0.151350	0.468920	0.608020
O1561	O156	0.186900	0.468990	0.643470
C2321	C232	0.216230	0.421640	0.616360
H781	H78	0.225300	0.430800	0.632700
C2331	C233	0.190030	0.433230	0.604760
C2341	C234	0.175110	0.459160	0.620130
N1551	N155	0.270220	0.359340	0.605950
N1561	N156	0.292730	0.354800	0.625040
O1571	O157	0.651350	0.968920	0.608020
O1581	O158	0.686900	0.968990	0.643470
C2351	C235	0.716230	0.921640	0.616360
H791	H79	0.725300	0.930800	0.632700
C2361	C236	0.690030	0.933230	0.604760
C2371	C237	0.675110	0.959160	0.620130
N1571	N157	0.770220	0.859340	0.605950
N1581	N158	0.792730	0.854800	0.625040
O1591	O159	0.651350	0.468920	0.108020
O1601	O160	0.686900	0.468990	0.143470
C2381	C238	0.716230	0.421640	0.116360
H801	H80	0.725300	0.430800	0.132700
C2391	C239	0.690030	0.433230	0.104760
C2401	C240	0.675110	0.459160	0.120130
N1591	N159	0.770220	0.359340	0.105950
N1601	N160	0.792730	0.354800	0.125040
O1611	O161	0.031080	0.108020	0.848650
O1621	O162	0.031010	0.143470	0.813100
C2411	C241	0.078360	0.116360	0.783770
H811	H81	0.069200	0.132700	0.774700
C2421	C242	0.066770	0.104760	0.809970
C2431	C243	0.040840	0.120130	0.824890
N1611	N161	0.140660	0.105950	0.729780
N1621	N162	0.145200	0.125040	0.707270
O1631	O163	0.031080	0.608020	0.348650
O1641	O164	0.031010	0.643470	0.313100
C2441	C244	0.078360	0.616360	0.283770
H821	H82	0.069200	0.632700	0.274700
C2451	C245	0.066770	0.604760	0.309970
C2461	C246	0.040840	0.620130	0.324890
N1631	N163	0.140660	0.605950	0.229780
N1641	N164	0.145200	0.625040	0.207270
O1651	O165	0.531080	0.108020	0.348650
O1661	O166	0.531010	0.143470	0.313100
C2471	C247	0.578360	0.116360	0.283770
H831	H83	0.569200	0.132700	0.274700
C2481	C248	0.566770	0.104760	0.309970
C2491	C249	0.540840	0.120130	0.324890
N1651	N165	0.640660	0.105950	0.229780
N1661	N166	0.645200	0.125040	0.207270
O1671	O167	0.531080	0.608020	0.848650
O1681	O168	0.531010	0.643470	0.813100
C2501	C250	0.578360	0.616360	0.783770
H841	H84	0.569200	0.632700	0.774700
C2511	C251	0.566770	0.604760	0.809970
C2521	C252	0.540840	0.620130	0.824890
N1671	N167	0.640660	0.605950	0.729780
N1681	N168	0.645200	0.625040	0.707270
O1691	O169	0.031080	0.891980	0.151350
O1701	O170	0.031010	0.856530	0.186900
C2531	C253	0.078360	0.883640	0.216230
H851	H85	0.069200	0.867300	0.225300
C2541	C254	0.066770	0.895240	0.190030
C2551	C255	0.040840	0.879870	0.175110
N1691	N169	0.140660	0.894050	0.270220
N1701	N170	0.145200	0.874960	0.292730
O1711	O171	0.031080	0.391980	0.651350
O1721	O172	0.031010	0.356530	0.686900
C2561	C256	0.078360	0.383640	0.716230
H861	H86	0.069200	0.367300	0.725300
C2571	C257	0.066770	0.395240	0.690030
C2581	C258	0.040840	0.379870	0.675110
N1711	N171	0.140660	0.394050	0.770220
N1721	N172	0.145200	0.374960	0.792730
O1731	O173	0.531080	0.891980	0.651350
O1741	O174	0.531010	0.856530	0.686900
C2591	C259	0.578360	0.883640	0.716230
H871	H87	0.569200	0.867300	0.725300
C2601	C260	0.566770	0.895240	0.690030
C2611	C261	0.540840	0.879870	0.675110
N1731	N173	0.640660	0.894050	0.770220
N1741	N174	0.645200	0.874960	0.792730
O1751	O175	0.531080	0.391980	0.151350
O1761	O176	0.531010	0.356530	0.186900
C2621	C262	0.578360	0.383640	0.216230
H881	H88	0.569200	0.367300	0.225300
C2631	C263	0.566770	0.395240	0.190030
C2641	C264	0.540840	0.379870	0.175110
N1751	N175	0.640660	0.394050	0.270220
N1761	N176	0.645200	0.374960	0.292730
O1771	O177	0.968920	0.108020	0.151350
O1781	O178	0.968990	0.143470	0.186900
C2651	C265	0.921640	0.116360	0.216230
H891	H89	0.930800	0.132700	0.225300
C2661	C266	0.933230	0.104760	0.190030
C2671	C267	0.959160	0.120130	0.175110
N1771	N177	0.859340	0.105950	0.270220
N1781	N178	0.854800	0.125040	0.292730
O1791	O179	0.968920	0.608020	0.651350
O1801	O180	0.968990	0.643470	0.686900
C2681	C268	0.921640	0.616360	0.716230
H901	H90	0.930800	0.632700	0.725300
C2691	C269	0.933230	0.604760	0.690030
C2701	C270	0.959160	0.620130	0.675110
N1791	N179	0.859340	0.605950	0.770220
N1801	N180	0.854800	0.625040	0.792730
O1811	O181	0.468920	0.108020	0.651350
O1821	O182	0.468990	0.143470	0.686900
C2711	C271	0.421640	0.116360	0.716230
H911	H91	0.430800	0.132700	0.725300
C2721	C272	0.433230	0.104760	0.690030
C2731	C273	0.459160	0.120130	0.675110
N1811	N181	0.359340	0.105950	0.770220
N1821	N182	0.354800	0.125040	0.792730
O1831	O183	0.468920	0.608020	0.151350
O1841	O184	0.468990	0.643470	0.186900
C2741	C274	0.421640	0.616360	0.216230
H921	H92	0.430800	0.632700	0.225300
C2751	C275	0.433230	0.604760	0.190030
C2761	C276	0.459160	0.620130	0.175110
N1831	N183	0.359340	0.605950	0.270220
N1841	N184	0.354800	0.625040	0.292730
O1851	O185	0.968920	0.891980	0.848650
O1861	O186	0.968990	0.856530	0.813100
C2771	C277	0.921640	0.883640	0.783770
H931	H93	0.930800	0.867300	0.774700
C2781	C278	0.933230	0.895240	0.809970
C2791	C279	0.959160	0.879870	0.824890
N1851	N185	0.859340	0.894050	0.729780
N1861	N186	0.854800	0.874960	0.707270
O1871	O187	0.968920	0.391980	0.348650
O1881	O188	0.968990	0.356530	0.313100
C2801	C280	0.921640	0.383640	0.283770
H941	H94	0.930800	0.367300	0.274700
C2811	C281	0.933230	0.395240	0.309970
C2821	C282	0.959160	0.379870	0.324890
N1871	N187	0.859340	0.394050	0.229780
N1881	N188	0.854800	0.374960	0.207270
O1891	O189	0.468920	0.891980	0.348650
O1901	O190	0.468990	0.856530	0.313100
C2831	C283	0.421640	0.883640	0.283770
H951	H95	0.430800	0.867300	0.274700
C2841	C284	0.433230	0.895240	0.309970
C2851	C285	0.459160	0.879870	0.324890
N1891	N189	0.359340	0.894050	0.229780
N1901	N190	0.354800	0.874960	0.207270
O1911	O191	0.468920	0.391980	0.848650
O1921	O192	0.468990	0.356530	0.813100
C2861	C286	0.421640	0.383640	0.783770
H961	H96	0.430800	0.367300	0.774700
C2871	C287	0.433230	0.395240	0.809970
C2881	C288	0.459160	0.379870	0.824890
N1911	N191	0.359340	0.394050	0.729780
N1921	N192	0.354800	0.374960	0.707270
O1931	O193	0.848650	0.891980	0.968920
O1941	O194	0.813100	0.856530	0.968990
C2891	C289	0.783770	0.883640	0.921640
H971	H97	0.774700	0.867300	0.930800
C2901	C290	0.809970	0.895240	0.933230
C2911	C291	0.824890	0.879870	0.959160
N1931	N193	0.729780	0.894050	0.859340
N1941	N194	0.707270	0.874960	0.854800
O1951	O195	0.848650	0.391980	0.468920
O1961	O196	0.813100	0.356530	0.468990
C2921	C292	0.783770	0.383640	0.421640
H981	H98	0.774700	0.367300	0.430800
C2931	C293	0.809970	0.395240	0.433230
C2941	C294	0.824890	0.379870	0.459160
N1951	N195	0.729780	0.394050	0.359340
N1961	N196	0.707270	0.374960	0.354800
O1971	O197	0.348650	0.891980	0.468920
O1981	O198	0.313100	0.856530	0.468990
C2951	C295	0.283770	0.883640	0.421640
H991	H99	0.274700	0.867300	0.430800
C2961	C296	0.309970	0.895240	0.433230
C2971	C297	0.324890	0.879870	0.459160
N1971	N197	0.229780	0.894050	0.359340
N1981	N198	0.207270	0.874960	0.354800
O1991	O199	0.348650	0.391980	0.968920
O2001	O200	0.313100	0.356530	0.968990
C2981	C298	0.283770	0.383640	0.921640
H1001	H100	0.274700	0.367300	0.930800
C2991	C299	0.309970	0.395240	0.933230
C3001	C300	0.324890	0.379870	0.959160
N1991	N199	0.229780	0.394050	0.859340
N2001	N200	0.207270	0.374960	0.854800
O2011	O201	0.151350	0.108020	0.968920
O2021	O202	0.186900	0.143470	0.968990
C3011	C301	0.216230	0.116360	0.921640
H1011	H101	0.225300	0.132700	0.930800
C3021	C302	0.190030	0.104760	0.933230
C3031	C303	0.175110	0.120130	0.959160
N2011	N201	0.270220	0.105950	0.859340
N2021	N202	0.292730	0.125040	0.854800
O2031	O203	0.151350	0.608020	0.468920
O2041	O204	0.186900	0.643470	0.468990
C3041	C304	0.216230	0.616360	0.421640
H1021	H102	0.225300	0.632700	0.430800
C3051	C305	0.190030	0.604760	0.433230
C3061	C306	0.175110	0.620130	0.459160
N2031	N203	0.270220	0.605950	0.359340
N2041	N204	0.292730	0.625040	0.354800
O2051	O205	0.651350	0.108020	0.468920
O2061	O206	0.686900	0.143470	0.468990
C3071	C307	0.716230	0.116360	0.421640
H1031	H103	0.725300	0.132700	0.430800
C3081	C308	0.690030	0.104760	0.433230
C3091	C309	0.675110	0.120130	0.459160
N2051	N205	0.770220	0.105950	0.359340
N2061	N206	0.792730	0.125040	0.354800
O2071	O207	0.651350	0.608020	0.968920
O2081	O208	0.686900	0.643470	0.968990
C3101	C310	0.716230	0.616360	0.921640
H1041	H104	0.725300	0.632700	0.930800
C3111	C311	0.690030	0.604760	0.933230
C3121	C312	0.675110	0.620130	0.959160
N2071	N207	0.770220	0.605950	0.859340
N2081	N208	0.792730	0.625040	0.854800
O2091	O209	0.151350	0.891980	0.031080
O2101	O210	0.186900	0.856530	0.031010
C3131	C313	0.216230	0.883640	0.078360
H1051	H105	0.225300	0.867300	0.069200
C3141	C314	0.190030	0.895240	0.066770
C3151	C315	0.175110	0.879870	0.040840
N2091	N209	0.270220	0.894050	0.140660
N2101	N210	0.292730	0.874960	0.145200
O2111	O211	0.151350	0.391980	0.531080
O2121	O212	0.186900	0.356530	0.531010
C3161	C316	0.216230	0.383640	0.578360
H1061	H106	0.225300	0.367300	0.569200
C3171	C317	0.190030	0.395240	0.566770
C3181	C318	0.175110	0.379870	0.540840
N2111	N211	0.270220	0.394050	0.640660
N2121	N212	0.292730	0.374960	0.645200
O2131	O213	0.651350	0.891980	0.531080
O2141	O214	0.686900	0.856530	0.531010
C3191	C319	0.716230	0.883640	0.578360
H1071	H107	0.725300	0.867300	0.569200
C3201	C320	0.690030	0.895240	0.566770
C3211	C321	0.675110	0.879870	0.540840
N2131	N213	0.770220	0.894050	0.640660
N2141	N214	0.792730	0.874960	0.645200
O2151	O215	0.651350	0.391980	0.031080
O2161	O216	0.686900	0.356530	0.031010
C3221	C322	0.716230	0.383640	0.078360
H1081	H108	0.725300	0.367300	0.069200
C3231	C323	0.690030	0.395240	0.066770
C3241	C324	0.675110	0.379870	0.040840
N2151	N215	0.770220	0.394050	0.140660
N2161	N216	0.792730	0.374960	0.145200
O2171	O217	0.848650	0.108020	0.031080
O2181	O218	0.813100	0.143470	0.031010
C3251	C325	0.783770	0.116360	0.078360
H1091	H109	0.774700	0.132700	0.069200
C3261	C326	0.809970	0.104760	0.066770
C3271	C327	0.824890	0.120130	0.040840
N2171	N217	0.729780	0.105950	0.140660
N2181	N218	0.707270	0.125040	0.145200
O2191	O219	0.848650	0.608020	0.531080
O2201	O220	0.813100	0.643470	0.531010
C3281	C328	0.783770	0.616360	0.578360
H1101	H110	0.774700	0.632700	0.569200
C3291	C329	0.809970	0.604760	0.566770
C3301	C330	0.824890	0.620130	0.540840
N2191	N219	0.729780	0.605950	0.640660
N2201	N220	0.707270	0.625040	0.645200
O2211	O221	0.348650	0.108020	0.531080
O2221	O222	0.313100	0.143470	0.531010
C3311	C331	0.283770	0.116360	0.578360
H1111	H111	0.274700	0.132700	0.569200
C3321	C332	0.309970	0.104760	0.566770
C3331	C333	0.324890	0.120130	0.540840
N2211	N221	0.229780	0.105950	0.640660
N2221	N222	0.207270	0.125040	0.645200
O2231	O223	0.348650	0.608020	0.031080
O2241	O224	0.313100	0.643470	0.031010
C3341	C334	0.283770	0.616360	0.078360
H1121	H112	0.274700	0.632700	0.069200
C3351	C335	0.309970	0.604760	0.066770
C3361	C336	0.324890	0.620130	0.040840
N2231	N223	0.229780	0.605950	0.140660
N2241	N224	0.207270	0.625040	0.145200
O2251	O225	0.968920	0.848650	0.891980
O2261	O226	0.968990	0.813100	0.856530
C3371	C337	0.921640	0.783770	0.883640
H1131	H113	0.930800	0.774700	0.867300
C3381	C338	0.933230	0.809970	0.895240
C3391	C339	0.959160	0.824890	0.879870
N2251	N225	0.859340	0.729780	0.894050
N2261	N226	0.854800	0.707270	0.874960
O2271	O227	0.968920	0.348650	0.391980
O2281	O228	0.968990	0.313100	0.356530
C3401	C340	0.921640	0.283770	0.383640
H1141	H114	0.930800	0.274700	0.367300
C3411	C341	0.933230	0.309970	0.395240
C3421	C342	0.959160	0.324890	0.379870
N2271	N227	0.859340	0.229780	0.394050
N2281	N228	0.854800	0.207270	0.374960
O2291	O229	0.468920	0.848650	0.391980
O2301	O230	0.468990	0.813100	0.356530
C3431	C343	0.421640	0.783770	0.383640
H1151	H115	0.430800	0.774700	0.367300
C3441	C344	0.433230	0.809970	0.395240
C3451	C345	0.459160	0.824890	0.379870
N2291	N229	0.359340	0.729780	0.394050
N2301	N230	0.354800	0.707270	0.374960
O2311	O231	0.468920	0.348650	0.891980
O2321	O232	0.468990	0.313100	0.856530
C3461	C346	0.421640	0.283770	0.883640
H1161	H116	0.430800	0.274700	0.867300
C3471	C347	0.433230	0.309970	0.895240
C3481	C348	0.459160	0.324890	0.879870
N2311	N231	0.359340	0.229780	0.894050
N2321	N232	0.354800	0.207270	0.874960
O2331	O233	0.968920	0.151350	0.108020
O2341	O234	0.968990	0.186900	0.143470
C3491	C349	0.921640	0.216230	0.116360
H1171	H117	0.930800	0.225300	0.132700
C3501	C350	0.933230	0.190030	0.104760
C3511	C351	0.959160	0.175110	0.120130
N2331	N233	0.859340	0.270220	0.105950
N2341	N234	0.854800	0.292730	0.125040
O2351	O235	0.968920	0.651350	0.608020
O2361	O236	0.968990	0.686900	0.643470
C3521	C352	0.921640	0.716230	0.616360
H1181	H118	0.930800	0.725300	0.632700
C3531	C353	0.933230	0.690030	0.604760
C3541	C354	0.959160	0.675110	0.620130
N2351	N235	0.859340	0.770220	0.605950
N2361	N236	0.854800	0.792730	0.625040
O2371	O237	0.468920	0.151350	0.608020
O2381	O238	0.468990	0.186900	0.643470
C3551	C355	0.421640	0.216230	0.616360
H1191	H119	0.430800	0.225300	0.632700
C3561	C356	0.433230	0.190030	0.604760
C3571	C357	0.459160	0.175110	0.620130
N2371	N237	0.359340	0.270220	0.605950
N2381	N238	0.354800	0.292730	0.625040
O2391	O239	0.468920	0.651350	0.108020
O2401	O240	0.468990	0.686900	0.143470
C3581	C358	0.421640	0.716230	0.116360
H1201	H120	0.430800	0.725300	0.132700
C3591	C359	0.433230	0.690030	0.104760
C3601	C360	0.459160	0.675110	0.120130
N2391	N239	0.359340	0.770220	0.105950
N2401	N240	0.354800	0.792730	0.125040
O2411	O241	0.031080	0.151350	0.891980
O2421	O242	0.031010	0.186900	0.856530
C3611	C361	0.078360	0.216230	0.883640
H1211	H121	0.069200	0.225300	0.867300
C3621	C362	0.066770	0.190030	0.895240
C3631	C363	0.040840	0.175110	0.879870
N2411	N241	0.140660	0.270220	0.894050
N2421	N242	0.145200	0.292730	0.874960
O2431	O243	0.031080	0.651350	0.391980
O2441	O244	0.031010	0.686900	0.356530
C3641	C364	0.078360	0.716230	0.383640
H1221	H122	0.069200	0.725300	0.367300
C3651	C365	0.066770	0.690030	0.395240
C3661	C366	0.040840	0.675110	0.379870
N2431	N243	0.140660	0.770220	0.394050
N2441	N244	0.145200	0.792730	0.374960
O2451	O245	0.531080	0.151350	0.391980
O2461	O246	0.531010	0.186900	0.356530
C3671	C367	0.578360	0.216230	0.383640
H1231	H123	0.569200	0.225300	0.367300
C3681	C368	0.566770	0.190030	0.395240
C3691	C369	0.540840	0.175110	0.379870
N2451	N245	0.640660	0.270220	0.394050
N2461	N246	0.645200	0.292730	0.374960
O2471	O247	0.531080	0.651350	0.891980
O2481	O248	0.531010	0.686900	0.856530
C3701	C370	0.578360	0.716230	0.883640
H1241	H124	0.569200	0.725300	0.867300
C3711	C371	0.566770	0.690030	0.895240
C3721	C372	0.540840	0.675110	0.879870
N2471	N247	0.640660	0.770220	0.894050
N2481	N248	0.645200	0.792730	0.874960
O2491	O249	0.031080	0.848650	0.108020
O2501	O250	0.031010	0.813100	0.143470
C3731	C373	0.078360	0.783770	0.116360
H1251	H125	0.069200	0.774700	0.132700
C3741	C374	0.066770	0.809970	0.104760
C3751	C375	0.040840	0.824890	0.120130
N2491	N249	0.140660	0.729780	0.105950
N2501	N250	0.145200	0.707270	0.125040
O2511	O251	0.031080	0.348650	0.608020
O2521	O252	0.031010	0.313100	0.643470
C3761	C376	0.078360	0.283770	0.616360
H1261	H126	0.069200	0.274700	0.632700
C3771	C377	0.066770	0.309970	0.604760
C3781	C378	0.040840	0.324890	0.620130
N2511	N251	0.140660	0.229780	0.605950
N2521	N252	0.145200	0.207270	0.625040
O2531	O253	0.531080	0.848650	0.608020
O2541	O254	0.531010	0.813100	0.643470
C3791	C379	0.578360	0.783770	0.616360
H1271	H127	0.569200	0.774700	0.632700
C3801	C380	0.566770	0.809970	0.604760
C3811	C381	0.540840	0.824890	0.620130
N2531	N253	0.640660	0.729780	0.605950
N2541	N254	0.645200	0.707270	0.625040
O2551	O255	0.531080	0.348650	0.108020
O2561	O256	0.531010	0.313100	0.143470
C3821	C382	0.578360	0.283770	0.116360
H1281	H128	0.569200	0.274700	0.132700
C3831	C383	0.566770	0.309970	0.104760
C3841	C384	0.540840	0.324890	0.120130
N2551	N255	0.640660	0.229780	0.105950
N2561	N256	0.645200	0.207270	0.125040
O2571	O257	0.891980	0.968920	0.848650
O2581	O258	0.856530	0.968990	0.813100
C3851	C385	0.883640	0.921640	0.783770
H1291	H129	0.867300	0.930800	0.774700
C3861	C386	0.895240	0.933230	0.809970
C3871	C387	0.879870	0.959160	0.824890
N2571	N257	0.894050	0.859340	0.729780
N2581	N258	0.874960	0.854800	0.707270
O2591	O259	0.891980	0.468920	0.348650
O2601	O260	0.856530	0.468990	0.313100
C3881	C388	0.883640	0.421640	0.283770
H1301	H130	0.867300	0.430800	0.274700
C3891	C389	0.895240	0.433230	0.309970
C3901	C390	0.879870	0.459160	0.324890
N2591	N259	0.894050	0.359340	0.229780
N2601	N260	0.874960	0.354800	0.207270
O2611	O261	0.391980	0.968920	0.348650
O2621	O262	0.356530	0.968990	0.313100
C3911	C391	0.383640	0.921640	0.283770
H1311	H131	0.367300	0.930800	0.274700
C3921	C392	0.395240	0.933230	0.309970
C3931	C393	0.379870	0.959160	0.324890
N2611	N261	0.394050	0.859340	0.229780
N2621	N262	0.374960	0.854800	0.207270
O2631	O263	0.391980	0.468920	0.848650
O2641	O264	0.356530	0.468990	0.813100
C3941	C394	0.383640	0.421640	0.783770
H1321	H132	0.367300	0.430800	0.774700
C3951	C395	0.395240	0.433230	0.809970
C3961	C396	0.379870	0.459160	0.824890
N2631	N263	0.394050	0.359340	0.729780
N2641	N264	0.374960	0.354800	0.707270
O2651	O265	0.108020	0.968920	0.151350
O2661	O266	0.143470	0.968990	0.186900
C3971	C397	0.116360	0.921640	0.216230
H1331	H133	0.132700	0.930800	0.225300
C3981	C398	0.104760	0.933230	0.190030
C3991	C399	0.120130	0.959160	0.175110
N2651	N265	0.105950	0.859340	0.270220
N2661	N266	0.125040	0.854800	0.292730
O2671	O267	0.108020	0.468920	0.651350
O2681	O268	0.143470	0.468990	0.686900
C4001	C400	0.116360	0.421640	0.716230
H1341	H134	0.132700	0.430800	0.725300
C4011	C401	0.104760	0.433230	0.690030
C4021	C402	0.120130	0.459160	0.675110
N2671	N267	0.105950	0.359340	0.770220
N2681	N268	0.125040	0.354800	0.792730
O2691	O269	0.608020	0.968920	0.651350
O2701	O270	0.643470	0.968990	0.686900
C4031	C403	0.616360	0.921640	0.716230
H1351	H135	0.632700	0.930800	0.725300
C4041	C404	0.604760	0.933230	0.690030
C4051	C405	0.620130	0.959160	0.675110
N2691	N269	0.605950	0.859340	0.770220
N2701	N270	0.625040	0.854800	0.792730
O2711	O271	0.608020	0.468920	0.151350
O2721	O272	0.643470	0.468990	0.186900
C4061	C406	0.616360	0.421640	0.216230
H1361	H136	0.632700	0.430800	0.225300
C4071	C407	0.604760	0.433230	0.190030
C4081	C408	0.620130	0.459160	0.175110
N2711	N271	0.605950	0.359340	0.270220
N2721	N272	0.625040	0.354800	0.292730
O2731	O273	0.891980	0.031080	0.151350
O2741	O274	0.856530	0.031010	0.186900
C4091	C409	0.883640	0.078360	0.216230
H1371	H137	0.867300	0.069200	0.225300
C4101	C410	0.895240	0.066770	0.190030
C4111	C411	0.879870	0.040840	0.175110
N2731	N273	0.894050	0.140660	0.270220
N2741	N274	0.874960	0.145200	0.292730
O2751	O275	0.891980	0.531080	0.651350
O2761	O276	0.856530	0.531010	0.686900
C4121	C412	0.883640	0.578360	0.716230
H1381	H138	0.867300	0.569200	0.725300
C4131	C413	0.895240	0.566770	0.690030
C4141	C414	0.879870	0.540840	0.675110
N2751	N275	0.894050	0.640660	0.770220
N2761	N276	0.874960	0.645200	0.792730
O2771	O277	0.391980	0.031080	0.651350
O2781	O278	0.356530	0.031010	0.686900
C4151	C415	0.383640	0.078360	0.716230
H1391	H139	0.367300	0.069200	0.725300
C4161	C416	0.395240	0.066770	0.690030
C4171	C417	0.379870	0.040840	0.675110
N2771	N277	0.394050	0.140660	0.770220
N2781	N278	0.374960	0.145200	0.792730
O2791	O279	0.391980	0.531080	0.151350
O2801	O280	0.356530	0.531010	0.186900
C4181	C418	0.383640	0.578360	0.216230
H1401	H140	0.367300	0.569200	0.225300
C4191	C419	0.395240	0.566770	0.190030
C4201	C420	0.379870	0.540840	0.175110
N2791	N279	0.394050	0.640660	0.270220
N2801	N280	0.374960	0.645200	0.292730
O2811	O281	0.108020	0.031080	0.848650
O2821	O282	0.143470	0.031010	0.813100
C4211	C421	0.116360	0.078360	0.783770
H1411	H141	0.132700	0.069200	0.774700
C4221	C422	0.104760	0.066770	0.809970
C4231	C423	0.120130	0.040840	0.824890
N2811	N281	0.105950	0.140660	0.729780
N2821	N282	0.125040	0.145200	0.707270
O2831	O283	0.108020	0.531080	0.348650
O2841	O284	0.143470	0.531010	0.313100
C4241	C424	0.116360	0.578360	0.283770
H1421	H142	0.132700	0.569200	0.274700
C4251	C425	0.104760	0.566770	0.309970
C4261	C426	0.120130	0.540840	0.324890
N2831	N283	0.105950	0.640660	0.229780
N2841	N284	0.125040	0.645200	0.207270
O2851	O285	0.608020	0.031080	0.348650
O2861	O286	0.643470	0.031010	0.313100
C4271	C427	0.616360	0.078360	0.283770
H1431	H143	0.632700	0.069200	0.274700
C4281	C428	0.604760	0.066770	0.309970
C4291	C429	0.620130	0.040840	0.324890
N2851	N285	0.605950	0.140660	0.229780
N2861	N286	0.625040	0.145200	0.207270
O2871	O287	0.608020	0.531080	0.848650
O2881	O288	0.643470	0.531010	0.813100
C4301	C430	0.616360	0.578360	0.783770
H1441	H144	0.632700	0.569200	0.774700
C4311	C431	0.604760	0.566770	0.809970
C4321	C432	0.620130	0.540840	0.824890
N2871	N287	0.605950	0.640660	0.729780
N2881	N288	0.625040	0.645200	0.707270
O2891	O289	0.891980	0.848650	0.031080
O2901	O290	0.856530	0.813100	0.031010
C4331	C433	0.883640	0.783770	0.078360
H1451	H145	0.867300	0.774700	0.069200
C4341	C434	0.895240	0.809970	0.066770
C4351	C435	0.879870	0.824890	0.040840
N2891	N289	0.894050	0.729780	0.140660
N2901	N290	0.874960	0.707270	0.145200
O2911	O291	0.891980	0.348650	0.531080
O2921	O292	0.856530	0.313100	0.531010
C4361	C436	0.883640	0.283770	0.578360
H1461	H146	0.867300	0.274700	0.569200
C4371	C437	0.895240	0.309970	0.566770
C4381	C438	0.879870	0.324890	0.540840
N2911	N291	0.894050	0.229780	0.640660
N2921	N292	0.874960	0.207270	0.645200
O2931	O293	0.391980	0.848650	0.531080
O2941	O294	0.356530	0.813100	0.531010
C4391	C439	0.383640	0.783770	0.578360
H1471	H147	0.367300	0.774700	0.569200
C4401	C440	0.395240	0.809970	0.566770
C4411	C441	0.379870	0.824890	0.540840
N2931	N293	0.394050	0.729780	0.640660
N2941	N294	0.374960	0.707270	0.645200
O2951	O295	0.391980	0.348650	0.031080
O2961	O296	0.356530	0.313100	0.031010
C4421	C442	0.383640	0.283770	0.078360
H1481	H148	0.367300	0.274700	0.069200
C4431	C443	0.395240	0.309970	0.066770
C4441	C444	0.379870	0.324890	0.040840
N2951	N295	0.394050	0.229780	0.140660
N2961	N296	0.374960	0.207270	0.145200
O2971	O297	0.108020	0.151350	0.031080
O2981	O298	0.143470	0.186900	0.031010
C4451	C445	0.116360	0.216230	0.078360
H1491	H149	0.132700	0.225300	0.069200
C4461	C446	0.104760	0.190030	0.066770
C4471	C447	0.120130	0.175110	0.040840
N2971	N297	0.105950	0.270220	0.140660
N2981	N298	0.125040	0.292730	0.145200
O2991	O299	0.108020	0.651350	0.531080
O3001	O300	0.143470	0.686900	0.531010
C4481	C448	0.116360	0.716230	0.578360
H1501	H150	0.132700	0.725300	0.569200
C4491	C449	0.104760	0.690030	0.566770
C4501	C450	0.120130	0.675110	0.540840
N2991	N299	0.105950	0.770220	0.640660
N3001	N300	0.125040	0.792730	0.645200
O3011	O301	0.608020	0.151350	0.531080
O3021	O302	0.643470	0.186900	0.531010
C4511	C451	0.616360	0.216230	0.578360
H1511	H151	0.632700	0.225300	0.569200
C4521	C452	0.604760	0.190030	0.566770
C4531	C453	0.620130	0.175110	0.540840
N3011	N301	0.605950	0.270220	0.640660
N3021	N302	0.625040	0.292730	0.645200
O3031	O303	0.608020	0.651350	0.031080
O3041	O304	0.643470	0.686900	0.031010
C4541	C454	0.616360	0.716230	0.078360
H1521	H152	0.632700	0.725300	0.069200
C4551	C455	0.604760	0.690030	0.066770
C4561	C456	0.620130	0.675110	0.040840
N3031	N303	0.605950	0.770220	0.140660
N3041	N304	0.625040	0.792730	0.145200
O3051	O305	0.891980	0.151350	0.968920
O3061	O306	0.856530	0.186900	0.968990
C4571	C457	0.883640	0.216230	0.921640
H1531	H153	0.867300	0.225300	0.930800
C4581	C458	0.895240	0.190030	0.933230
C4591	C459	0.879870	0.175110	0.959160
N3051	N305	0.894050	0.270220	0.859340
N3061	N306	0.874960	0.292730	0.854800
O3071	O307	0.891980	0.651350	0.468920
O3081	O308	0.856530	0.686900	0.468990
C4601	C460	0.883640	0.716230	0.421640
H1541	H154	0.867300	0.725300	0.430800
C4611	C461	0.895240	0.690030	0.433230
C4621	C462	0.879870	0.675110	0.459160
N3071	N307	0.894050	0.770220	0.359340
N3081	N308	0.874960	0.792730	0.354800
O3091	O309	0.391980	0.151350	0.468920
O3101	O310	0.356530	0.186900	0.468990
C4631	C463	0.383640	0.216230	0.421640
H1551	H155	0.367300	0.225300	0.430800
C4641	C464	0.395240	0.190030	0.433230
C4651	C465	0.379870	0.175110	0.459160
N3091	N309	0.394050	0.270220	0.359340
N3101	N310	0.374960	0.292730	0.354800
O3111	O311	0.391980	0.651350	0.968920
O3121	O312	0.356530	0.686900	0.968990
C4661	C466	0.383640	0.716230	0.921640
H1561	H156	0.367300	0.725300	0.930800
C4671	C467	0.395240	0.690030	0.933230
C4681	C468	0.379870	0.675110	0.959160
N3111	N311	0.394050	0.770220	0.859340
N3121	N312	0.374960	0.792730	0.854800
O3131	O313	0.108020	0.848650	0.968920
O3141	O314	0.143470	0.813100	0.968990
C4691	C469	0.116360	0.783770	0.921640
H1571	H157	0.132700	0.774700	0.930800
C4701	C470	0.104760	0.809970	0.933230
C4711	C471	0.120130	0.824890	0.959160
N3131	N313	0.105950	0.729780	0.859340
N3141	N314	0.125040	0.707270	0.854800
O3151	O315	0.108020	0.348650	0.468920
O3161	O316	0.143470	0.313100	0.468990
C4721	C472	0.116360	0.283770	0.421640
H1581	H158	0.132700	0.274700	0.430800
C4731	C473	0.104760	0.309970	0.433230
C4741	C474	0.120130	0.324890	0.459160
N3151	N315	0.105950	0.229780	0.359340
N3161	N316	0.125040	0.207270	0.354800
O3171	O317	0.608020	0.848650	0.468920
O3181	O318	0.643470	0.813100	0.468990
C4751	C475	0.616360	0.783770	0.421640
H1591	H159	0.632700	0.774700	0.430800
C4761	C476	0.604760	0.809970	0.433230
C4771	C477	0.620130	0.824890	0.459160
N3171	N317	0.605950	0.729780	0.359340
N3181	N318	0.625040	0.707270	0.354800
O3191	O319	0.608020	0.348650	0.968920
O3201	O320	0.643470	0.313100	0.968990
C4781	C478	0.616360	0.283770	0.921640
H1601	H160	0.632700	0.274700	0.930800
C4791	C479	0.604760	0.309970	0.933230
C4801	C480	0.620130	0.324890	0.959160
N3191	N319	0.605950	0.229780	0.859340
N3201	N320	0.625040	0.207270	0.854800
O3211	O321	0.848650	0.968920	0.108020
O3221	O322	0.813100	0.968990	0.143470
C4811	C481	0.783770	0.921640	0.116360
H1611	H161	0.774700	0.930800	0.132700
C4821	C482	0.809970	0.933230	0.104760
C4831	C483	0.824890	0.959160	0.120130
N3211	N321	0.729780	0.859340	0.105950
N3221	N322	0.707270	0.854800	0.125040
O3231	O323	0.848650	0.468920	0.608020
O3241	O324	0.813100	0.468990	0.643470
C4841	C484	0.783770	0.421640	0.616360
H1621	H162	0.774700	0.430800	0.632700
C4851	C485	0.809970	0.433230	0.604760
C4861	C486	0.824890	0.459160	0.620130
N3231	N323	0.729780	0.359340	0.605950
N3241	N324	0.707270	0.354800	0.625040
O3251	O325	0.348650	0.968920	0.608020
O3261	O326	0.313100	0.968990	0.643470
C4871	C487	0.283770	0.921640	0.616360
H1631	H163	0.274700	0.930800	0.632700
C4881	C488	0.309970	0.933230	0.604760
C4891	C489	0.324890	0.959160	0.620130
N3251	N325	0.229780	0.859340	0.605950
N3261	N326	0.207270	0.854800	0.625040
O3271	O327	0.348650	0.468920	0.108020
O3281	O328	0.313100	0.468990	0.143470
C4901	C490	0.283770	0.421640	0.116360
H1641	H164	0.274700	0.430800	0.132700
C4911	C491	0.309970	0.433230	0.104760
C4921	C492	0.324890	0.459160	0.120130
N3271	N327	0.229780	0.359340	0.105950
N3281	N328	0.207270	0.354800	0.125040
O3291	O329	0.151350	0.968920	0.891980
O3301	O330	0.186900	0.968990	0.856530
C4931	C493	0.216230	0.921640	0.883640
H1651	H165	0.225300	0.930800	0.867300
C4941	C494	0.190030	0.933230	0.895240
C4951	C495	0.175110	0.959160	0.879870
N3291	N329	0.270220	0.859340	0.894050
N3301	N330	0.292730	0.854800	0.874960
O3311	O331	0.151350	0.468920	0.391980
O3321	O332	0.186900	0.468990	0.356530
C4961	C496	0.216230	0.421640	0.383640
H1661	H166	0.225300	0.430800	0.367300
C4971	C497	0.190030	0.433230	0.395240
C4981	C498	0.175110	0.459160	0.379870
N3311	N331	0.270220	0.359340	0.394050
N3321	N332	0.292730	0.354800	0.374960
O3331	O333	0.651350	0.968920	0.391980
O3341	O334	0.686900	0.968990	0.356530
C4991	C499	0.716230	0.921640	0.383640
H1671	H167	0.725300	0.930800	0.367300
C5001	C500	0.690030	0.933230	0.395240
C5011	C501	0.675110	0.959160	0.379870
N3331	N333	0.770220	0.859340	0.394050
N3341	N334	0.792730	0.854800	0.374960
O3351	O335	0.651350	0.468920	0.891980
O3361	O336	0.686900	0.468990	0.856530
C5021	C502	0.716230	0.421640	0.883640
H1681	H168	0.725300	0.430800	0.867300
C5031	C503	0.690030	0.433230	0.895240
C5041	C504	0.675110	0.459160	0.879870
N3351	N335	0.770220	0.359340	0.894050
N3361	N336	0.792730	0.354800	0.874960
O3371	O337	0.151350	0.031080	0.108020
O3381	O338	0.186900	0.031010	0.143470
C5051	C505	0.216230	0.078360	0.116360
H1691	H169	0.225300	0.069200	0.132700
C5061	C506	0.190030	0.066770	0.104760
C5071	C507	0.175110	0.040840	0.120130
N3371	N337	0.270220	0.140660	0.105950
N3381	N338	0.292730	0.145200	0.125040
O3391	O339	0.151350	0.531080	0.608020
O3401	O340	0.186900	0.531010	0.643470
C5081	C508	0.216230	0.578360	0.616360
H1701	H170	0.225300	0.569200	0.632700
C5091	C509	0.190030	0.566770	0.604760
C5101	C510	0.175110	0.540840	0.620130
N3391	N339	0.270220	0.640660	0.605950
N3401	N340	0.292730	0.645200	0.625040
O3411	O341	0.651350	0.031080	0.608020
O3421	O342	0.686900	0.031010	0.643470
C5111	C511	0.716230	0.078360	0.616360
H1711	H171	0.725300	0.069200	0.632700
C5121	C512	0.690030	0.066770	0.604760
C5131	C513	0.675110	0.040840	0.620130
N3411	N341	0.770220	0.140660	0.605950
N3421	N342	0.792730	0.145200	0.625040
O3431	O343	0.651350	0.531080	0.108020
O3441	O344	0.686900	0.531010	0.143470
C5141	C514	0.716230	0.578360	0.116360
H1721	H172	0.725300	0.569200	0.132700
C5151	C515	0.690030	0.566770	0.104760
C5161	C516	0.675110	0.540840	0.120130
N3431	N343	0.770220	0.640660	0.105950
N3441	N344	0.792730	0.645200	0.125040
O3451	O345	0.848650	0.031080	0.891980
O3461	O346	0.813100	0.031010	0.856530
C5171	C517	0.783770	0.078360	0.883640
H1731	H173	0.774700	0.069200	0.867300
C5181	C518	0.809970	0.066770	0.895240
C5191	C519	0.824890	0.040840	0.879870
N3451	N345	0.729780	0.140660	0.894050
N3461	N346	0.707270	0.145200	0.874960
O3471	O347	0.848650	0.531080	0.391980
O3481	O348	0.813100	0.531010	0.356530
C5201	C520	0.783770	0.578360	0.383640
H1741	H174	0.774700	0.569200	0.367300
C5211	C521	0.809970	0.566770	0.395240
C5221	C522	0.824890	0.540840	0.379870
N3471	N347	0.729780	0.640660	0.394050
N3481	N348	0.707270	0.645200	0.374960
O3491	O349	0.348650	0.031080	0.391980
O3501	O350	0.313100	0.031010	0.356530
C5231	C523	0.283770	0.078360	0.383640
H1751	H175	0.274700	0.069200	0.367300
C5241	C524	0.309970	0.066770	0.395240
C5251	C525	0.324890	0.040840	0.379870
N3491	N349	0.229780	0.140660	0.394050
N3501	N350	0.207270	0.145200	0.374960
O3511	O351	0.348650	0.531080	0.891980
O3521	O352	0.313100	0.531010	0.856530
C5261	C526	0.283770	0.578360	0.883640
H1761	H176	0.274700	0.569200	0.867300
C5271	C527	0.309970	0.566770	0.895240
C5281	C528	0.324890	0.540840	0.879870
N3511	N351	0.229780	0.640660	0.894050
N3521	N352	0.207270	0.645200	0.874960
O3531	O353	0.968920	0.891980	0.151350
O3541	O354	0.968990	0.856530	0.186900
C5291	C529	0.921640	0.883640	0.216230
H1771	H177	0.930800	0.867300	0.225300
C5301	C530	0.933230	0.895240	0.190030
C5311	C531	0.959160	0.879870	0.175110
N3531	N353	0.859340	0.894050	0.270220
N3541	N354	0.854800	0.874960	0.292730
O3551	O355	0.968920	0.391980	0.651350
O3561	O356	0.968990	0.356530	0.686900
C5321	C532	0.921640	0.383640	0.716230
H1781	H178	0.930800	0.367300	0.725300
C5331	C533	0.933230	0.395240	0.690030
C5341	C534	0.959160	0.379870	0.675110
N3551	N355	0.859340	0.394050	0.770220
N3561	N356	0.854800	0.374960	0.792730
O3571	O357	0.468920	0.891980	0.651350
O3581	O358	0.468990	0.856530	0.686900
C5351	C535	0.421640	0.883640	0.716230
H1791	H179	0.430800	0.867300	0.725300
C5361	C536	0.433230	0.895240	0.690030
C5371	C537	0.459160	0.879870	0.675110
N3571	N357	0.359340	0.894050	0.770220
N3581	N358	0.354800	0.874960	0.792730
O3591	O359	0.468920	0.391980	0.151350
O3601	O360	0.468990	0.356530	0.186900
C5381	C538	0.421640	0.383640	0.216230
H1801	H180	0.430800	0.367300	0.225300
C5391	C539	0.433230	0.395240	0.190030
C5401	C540	0.459160	0.379870	0.175110
N3591	N359	0.359340	0.394050	0.270220
N3601	N360	0.354800	0.374960	0.292730
O3611	O361	0.968920	0.108020	0.848650
O3621	O362	0.968990	0.143470	0.813100
C5411	C541	0.921640	0.116360	0.783770
H1811	H181	0.930800	0.132700	0.774700
C5421	C542	0.933230	0.104760	0.809970
C5431	C543	0.959160	0.120130	0.824890
N3611	N361	0.859340	0.105950	0.729780
N3621	N362	0.854800	0.125040	0.707270
O3631	O363	0.968920	0.608020	0.348650
O3641	O364	0.968990	0.643470	0.313100
C5441	C544	0.921640	0.616360	0.283770
H1821	H182	0.930800	0.632700	0.274700
C5451	C545	0.933230	0.604760	0.309970
C5461	C546	0.959160	0.620130	0.324890
N3631	N363	0.859340	0.605950	0.229780
N3641	N364	0.854800	0.625040	0.207270
O3651	O365	0.468920	0.108020	0.348650
O3661	O366	0.468990	0.143470	0.313100
C5471	C547	0.421640	0.116360	0.283770
H1831	H183	0.430800	0.132700	0.274700
C5481	C548	0.433230	0.104760	0.309970
C5491	C549	0.459160	0.120130	0.324890
N3651	N365	0.359340	0.105950	0.229780
N3661	N366	0.354800	0.125040	0.207270
O3671	O367	0.468920	0.608020	0.848650
O3681	O368	0.468990	0.643470	0.813100
C5501	C550	0.421640	0.616360	0.783770
H1841	H184	0.430800	0.632700	0.774700
C5511	C551	0.433230	0.604760	0.809970
C5521	C552	0.459160	0.620130	0.824890
N3671	N367	0.359340	0.605950	0.729780
N3681	N368	0.354800	0.625040	0.707270
O3691	O369	0.031080	0.891980	0.848650
O3701	O370	0.031010	0.856530	0.813100
C5531	C553	0.078360	0.883640	0.783770
H1851	H185	0.069200	0.867300	0.774700
C5541	C554	0.066770	0.895240	0.809970
C5551	C555	0.040840	0.879870	0.824890
N3691	N369	0.140660	0.894050	0.729780
N3701	N370	0.145200	0.874960	0.707270
O3711	O371	0.031080	0.391980	0.348650
O3721	O372	0.031010	0.356530	0.313100
C5561	C556	0.078360	0.383640	0.283770
H1861	H186	0.069200	0.367300	0.274700
C5571	C557	0.066770	0.395240	0.309970
C5581	C558	0.040840	0.379870	0.324890
N3711	N371	0.140660	0.394050	0.229780
N3721	N372	0.145200	0.374960	0.207270
O3731	O373	0.531080	0.891980	0.348650
O3741	O374	0.531010	0.856530	0.313100
C5591	C559	0.578360	0.883640	0.283770
H1871	H187	0.569200	0.867300	0.274700
C5601	C560	0.566770	0.895240	0.309970
C5611	C561	0.540840	0.879870	0.324890
N3731	N373	0.640660	0.894050	0.229780
N3741	N374	0.645200	0.874960	0.207270
O3751	O375	0.531080	0.391980	0.848650
O3761	O376	0.531010	0.356530	0.813100
C5621	C562	0.578360	0.383640	0.783770
H1881	H188	0.569200	0.367300	0.774700
C5631	C563	0.566770	0.395240	0.809970
C5641	C564	0.540840	0.379870	0.824890
N3751	N375	0.640660	0.394050	0.729780
N3761	N376	0.645200	0.374960	0.707270
O3771	O377	0.031080	0.108020	0.151350
O3781	O378	0.031010	0.143470	0.186900
C5651	C565	0.078360	0.116360	0.216230
H1891	H189	0.069200	0.132700	0.225300
C5661	C566	0.066770	0.104760	0.190030
C5671	C567	0.040840	0.120130	0.175110
N3771	N377	0.140660	0.105950	0.270220
N3781	N378	0.145200	0.125040	0.292730
O3791	O379	0.031080	0.608020	0.651350
O3801	O380	0.031010	0.643470	0.686900
C5681	C568	0.078360	0.616360	0.716230
H1901	H190	0.069200	0.632700	0.725300
C5691	C569	0.066770	0.604760	0.690030
C5701	C570	0.040840	0.620130	0.675110
N3791	N379	0.140660	0.605950	0.770220
N3801	N380	0.145200	0.625040	0.792730
O3811	O381	0.531080	0.108020	0.651350
O3821	O382	0.531010	0.143470	0.686900
C5711	C571	0.578360	0.116360	0.716230
H1911	H191	0.569200	0.132700	0.725300
C5721	C572	0.566770	0.104760	0.690030
C5731	C573	0.540840	0.120130	0.675110
N3811	N381	0.640660	0.105950	0.770220
N3821	N382	0.645200	0.125040	0.792730
O3831	O383	0.531080	0.608020	0.151350
O3841	O384	0.531010	0.643470	0.186900
C5741	C574	0.578360	0.616360	0.216230
H1921	H192	0.569200	0.632700	0.225300
C5751	C575	0.566770	0.604760	0.190030
C5761	C576	0.540840	0.620130	0.175110
N3831	N383	0.640660	0.605950	0.270220
N3841	N384	0.645200	0.625040	0.292730
Cu11	Cu1	0.323800	0.123160	0.176200
O3851	O385	0.293500	0.101400	0.206500
O3861	O386	0.349000	0.087200	0.151000
O3871	O387	0.310000	0.083500	0.190000
O3881	O388	0.365500	0.109800	0.134500
Cu21	Cu2	0.323800	0.623160	0.676200
O3891	O389	0.293500	0.601400	0.706500
O3901	O390	0.349000	0.587200	0.651000
O3911	O391	0.310000	0.583500	0.690000
O3921	O392	0.365500	0.609800	0.634500
Cu31	Cu3	0.676200	0.876840	0.176200
O3931	O393	0.706500	0.898600	0.206500
O3941	O394	0.651000	0.912800	0.151000
O3951	O395	0.690000	0.916500	0.190000
O3961	O396	0.634500	0.890200	0.134500
Cu41	Cu4	0.676200	0.376840	0.676200
O3971	O397	0.706500	0.398600	0.706500
O3981	O398	0.651000	0.412800	0.651000
O3991	O399	0.690000	0.416500	0.690000
O4001	O400	0.634500	0.390200	0.634500
Cu51	Cu5	0.176200	0.376840	0.176200
O4011	O401	0.206500	0.398600	0.206500
O4021	O402	0.151000	0.412800	0.151000
O4031	O403	0.190000	0.416500	0.190000
O4041	O404	0.134500	0.390200	0.134500
Cu61	Cu6	0.676200	0.123160	0.823800
O4051	O405	0.706500	0.101400	0.793500
O4061	O406	0.651000	0.087200	0.849000
O4071	O407	0.690000	0.083500	0.810000
O4081	O408	0.634500	0.109800	0.865500
Cu71	Cu7	0.676200	0.623160	0.323800
O4091	O409	0.706500	0.601400	0.293500
O4101	O410	0.651000	0.587200	0.349000
O4111	O411	0.690000	0.583500	0.310000
O4121	O412	0.634500	0.609800	0.365500
Cu81	Cu8	0.176200	0.123160	0.323800
O4131	O413	0.206500	0.101400	0.293500
O4141	O414	0.151000	0.087200	0.349000
O4151	O415	0.190000	0.083500	0.310000
O4161	O416	0.134500	0.109800	0.365500
Cu91	Cu9	0.323800	0.876840	0.823800
O4171	O417	0.293500	0.898600	0.793500
O4181	O418	0.349000	0.912800	0.849000
O4191	O419	0.310000	0.916500	0.810000
O4201	O420	0.365500	0.890200	0.865500
Cu101	Cu10	0.323800	0.376840	0.323800
O4211	O421	0.293500	0.398600	0.293500
O4221	O422	0.349000	0.412800	0.349000
O4231	O423	0.310000	0.416500	0.310000
O4241	O424	0.365500	0.390200	0.365500
Cu111	Cu11	0.176200	0.323800	0.123160
O4251	O425	0.206500	0.293500	0.101400
O4261	O426	0.151000	0.349000	0.087200
O4271	O427	0.190000	0.310000	0.083500
O4281	O428	0.134500	0.365500	0.109800
Cu121	Cu12	0.176200	0.823800	0.623160
O4291	O429	0.206500	0.793500	0.601400
O4301	O430	0.151000	0.849000	0.587200
O4311	O431	0.190000	0.810000	0.583500
O4321	O432	0.134500	0.865500	0.609800
Cu131	Cu13	0.176200	0.676200	0.876840
O4331	O433	0.206500	0.706500	0.898600
O4341	O434	0.151000	0.651000	0.912800
O4351	O435	0.190000	0.690000	0.916500
O4361	O436	0.134500	0.634500	0.890200
Cu141	Cu14	0.176200	0.176200	0.376840
O4371	O437	0.206500	0.206500	0.398600
O4381	O438	0.151000	0.151000	0.412800
O4391	O439	0.190000	0.190000	0.416500
O4401	O440	0.134500	0.134500	0.390200
Cu151	Cu15	0.823800	0.676200	0.123160
O4411	O441	0.793500	0.706500	0.101400
O4421	O442	0.849000	0.651000	0.087200
O4431	O443	0.810000	0.690000	0.083500
O4441	O444	0.865500	0.634500	0.109800
Cu161	Cu16	0.823800	0.176200	0.623160
O4451	O445	0.793500	0.206500	0.601400
O4461	O446	0.849000	0.151000	0.587200
O4471	O447	0.810000	0.190000	0.583500
O4481	O448	0.865500	0.134500	0.609800
Cu171	Cu17	0.323800	0.176200	0.123160
O4491	O449	0.293500	0.206500	0.101400
O4501	O450	0.349000	0.151000	0.087200
O4511	O451	0.310000	0.190000	0.083500
O4521	O452	0.365500	0.134500	0.109800
Cu181	Cu18	0.823800	0.323800	0.876840
O4531	O453	0.793500	0.293500	0.898600
O4541	O454	0.849000	0.349000	0.912800
O4551	O455	0.810000	0.310000	0.916500
O4561	O456	0.865500	0.365500	0.890200
Cu191	Cu19	0.823800	0.823800	0.376840
O4571	O457	0.793500	0.793500	0.398600
O4581	O458	0.849000	0.849000	0.412800
O4591	O459	0.810000	0.810000	0.416500
O4601	O460	0.865500	0.865500	0.390200
Cu201	Cu20	0.323800	0.323800	0.376840
O4611	O461	0.293500	0.293500	0.398600
O4621	O462	0.349000	0.349000	0.412800
O4631	O463	0.310000	0.310000	0.416500
O4641	O464	0.365500	0.365500	0.390200
Cu211	Cu21	0.123160	0.176200	0.323800
O4651	O465	0.101400	0.206500	0.293500
O4661	O466	0.087200	0.151000	0.349000
O4671	O467	0.083500	0.190000	0.310000
O4681	O468	0.109800	0.134500	0.365500
Cu221	Cu22	0.623160	0.176200	0.823800
O4691	O469	0.601400	0.206500	0.793500
O4701	O470	0.587200	0.151000	0.849000
O4711	O471	0.583500	0.190000	0.810000
O4721	O472	0.609800	0.134500	0.865500
Cu231	Cu23	0.876840	0.176200	0.676200
O4731	O473	0.898600	0.206500	0.706500
O4741	O474	0.912800	0.151000	0.651000
O4751	O475	0.916500	0.190000	0.690000
O4761	O476	0.890200	0.134500	0.634500
Cu241	Cu24	0.376840	0.176200	0.176200
O4771	O477	0.398600	0.206500	0.206500
O4781	O478	0.412800	0.151000	0.151000
O4791	O479	0.416500	0.190000	0.190000
O4801	O480	0.390200	0.134500	0.134500
Cu251	Cu25	0.123160	0.823800	0.676200
O4811	O481	0.101400	0.793500	0.706500
O4821	O482	0.087200	0.849000	0.651000
O4831	O483	0.083500	0.810000	0.690000
O4841	O484	0.109800	0.865500	0.634500
Cu261	Cu26	0.123160	0.323800	0.176200
O4851	O485	0.101400	0.293500	0.206500
O4861	O486	0.087200	0.349000	0.151000
O4871	O487	0.083500	0.310000	0.190000
O4881	O488	0.109800	0.365500	0.134500
Cu271	Cu27	0.623160	0.823800	0.176200
O4891	O489	0.601400	0.793500	0.206500
O4901	O490	0.587200	0.849000	0.151000
O4911	O491	0.583500	0.810000	0.190000
O4921	O492	0.609800	0.865500	0.134500
Cu281	Cu28	0.876840	0.823800	0.323800
O4931	O493	0.898600	0.793500	0.293500
O4941	O494	0.912800	0.849000	0.349000
O4951	O495	0.916500	0.810000	0.310000
O4961	O496	0.890200	0.865500	0.365500
Cu291	Cu29	0.376840	0.823800	0.823800
O4971	O497	0.398600	0.793500	0.793500
O4981	O498	0.412800	0.849000	0.849000
O4991	O499	0.416500	0.810000	0.810000
O5001	O500	0.390200	0.865500	0.865500
Cu301	Cu30	0.376840	0.323800	0.323800
O5011	O501	0.398600	0.293500	0.293500
O5021	O502	0.412800	0.349000	0.349000
O5031	O503	0.416500	0.310000	0.310000
O5041	O504	0.390200	0.365500	0.365500
Cu311	Cu31	0.123160	0.323800	0.823800
O5051	O505	0.101400	0.293500	0.793500
O5061	O506	0.087200	0.349000	0.849000
O5071	O507	0.083500	0.310000	0.810000
O5081	O508	0.109800	0.365500	0.865500
Cu321	Cu32	0.623160	0.323800	0.323800
O5091	O509	0.601400	0.293500	0.293500
O5101	O510	0.587200	0.349000	0.349000
O5111	O511	0.583500	0.310000	0.310000
O5121	O512	0.609800	0.365500	0.365500
Cu331	Cu33	0.876840	0.676200	0.823800
O5131	O513	0.898600	0.706500	0.793500
O5141	O514	0.912800	0.651000	0.849000
O5151	O515	0.916500	0.690000	0.810000
O5161	O516	0.890200	0.634500	0.865500
Cu341	Cu34	0.876840	0.176200	0.323800
O5171	O517	0.898600	0.206500	0.293500
O5181	O518	0.912800	0.151000	0.349000
O5191	O519	0.916500	0.190000	0.310000
O5201	O520	0.890200	0.134500	0.365500
Cu351	Cu35	0.376840	0.676200	0.323800
O5211	O521	0.398600	0.706500	0.293500
O5221	O522	0.412800	0.651000	0.349000
O5231	O523	0.416500	0.690000	0.310000
O5241	O524	0.390200	0.634500	0.365500
Cu361	Cu36	0.123160	0.676200	0.176200
O5251	O525	0.101400	0.706500	0.206500
O5261	O526	0.087200	0.651000	0.151000
O5271	O527	0.083500	0.690000	0.190000
O5281	O528	0.109800	0.634500	0.134500
Cu371	Cu37	0.623160	0.676200	0.676200
O5291	O529	0.601400	0.706500	0.706500
O5301	O530	0.587200	0.651000	0.651000
O5311	O531	0.583500	0.690000	0.690000
O5321	O532	0.609800	0.634500	0.634500
Cu381	Cu38	0.623160	0.176200	0.176200
O5331	O533	0.601400	0.206500	0.206500
O5341	O534	0.587200	0.151000	0.151000
O5351	O535	0.583500	0.190000	0.190000
O5361	O536	0.609800	0.134500	0.134500
Cu391	Cu39	0.876840	0.323800	0.176200
O5371	O537	0.898600	0.293500	0.206500
O5381	O538	0.912800	0.349000	0.151000
O5391	O539	0.916500	0.310000	0.190000
O5401	O540	0.890200	0.365500	0.134500
Cu401	Cu40	0.376840	0.323800	0.676200
O5411	O541	0.398600	0.293500	0.706500
O5421	O542	0.412800	0.349000	0.651000
O5431	O543	0.416500	0.310000	0.690000
O5441	O544	0.390200	0.365500	0.634500
Cu411	Cu41	0.323800	0.176200	0.876840
O5451	O545	0.293500	0.206500	0.898600
O5461	O546	0.349000	0.151000	0.912800
O5471	O547	0.310000	0.190000	0.916500
O5481	O548	0.365500	0.134500	0.890200
Cu421	Cu42	0.323800	0.676200	0.376840
O5491	O549	0.293500	0.706500	0.398600
O5501	O550	0.349000	0.651000	0.412800
O5511	O551	0.310000	0.690000	0.416500
O5521	O552	0.365500	0.634500	0.390200
Cu431	Cu43	0.676200	0.176200	0.123160
O5531	O553	0.706500	0.206500	0.101400
O5541	O554	0.651000	0.151000	0.087200
O5551	O555	0.690000	0.190000	0.083500
O5561	O556	0.634500	0.134500	0.109800
Cu441	Cu44	0.676200	0.676200	0.623160
O5571	O557	0.706500	0.706500	0.601400
O5581	O558	0.651000	0.651000	0.587200
O5591	O559	0.690000	0.690000	0.583500
O5601	O560	0.634500	0.634500	0.609800
Cu451	Cu45	0.176200	0.176200	0.623160
O5611	O561	0.206500	0.206500	0.601400
O5621	O562	0.151000	0.151000	0.587200
O5631	O563	0.190000	0.190000	0.583500
O5641	O564	0.134500	0.134500	0.609800
Cu461	Cu46	0.676200	0.823800	0.876840
O5651	O565	0.706500	0.793500	0.898600
O5661	O566	0.651000	0.849000	0.912800
O5671	O567	0.690000	0.810000	0.916500
O5681	O568	0.634500	0.865500	0.890200
Cu471	Cu47	0.676200	0.323800	0.376840
O5691	O569	0.706500	0.293500	0.398600
O5701	O570	0.651000	0.349000	0.412800
O5711	O571	0.690000	0.310000	0.416500
O5721	O572	0.634500	0.365500	0.390200
Cu481	Cu48	0.176200	0.323800	0.876840
O5731	O573	0.206500	0.293500	0.898600
O5741	O574	0.151000	0.349000	0.912800
O5751	O575	0.190000	0.310000	0.916500
O5761	O576	0.134500	0.365500	0.890200
Cu491	Cu49	0.323800	0.823800	0.123160
O5771	O577	0.293500	0.793500	0.101400
O5781	O578	0.349000	0.849000	0.087200
O5791	O579	0.310000	0.810000	0.083500
O5801	O580	0.365500	0.865500	0.109800
Cu501	Cu50	0.323800	0.323800	0.623160
O5811	O581	0.293500	0.293500	0.601400
O5821	O582	0.349000	0.349000	0.587200
O5831	O583	0.310000	0.310000	0.583500
O5841	O584	0.365500	0.365500	0.609800
Cu511	Cu51	0.176200	0.123160	0.676200
O5851	O585	0.206500	0.101400	0.706500
O5861	O586	0.151000	0.087200	0.651000
O5871	O587	0.190000	0.083500	0.690000
O5881	O588	0.134500	0.109800	0.634500
Cu521	Cu52	0.176200	0.623160	0.176200
O5891	O589	0.206500	0.601400	0.206500
O5901	O590	0.151000	0.587200	0.151000
O5911	O591	0.190000	0.583500	0.190000
O5921	O592	0.134500	0.609800	0.134500
Cu531	Cu53	0.176200	0.876840	0.323800
O5931	O593	0.206500	0.898600	0.293500
O5941	O594	0.151000	0.912800	0.349000
O5951	O595	0.190000	0.916500	0.310000
O5961	O596	0.134500	0.890200	0.365500
Cu541	Cu54	0.176200	0.376840	0.823800
O5971	O597	0.206500	0.398600	0.793500
O5981	O598	0.151000	0.412800	0.849000
O5991	O599	0.190000	0.416500	0.810000
O6001	O600	0.134500	0.390200	0.865500
Cu551	Cu55	0.823800	0.123160	0.323800
O6011	O601	0.793500	0.101400	0.293500
O6021	O602	0.849000	0.087200	0.349000
O6031	O603	0.810000	0.083500	0.310000
O6041	O604	0.865500	0.109800	0.365500
Cu561	Cu56	0.823800	0.623160	0.823800
O6051	O605	0.793500	0.601400	0.793500
O6061	O606	0.849000	0.587200	0.849000
O6071	O607	0.810000	0.583500	0.810000
O6081	O608	0.865500	0.609800	0.865500
Cu571	Cu57	0.323800	0.623160	0.323800
O6091	O609	0.293500	0.601400	0.293500
O6101	O610	0.349000	0.587200	0.349000
O6111	O611	0.310000	0.583500	0.310000
O6121	O612	0.365500	0.609800	0.365500
Cu581	Cu58	0.823800	0.876840	0.676200
O6131	O613	0.793500	0.898600	0.706500
O6141	O614	0.849000	0.912800	0.651000
O6151	O615	0.810000	0.916500	0.690000
O6161	O616	0.865500	0.890200	0.634500
Cu591	Cu59	0.823800	0.376840	0.176200
O6171	O617	0.793500	0.398600	0.206500
O6181	O618	0.849000	0.412800	0.151000
O6191	O619	0.810000	0.416500	0.190000
O6201	O620	0.865500	0.390200	0.134500
Cu601	Cu60	0.323800	0.876840	0.176200
O6211	O621	0.293500	0.898600	0.206500
O6221	O622	0.349000	0.912800	0.151000
O6231	O623	0.310000	0.916500	0.190000
O6241	O624	0.365500	0.890200	0.134500
Cu611	Cu61	0.676200	0.876840	0.823800
O6251	O625	0.706500	0.898600	0.793500
O6261	O626	0.651000	0.912800	0.849000
O6271	O627	0.690000	0.916500	0.810000
O6281	O628	0.634500	0.890200	0.865500
Cu621	Cu62	0.676200	0.376840	0.323800
O6291	O629	0.706500	0.398600	0.293500
O6301	O630	0.651000	0.412800	0.349000
O6311	O631	0.690000	0.416500	0.310000
O6321	O632	0.634500	0.390200	0.365500
Cu631	Cu63	0.323800	0.123160	0.823800
O6331	O633	0.293500	0.101400	0.793500
O6341	O634	0.349000	0.087200	0.849000
O6351	O635	0.310000	0.083500	0.810000
O6361	O636	0.365500	0.109800	0.865500
Cu641	Cu64	0.323800	0.376840	0.676200
O6371	O637	0.293500	0.398600	0.706500
O6381	O638	0.349000	0.412800	0.651000
O6391	O639	0.310000	0.416500	0.690000
O6401	O640	0.365500	0.390200	0.634500
Cu651	Cu65	0.676200	0.123160	0.176200
O6411	O641	0.706500	0.101400	0.206500
O6421	O642	0.651000	0.087200	0.151000
O6431	O643	0.690000	0.083500	0.190000
O6441	O644	0.634500	0.109800	0.134500
Cu661	Cu66	0.676200	0.623160	0.676200
O6451	O645	0.706500	0.601400	0.706500
O6461	O646	0.651000	0.587200	0.651000
O6471	O647	0.690000	0.583500	0.690000
O6481	O648	0.634500	0.609800	0.634500
Cu671	Cu67	0.823800	0.676200	0.876840
O6491	O649	0.793500	0.706500	0.898600
O6501	O650	0.849000	0.651000	0.912800
O6511	O651	0.810000	0.690000	0.916500
O6521	O652	0.865500	0.634500	0.890200
Cu681	Cu68	0.823800	0.176200	0.376840
O6531	O653	0.793500	0.206500	0.398600
O6541	O654	0.849000	0.151000	0.412800
O6551	O655	0.810000	0.190000	0.416500
O6561	O656	0.865500	0.134500	0.390200
Cu691	Cu69	0.823800	0.323800	0.123160
O6571	O657	0.793500	0.293500	0.101400
O6581	O658	0.849000	0.349000	0.087200
O6591	O659	0.810000	0.310000	0.083500
O6601	O660	0.865500	0.365500	0.109800
Cu701	Cu70	0.823800	0.823800	0.623160
O6611	O661	0.793500	0.793500	0.601400
O6621	O662	0.849000	0.849000	0.587200
O6631	O663	0.810000	0.810000	0.583500
O6641	O664	0.865500	0.865500	0.609800
Cu711	Cu71	0.176200	0.823800	0.376840
O6651	O665	0.206500	0.793500	0.398600
O6661	O666	0.151000	0.849000	0.412800
O6671	O667	0.190000	0.810000	0.416500
O6681	O668	0.134500	0.865500	0.390200
Cu721	Cu72	0.176200	0.676200	0.123160
O6691	O669	0.206500	0.706500	0.101400
O6701	O670	0.151000	0.651000	0.087200
O6711	O671	0.190000	0.690000	0.083500
O6721	O672	0.134500	0.634500	0.109800
Cu731	Cu73	0.876840	0.823800	0.676200
O6731	O673	0.898600	0.793500	0.706500
O6741	O674	0.912800	0.849000	0.651000
O6751	O675	0.916500	0.810000	0.690000
O6761	O676	0.890200	0.865500	0.634500
Cu741	Cu74	0.376840	0.823800	0.176200
O6771	O677	0.398600	0.793500	0.206500
O6781	O678	0.412800	0.849000	0.151000
O6791	O679	0.416500	0.810000	0.190000
O6801	O680	0.390200	0.865500	0.134500
Cu751	Cu75	0.123160	0.823800	0.323800
O6811	O681	0.101400	0.793500	0.293500
O6821	O682	0.087200	0.849000	0.349000
O6831	O683	0.083500	0.810000	0.310000
O6841	O684	0.109800	0.865500	0.365500
Cu761	Cu76	0.623160	0.823800	0.823800
O6851	O685	0.601400	0.793500	0.793500
O6861	O686	0.587200	0.849000	0.849000
O6871	O687	0.583500	0.810000	0.810000
O6881	O688	0.609800	0.865500	0.865500
Cu771	Cu77	0.376840	0.176200	0.823800
O6891	O689	0.398600	0.206500	0.793500
O6901	O690	0.412800	0.151000	0.849000
O6911	O691	0.416500	0.190000	0.810000
O6921	O692	0.390200	0.134500	0.865500
Cu781	Cu78	0.123160	0.176200	0.676200
O6931	O693	0.101400	0.206500	0.706500
O6941	O694	0.087200	0.151000	0.651000
O6951	O695	0.083500	0.190000	0.690000
O6961	O696	0.109800	0.134500	0.634500
Cu791	Cu79	0.876840	0.676200	0.176200
O6971	O697	0.898600	0.706500	0.206500
O6981	O698	0.912800	0.651000	0.151000
O6991	O699	0.916500	0.690000	0.190000
O7001	O700	0.890200	0.634500	0.134500
Cu801	Cu80	0.376840	0.676200	0.676200
O7011	O701	0.398600	0.706500	0.706500
O7021	O702	0.412800	0.651000	0.651000
O7031	O703	0.416500	0.690000	0.690000
O7041	O704	0.390200	0.634500	0.634500
Cu811	Cu81	0.623160	0.323800	0.676200
O7051	O705	0.601400	0.293500	0.706500
O7061	O706	0.587200	0.349000	0.651000
O7071	O707	0.583500	0.310000	0.690000
O7081	O708	0.609800	0.365500	0.634500
Cu821	Cu82	0.876840	0.323800	0.823800
O7091	O709	0.898600	0.293500	0.793500
O7101	O710	0.912800	0.349000	0.849000
O7111	O711	0.916500	0.310000	0.810000
O7121	O712	0.890200	0.365500	0.865500
Cu831	Cu83	0.123160	0.676200	0.823800
O7131	O713	0.101400	0.706500	0.793500
O7141	O714	0.087200	0.651000	0.849000
O7151	O715	0.083500	0.690000	0.810000
O7161	O716	0.109800	0.634500	0.865500
Cu841	Cu84	0.623160	0.676200	0.323800
O7171	O717	0.601400	0.706500	0.293500
O7181	O718	0.587200	0.651000	0.349000
O7191	O719	0.583500	0.690000	0.310000
O7201	O720	0.609800	0.634500	0.365500
Cu851	Cu85	0.676200	0.823800	0.123160
O7211	O721	0.706500	0.793500	0.101400
O7221	O722	0.651000	0.849000	0.087200
O7231	O723	0.690000	0.810000	0.083500
O7241	O724	0.634500	0.865500	0.109800
Cu861	Cu86	0.676200	0.323800	0.623160
O7251	O725	0.706500	0.293500	0.601400
O7261	O726	0.651000	0.349000	0.587200
O7271	O727	0.690000	0.310000	0.583500
O7281	O728	0.634500	0.365500	0.609800
Cu871	Cu87	0.323800	0.823800	0.876840
O7291	O729	0.293500	0.793500	0.898600
O7301	O730	0.349000	0.849000	0.912800
O7311	O731	0.310000	0.810000	0.916500
O7321	O732	0.365500	0.865500	0.890200
Cu881	Cu88	0.323800	0.676200	0.623160
O7331	O733	0.293500	0.706500	0.601400
O7341	O734	0.349000	0.651000	0.587200
O7351	O735	0.310000	0.690000	0.583500
O7361	O736	0.365500	0.634500	0.609800
Cu891	Cu89	0.676200	0.176200	0.876840
O7371	O737	0.706500	0.206500	0.898600
O7381	O738	0.651000	0.151000	0.912800
O7391	O739	0.690000	0.190000	0.916500
O7401	O740	0.634500	0.134500	0.890200
Cu901	Cu90	0.676200	0.676200	0.376840
O7411	O741	0.706500	0.706500	0.398600
O7421	O742	0.651000	0.651000	0.412800
O7431	O743	0.690000	0.690000	0.416500
O7441	O744	0.634500	0.634500	0.390200
Cu911	Cu91	0.823800	0.876840	0.323800
O7451	O745	0.793500	0.898600	0.293500
O7461	O746	0.849000	0.912800	0.349000
O7471	O747	0.810000	0.916500	0.310000
O7481	O748	0.865500	0.890200	0.365500
Cu921	Cu92	0.823800	0.376840	0.823800
O7491	O749	0.793500	0.398600	0.793500
O7501	O750	0.849000	0.412800	0.849000
O7511	O751	0.810000	0.416500	0.810000
O7521	O752	0.865500	0.390200	0.865500
Cu931	Cu93	0.823800	0.123160	0.676200
O7531	O753	0.793500	0.101400	0.706500
O7541	O754	0.849000	0.087200	0.651000
O7551	O755	0.810000	0.083500	0.690000
O7561	O756	0.865500	0.109800	0.634500
Cu941	Cu94	0.823800	0.623160	0.176200
O7571	O757	0.793500	0.601400	0.206500
O7581	O758	0.849000	0.587200	0.151000
O7591	O759	0.810000	0.583500	0.190000
O7601	O760	0.865500	0.609800	0.134500
Cu951	Cu95	0.176200	0.876840	0.676200
O7611	O761	0.206500	0.898600	0.706500
O7621	O762	0.151000	0.912800	0.651000
O7631	O763	0.190000	0.916500	0.690000
O7641	O764	0.134500	0.890200	0.634500
Cu961	Cu96	0.176200	0.623160	0.823800
O7651	O765	0.206500	0.601400	0.793500
O7661	O766	0.151000	0.587200	0.849000
O7671	O767	0.190000	0.583500	0.810000
O7681	O768	0.134500	0.609800	0.865500
O7691	O769	0.334800	0.165200	0.165200
O7701	O770	0.334800	0.665200	0.665200
O7711	O771	0.665200	0.834800	0.165200
O7721	O772	0.665200	0.334800	0.665200
O7731	O773	0.165200	0.334800	0.165200
O7741	O774	0.665200	0.165200	0.834800
O7751	O775	0.665200	0.665200	0.334800
O7761	O776	0.165200	0.165200	0.334800
O7771	O777	0.334800	0.834800	0.834800
O7781	O778	0.334800	0.334800	0.334800
O7791	O779	0.165200	0.665200	0.834800
O7801	O780	0.834800	0.665200	0.165200
O7811	O781	0.834800	0.334800	0.834800
O7821	O782	0.834800	0.165200	0.665200
O7831	O783	0.165200	0.834800	0.665200
O7841	O784	0.834800	0.834800	0.334800
O7851	O785	0.165200	0.334800	0.834800
O7861	O786	0.834800	0.665200	0.834800
O7871	O787	0.834800	0.165200	0.334800
O7881	O788	0.334800	0.165200	0.834800
O7891	O789	0.165200	0.665200	0.165200
O7901	O790	0.834800	0.334800	0.165200
O7911	O791	0.334800	0.334800	0.665200
O7921	O792	0.334800	0.665200	0.334800
O7931	O793	0.665200	0.165200	0.165200
O7941	O794	0.665200	0.665200	0.665200
O7951	O795	0.665200	0.834800	0.834800
O7961	O796	0.665200	0.334800	0.334800
O7971	O797	0.165200	0.834800	0.334800
O7981	O798	0.334800	0.834800	0.165200
O7991	O799	0.165200	0.165200	0.665200
O8001	O800	0.834800	0.834800	0.665200
Cu971	Cu97	0.168540	0.168540	0.000000
Cu981	Cu98	0.126520	0.126520	0.000000
O8011	O801	0.202680	0.202680	0.000000
O8021	O802	0.092170	0.092170	0.000000
Cu991	Cu99	0.168540	0.668540	0.500000
Cu1001	Cu100	0.126520	0.626520	0.500000
O8031	O803	0.202680	0.702680	0.500000
O8041	O804	0.092170	0.592170	0.500000
Cu1011	Cu101	0.668540	0.168540	0.500000
Cu1021	Cu102	0.626520	0.126520	0.500000
O8051	O805	0.702680	0.202680	0.500000
O8061	O806	0.592170	0.092170	0.500000
Cu1031	Cu103	0.668540	0.668540	0.000000
Cu1041	Cu104	0.626520	0.626520	0.000000
O8071	O807	0.702680	0.702680	0.000000
O8081	O808	0.592170	0.592170	0.000000
Cu1051	Cu105	0.831460	0.831460	0.000000
Cu1061	Cu106	0.873480	0.873480	0.000000
O8091	O809	0.797320	0.797320	0.000000
O8101	O810	0.907830	0.907830	0.000000
Cu1071	Cu107	0.831460	0.331460	0.500000
Cu1081	Cu108	0.873480	0.373480	0.500000
O8111	O811	0.797320	0.297320	0.500000
O8121	O812	0.907830	0.407830	0.500000
Cu1091	Cu109	0.331460	0.831460	0.500000
Cu1101	Cu110	0.373480	0.873480	0.500000
O8131	O813	0.297320	0.797320	0.500000
O8141	O814	0.407830	0.907830	0.500000
Cu1111	Cu111	0.331460	0.331460	0.000000
Cu1121	Cu112	0.373480	0.373480	0.000000
O8151	O815	0.297320	0.297320	0.000000
O8161	O816	0.407830	0.407830	0.000000
Cu1131	Cu113	0.831460	0.168540	0.000000
Cu1141	Cu114	0.873480	0.126520	0.000000
O8171	O817	0.797320	0.202680	0.000000
O8181	O818	0.907830	0.092170	0.000000
Cu1151	Cu115	0.831460	0.668540	0.500000
Cu1161	Cu116	0.873480	0.626520	0.500000
O8191	O819	0.797320	0.702680	0.500000
O8201	O820	0.907830	0.592170	0.500000
Cu1171	Cu117	0.331460	0.168540	0.500000
Cu1181	Cu118	0.373480	0.126520	0.500000
O8211	O821	0.297320	0.202680	0.500000
O8221	O822	0.407830	0.092170	0.500000
Cu1191	Cu119	0.331460	0.668540	0.000000
Cu1201	Cu120	0.373480	0.626520	0.000000
O8231	O823	0.297320	0.702680	0.000000
O8241	O824	0.407830	0.592170	0.000000
Cu1211	Cu121	0.168540	0.831460	0.000000
Cu1221	Cu122	0.126520	0.873480	0.000000
O8251	O825	0.202680	0.797320	0.000000
O8261	O826	0.092170	0.907830	0.000000
Cu1231	Cu123	0.168540	0.331460	0.500000
Cu1241	Cu124	0.126520	0.373480	0.500000
O8271	O827	0.202680	0.297320	0.500000
O8281	O828	0.092170	0.407830	0.500000
Cu1251	Cu125	0.668540	0.831460	0.500000
Cu1261	Cu126	0.626520	0.873480	0.500000
O8291	O829	0.702680	0.797320	0.500000
O8301	O830	0.592170	0.907830	0.500000
Cu1271	Cu127	0.668540	0.331460	0.000000
Cu1281	Cu128	0.626520	0.373480	0.000000
O8311	O831	0.702680	0.297320	0.000000
O8321	O832	0.592170	0.407830	0.000000
Cu1291	Cu129	0.000000	0.168540	0.168540
Cu1301	Cu130	0.000000	0.126520	0.126520
O8331	O833	0.000000	0.202680	0.202680
O8341	O834	0.000000	0.092170	0.092170
Cu1311	Cu131	0.000000	0.668540	0.668540
Cu1321	Cu132	0.000000	0.626520	0.626520
O8351	O835	0.000000	0.702680	0.702680
O8361	O836	0.000000	0.592170	0.592170
Cu1331	Cu133	0.500000	0.168540	0.668540
Cu1341	Cu134	0.500000	0.126520	0.626520
O8371	O837	0.500000	0.202680	0.702680
O8381	O838	0.500000	0.092170	0.592170
Cu1351	Cu135	0.500000	0.668540	0.168540
Cu1361	Cu136	0.500000	0.626520	0.126520
O8391	O839	0.500000	0.702680	0.202680
O8401	O840	0.500000	0.592170	0.092170
Cu1371	Cu137	0.000000	0.831460	0.831460
Cu1381	Cu138	0.000000	0.873480	0.873480
O8411	O841	0.000000	0.797320	0.797320
O8421	O842	0.000000	0.907830	0.907830
Cu1391	Cu139	0.000000	0.331460	0.331460
Cu1401	Cu140	0.000000	0.373480	0.373480
O8431	O843	0.000000	0.297320	0.297320
O8441	O844	0.000000	0.407830	0.407830
Cu1411	Cu141	0.500000	0.831460	0.331460
Cu1421	Cu142	0.500000	0.873480	0.373480
O8451	O845	0.500000	0.797320	0.297320
O8461	O846	0.500000	0.907830	0.407830
Cu1431	Cu143	0.500000	0.331460	0.831460
Cu1441	Cu144	0.500000	0.373480	0.873480
O8471	O847	0.500000	0.297320	0.797320
O8481	O848	0.500000	0.407830	0.907830
Cu1451	Cu145	0.000000	0.831460	0.168540
Cu1461	Cu146	0.000000	0.873480	0.126520
O8491	O849	0.000000	0.797320	0.202680
O8501	O850	0.000000	0.907830	0.092170
Cu1471	Cu147	0.000000	0.331460	0.668540
Cu1481	Cu148	0.000000	0.373480	0.626520
O8511	O851	0.000000	0.297320	0.702680
O8521	O852	0.000000	0.407830	0.592170
Cu1491	Cu149	0.500000	0.831460	0.668540
Cu1501	Cu150	0.500000	0.873480	0.626520
O8531	O853	0.500000	0.797320	0.702680
O8541	O854	0.500000	0.907830	0.592170
Cu1511	Cu151	0.500000	0.331460	0.168540
Cu1521	Cu152	0.500000	0.373480	0.126520
O8551	O855	0.500000	0.297320	0.202680
O8561	O856	0.500000	0.407830	0.092170
Cu1531	Cu153	0.000000	0.168540	0.831460
Cu1541	Cu154	0.000000	0.126520	0.873480
O8571	O857	0.000000	0.202680	0.797320
O8581	O858	0.000000	0.092170	0.907830
Cu1551	Cu155	0.000000	0.668540	0.331460
Cu1561	Cu156	0.000000	0.626520	0.373480
O8591	O859	0.000000	0.702680	0.297320
O8601	O860	0.000000	0.592170	0.407830
Cu1571	Cu157	0.500000	0.168540	0.331460
Cu1581	Cu158	0.500000	0.126520	0.373480
O8611	O861	0.500000	0.202680	0.297320
O8621	O862	0.500000	0.092170	0.407830
Cu1591	Cu159	0.500000	0.668540	0.831460
Cu1601	Cu160	0.500000	0.626520	0.873480
O8631	O863	0.500000	0.702680	0.797320
O8641	O864	0.500000	0.592170	0.907830
Cu1611	Cu161	0.168540	0.000000	0.168540
Cu1621	Cu162	0.126520	0.000000	0.126520
O8651	O865	0.202680	0.000000	0.202680
O8661	O866	0.092170	0.000000	0.092170
Cu1631	Cu163	0.168540	0.500000	0.668540
Cu1641	Cu164	0.126520	0.500000	0.626520
O8671	O867	0.202680	0.500000	0.702680
O8681	O868	0.092170	0.500000	0.592170
Cu1651	Cu165	0.668540	0.000000	0.668540
Cu1661	Cu166	0.626520	0.000000	0.626520
O8691	O869	0.702680	0.000000	0.702680
O8701	O870	0.592170	0.000000	0.592170
Cu1671	Cu167	0.668540	0.500000	0.168540
Cu1681	Cu168	0.626520	0.500000	0.126520
O8711	O871	0.702680	0.500000	0.202680
O8721	O872	0.592170	0.500000	0.092170
Cu1691	Cu169	0.831460	0.000000	0.831460
Cu1701	Cu170	0.873480	0.000000	0.873480
O8731	O873	0.797320	0.000000	0.797320
O8741	O874	0.907830	0.000000	0.907830
Cu1711	Cu171	0.831460	0.500000	0.331460
Cu1721	Cu172	0.873480	0.500000	0.373480
O8751	O875	0.797320	0.500000	0.297320
O8761	O876	0.907830	0.500000	0.407830
Cu1731	Cu173	0.331460	0.000000	0.331460
Cu1741	Cu174	0.373480	0.000000	0.373480
O8771	O877	0.297320	0.000000	0.297320
O8781	O878	0.407830	0.000000	0.407830
Cu1751	Cu175	0.331460	0.500000	0.831460
Cu1761	Cu176	0.373480	0.500000	0.873480
O8791	O879	0.297320	0.500000	0.797320
O8801	O880	0.407830	0.500000	0.907830
Cu1771	Cu177	0.168540	0.000000	0.831460
Cu1781	Cu178	0.126520	0.000000	0.873480
O8811	O881	0.202680	0.000000	0.797320
O8821	O882	0.092170	0.000000	0.907830
Cu1791	Cu179	0.168540	0.500000	0.331460
Cu1801	Cu180	0.126520	0.500000	0.373480
O8831	O883	0.202680	0.500000	0.297320
O8841	O884	0.092170	0.500000	0.407830
Cu1811	Cu181	0.668540	0.000000	0.331460
Cu1821	Cu182	0.626520	0.000000	0.373480
O8851	O885	0.702680	0.000000	0.297320
O8861	O886	0.592170	0.000000	0.407830
Cu1831	Cu183	0.668540	0.500000	0.831460
Cu1841	Cu184	0.626520	0.500000	0.873480
O8871	O887	0.702680	0.500000	0.797320
O8881	O888	0.592170	0.500000	0.907830
Cu1851	Cu185	0.831460	0.000000	0.168540
Cu1861	Cu186	0.873480	0.000000	0.126520
O8891	O889	0.797320	0.000000	0.202680
O8901	O890	0.907830	0.000000	0.092170
Cu1871	Cu187	0.831460	0.500000	0.668540
Cu1881	Cu188	0.873480	0.500000	0.626520
O8911	O891	0.797320	0.500000	0.702680
O8921	O892	0.907830	0.500000	0.592170
Cu1891	Cu189	0.331460	0.000000	0.668540
Cu1901	Cu190	0.373480	0.000000	0.626520
O8931	O893	0.297320	0.000000	0.702680
O8941	O894	0.407830	0.000000	0.592170
Cu1911	Cu191	0.331460	0.500000	0.168540
Cu1921	Cu192	0.373480	0.500000	0.126520
O8951	O895	0.297320	0.500000	0.202680
O8961	O896	0.407830	0.500000	0.092170
C5771	C577	0.257100	0.116800	0.116800
C5781	C578	0.229130	0.103680	0.103680
C5791	C579	0.177260	0.079990	0.079990
H1931	H193	0.159700	0.072100	0.072100
C5801	C580	0.257100	0.616800	0.616800
C5811	C581	0.229130	0.603680	0.603680
C5821	C582	0.177260	0.579990	0.579990
H1941	H194	0.159700	0.572100	0.572100
C5831	C583	0.757100	0.116800	0.616800
C5841	C584	0.729130	0.103680	0.603680
C5851	C585	0.677260	0.079990	0.579990
H1951	H195	0.659700	0.072100	0.572100
C5861	C586	0.757100	0.616800	0.116800
C5871	C587	0.729130	0.603680	0.103680
C5881	C588	0.677260	0.579990	0.079990
H1961	H196	0.659700	0.572100	0.072100
C5891	C589	0.742900	0.883200	0.116800
C5901	C590	0.770870	0.896320	0.103680
C5911	C591	0.822740	0.920010	0.079990
H1971	H197	0.840300	0.927900	0.072100
C5921	C592	0.742900	0.383200	0.616800
C5931	C593	0.770870	0.396320	0.603680
C5941	C594	0.822740	0.420010	0.579990
H1981	H198	0.840300	0.427900	0.572100
C5951	C595	0.242900	0.883200	0.616800
C5961	C596	0.270870	0.896320	0.603680
C5971	C597	0.322740	0.920010	0.579990
H1991	H199	0.340300	0.927900	0.572100
C5981	C598	0.242900	0.383200	0.116800
C5991	C599	0.270870	0.396320	0.103680
C6001	C600	0.322740	0.420010	0.079990
H2001	H200	0.340300	0.427900	0.072100
C6011	C601	0.742900	0.116800	0.883200
C6021	C602	0.770870	0.103680	0.896320
C6031	C603	0.822740	0.079990	0.920010
H2011	H201	0.840300	0.072100	0.927900
C6041	C604	0.742900	0.616800	0.383200
C6051	C605	0.770870	0.603680	0.396320
C6061	C606	0.822740	0.579990	0.420010
H2021	H202	0.840300	0.572100	0.427900
C6071	C607	0.242900	0.116800	0.383200
C6081	C608	0.270870	0.103680	0.396320
C6091	C609	0.322740	0.079990	0.420010
H2031	H203	0.340300	0.072100	0.427900
C6101	C610	0.242900	0.616800	0.883200
C6111	C611	0.270870	0.603680	0.896320
C6121	C612	0.322740	0.579990	0.920010
H2041	H204	0.340300	0.572100	0.927900
C6131	C613	0.257100	0.883200	0.883200
C6141	C614	0.229130	0.896320	0.896320
C6151	C615	0.177260	0.920010	0.920010
H2051	H205	0.159700	0.927900	0.927900
C6161	C616	0.257100	0.383200	0.383200
C6171	C617	0.229130	0.396320	0.396320
C6181	C618	0.177260	0.420010	0.420010
H2061	H206	0.159700	0.427900	0.427900
C6191	C619	0.757100	0.883200	0.383200
C6201	C620	0.729130	0.896320	0.396320
C6211	C621	0.677260	0.920010	0.420010
H2071	H207	0.659700	0.927900	0.427900
C6221	C622	0.757100	0.383200	0.883200
C6231	C623	0.729130	0.396320	0.896320
C6241	C624	0.677260	0.420010	0.920010
H2081	H208	0.659700	0.427900	0.927900
C6251	C625	0.116800	0.257100	0.116800
C6261	C626	0.103680	0.229130	0.103680
C6271	C627	0.079990	0.177260	0.079990
H2091	H209	0.072100	0.159700	0.072100
C6281	C628	0.116800	0.757100	0.616800
C6291	C629	0.103680	0.729130	0.603680
C6301	C630	0.079990	0.677260	0.579990
H2101	H210	0.072100	0.659700	0.572100
C6311	C631	0.616800	0.257100	0.616800
C6321	C632	0.603680	0.229130	0.603680
C6331	C633	0.579990	0.177260	0.579990
H2111	H211	0.572100	0.159700	0.572100
C6341	C634	0.616800	0.757100	0.116800
C6351	C635	0.603680	0.729130	0.103680
C6361	C636	0.579990	0.677260	0.079990
H2121	H212	0.572100	0.659700	0.072100
C6371	C637	0.116800	0.742900	0.883200
C6381	C638	0.103680	0.770870	0.896320
C6391	C639	0.079990	0.822740	0.920010
H2131	H213	0.072100	0.840300	0.927900
C6401	C640	0.116800	0.242900	0.383200
C6411	C641	0.103680	0.270870	0.396320
C6421	C642	0.079990	0.322740	0.420010
H2141	H214	0.072100	0.340300	0.427900
C6431	C643	0.616800	0.742900	0.383200
C6441	C644	0.603680	0.770870	0.396320
C6451	C645	0.579990	0.822740	0.420010
H2151	H215	0.572100	0.840300	0.427900
C6461	C646	0.616800	0.242900	0.883200
C6471	C647	0.603680	0.270870	0.896320
C6481	C648	0.579990	0.322740	0.920010
H2161	H216	0.572100	0.340300	0.927900
C6491	C649	0.883200	0.742900	0.116800
C6501	C650	0.896320	0.770870	0.103680
C6511	C651	0.920010	0.822740	0.079990
H2171	H217	0.927900	0.840300	0.072100
C6521	C652	0.883200	0.242900	0.616800
C6531	C653	0.896320	0.270870	0.603680
C6541	C654	0.920010	0.322740	0.579990
H2181	H218	0.927900	0.340300	0.572100
C6551	C655	0.383200	0.742900	0.616800
C6561	C656	0.396320	0.770870	0.603680
C6571	C657	0.420010	0.822740	0.579990
H2191	H219	0.427900	0.840300	0.572100
C6581	C658	0.383200	0.242900	0.116800
C6591	C659	0.396320	0.270870	0.103680
C6601	C660	0.420010	0.322740	0.079990
H2201	H220	0.427900	0.340300	0.072100
C6611	C661	0.883200	0.257100	0.883200
C6621	C662	0.896320	0.229130	0.896320
C6631	C663	0.920010	0.177260	0.920010
H2211	H221	0.927900	0.159700	0.927900
C6641	C664	0.883200	0.757100	0.383200
C6651	C665	0.896320	0.729130	0.396320
C6661	C666	0.920010	0.677260	0.420010
H2221	H222	0.927900	0.659700	0.427900
C6671	C667	0.383200	0.257100	0.383200
C6681	C668	0.396320	0.229130	0.396320
C6691	C669	0.420010	0.177260	0.420010
H2231	H223	0.427900	0.159700	0.427900
C6701	C670	0.383200	0.757100	0.883200
C6711	C671	0.396320	0.729130	0.896320
C6721	C672	0.420010	0.677260	0.920010
H2241	H224	0.427900	0.659700	0.927900
C6731	C673	0.116800	0.116800	0.257100
C6741	C674	0.103680	0.103680	0.229130
C6751	C675	0.079990	0.079990	0.177260
H2251	H225	0.072100	0.072100	0.159700
C6761	C676	0.116800	0.616800	0.757100
C6771	C677	0.103680	0.603680	0.729130
C6781	C678	0.079990	0.579990	0.677260
H2261	H226	0.072100	0.572100	0.659700
C6791	C679	0.616800	0.116800	0.757100
C6801	C680	0.603680	0.103680	0.729130
C6811	C681	0.579990	0.079990	0.677260
H2271	H227	0.572100	0.072100	0.659700
C6821	C682	0.616800	0.616800	0.257100
C6831	C683	0.603680	0.603680	0.229130
C6841	C684	0.579990	0.579990	0.177260
H2281	H228	0.572100	0.572100	0.159700
C6851	C685	0.883200	0.116800	0.742900
C6861	C686	0.896320	0.103680	0.770870
C6871	C687	0.920010	0.079990	0.822740
H2291	H229	0.927900	0.072100	0.840300
C6881	C688	0.883200	0.616800	0.242900
C6891	C689	0.896320	0.603680	0.270870
C6901	C690	0.920010	0.579990	0.322740
H2301	H230	0.927900	0.572100	0.340300
C6911	C691	0.383200	0.116800	0.242900
C6921	C692	0.396320	0.103680	0.270870
C6931	C693	0.420010	0.079990	0.322740
H2311	H231	0.427900	0.072100	0.340300
C6941	C694	0.383200	0.616800	0.742900
C6951	C695	0.396320	0.603680	0.770870
C6961	C696	0.420010	0.579990	0.822740
H2321	H232	0.427900	0.572100	0.840300
C6971	C697	0.116800	0.883200	0.742900
C6981	C698	0.103680	0.896320	0.770870
C6991	C699	0.079990	0.920010	0.822740
H2331	H233	0.072100	0.927900	0.840300
C7001	C700	0.116800	0.383200	0.242900
C7011	C701	0.103680	0.396320	0.270870
C7021	C702	0.079990	0.420010	0.322740
H2341	H234	0.072100	0.427900	0.340300
C7031	C703	0.616800	0.883200	0.242900
C7041	C704	0.603680	0.896320	0.270870
C7051	C705	0.579990	0.920010	0.322740
H2351	H235	0.572100	0.927900	0.340300
C7061	C706	0.616800	0.383200	0.742900
C7071	C707	0.603680	0.396320	0.770870
C7081	C708	0.579990	0.420010	0.822740
H2361	H236	0.572100	0.427900	0.840300
C7091	C709	0.883200	0.883200	0.257100
C7101	C710	0.896320	0.896320	0.229130
C7111	C711	0.920010	0.920010	0.177260
H2371	H237	0.927900	0.927900	0.159700
C7121	C712	0.883200	0.383200	0.757100
C7131	C713	0.896320	0.396320	0.729130
C7141	C714	0.920010	0.420010	0.677260
H2381	H238	0.927900	0.427900	0.659700
C7151	C715	0.383200	0.883200	0.757100
C7161	C716	0.396320	0.896320	0.729130
C7171	C717	0.420010	0.920010	0.677260
H2391	H239	0.427900	0.927900	0.659700
C7181	C718	0.383200	0.383200	0.257100
C7191	C719	0.396320	0.396320	0.229130
C7201	C720	0.420010	0.420010	0.177260
H2401	H240	0.427900	0.427900	0.159700
C7211	C721	0.116800	0.257100	0.883200
C7221	C722	0.103680	0.229130	0.896320
C7231	C723	0.079990	0.177260	0.920010
H2411	H241	0.072100	0.159700	0.927900
C7241	C724	0.116800	0.757100	0.383200
C7251	C725	0.103680	0.729130	0.396320
C7261	C726	0.079990	0.677260	0.420010
H2421	H242	0.072100	0.659700	0.427900
C7271	C727	0.616800	0.257100	0.383200
C7281	C728	0.603680	0.229130	0.396320
C7291	C729	0.579990	0.177260	0.420010
H2431	H243	0.572100	0.159700	0.427900
C7301	C730	0.616800	0.757100	0.883200
C7311	C731	0.603680	0.729130	0.896320
C7321	C732	0.579990	0.677260	0.920010
H2441	H244	0.572100	0.659700	0.927900
C7331	C733	0.883200	0.742900	0.883200
C7341	C734	0.896320	0.770870	0.896320
C7351	C735	0.920010	0.822740	0.920010
H2451	H245	0.927900	0.840300	0.927900
C7361	C736	0.883200	0.242900	0.383200
C7371	C737	0.896320	0.270870	0.396320
C7381	C738	0.920010	0.322740	0.420010
H2461	H246	0.927900	0.340300	0.427900
C7391	C739	0.383200	0.742900	0.383200
C7401	C740	0.396320	0.770870	0.396320
C7411	C741	0.420010	0.822740	0.420010
H2471	H247	0.427900	0.840300	0.427900
C7421	C742	0.383200	0.242900	0.883200
C7431	C743	0.396320	0.270870	0.896320
C7441	C744	0.420010	0.322740	0.920010
H2481	H248	0.427900	0.340300	0.927900
C7451	C745	0.116800	0.742900	0.116800
C7461	C746	0.103680	0.770870	0.103680
C7471	C747	0.079990	0.822740	0.079990
H2491	H249	0.072100	0.840300	0.072100
C7481	C748	0.116800	0.242900	0.616800
C7491	C749	0.103680	0.270870	0.603680
C7501	C750	0.079990	0.322740	0.579990
H2501	H250	0.072100	0.340300	0.572100
C7511	C751	0.616800	0.742900	0.616800
C7521	C752	0.603680	0.770870	0.603680
C7531	C753	0.579990	0.822740	0.579990
H2511	H251	0.572100	0.840300	0.572100
C7541	C754	0.616800	0.242900	0.116800
C7551	C755	0.603680	0.270870	0.103680
C7561	C756	0.579990	0.322740	0.079990
H2521	H252	0.572100	0.340300	0.072100
C7571	C757	0.883200	0.257100	0.116800
C7581	C758	0.896320	0.229130	0.103680
C7591	C759	0.920010	0.177260	0.079990
H2531	H253	0.927900	0.159700	0.072100
C7601	C760	0.883200	0.757100	0.616800
C7611	C761	0.896320	0.729130	0.603680
C7621	C762	0.920010	0.677260	0.579990
H2541	H254	0.927900	0.659700	0.572100
C7631	C763	0.383200	0.257100	0.616800
C7641	C764	0.396320	0.229130	0.603680
C7651	C765	0.420010	0.177260	0.579990
H2551	H255	0.427900	0.159700	0.572100
C7661	C766	0.383200	0.757100	0.116800
C7671	C767	0.396320	0.729130	0.103680
C7681	C768	0.420010	0.677260	0.079990
H2561	H256	0.427900	0.659700	0.072100
C7691	C769	0.257100	0.116800	0.883200
C7701	C770	0.229130	0.103680	0.896320
C7711	C771	0.177260	0.079990	0.920010
H2571	H257	0.159700	0.072100	0.927900
C7721	C772	0.257100	0.616800	0.383200
C7731	C773	0.229130	0.603680	0.396320
C7741	C774	0.177260	0.579990	0.420010
H2581	H258	0.159700	0.572100	0.427900
C7751	C775	0.757100	0.116800	0.383200
C7761	C776	0.729130	0.103680	0.396320
C7771	C777	0.677260	0.079990	0.420010
H2591	H259	0.659700	0.072100	0.427900
C7781	C778	0.757100	0.616800	0.883200
C7791	C779	0.729130	0.603680	0.896320
C7801	C780	0.677260	0.579990	0.920010
H2601	H260	0.659700	0.572100	0.927900
C7811	C781	0.742900	0.116800	0.116800
C7821	C782	0.770870	0.103680	0.103680
C7831	C783	0.822740	0.079990	0.079990
H2611	H261	0.840300	0.072100	0.072100
C7841	C784	0.742900	0.616800	0.616800
C7851	C785	0.770870	0.603680	0.603680
C7861	C786	0.822740	0.579990	0.579990
H2621	H262	0.840300	0.572100	0.572100
C7871	C787	0.242900	0.116800	0.616800
C7881	C788	0.270870	0.103680	0.603680
C7891	C789	0.322740	0.079990	0.579990
H2631	H263	0.340300	0.072100	0.572100
C7901	C790	0.242900	0.616800	0.116800
C7911	C791	0.270870	0.603680	0.103680
C7921	C792	0.322740	0.579990	0.079990
H2641	H264	0.340300	0.572100	0.072100
C7931	C793	0.742900	0.883200	0.883200
C7941	C794	0.770870	0.896320	0.896320
C7951	C795	0.822740	0.920010	0.920010
H2651	H265	0.840300	0.927900	0.927900
C7961	C796	0.742900	0.383200	0.383200
C7971	C797	0.770870	0.396320	0.396320
C7981	C798	0.822740	0.420010	0.420010
H2661	H266	0.840300	0.427900	0.427900
C7991	C799	0.242900	0.883200	0.383200
C8001	C800	0.270870	0.896320	0.396320
C8011	C801	0.322740	0.920010	0.420010
H2671	H267	0.340300	0.927900	0.427900
C8021	C802	0.242900	0.383200	0.883200
C8031	C803	0.270870	0.396320	0.896320
C8041	C804	0.322740	0.420010	0.920010
H2681	H268	0.340300	0.427900	0.927900
C8051	C805	0.257100	0.883200	0.116800
C8061	C806	0.229130	0.896320	0.103680
C8071	C807	0.177260	0.920010	0.079990
H2691	H269	0.159700	0.927900	0.072100
C8081	C808	0.257100	0.383200	0.616800
C8091	C809	0.229130	0.396320	0.603680
C8101	C810	0.177260	0.420010	0.579990
H2701	H270	0.159700	0.427900	0.572100
C8111	C811	0.757100	0.883200	0.616800
C8121	C812	0.729130	0.896320	0.603680
C8131	C813	0.677260	0.920010	0.579990
H2711	H271	0.659700	0.927900	0.572100
C8141	C814	0.757100	0.383200	0.116800
C8151	C815	0.729130	0.396320	0.103680
C8161	C816	0.677260	0.420010	0.079990
H2721	H272	0.659700	0.427900	0.072100
C8171	C817	0.116800	0.116800	0.742900
C8181	C818	0.103680	0.103680	0.770870
C8191	C819	0.079990	0.079990	0.822740
H2731	H273	0.072100	0.072100	0.840300
C8201	C820	0.116800	0.616800	0.242900
C8211	C821	0.103680	0.603680	0.270870
C8221	C822	0.079990	0.579990	0.322740
H2741	H274	0.072100	0.572100	0.340300
C8231	C823	0.616800	0.116800	0.242900
C8241	C824	0.603680	0.103680	0.270870
C8251	C825	0.579990	0.079990	0.322740
H2751	H275	0.572100	0.072100	0.340300
C8261	C826	0.616800	0.616800	0.742900
C8271	C827	0.603680	0.603680	0.770870
C8281	C828	0.579990	0.579990	0.822740
H2761	H276	0.572100	0.572100	0.840300
C8291	C829	0.116800	0.883200	0.257100
C8301	C830	0.103680	0.896320	0.229130
C8311	C831	0.079990	0.920010	0.177260
H2771	H277	0.072100	0.927900	0.159700
C8321	C832	0.116800	0.383200	0.757100
C8331	C833	0.103680	0.396320	0.729130
C8341	C834	0.079990	0.420010	0.677260
H2781	H278	0.072100	0.427900	0.659700
C8351	C835	0.616800	0.883200	0.757100
C8361	C836	0.603680	0.896320	0.729130
C8371	C837	0.579990	0.920010	0.677260
H2791	H279	0.572100	0.927900	0.659700
C8381	C838	0.616800	0.383200	0.257100
C8391	C839	0.603680	0.396320	0.229130
C8401	C840	0.579990	0.420010	0.177260
H2801	H280	0.572100	0.427900	0.159700
C8411	C841	0.883200	0.116800	0.257100
C8421	C842	0.896320	0.103680	0.229130
C8431	C843	0.920010	0.079990	0.177260
H2811	H281	0.927900	0.072100	0.159700
C8441	C844	0.883200	0.616800	0.757100
C8451	C845	0.896320	0.603680	0.729130
C8461	C846	0.920010	0.579990	0.677260
H2821	H282	0.927900	0.572100	0.659700
C8471	C847	0.383200	0.116800	0.757100
C8481	C848	0.396320	0.103680	0.729130
C8491	C849	0.420010	0.079990	0.677260
H2831	H283	0.427900	0.072100	0.659700
C8501	C850	0.383200	0.616800	0.257100
C8511	C851	0.396320	0.603680	0.229130
C8521	C852	0.420010	0.579990	0.177260
H2841	H284	0.427900	0.572100	0.159700
C8531	C853	0.883200	0.883200	0.742900
C8541	C854	0.896320	0.896320	0.770870
C8551	C855	0.920010	0.920010	0.822740
H2851	H285	0.927900	0.927900	0.840300
C8561	C856	0.883200	0.383200	0.242900
C8571	C857	0.896320	0.396320	0.270870
C8581	C858	0.920010	0.420010	0.322740
H2861	H286	0.927900	0.427900	0.340300
C8591	C859	0.383200	0.883200	0.242900
C8601	C860	0.396320	0.896320	0.270870
C8611	C861	0.420010	0.920010	0.322740
H2871	H287	0.427900	0.927900	0.340300
C8621	C862	0.383200	0.383200	0.742900
C8631	C863	0.396320	0.396320	0.770870
C8641	C864	0.420010	0.420010	0.822740
H2881	H288	0.427900	0.427900	0.840300
