data_OMIPEH_freeONLY_PM
_symmetry_space_group_name_H-M	'P1'
_cell_length_a	44.474200
_cell_length_b	44.474200
_cell_length_c	44.474200
_cell_angle_alpha	90.000000
_cell_angle_beta	90.000000
_cell_angle_gamma	90.000000
_symmetry_Int_Tables_number 1

loop_
_symmetry_equiv_pos_as_xyz
'x,y,z'

loop_
_atom_site_label
_atom_site_type_symbol
_atom_site_fract_x
_atom_site_fract_y
_atom_site_fract_z
O11	O1	0.151800	0.107470	0.030800
O21	O2	0.187160	0.143520	0.030590
N11	N1	0.270940	0.138910	0.103520
N21	N2	0.292560	0.145670	0.125750
C11	C1	0.216450	0.116250	0.077280
H11	H1	0.226540	0.131610	0.067310
C21	C2	0.190210	0.105280	0.066480
C31	C3	0.174820	0.120910	0.040040
O31	O3	0.151800	0.607470	0.530800
O41	O4	0.187160	0.643520	0.530590
N31	N3	0.270940	0.638910	0.603520
N41	N4	0.292560	0.645670	0.625750
C41	C4	0.216450	0.616250	0.577280
H21	H2	0.226540	0.631610	0.567310
C51	C5	0.190210	0.605280	0.566480
C61	C6	0.174820	0.620910	0.540040
O51	O5	0.651800	0.107470	0.530800
O61	O6	0.687160	0.143520	0.530590
N51	N5	0.770940	0.138910	0.603520
N61	N6	0.792560	0.145670	0.625750
C71	C7	0.716450	0.116250	0.577280
H31	H3	0.726540	0.131610	0.567310
C81	C8	0.690210	0.105280	0.566480
C91	C9	0.674820	0.120910	0.540040
O71	O7	0.651800	0.607470	0.030800
O81	O8	0.687160	0.643520	0.030590
N71	N7	0.770940	0.638910	0.103520
N81	N8	0.792560	0.645670	0.125750
C101	C10	0.716450	0.616250	0.077280
H41	H4	0.726540	0.631610	0.067310
C111	C11	0.690210	0.605280	0.066480
C121	C12	0.674820	0.620910	0.040040
O91	O9	0.848200	0.892530	0.030800
O101	O10	0.812840	0.856480	0.030590
N91	N9	0.729060	0.861090	0.103520
N101	N10	0.707440	0.854330	0.125750
C131	C13	0.783550	0.883750	0.077280
H51	H5	0.773460	0.868390	0.067310
C141	C14	0.809790	0.894720	0.066480
C151	C15	0.825180	0.879090	0.040040
O111	O11	0.848200	0.392530	0.530800
O121	O12	0.812840	0.356480	0.530590
N111	N11	0.729060	0.361090	0.603520
N121	N12	0.707440	0.354330	0.625750
C161	C16	0.783550	0.383750	0.577280
H61	H6	0.773460	0.368390	0.567310
C171	C17	0.809790	0.394720	0.566480
C181	C18	0.825180	0.379090	0.540040
O131	O13	0.348200	0.892530	0.530800
O141	O14	0.312840	0.856480	0.530590
N131	N13	0.229060	0.861090	0.603520
N141	N14	0.207440	0.854330	0.625750
C191	C19	0.283550	0.883750	0.577280
H71	H7	0.273460	0.868390	0.567310
C201	C20	0.309790	0.894720	0.566480
C211	C21	0.325180	0.879090	0.540040
O151	O15	0.348200	0.392530	0.030800
O161	O16	0.312840	0.356480	0.030590
N151	N15	0.229060	0.361090	0.103520
N161	N16	0.207440	0.354330	0.125750
C221	C22	0.283550	0.383750	0.077280
H81	H8	0.273460	0.368390	0.067310
C231	C23	0.309790	0.394720	0.066480
C241	C24	0.325180	0.379090	0.040040
O171	O17	0.848200	0.107470	0.969200
O181	O18	0.812840	0.143520	0.969410
N171	N17	0.729060	0.138910	0.896480
N181	N18	0.707440	0.145670	0.874250
C251	C25	0.783550	0.116250	0.922720
H91	H9	0.773460	0.131610	0.932690
C261	C26	0.809790	0.105280	0.933520
C271	C27	0.825180	0.120910	0.959960
O191	O19	0.848200	0.607470	0.469200
O201	O20	0.812840	0.643520	0.469410
N191	N19	0.729060	0.638910	0.396480
N201	N20	0.707440	0.645670	0.374250
C281	C28	0.783550	0.616250	0.422720
H101	H10	0.773460	0.631610	0.432690
C291	C29	0.809790	0.605280	0.433520
C301	C30	0.825180	0.620910	0.459960
O211	O21	0.348200	0.107470	0.469200
O221	O22	0.312840	0.143520	0.469410
N211	N21	0.229060	0.138910	0.396480
N221	N22	0.207440	0.145670	0.374250
C311	C31	0.283550	0.116250	0.422720
H111	H11	0.273460	0.131610	0.432690
C321	C32	0.309790	0.105280	0.433520
C331	C33	0.325180	0.120910	0.459960
O231	O23	0.348200	0.607470	0.969200
O241	O24	0.312840	0.643520	0.969410
N231	N23	0.229060	0.638910	0.896480
N241	N24	0.207440	0.645670	0.874250
C341	C34	0.283550	0.616250	0.922720
H121	H12	0.273460	0.631610	0.932690
C351	C35	0.309790	0.605280	0.933520
C361	C36	0.325180	0.620910	0.959960
O251	O25	0.151800	0.892530	0.969200
O261	O26	0.187160	0.856480	0.969410
N251	N25	0.270940	0.861090	0.896480
N261	N26	0.292560	0.854330	0.874250
C371	C37	0.216450	0.883750	0.922720
H131	H13	0.226540	0.868390	0.932690
C381	C38	0.190210	0.894720	0.933520
C391	C39	0.174820	0.879090	0.959960
O271	O27	0.151800	0.392530	0.469200
O281	O28	0.187160	0.356480	0.469410
N271	N27	0.270940	0.361090	0.396480
N281	N28	0.292560	0.354330	0.374250
C401	C40	0.216450	0.383750	0.422720
H141	H14	0.226540	0.368390	0.432690
C411	C41	0.190210	0.394720	0.433520
C421	C42	0.174820	0.379090	0.459960
O291	O29	0.651800	0.892530	0.469200
O301	O30	0.687160	0.856480	0.469410
N291	N29	0.770940	0.861090	0.396480
N301	N30	0.792560	0.854330	0.374250
C431	C43	0.716450	0.883750	0.422720
H151	H15	0.726540	0.868390	0.432690
C441	C44	0.690210	0.894720	0.433520
C451	C45	0.674820	0.879090	0.459960
O311	O31	0.651800	0.392530	0.969200
O321	O32	0.687160	0.356480	0.969410
N311	N31	0.770940	0.361090	0.896480
N321	N32	0.792560	0.354330	0.874250
C461	C46	0.716450	0.383750	0.922720
H161	H16	0.726540	0.368390	0.932690
C471	C47	0.690210	0.394720	0.933520
C481	C48	0.674820	0.379090	0.959960
O331	O33	0.030800	0.151800	0.107470
O341	O34	0.030590	0.187160	0.143520
N331	N33	0.103520	0.270940	0.138910
N341	N34	0.125750	0.292560	0.145670
C491	C49	0.077280	0.216450	0.116250
H171	H17	0.067310	0.226540	0.131610
C501	C50	0.066480	0.190210	0.105280
C511	C51	0.040040	0.174820	0.120910
O351	O35	0.030800	0.651800	0.607470
O361	O36	0.030590	0.687160	0.643520
N351	N35	0.103520	0.770940	0.638910
N361	N36	0.125750	0.792560	0.645670
C521	C52	0.077280	0.716450	0.616250
H181	H18	0.067310	0.726540	0.631610
C531	C53	0.066480	0.690210	0.605280
C541	C54	0.040040	0.674820	0.620910
O371	O37	0.530800	0.151800	0.607470
O381	O38	0.530590	0.187160	0.643520
N371	N37	0.603520	0.270940	0.638910
N381	N38	0.625750	0.292560	0.645670
C551	C55	0.577280	0.216450	0.616250
H191	H19	0.567310	0.226540	0.631610
C561	C56	0.566480	0.190210	0.605280
C571	C57	0.540040	0.174820	0.620910
O391	O39	0.530800	0.651800	0.107470
O401	O40	0.530590	0.687160	0.143520
N391	N39	0.603520	0.770940	0.138910
N401	N40	0.625750	0.792560	0.145670
C581	C58	0.577280	0.716450	0.116250
H201	H20	0.567310	0.726540	0.131610
C591	C59	0.566480	0.690210	0.105280
C601	C60	0.540040	0.674820	0.120910
O411	O41	0.030800	0.848200	0.892530
O421	O42	0.030590	0.812840	0.856480
N411	N41	0.103520	0.729060	0.861090
N421	N42	0.125750	0.707440	0.854330
C611	C61	0.077280	0.783550	0.883750
H211	H21	0.067310	0.773460	0.868390
C621	C62	0.066480	0.809790	0.894720
C631	C63	0.040040	0.825180	0.879090
O431	O43	0.030800	0.348200	0.392530
O441	O44	0.030590	0.312840	0.356480
N431	N43	0.103520	0.229060	0.361090
N441	N44	0.125750	0.207440	0.354330
C641	C64	0.077280	0.283550	0.383750
H221	H22	0.067310	0.273460	0.368390
C651	C65	0.066480	0.309790	0.394720
C661	C66	0.040040	0.325180	0.379090
O451	O45	0.530800	0.848200	0.392530
O461	O46	0.530590	0.812840	0.356480
N451	N45	0.603520	0.729060	0.361090
N461	N46	0.625750	0.707440	0.354330
C671	C67	0.577280	0.783550	0.383750
H231	H23	0.567310	0.773460	0.368390
C681	C68	0.566480	0.809790	0.394720
C691	C69	0.540040	0.825180	0.379090
O471	O47	0.530800	0.348200	0.892530
O481	O48	0.530590	0.312840	0.856480
N471	N47	0.603520	0.229060	0.861090
N481	N48	0.625750	0.207440	0.854330
C701	C70	0.577280	0.283550	0.883750
H241	H24	0.567310	0.273460	0.868390
C711	C71	0.566480	0.309790	0.894720
C721	C72	0.540040	0.325180	0.879090
O491	O49	0.969200	0.848200	0.107470
O501	O50	0.969410	0.812840	0.143520
N491	N49	0.896480	0.729060	0.138910
N501	N50	0.874250	0.707440	0.145670
C731	C73	0.922720	0.783550	0.116250
H251	H25	0.932690	0.773460	0.131610
C741	C74	0.933520	0.809790	0.105280
C751	C75	0.959960	0.825180	0.120910
O511	O51	0.969200	0.348200	0.607470
O521	O52	0.969410	0.312840	0.643520
N511	N51	0.896480	0.229060	0.638910
N521	N52	0.874250	0.207440	0.645670
C761	C76	0.922720	0.283550	0.616250
H261	H26	0.932690	0.273460	0.631610
C771	C77	0.933520	0.309790	0.605280
C781	C78	0.959960	0.325180	0.620910
O531	O53	0.469200	0.848200	0.607470
O541	O54	0.469410	0.812840	0.643520
N531	N53	0.396480	0.729060	0.638910
N541	N54	0.374250	0.707440	0.645670
C791	C79	0.422720	0.783550	0.616250
H271	H27	0.432690	0.773460	0.631610
C801	C80	0.433520	0.809790	0.605280
C811	C81	0.459960	0.825180	0.620910
O551	O55	0.469200	0.348200	0.107470
O561	O56	0.469410	0.312840	0.143520
N551	N55	0.396480	0.229060	0.138910
N561	N56	0.374250	0.207440	0.145670
C821	C82	0.422720	0.283550	0.116250
H281	H28	0.432690	0.273460	0.131610
C831	C83	0.433520	0.309790	0.105280
C841	C84	0.459960	0.325180	0.120910
O571	O57	0.969200	0.151800	0.892530
O581	O58	0.969410	0.187160	0.856480
N571	N57	0.896480	0.270940	0.861090
N581	N58	0.874250	0.292560	0.854330
C851	C85	0.922720	0.216450	0.883750
H291	H29	0.932690	0.226540	0.868390
C861	C86	0.933520	0.190210	0.894720
C871	C87	0.959960	0.174820	0.879090
O591	O59	0.969200	0.651800	0.392530
O601	O60	0.969410	0.687160	0.356480
N591	N59	0.896480	0.770940	0.361090
N601	N60	0.874250	0.792560	0.354330
C881	C88	0.922720	0.716450	0.383750
H301	H30	0.932690	0.726540	0.368390
C891	C89	0.933520	0.690210	0.394720
C901	C90	0.959960	0.674820	0.379090
O611	O61	0.469200	0.151800	0.392530
O621	O62	0.469410	0.187160	0.356480
N611	N61	0.396480	0.270940	0.361090
N621	N62	0.374250	0.292560	0.354330
C911	C91	0.422720	0.216450	0.383750
H311	H31	0.432690	0.226540	0.368390
C921	C92	0.433520	0.190210	0.394720
C931	C93	0.459960	0.174820	0.379090
O631	O63	0.469200	0.651800	0.892530
O641	O64	0.469410	0.687160	0.856480
N631	N63	0.396480	0.770940	0.861090
N641	N64	0.374250	0.792560	0.854330
C941	C94	0.422720	0.716450	0.883750
H321	H32	0.432690	0.726540	0.868390
C951	C95	0.433520	0.690210	0.894720
C961	C96	0.459960	0.674820	0.879090
O651	O65	0.107470	0.030800	0.151800
O661	O66	0.143520	0.030590	0.187160
N651	N65	0.138910	0.103520	0.270940
N661	N66	0.145670	0.125750	0.292560
C971	C97	0.116250	0.077280	0.216450
H331	H33	0.131610	0.067310	0.226540
C981	C98	0.105280	0.066480	0.190210
C991	C99	0.120910	0.040040	0.174820
O671	O67	0.107470	0.530800	0.651800
O681	O68	0.143520	0.530590	0.687160
N671	N67	0.138910	0.603520	0.770940
N681	N68	0.145670	0.625750	0.792560
C1001	C100	0.116250	0.577280	0.716450
H341	H34	0.131610	0.567310	0.726540
C1011	C101	0.105280	0.566480	0.690210
C1021	C102	0.120910	0.540040	0.674820
O691	O69	0.607470	0.030800	0.651800
O701	O70	0.643520	0.030590	0.687160
N691	N69	0.638910	0.103520	0.770940
N701	N70	0.645670	0.125750	0.792560
C1031	C103	0.616250	0.077280	0.716450
H351	H35	0.631610	0.067310	0.726540
C1041	C104	0.605280	0.066480	0.690210
C1051	C105	0.620910	0.040040	0.674820
O711	O71	0.607470	0.530800	0.151800
O721	O72	0.643520	0.530590	0.187160
N711	N71	0.638910	0.603520	0.270940
N721	N72	0.645670	0.625750	0.292560
C1061	C106	0.616250	0.577280	0.216450
H361	H36	0.631610	0.567310	0.226540
C1071	C107	0.605280	0.566480	0.190210
C1081	C108	0.620910	0.540040	0.174820
O731	O73	0.892530	0.030800	0.848200
O741	O74	0.856480	0.030590	0.812840
N731	N73	0.861090	0.103520	0.729060
N741	N74	0.854330	0.125750	0.707440
C1091	C109	0.883750	0.077280	0.783550
H371	H37	0.868390	0.067310	0.773460
C1101	C110	0.894720	0.066480	0.809790
C1111	C111	0.879090	0.040040	0.825180
O751	O75	0.892530	0.530800	0.348200
O761	O76	0.856480	0.530590	0.312840
N751	N75	0.861090	0.603520	0.229060
N761	N76	0.854330	0.625750	0.207440
C1121	C112	0.883750	0.577280	0.283550
H381	H38	0.868390	0.567310	0.273460
C1131	C113	0.894720	0.566480	0.309790
C1141	C114	0.879090	0.540040	0.325180
O771	O77	0.392530	0.030800	0.348200
O781	O78	0.356480	0.030590	0.312840
N771	N77	0.361090	0.103520	0.229060
N781	N78	0.354330	0.125750	0.207440
C1151	C115	0.383750	0.077280	0.283550
H391	H39	0.368390	0.067310	0.273460
C1161	C116	0.394720	0.066480	0.309790
C1171	C117	0.379090	0.040040	0.325180
O791	O79	0.392530	0.530800	0.848200
O801	O80	0.356480	0.530590	0.812840
N791	N79	0.361090	0.603520	0.729060
N801	N80	0.354330	0.625750	0.707440
C1181	C118	0.383750	0.577280	0.783550
H401	H40	0.368390	0.567310	0.773460
C1191	C119	0.394720	0.566480	0.809790
C1201	C120	0.379090	0.540040	0.825180
O811	O81	0.107470	0.969200	0.848200
O821	O82	0.143520	0.969410	0.812840
N811	N81	0.138910	0.896480	0.729060
N821	N82	0.145670	0.874250	0.707440
C1211	C121	0.116250	0.922720	0.783550
H411	H41	0.131610	0.932690	0.773460
C1221	C122	0.105280	0.933520	0.809790
C1231	C123	0.120910	0.959960	0.825180
O831	O83	0.107470	0.469200	0.348200
O841	O84	0.143520	0.469410	0.312840
N831	N83	0.138910	0.396480	0.229060
N841	N84	0.145670	0.374250	0.207440
C1241	C124	0.116250	0.422720	0.283550
H421	H42	0.131610	0.432690	0.273460
C1251	C125	0.105280	0.433520	0.309790
C1261	C126	0.120910	0.459960	0.325180
O851	O85	0.607470	0.969200	0.348200
O861	O86	0.643520	0.969410	0.312840
N851	N85	0.638910	0.896480	0.229060
N861	N86	0.645670	0.874250	0.207440
C1271	C127	0.616250	0.922720	0.283550
H431	H43	0.631610	0.932690	0.273460
C1281	C128	0.605280	0.933520	0.309790
C1291	C129	0.620910	0.959960	0.325180
O871	O87	0.607470	0.469200	0.848200
O881	O88	0.643520	0.469410	0.812840
N871	N87	0.638910	0.396480	0.729060
N881	N88	0.645670	0.374250	0.707440
C1301	C130	0.616250	0.422720	0.783550
H441	H44	0.631610	0.432690	0.773460
C1311	C131	0.605280	0.433520	0.809790
C1321	C132	0.620910	0.459960	0.825180
O891	O89	0.892530	0.969200	0.151800
O901	O90	0.856480	0.969410	0.187160
N891	N89	0.861090	0.896480	0.270940
N901	N90	0.854330	0.874250	0.292560
C1331	C133	0.883750	0.922720	0.216450
H451	H45	0.868390	0.932690	0.226540
C1341	C134	0.894720	0.933520	0.190210
C1351	C135	0.879090	0.959960	0.174820
O911	O91	0.892530	0.469200	0.651800
O921	O92	0.856480	0.469410	0.687160
N911	N91	0.861090	0.396480	0.770940
N921	N92	0.854330	0.374250	0.792560
C1361	C136	0.883750	0.422720	0.716450
H461	H46	0.868390	0.432690	0.726540
C1371	C137	0.894720	0.433520	0.690210
C1381	C138	0.879090	0.459960	0.674820
O931	O93	0.392530	0.969200	0.651800
O941	O94	0.356480	0.969410	0.687160
N931	N93	0.361090	0.896480	0.770940
N941	N94	0.354330	0.874250	0.792560
C1391	C139	0.383750	0.922720	0.716450
H471	H47	0.368390	0.932690	0.726540
C1401	C140	0.394720	0.933520	0.690210
C1411	C141	0.379090	0.959960	0.674820
O951	O95	0.392530	0.469200	0.151800
O961	O96	0.356480	0.469410	0.187160
N951	N95	0.361090	0.396480	0.270940
N961	N96	0.354330	0.374250	0.292560
C1421	C142	0.383750	0.422720	0.216450
H481	H48	0.368390	0.432690	0.226540
C1431	C143	0.394720	0.433520	0.190210
C1441	C144	0.379090	0.459960	0.174820
O971	O97	0.107470	0.151800	0.969200
O981	O98	0.143520	0.187160	0.969410
N971	N97	0.138910	0.270940	0.896480
N981	N98	0.145670	0.292560	0.874250
C1451	C145	0.116250	0.216450	0.922720
H491	H49	0.131610	0.226540	0.932690
C1461	C146	0.105280	0.190210	0.933520
C1471	C147	0.120910	0.174820	0.959960
O991	O99	0.107470	0.651800	0.469200
O1001	O100	0.143520	0.687160	0.469410
N991	N99	0.138910	0.770940	0.396480
N1001	N100	0.145670	0.792560	0.374250
C1481	C148	0.116250	0.716450	0.422720
H501	H50	0.131610	0.726540	0.432690
C1491	C149	0.105280	0.690210	0.433520
C1501	C150	0.120910	0.674820	0.459960
O1011	O101	0.607470	0.151800	0.469200
O1021	O102	0.643520	0.187160	0.469410
N1011	N101	0.638910	0.270940	0.396480
N1021	N102	0.645670	0.292560	0.374250
C1511	C151	0.616250	0.216450	0.422720
H511	H51	0.631610	0.226540	0.432690
C1521	C152	0.605280	0.190210	0.433520
C1531	C153	0.620910	0.174820	0.459960
O1031	O103	0.607470	0.651800	0.969200
O1041	O104	0.643520	0.687160	0.969410
N1031	N103	0.638910	0.770940	0.896480
N1041	N104	0.645670	0.792560	0.874250
C1541	C154	0.616250	0.716450	0.922720
H521	H52	0.631610	0.726540	0.932690
C1551	C155	0.605280	0.690210	0.933520
C1561	C156	0.620910	0.674820	0.959960
O1051	O105	0.892530	0.848200	0.969200
O1061	O106	0.856480	0.812840	0.969410
N1051	N105	0.861090	0.729060	0.896480
N1061	N106	0.854330	0.707440	0.874250
C1571	C157	0.883750	0.783550	0.922720
H531	H53	0.868390	0.773460	0.932690
C1581	C158	0.894720	0.809790	0.933520
C1591	C159	0.879090	0.825180	0.959960
O1071	O107	0.892530	0.348200	0.469200
O1081	O108	0.856480	0.312840	0.469410
N1071	N107	0.861090	0.229060	0.396480
N1081	N108	0.854330	0.207440	0.374250
C1601	C160	0.883750	0.283550	0.422720
H541	H54	0.868390	0.273460	0.432690
C1611	C161	0.894720	0.309790	0.433520
C1621	C162	0.879090	0.325180	0.459960
O1091	O109	0.392530	0.848200	0.469200
O1101	O110	0.356480	0.812840	0.469410
N1091	N109	0.361090	0.729060	0.396480
N1101	N110	0.354330	0.707440	0.374250
C1631	C163	0.383750	0.783550	0.422720
H551	H55	0.368390	0.773460	0.432690
C1641	C164	0.394720	0.809790	0.433520
C1651	C165	0.379090	0.825180	0.459960
O1111	O111	0.392530	0.348200	0.969200
O1121	O112	0.356480	0.312840	0.969410
N1111	N111	0.361090	0.229060	0.896480
N1121	N112	0.354330	0.207440	0.874250
C1661	C166	0.383750	0.283550	0.922720
H561	H56	0.368390	0.273460	0.932690
C1671	C167	0.394720	0.309790	0.933520
C1681	C168	0.379090	0.325180	0.959960
O1131	O113	0.107470	0.848200	0.030800
O1141	O114	0.143520	0.812840	0.030590
N1131	N113	0.138910	0.729060	0.103520
N1141	N114	0.145670	0.707440	0.125750
C1691	C169	0.116250	0.783550	0.077280
H571	H57	0.131610	0.773460	0.067310
C1701	C170	0.105280	0.809790	0.066480
C1711	C171	0.120910	0.825180	0.040040
O1151	O115	0.107470	0.348200	0.530800
O1161	O116	0.143520	0.312840	0.530590
N1151	N115	0.138910	0.229060	0.603520
N1161	N116	0.145670	0.207440	0.625750
C1721	C172	0.116250	0.283550	0.577280
H581	H58	0.131610	0.273460	0.567310
C1731	C173	0.105280	0.309790	0.566480
C1741	C174	0.120910	0.325180	0.540040
O1171	O117	0.607470	0.848200	0.530800
O1181	O118	0.643520	0.812840	0.530590
N1171	N117	0.638910	0.729060	0.603520
N1181	N118	0.645670	0.707440	0.625750
C1751	C175	0.616250	0.783550	0.577280
H591	H59	0.631610	0.773460	0.567310
C1761	C176	0.605280	0.809790	0.566480
C1771	C177	0.620910	0.825180	0.540040
O1191	O119	0.607470	0.348200	0.030800
O1201	O120	0.643520	0.312840	0.030590
N1191	N119	0.638910	0.229060	0.103520
N1201	N120	0.645670	0.207440	0.125750
C1781	C178	0.616250	0.283550	0.077280
H601	H60	0.631610	0.273460	0.067310
C1791	C179	0.605280	0.309790	0.066480
C1801	C180	0.620910	0.325180	0.040040
O1211	O121	0.892530	0.151800	0.030800
O1221	O122	0.856480	0.187160	0.030590
N1211	N121	0.861090	0.270940	0.103520
N1221	N122	0.854330	0.292560	0.125750
C1811	C181	0.883750	0.216450	0.077280
H611	H61	0.868390	0.226540	0.067310
C1821	C182	0.894720	0.190210	0.066480
C1831	C183	0.879090	0.174820	0.040040
O1231	O123	0.892530	0.651800	0.530800
O1241	O124	0.856480	0.687160	0.530590
N1231	N123	0.861090	0.770940	0.603520
N1241	N124	0.854330	0.792560	0.625750
C1841	C184	0.883750	0.716450	0.577280
H621	H62	0.868390	0.726540	0.567310
C1851	C185	0.894720	0.690210	0.566480
C1861	C186	0.879090	0.674820	0.540040
O1251	O125	0.392530	0.151800	0.530800
O1261	O126	0.356480	0.187160	0.530590
N1251	N125	0.361090	0.270940	0.603520
N1261	N126	0.354330	0.292560	0.625750
C1871	C187	0.383750	0.216450	0.577280
H631	H63	0.368390	0.226540	0.567310
C1881	C188	0.394720	0.190210	0.566480
C1891	C189	0.379090	0.174820	0.540040
O1271	O127	0.392530	0.651800	0.030800
O1281	O128	0.356480	0.687160	0.030590
N1271	N127	0.361090	0.770940	0.103520
N1281	N128	0.354330	0.792560	0.125750
C1901	C190	0.383750	0.716450	0.077280
H641	H64	0.368390	0.726540	0.067310
C1911	C191	0.394720	0.690210	0.066480
C1921	C192	0.379090	0.674820	0.040040
O1291	O129	0.151800	0.030800	0.892530
O1301	O130	0.187160	0.030590	0.856480
N1291	N129	0.270940	0.103520	0.861090
N1301	N130	0.292560	0.125750	0.854330
C1931	C193	0.216450	0.077280	0.883750
H651	H65	0.226540	0.067310	0.868390
C1941	C194	0.190210	0.066480	0.894720
C1951	C195	0.174820	0.040040	0.879090
O1311	O131	0.151800	0.530800	0.392530
O1321	O132	0.187160	0.530590	0.356480
N1311	N131	0.270940	0.603520	0.361090
N1321	N132	0.292560	0.625750	0.354330
C1961	C196	0.216450	0.577280	0.383750
H661	H66	0.226540	0.567310	0.368390
C1971	C197	0.190210	0.566480	0.394720
C1981	C198	0.174820	0.540040	0.379090
O1331	O133	0.651800	0.030800	0.392530
O1341	O134	0.687160	0.030590	0.356480
N1331	N133	0.770940	0.103520	0.361090
N1341	N134	0.792560	0.125750	0.354330
C1991	C199	0.716450	0.077280	0.383750
H671	H67	0.726540	0.067310	0.368390
C2001	C200	0.690210	0.066480	0.394720
C2011	C201	0.674820	0.040040	0.379090
O1351	O135	0.651800	0.530800	0.892530
O1361	O136	0.687160	0.530590	0.856480
N1351	N135	0.770940	0.603520	0.861090
N1361	N136	0.792560	0.625750	0.854330
C2021	C202	0.716450	0.577280	0.883750
H681	H68	0.726540	0.567310	0.868390
C2031	C203	0.690210	0.566480	0.894720
C2041	C204	0.674820	0.540040	0.879090
O1371	O137	0.848200	0.030800	0.107470
O1381	O138	0.812840	0.030590	0.143520
N1371	N137	0.729060	0.103520	0.138910
N1381	N138	0.707440	0.125750	0.145670
C2051	C205	0.783550	0.077280	0.116250
H691	H69	0.773460	0.067310	0.131610
C2061	C206	0.809790	0.066480	0.105280
C2071	C207	0.825180	0.040040	0.120910
O1391	O139	0.848200	0.530800	0.607470
O1401	O140	0.812840	0.530590	0.643520
N1391	N139	0.729060	0.603520	0.638910
N1401	N140	0.707440	0.625750	0.645670
C2081	C208	0.783550	0.577280	0.616250
H701	H70	0.773460	0.567310	0.631610
C2091	C209	0.809790	0.566480	0.605280
C2101	C210	0.825180	0.540040	0.620910
O1411	O141	0.348200	0.030800	0.607470
O1421	O142	0.312840	0.030590	0.643520
N1411	N141	0.229060	0.103520	0.638910
N1421	N142	0.207440	0.125750	0.645670
C2111	C211	0.283550	0.077280	0.616250
H711	H71	0.273460	0.067310	0.631610
C2121	C212	0.309790	0.066480	0.605280
C2131	C213	0.325180	0.040040	0.620910
O1431	O143	0.348200	0.530800	0.107470
O1441	O144	0.312840	0.530590	0.143520
N1431	N143	0.229060	0.603520	0.138910
N1441	N144	0.207440	0.625750	0.145670
C2141	C214	0.283550	0.577280	0.116250
H721	H72	0.273460	0.567310	0.131610
C2151	C215	0.309790	0.566480	0.105280
C2161	C216	0.325180	0.540040	0.120910
O1451	O145	0.848200	0.969200	0.892530
O1461	O146	0.812840	0.969410	0.856480
N1451	N145	0.729060	0.896480	0.861090
N1461	N146	0.707440	0.874250	0.854330
C2171	C217	0.783550	0.922720	0.883750
H731	H73	0.773460	0.932690	0.868390
C2181	C218	0.809790	0.933520	0.894720
C2191	C219	0.825180	0.959960	0.879090
O1471	O147	0.848200	0.469200	0.392530
O1481	O148	0.812840	0.469410	0.356480
N1471	N147	0.729060	0.396480	0.361090
N1481	N148	0.707440	0.374250	0.354330
C2201	C220	0.783550	0.422720	0.383750
H741	H74	0.773460	0.432690	0.368390
C2211	C221	0.809790	0.433520	0.394720
C2221	C222	0.825180	0.459960	0.379090
O1491	O149	0.348200	0.969200	0.392530
O1501	O150	0.312840	0.969410	0.356480
N1491	N149	0.229060	0.896480	0.361090
N1501	N150	0.207440	0.874250	0.354330
C2231	C223	0.283550	0.922720	0.383750
H751	H75	0.273460	0.932690	0.368390
C2241	C224	0.309790	0.933520	0.394720
C2251	C225	0.325180	0.959960	0.379090
O1511	O151	0.348200	0.469200	0.892530
O1521	O152	0.312840	0.469410	0.856480
N1511	N151	0.229060	0.396480	0.861090
N1521	N152	0.207440	0.374250	0.854330
C2261	C226	0.283550	0.422720	0.883750
H761	H76	0.273460	0.432690	0.868390
C2271	C227	0.309790	0.433520	0.894720
C2281	C228	0.325180	0.459960	0.879090
O1531	O153	0.151800	0.969200	0.107470
O1541	O154	0.187160	0.969410	0.143520
N1531	N153	0.270940	0.896480	0.138910
N1541	N154	0.292560	0.874250	0.145670
C2291	C229	0.216450	0.922720	0.116250
H771	H77	0.226540	0.932690	0.131610
C2301	C230	0.190210	0.933520	0.105280
C2311	C231	0.174820	0.959960	0.120910
O1551	O155	0.151800	0.469200	0.607470
O1561	O156	0.187160	0.469410	0.643520
N1551	N155	0.270940	0.396480	0.638910
N1561	N156	0.292560	0.374250	0.645670
C2321	C232	0.216450	0.422720	0.616250
H781	H78	0.226540	0.432690	0.631610
C2331	C233	0.190210	0.433520	0.605280
C2341	C234	0.174820	0.459960	0.620910
O1571	O157	0.651800	0.969200	0.607470
O1581	O158	0.687160	0.969410	0.643520
N1571	N157	0.770940	0.896480	0.638910
N1581	N158	0.792560	0.874250	0.645670
C2351	C235	0.716450	0.922720	0.616250
H791	H79	0.726540	0.932690	0.631610
C2361	C236	0.690210	0.933520	0.605280
C2371	C237	0.674820	0.959960	0.620910
O1591	O159	0.651800	0.469200	0.107470
O1601	O160	0.687160	0.469410	0.143520
N1591	N159	0.770940	0.396480	0.138910
N1601	N160	0.792560	0.374250	0.145670
C2381	C238	0.716450	0.422720	0.116250
H801	H80	0.726540	0.432690	0.131610
C2391	C239	0.690210	0.433520	0.105280
C2401	C240	0.674820	0.459960	0.120910
O1611	O161	0.030800	0.107470	0.848200
O1621	O162	0.030590	0.143520	0.812840
N1611	N161	0.103520	0.138910	0.729060
N1621	N162	0.125750	0.145670	0.707440
C2411	C241	0.077280	0.116250	0.783550
H811	H81	0.067310	0.131610	0.773460
C2421	C242	0.066480	0.105280	0.809790
C2431	C243	0.040040	0.120910	0.825180
O1631	O163	0.030800	0.607470	0.348200
O1641	O164	0.030590	0.643520	0.312840
N1631	N163	0.103520	0.638910	0.229060
N1641	N164	0.125750	0.645670	0.207440
C2441	C244	0.077280	0.616250	0.283550
H821	H82	0.067310	0.631610	0.273460
C2451	C245	0.066480	0.605280	0.309790
C2461	C246	0.040040	0.620910	0.325180
O1651	O165	0.530800	0.107470	0.348200
O1661	O166	0.530590	0.143520	0.312840
N1651	N165	0.603520	0.138910	0.229060
N1661	N166	0.625750	0.145670	0.207440
C2471	C247	0.577280	0.116250	0.283550
H831	H83	0.567310	0.131610	0.273460
C2481	C248	0.566480	0.105280	0.309790
C2491	C249	0.540040	0.120910	0.325180
O1671	O167	0.530800	0.607470	0.848200
O1681	O168	0.530590	0.643520	0.812840
N1671	N167	0.603520	0.638910	0.729060
N1681	N168	0.625750	0.645670	0.707440
C2501	C250	0.577280	0.616250	0.783550
H841	H84	0.567310	0.631610	0.773460
C2511	C251	0.566480	0.605280	0.809790
C2521	C252	0.540040	0.620910	0.825180
O1691	O169	0.030800	0.892530	0.151800
O1701	O170	0.030590	0.856480	0.187160
N1691	N169	0.103520	0.861090	0.270940
N1701	N170	0.125750	0.854330	0.292560
C2531	C253	0.077280	0.883750	0.216450
H851	H85	0.067310	0.868390	0.226540
C2541	C254	0.066480	0.894720	0.190210
C2551	C255	0.040040	0.879090	0.174820
O1711	O171	0.030800	0.392530	0.651800
O1721	O172	0.030590	0.356480	0.687160
N1711	N171	0.103520	0.361090	0.770940
N1721	N172	0.125750	0.354330	0.792560
C2561	C256	0.077280	0.383750	0.716450
H861	H86	0.067310	0.368390	0.726540
C2571	C257	0.066480	0.394720	0.690210
C2581	C258	0.040040	0.379090	0.674820
O1731	O173	0.530800	0.892530	0.651800
O1741	O174	0.530590	0.856480	0.687160
N1731	N173	0.603520	0.861090	0.770940
N1741	N174	0.625750	0.854330	0.792560
C2591	C259	0.577280	0.883750	0.716450
H871	H87	0.567310	0.868390	0.726540
C2601	C260	0.566480	0.894720	0.690210
C2611	C261	0.540040	0.879090	0.674820
O1751	O175	0.530800	0.392530	0.151800
O1761	O176	0.530590	0.356480	0.187160
N1751	N175	0.603520	0.361090	0.270940
N1761	N176	0.625750	0.354330	0.292560
C2621	C262	0.577280	0.383750	0.216450
H881	H88	0.567310	0.368390	0.226540
C2631	C263	0.566480	0.394720	0.190210
C2641	C264	0.540040	0.379090	0.174820
O1771	O177	0.969200	0.107470	0.151800
O1781	O178	0.969410	0.143520	0.187160
N1771	N177	0.896480	0.138910	0.270940
N1781	N178	0.874250	0.145670	0.292560
C2651	C265	0.922720	0.116250	0.216450
H891	H89	0.932690	0.131610	0.226540
C2661	C266	0.933520	0.105280	0.190210
C2671	C267	0.959960	0.120910	0.174820
O1791	O179	0.969200	0.607470	0.651800
O1801	O180	0.969410	0.643520	0.687160
N1791	N179	0.896480	0.638910	0.770940
N1801	N180	0.874250	0.645670	0.792560
C2681	C268	0.922720	0.616250	0.716450
H901	H90	0.932690	0.631610	0.726540
C2691	C269	0.933520	0.605280	0.690210
C2701	C270	0.959960	0.620910	0.674820
O1811	O181	0.469200	0.107470	0.651800
O1821	O182	0.469410	0.143520	0.687160
N1811	N181	0.396480	0.138910	0.770940
N1821	N182	0.374250	0.145670	0.792560
C2711	C271	0.422720	0.116250	0.716450
H911	H91	0.432690	0.131610	0.726540
C2721	C272	0.433520	0.105280	0.690210
C2731	C273	0.459960	0.120910	0.674820
O1831	O183	0.469200	0.607470	0.151800
O1841	O184	0.469410	0.643520	0.187160
N1831	N183	0.396480	0.638910	0.270940
N1841	N184	0.374250	0.645670	0.292560
C2741	C274	0.422720	0.616250	0.216450
H921	H92	0.432690	0.631610	0.226540
C2751	C275	0.433520	0.605280	0.190210
C2761	C276	0.459960	0.620910	0.174820
O1851	O185	0.969200	0.892530	0.848200
O1861	O186	0.969410	0.856480	0.812840
N1851	N185	0.896480	0.861090	0.729060
N1861	N186	0.874250	0.854330	0.707440
C2771	C277	0.922720	0.883750	0.783550
H931	H93	0.932690	0.868390	0.773460
C2781	C278	0.933520	0.894720	0.809790
C2791	C279	0.959960	0.879090	0.825180
O1871	O187	0.969200	0.392530	0.348200
O1881	O188	0.969410	0.356480	0.312840
N1871	N187	0.896480	0.361090	0.229060
N1881	N188	0.874250	0.354330	0.207440
C2801	C280	0.922720	0.383750	0.283550
H941	H94	0.932690	0.368390	0.273460
C2811	C281	0.933520	0.394720	0.309790
C2821	C282	0.959960	0.379090	0.325180
O1891	O189	0.469200	0.892530	0.348200
O1901	O190	0.469410	0.856480	0.312840
N1891	N189	0.396480	0.861090	0.229060
N1901	N190	0.374250	0.854330	0.207440
C2831	C283	0.422720	0.883750	0.283550
H951	H95	0.432690	0.868390	0.273460
C2841	C284	0.433520	0.894720	0.309790
C2851	C285	0.459960	0.879090	0.325180
O1911	O191	0.469200	0.392530	0.848200
O1921	O192	0.469410	0.356480	0.812840
N1911	N191	0.396480	0.361090	0.729060
N1921	N192	0.374250	0.354330	0.707440
C2861	C286	0.422720	0.383750	0.783550
H961	H96	0.432690	0.368390	0.773460
C2871	C287	0.433520	0.394720	0.809790
C2881	C288	0.459960	0.379090	0.825180
O1931	O193	0.848200	0.892530	0.969200
O1941	O194	0.812840	0.856480	0.969410
N1931	N193	0.729060	0.861090	0.896480
N1941	N194	0.707440	0.854330	0.874250
C2891	C289	0.783550	0.883750	0.922720
H971	H97	0.773460	0.868390	0.932690
C2901	C290	0.809790	0.894720	0.933520
C2911	C291	0.825180	0.879090	0.959960
O1951	O195	0.848200	0.392530	0.469200
O1961	O196	0.812840	0.356480	0.469410
N1951	N195	0.729060	0.361090	0.396480
N1961	N196	0.707440	0.354330	0.374250
C2921	C292	0.783550	0.383750	0.422720
H981	H98	0.773460	0.368390	0.432690
C2931	C293	0.809790	0.394720	0.433520
C2941	C294	0.825180	0.379090	0.459960
O1971	O197	0.348200	0.892530	0.469200
O1981	O198	0.312840	0.856480	0.469410
N1971	N197	0.229060	0.861090	0.396480
N1981	N198	0.207440	0.854330	0.374250
C2951	C295	0.283550	0.883750	0.422720
H991	H99	0.273460	0.868390	0.432690
C2961	C296	0.309790	0.894720	0.433520
C2971	C297	0.325180	0.879090	0.459960
O1991	O199	0.348200	0.392530	0.969200
O2001	O200	0.312840	0.356480	0.969410
N1991	N199	0.229060	0.361090	0.896480
N2001	N200	0.207440	0.354330	0.874250
C2981	C298	0.283550	0.383750	0.922720
H1001	H100	0.273460	0.368390	0.932690
C2991	C299	0.309790	0.394720	0.933520
C3001	C300	0.325180	0.379090	0.959960
O2011	O201	0.151800	0.107470	0.969200
O2021	O202	0.187160	0.143520	0.969410
N2011	N201	0.270940	0.138910	0.896480
N2021	N202	0.292560	0.145670	0.874250
C3011	C301	0.216450	0.116250	0.922720
H1011	H101	0.226540	0.131610	0.932690
C3021	C302	0.190210	0.105280	0.933520
C3031	C303	0.174820	0.120910	0.959960
O2031	O203	0.151800	0.607470	0.469200
O2041	O204	0.187160	0.643520	0.469410
N2031	N203	0.270940	0.638910	0.396480
N2041	N204	0.292560	0.645670	0.374250
C3041	C304	0.216450	0.616250	0.422720
H1021	H102	0.226540	0.631610	0.432690
C3051	C305	0.190210	0.605280	0.433520
C3061	C306	0.174820	0.620910	0.459960
O2051	O205	0.651800	0.107470	0.469200
O2061	O206	0.687160	0.143520	0.469410
N2051	N205	0.770940	0.138910	0.396480
N2061	N206	0.792560	0.145670	0.374250
C3071	C307	0.716450	0.116250	0.422720
H1031	H103	0.726540	0.131610	0.432690
C3081	C308	0.690210	0.105280	0.433520
C3091	C309	0.674820	0.120910	0.459960
O2071	O207	0.651800	0.607470	0.969200
O2081	O208	0.687160	0.643520	0.969410
N2071	N207	0.770940	0.638910	0.896480
N2081	N208	0.792560	0.645670	0.874250
C3101	C310	0.716450	0.616250	0.922720
H1041	H104	0.726540	0.631610	0.932690
C3111	C311	0.690210	0.605280	0.933520
C3121	C312	0.674820	0.620910	0.959960
O2091	O209	0.151800	0.892530	0.030800
O2101	O210	0.187160	0.856480	0.030590
N2091	N209	0.270940	0.861090	0.103520
N2101	N210	0.292560	0.854330	0.125750
C3131	C313	0.216450	0.883750	0.077280
H1051	H105	0.226540	0.868390	0.067310
C3141	C314	0.190210	0.894720	0.066480
C3151	C315	0.174820	0.879090	0.040040
O2111	O211	0.151800	0.392530	0.530800
O2121	O212	0.187160	0.356480	0.530590
N2111	N211	0.270940	0.361090	0.603520
N2121	N212	0.292560	0.354330	0.625750
C3161	C316	0.216450	0.383750	0.577280
H1061	H106	0.226540	0.368390	0.567310
C3171	C317	0.190210	0.394720	0.566480
C3181	C318	0.174820	0.379090	0.540040
O2131	O213	0.651800	0.892530	0.530800
O2141	O214	0.687160	0.856480	0.530590
N2131	N213	0.770940	0.861090	0.603520
N2141	N214	0.792560	0.854330	0.625750
C3191	C319	0.716450	0.883750	0.577280
H1071	H107	0.726540	0.868390	0.567310
C3201	C320	0.690210	0.894720	0.566480
C3211	C321	0.674820	0.879090	0.540040
O2151	O215	0.651800	0.392530	0.030800
O2161	O216	0.687160	0.356480	0.030590
N2151	N215	0.770940	0.361090	0.103520
N2161	N216	0.792560	0.354330	0.125750
C3221	C322	0.716450	0.383750	0.077280
H1081	H108	0.726540	0.368390	0.067310
C3231	C323	0.690210	0.394720	0.066480
C3241	C324	0.674820	0.379090	0.040040
O2171	O217	0.848200	0.107470	0.030800
O2181	O218	0.812840	0.143520	0.030590
N2171	N217	0.729060	0.138910	0.103520
N2181	N218	0.707440	0.145670	0.125750
C3251	C325	0.783550	0.116250	0.077280
H1091	H109	0.773460	0.131610	0.067310
C3261	C326	0.809790	0.105280	0.066480
C3271	C327	0.825180	0.120910	0.040040
O2191	O219	0.848200	0.607470	0.530800
O2201	O220	0.812840	0.643520	0.530590
N2191	N219	0.729060	0.638910	0.603520
N2201	N220	0.707440	0.645670	0.625750
C3281	C328	0.783550	0.616250	0.577280
H1101	H110	0.773460	0.631610	0.567310
C3291	C329	0.809790	0.605280	0.566480
C3301	C330	0.825180	0.620910	0.540040
O2211	O221	0.348200	0.107470	0.530800
O2221	O222	0.312840	0.143520	0.530590
N2211	N221	0.229060	0.138910	0.603520
N2221	N222	0.207440	0.145670	0.625750
C3311	C331	0.283550	0.116250	0.577280
H1111	H111	0.273460	0.131610	0.567310
C3321	C332	0.309790	0.105280	0.566480
C3331	C333	0.325180	0.120910	0.540040
O2231	O223	0.348200	0.607470	0.030800
O2241	O224	0.312840	0.643520	0.030590
N2231	N223	0.229060	0.638910	0.103520
N2241	N224	0.207440	0.645670	0.125750
C3341	C334	0.283550	0.616250	0.077280
H1121	H112	0.273460	0.631610	0.067310
C3351	C335	0.309790	0.605280	0.066480
C3361	C336	0.325180	0.620910	0.040040
O2251	O225	0.969200	0.848200	0.892530
O2261	O226	0.969410	0.812840	0.856480
N2251	N225	0.896480	0.729060	0.861090
N2261	N226	0.874250	0.707440	0.854330
C3371	C337	0.922720	0.783550	0.883750
H1131	H113	0.932690	0.773460	0.868390
C3381	C338	0.933520	0.809790	0.894720
C3391	C339	0.959960	0.825180	0.879090
O2271	O227	0.969200	0.348200	0.392530
O2281	O228	0.969410	0.312840	0.356480
N2271	N227	0.896480	0.229060	0.361090
N2281	N228	0.874250	0.207440	0.354330
C3401	C340	0.922720	0.283550	0.383750
H1141	H114	0.932690	0.273460	0.368390
C3411	C341	0.933520	0.309790	0.394720
C3421	C342	0.959960	0.325180	0.379090
O2291	O229	0.469200	0.848200	0.392530
O2301	O230	0.469410	0.812840	0.356480
N2291	N229	0.396480	0.729060	0.361090
N2301	N230	0.374250	0.707440	0.354330
C3431	C343	0.422720	0.783550	0.383750
H1151	H115	0.432690	0.773460	0.368390
C3441	C344	0.433520	0.809790	0.394720
C3451	C345	0.459960	0.825180	0.379090
O2311	O231	0.469200	0.348200	0.892530
O2321	O232	0.469410	0.312840	0.856480
N2311	N231	0.396480	0.229060	0.861090
N2321	N232	0.374250	0.207440	0.854330
C3461	C346	0.422720	0.283550	0.883750
H1161	H116	0.432690	0.273460	0.868390
C3471	C347	0.433520	0.309790	0.894720
C3481	C348	0.459960	0.325180	0.879090
O2331	O233	0.969200	0.151800	0.107470
O2341	O234	0.969410	0.187160	0.143520
N2331	N233	0.896480	0.270940	0.138910
N2341	N234	0.874250	0.292560	0.145670
C3491	C349	0.922720	0.216450	0.116250
H1171	H117	0.932690	0.226540	0.131610
C3501	C350	0.933520	0.190210	0.105280
C3511	C351	0.959960	0.174820	0.120910
O2351	O235	0.969200	0.651800	0.607470
O2361	O236	0.969410	0.687160	0.643520
N2351	N235	0.896480	0.770940	0.638910
N2361	N236	0.874250	0.792560	0.645670
C3521	C352	0.922720	0.716450	0.616250
H1181	H118	0.932690	0.726540	0.631610
C3531	C353	0.933520	0.690210	0.605280
C3541	C354	0.959960	0.674820	0.620910
O2371	O237	0.469200	0.151800	0.607470
O2381	O238	0.469410	0.187160	0.643520
N2371	N237	0.396480	0.270940	0.638910
N2381	N238	0.374250	0.292560	0.645670
C3551	C355	0.422720	0.216450	0.616250
H1191	H119	0.432690	0.226540	0.631610
C3561	C356	0.433520	0.190210	0.605280
C3571	C357	0.459960	0.174820	0.620910
O2391	O239	0.469200	0.651800	0.107470
O2401	O240	0.469410	0.687160	0.143520
N2391	N239	0.396480	0.770940	0.138910
N2401	N240	0.374250	0.792560	0.145670
C3581	C358	0.422720	0.716450	0.116250
H1201	H120	0.432690	0.726540	0.131610
C3591	C359	0.433520	0.690210	0.105280
C3601	C360	0.459960	0.674820	0.120910
O2411	O241	0.030800	0.151800	0.892530
O2421	O242	0.030590	0.187160	0.856480
N2411	N241	0.103520	0.270940	0.861090
N2421	N242	0.125750	0.292560	0.854330
C3611	C361	0.077280	0.216450	0.883750
H1211	H121	0.067310	0.226540	0.868390
C3621	C362	0.066480	0.190210	0.894720
C3631	C363	0.040040	0.174820	0.879090
O2431	O243	0.030800	0.651800	0.392530
O2441	O244	0.030590	0.687160	0.356480
N2431	N243	0.103520	0.770940	0.361090
N2441	N244	0.125750	0.792560	0.354330
C3641	C364	0.077280	0.716450	0.383750
H1221	H122	0.067310	0.726540	0.368390
C3651	C365	0.066480	0.690210	0.394720
C3661	C366	0.040040	0.674820	0.379090
O2451	O245	0.530800	0.151800	0.392530
O2461	O246	0.530590	0.187160	0.356480
N2451	N245	0.603520	0.270940	0.361090
N2461	N246	0.625750	0.292560	0.354330
C3671	C367	0.577280	0.216450	0.383750
H1231	H123	0.567310	0.226540	0.368390
C3681	C368	0.566480	0.190210	0.394720
C3691	C369	0.540040	0.174820	0.379090
O2471	O247	0.530800	0.651800	0.892530
O2481	O248	0.530590	0.687160	0.856480
N2471	N247	0.603520	0.770940	0.861090
N2481	N248	0.625750	0.792560	0.854330
C3701	C370	0.577280	0.716450	0.883750
H1241	H124	0.567310	0.726540	0.868390
C3711	C371	0.566480	0.690210	0.894720
C3721	C372	0.540040	0.674820	0.879090
O2491	O249	0.030800	0.848200	0.107470
O2501	O250	0.030590	0.812840	0.143520
N2491	N249	0.103520	0.729060	0.138910
N2501	N250	0.125750	0.707440	0.145670
C3731	C373	0.077280	0.783550	0.116250
H1251	H125	0.067310	0.773460	0.131610
C3741	C374	0.066480	0.809790	0.105280
C3751	C375	0.040040	0.825180	0.120910
O2511	O251	0.030800	0.348200	0.607470
O2521	O252	0.030590	0.312840	0.643520
N2511	N251	0.103520	0.229060	0.638910
N2521	N252	0.125750	0.207440	0.645670
C3761	C376	0.077280	0.283550	0.616250
H1261	H126	0.067310	0.273460	0.631610
C3771	C377	0.066480	0.309790	0.605280
C3781	C378	0.040040	0.325180	0.620910
O2531	O253	0.530800	0.848200	0.607470
O2541	O254	0.530590	0.812840	0.643520
N2531	N253	0.603520	0.729060	0.638910
N2541	N254	0.625750	0.707440	0.645670
C3791	C379	0.577280	0.783550	0.616250
H1271	H127	0.567310	0.773460	0.631610
C3801	C380	0.566480	0.809790	0.605280
C3811	C381	0.540040	0.825180	0.620910
O2551	O255	0.530800	0.348200	0.107470
O2561	O256	0.530590	0.312840	0.143520
N2551	N255	0.603520	0.229060	0.138910
N2561	N256	0.625750	0.207440	0.145670
C3821	C382	0.577280	0.283550	0.116250
H1281	H128	0.567310	0.273460	0.131610
C3831	C383	0.566480	0.309790	0.105280
C3841	C384	0.540040	0.325180	0.120910
O2571	O257	0.892530	0.969200	0.848200
O2581	O258	0.856480	0.969410	0.812840
N2571	N257	0.861090	0.896480	0.729060
N2581	N258	0.854330	0.874250	0.707440
C3851	C385	0.883750	0.922720	0.783550
H1291	H129	0.868390	0.932690	0.773460
C3861	C386	0.894720	0.933520	0.809790
C3871	C387	0.879090	0.959960	0.825180
O2591	O259	0.892530	0.469200	0.348200
O2601	O260	0.856480	0.469410	0.312840
N2591	N259	0.861090	0.396480	0.229060
N2601	N260	0.854330	0.374250	0.207440
C3881	C388	0.883750	0.422720	0.283550
H1301	H130	0.868390	0.432690	0.273460
C3891	C389	0.894720	0.433520	0.309790
C3901	C390	0.879090	0.459960	0.325180
O2611	O261	0.392530	0.969200	0.348200
O2621	O262	0.356480	0.969410	0.312840
N2611	N261	0.361090	0.896480	0.229060
N2621	N262	0.354330	0.874250	0.207440
C3911	C391	0.383750	0.922720	0.283550
H1311	H131	0.368390	0.932690	0.273460
C3921	C392	0.394720	0.933520	0.309790
C3931	C393	0.379090	0.959960	0.325180
O2631	O263	0.392530	0.469200	0.848200
O2641	O264	0.356480	0.469410	0.812840
N2631	N263	0.361090	0.396480	0.729060
N2641	N264	0.354330	0.374250	0.707440
C3941	C394	0.383750	0.422720	0.783550
H1321	H132	0.368390	0.432690	0.773460
C3951	C395	0.394720	0.433520	0.809790
C3961	C396	0.379090	0.459960	0.825180
O2651	O265	0.107470	0.969200	0.151800
O2661	O266	0.143520	0.969410	0.187160
N2651	N265	0.138910	0.896480	0.270940
N2661	N266	0.145670	0.874250	0.292560
C3971	C397	0.116250	0.922720	0.216450
H1331	H133	0.131610	0.932690	0.226540
C3981	C398	0.105280	0.933520	0.190210
C3991	C399	0.120910	0.959960	0.174820
O2671	O267	0.107470	0.469200	0.651800
O2681	O268	0.143520	0.469410	0.687160
N2671	N267	0.138910	0.396480	0.770940
N2681	N268	0.145670	0.374250	0.792560
C4001	C400	0.116250	0.422720	0.716450
H1341	H134	0.131610	0.432690	0.726540
C4011	C401	0.105280	0.433520	0.690210
C4021	C402	0.120910	0.459960	0.674820
O2691	O269	0.607470	0.969200	0.651800
O2701	O270	0.643520	0.969410	0.687160
N2691	N269	0.638910	0.896480	0.770940
N2701	N270	0.645670	0.874250	0.792560
C4031	C403	0.616250	0.922720	0.716450
H1351	H135	0.631610	0.932690	0.726540
C4041	C404	0.605280	0.933520	0.690210
C4051	C405	0.620910	0.959960	0.674820
O2711	O271	0.607470	0.469200	0.151800
O2721	O272	0.643520	0.469410	0.187160
N2711	N271	0.638910	0.396480	0.270940
N2721	N272	0.645670	0.374250	0.292560
C4061	C406	0.616250	0.422720	0.216450
H1361	H136	0.631610	0.432690	0.226540
C4071	C407	0.605280	0.433520	0.190210
C4081	C408	0.620910	0.459960	0.174820
O2731	O273	0.892530	0.030800	0.151800
O2741	O274	0.856480	0.030590	0.187160
N2731	N273	0.861090	0.103520	0.270940
N2741	N274	0.854330	0.125750	0.292560
C4091	C409	0.883750	0.077280	0.216450
H1371	H137	0.868390	0.067310	0.226540
C4101	C410	0.894720	0.066480	0.190210
C4111	C411	0.879090	0.040040	0.174820
O2751	O275	0.892530	0.530800	0.651800
O2761	O276	0.856480	0.530590	0.687160
N2751	N275	0.861090	0.603520	0.770940
N2761	N276	0.854330	0.625750	0.792560
C4121	C412	0.883750	0.577280	0.716450
H1381	H138	0.868390	0.567310	0.726540
C4131	C413	0.894720	0.566480	0.690210
C4141	C414	0.879090	0.540040	0.674820
O2771	O277	0.392530	0.030800	0.651800
O2781	O278	0.356480	0.030590	0.687160
N2771	N277	0.361090	0.103520	0.770940
N2781	N278	0.354330	0.125750	0.792560
C4151	C415	0.383750	0.077280	0.716450
H1391	H139	0.368390	0.067310	0.726540
C4161	C416	0.394720	0.066480	0.690210
C4171	C417	0.379090	0.040040	0.674820
O2791	O279	0.392530	0.530800	0.151800
O2801	O280	0.356480	0.530590	0.187160
N2791	N279	0.361090	0.603520	0.270940
N2801	N280	0.354330	0.625750	0.292560
C4181	C418	0.383750	0.577280	0.216450
H1401	H140	0.368390	0.567310	0.226540
C4191	C419	0.394720	0.566480	0.190210
C4201	C420	0.379090	0.540040	0.174820
O2811	O281	0.107470	0.030800	0.848200
O2821	O282	0.143520	0.030590	0.812840
N2811	N281	0.138910	0.103520	0.729060
N2821	N282	0.145670	0.125750	0.707440
C4211	C421	0.116250	0.077280	0.783550
H1411	H141	0.131610	0.067310	0.773460
C4221	C422	0.105280	0.066480	0.809790
C4231	C423	0.120910	0.040040	0.825180
O2831	O283	0.107470	0.530800	0.348200
O2841	O284	0.143520	0.530590	0.312840
N2831	N283	0.138910	0.603520	0.229060
N2841	N284	0.145670	0.625750	0.207440
C4241	C424	0.116250	0.577280	0.283550
H1421	H142	0.131610	0.567310	0.273460
C4251	C425	0.105280	0.566480	0.309790
C4261	C426	0.120910	0.540040	0.325180
O2851	O285	0.607470	0.030800	0.348200
O2861	O286	0.643520	0.030590	0.312840
N2851	N285	0.638910	0.103520	0.229060
N2861	N286	0.645670	0.125750	0.207440
C4271	C427	0.616250	0.077280	0.283550
H1431	H143	0.631610	0.067310	0.273460
C4281	C428	0.605280	0.066480	0.309790
C4291	C429	0.620910	0.040040	0.325180
O2871	O287	0.607470	0.530800	0.848200
O2881	O288	0.643520	0.530590	0.812840
N2871	N287	0.638910	0.603520	0.729060
N2881	N288	0.645670	0.625750	0.707440
C4301	C430	0.616250	0.577280	0.783550
H1441	H144	0.631610	0.567310	0.773460
C4311	C431	0.605280	0.566480	0.809790
C4321	C432	0.620910	0.540040	0.825180
O2891	O289	0.892530	0.848200	0.030800
O2901	O290	0.856480	0.812840	0.030590
N2891	N289	0.861090	0.729060	0.103520
N2901	N290	0.854330	0.707440	0.125750
C4331	C433	0.883750	0.783550	0.077280
H1451	H145	0.868390	0.773460	0.067310
C4341	C434	0.894720	0.809790	0.066480
C4351	C435	0.879090	0.825180	0.040040
O2911	O291	0.892530	0.348200	0.530800
O2921	O292	0.856480	0.312840	0.530590
N2911	N291	0.861090	0.229060	0.603520
N2921	N292	0.854330	0.207440	0.625750
C4361	C436	0.883750	0.283550	0.577280
H1461	H146	0.868390	0.273460	0.567310
C4371	C437	0.894720	0.309790	0.566480
C4381	C438	0.879090	0.325180	0.540040
O2931	O293	0.392530	0.848200	0.530800
O2941	O294	0.356480	0.812840	0.530590
N2931	N293	0.361090	0.729060	0.603520
N2941	N294	0.354330	0.707440	0.625750
C4391	C439	0.383750	0.783550	0.577280
H1471	H147	0.368390	0.773460	0.567310
C4401	C440	0.394720	0.809790	0.566480
C4411	C441	0.379090	0.825180	0.540040
O2951	O295	0.392530	0.348200	0.030800
O2961	O296	0.356480	0.312840	0.030590
N2951	N295	0.361090	0.229060	0.103520
N2961	N296	0.354330	0.207440	0.125750
C4421	C442	0.383750	0.283550	0.077280
H1481	H148	0.368390	0.273460	0.067310
C4431	C443	0.394720	0.309790	0.066480
C4441	C444	0.379090	0.325180	0.040040
O2971	O297	0.107470	0.151800	0.030800
O2981	O298	0.143520	0.187160	0.030590
N2971	N297	0.138910	0.270940	0.103520
N2981	N298	0.145670	0.292560	0.125750
C4451	C445	0.116250	0.216450	0.077280
H1491	H149	0.131610	0.226540	0.067310
C4461	C446	0.105280	0.190210	0.066480
C4471	C447	0.120910	0.174820	0.040040
O2991	O299	0.107470	0.651800	0.530800
O3001	O300	0.143520	0.687160	0.530590
N2991	N299	0.138910	0.770940	0.603520
N3001	N300	0.145670	0.792560	0.625750
C4481	C448	0.116250	0.716450	0.577280
H1501	H150	0.131610	0.726540	0.567310
C4491	C449	0.105280	0.690210	0.566480
C4501	C450	0.120910	0.674820	0.540040
O3011	O301	0.607470	0.151800	0.530800
O3021	O302	0.643520	0.187160	0.530590
N3011	N301	0.638910	0.270940	0.603520
N3021	N302	0.645670	0.292560	0.625750
C4511	C451	0.616250	0.216450	0.577280
H1511	H151	0.631610	0.226540	0.567310
C4521	C452	0.605280	0.190210	0.566480
C4531	C453	0.620910	0.174820	0.540040
O3031	O303	0.607470	0.651800	0.030800
O3041	O304	0.643520	0.687160	0.030590
N3031	N303	0.638910	0.770940	0.103520
N3041	N304	0.645670	0.792560	0.125750
C4541	C454	0.616250	0.716450	0.077280
H1521	H152	0.631610	0.726540	0.067310
C4551	C455	0.605280	0.690210	0.066480
C4561	C456	0.620910	0.674820	0.040040
O3051	O305	0.892530	0.151800	0.969200
O3061	O306	0.856480	0.187160	0.969410
N3051	N305	0.861090	0.270940	0.896480
N3061	N306	0.854330	0.292560	0.874250
C4571	C457	0.883750	0.216450	0.922720
H1531	H153	0.868390	0.226540	0.932690
C4581	C458	0.894720	0.190210	0.933520
C4591	C459	0.879090	0.174820	0.959960
O3071	O307	0.892530	0.651800	0.469200
O3081	O308	0.856480	0.687160	0.469410
N3071	N307	0.861090	0.770940	0.396480
N3081	N308	0.854330	0.792560	0.374250
C4601	C460	0.883750	0.716450	0.422720
H1541	H154	0.868390	0.726540	0.432690
C4611	C461	0.894720	0.690210	0.433520
C4621	C462	0.879090	0.674820	0.459960
O3091	O309	0.392530	0.151800	0.469200
O3101	O310	0.356480	0.187160	0.469410
N3091	N309	0.361090	0.270940	0.396480
N3101	N310	0.354330	0.292560	0.374250
C4631	C463	0.383750	0.216450	0.422720
H1551	H155	0.368390	0.226540	0.432690
C4641	C464	0.394720	0.190210	0.433520
C4651	C465	0.379090	0.174820	0.459960
O3111	O311	0.392530	0.651800	0.969200
O3121	O312	0.356480	0.687160	0.969410
N3111	N311	0.361090	0.770940	0.896480
N3121	N312	0.354330	0.792560	0.874250
C4661	C466	0.383750	0.716450	0.922720
H1561	H156	0.368390	0.726540	0.932690
C4671	C467	0.394720	0.690210	0.933520
C4681	C468	0.379090	0.674820	0.959960
O3131	O313	0.107470	0.848200	0.969200
O3141	O314	0.143520	0.812840	0.969410
N3131	N313	0.138910	0.729060	0.896480
N3141	N314	0.145670	0.707440	0.874250
C4691	C469	0.116250	0.783550	0.922720
H1571	H157	0.131610	0.773460	0.932690
C4701	C470	0.105280	0.809790	0.933520
C4711	C471	0.120910	0.825180	0.959960
O3151	O315	0.107470	0.348200	0.469200
O3161	O316	0.143520	0.312840	0.469410
N3151	N315	0.138910	0.229060	0.396480
N3161	N316	0.145670	0.207440	0.374250
C4721	C472	0.116250	0.283550	0.422720
H1581	H158	0.131610	0.273460	0.432690
C4731	C473	0.105280	0.309790	0.433520
C4741	C474	0.120910	0.325180	0.459960
O3171	O317	0.607470	0.848200	0.469200
O3181	O318	0.643520	0.812840	0.469410
N3171	N317	0.638910	0.729060	0.396480
N3181	N318	0.645670	0.707440	0.374250
C4751	C475	0.616250	0.783550	0.422720
H1591	H159	0.631610	0.773460	0.432690
C4761	C476	0.605280	0.809790	0.433520
C4771	C477	0.620910	0.825180	0.459960
O3191	O319	0.607470	0.348200	0.969200
O3201	O320	0.643520	0.312840	0.969410
N3191	N319	0.638910	0.229060	0.896480
N3201	N320	0.645670	0.207440	0.874250
C4781	C478	0.616250	0.283550	0.922720
H1601	H160	0.631610	0.273460	0.932690
C4791	C479	0.605280	0.309790	0.933520
C4801	C480	0.620910	0.325180	0.959960
O3211	O321	0.848200	0.969200	0.107470
O3221	O322	0.812840	0.969410	0.143520
N3211	N321	0.729060	0.896480	0.138910
N3221	N322	0.707440	0.874250	0.145670
C4811	C481	0.783550	0.922720	0.116250
H1611	H161	0.773460	0.932690	0.131610
C4821	C482	0.809790	0.933520	0.105280
C4831	C483	0.825180	0.959960	0.120910
O3231	O323	0.848200	0.469200	0.607470
O3241	O324	0.812840	0.469410	0.643520
N3231	N323	0.729060	0.396480	0.638910
N3241	N324	0.707440	0.374250	0.645670
C4841	C484	0.783550	0.422720	0.616250
H1621	H162	0.773460	0.432690	0.631610
C4851	C485	0.809790	0.433520	0.605280
C4861	C486	0.825180	0.459960	0.620910
O3251	O325	0.348200	0.969200	0.607470
O3261	O326	0.312840	0.969410	0.643520
N3251	N325	0.229060	0.896480	0.638910
N3261	N326	0.207440	0.874250	0.645670
C4871	C487	0.283550	0.922720	0.616250
H1631	H163	0.273460	0.932690	0.631610
C4881	C488	0.309790	0.933520	0.605280
C4891	C489	0.325180	0.959960	0.620910
O3271	O327	0.348200	0.469200	0.107470
O3281	O328	0.312840	0.469410	0.143520
N3271	N327	0.229060	0.396480	0.138910
N3281	N328	0.207440	0.374250	0.145670
C4901	C490	0.283550	0.422720	0.116250
H1641	H164	0.273460	0.432690	0.131610
C4911	C491	0.309790	0.433520	0.105280
C4921	C492	0.325180	0.459960	0.120910
O3291	O329	0.151800	0.969200	0.892530
O3301	O330	0.187160	0.969410	0.856480
N3291	N329	0.270940	0.896480	0.861090
N3301	N330	0.292560	0.874250	0.854330
C4931	C493	0.216450	0.922720	0.883750
H1651	H165	0.226540	0.932690	0.868390
C4941	C494	0.190210	0.933520	0.894720
C4951	C495	0.174820	0.959960	0.879090
O3311	O331	0.151800	0.469200	0.392530
O3321	O332	0.187160	0.469410	0.356480
N3311	N331	0.270940	0.396480	0.361090
N3321	N332	0.292560	0.374250	0.354330
C4961	C496	0.216450	0.422720	0.383750
H1661	H166	0.226540	0.432690	0.368390
C4971	C497	0.190210	0.433520	0.394720
C4981	C498	0.174820	0.459960	0.379090
O3331	O333	0.651800	0.969200	0.392530
O3341	O334	0.687160	0.969410	0.356480
N3331	N333	0.770940	0.896480	0.361090
N3341	N334	0.792560	0.874250	0.354330
C4991	C499	0.716450	0.922720	0.383750
H1671	H167	0.726540	0.932690	0.368390
C5001	C500	0.690210	0.933520	0.394720
C5011	C501	0.674820	0.959960	0.379090
O3351	O335	0.651800	0.469200	0.892530
O3361	O336	0.687160	0.469410	0.856480
N3351	N335	0.770940	0.396480	0.861090
N3361	N336	0.792560	0.374250	0.854330
C5021	C502	0.716450	0.422720	0.883750
H1681	H168	0.726540	0.432690	0.868390
C5031	C503	0.690210	0.433520	0.894720
C5041	C504	0.674820	0.459960	0.879090
O3371	O337	0.151800	0.030800	0.107470
O3381	O338	0.187160	0.030590	0.143520
N3371	N337	0.270940	0.103520	0.138910
N3381	N338	0.292560	0.125750	0.145670
C5051	C505	0.216450	0.077280	0.116250
H1691	H169	0.226540	0.067310	0.131610
C5061	C506	0.190210	0.066480	0.105280
C5071	C507	0.174820	0.040040	0.120910
O3391	O339	0.151800	0.530800	0.607470
O3401	O340	0.187160	0.530590	0.643520
N3391	N339	0.270940	0.603520	0.638910
N3401	N340	0.292560	0.625750	0.645670
C5081	C508	0.216450	0.577280	0.616250
H1701	H170	0.226540	0.567310	0.631610
C5091	C509	0.190210	0.566480	0.605280
C5101	C510	0.174820	0.540040	0.620910
O3411	O341	0.651800	0.030800	0.607470
O3421	O342	0.687160	0.030590	0.643520
N3411	N341	0.770940	0.103520	0.638910
N3421	N342	0.792560	0.125750	0.645670
C5111	C511	0.716450	0.077280	0.616250
H1711	H171	0.726540	0.067310	0.631610
C5121	C512	0.690210	0.066480	0.605280
C5131	C513	0.674820	0.040040	0.620910
O3431	O343	0.651800	0.530800	0.107470
O3441	O344	0.687160	0.530590	0.143520
N3431	N343	0.770940	0.603520	0.138910
N3441	N344	0.792560	0.625750	0.145670
C5141	C514	0.716450	0.577280	0.116250
H1721	H172	0.726540	0.567310	0.131610
C5151	C515	0.690210	0.566480	0.105280
C5161	C516	0.674820	0.540040	0.120910
O3451	O345	0.848200	0.030800	0.892530
O3461	O346	0.812840	0.030590	0.856480
N3451	N345	0.729060	0.103520	0.861090
N3461	N346	0.707440	0.125750	0.854330
C5171	C517	0.783550	0.077280	0.883750
H1731	H173	0.773460	0.067310	0.868390
C5181	C518	0.809790	0.066480	0.894720
C5191	C519	0.825180	0.040040	0.879090
O3471	O347	0.848200	0.530800	0.392530
O3481	O348	0.812840	0.530590	0.356480
N3471	N347	0.729060	0.603520	0.361090
N3481	N348	0.707440	0.625750	0.354330
C5201	C520	0.783550	0.577280	0.383750
H1741	H174	0.773460	0.567310	0.368390
C5211	C521	0.809790	0.566480	0.394720
C5221	C522	0.825180	0.540040	0.379090
O3491	O349	0.348200	0.030800	0.392530
O3501	O350	0.312840	0.030590	0.356480
N3491	N349	0.229060	0.103520	0.361090
N3501	N350	0.207440	0.125750	0.354330
C5231	C523	0.283550	0.077280	0.383750
H1751	H175	0.273460	0.067310	0.368390
C5241	C524	0.309790	0.066480	0.394720
C5251	C525	0.325180	0.040040	0.379090
O3511	O351	0.348200	0.530800	0.892530
O3521	O352	0.312840	0.530590	0.856480
N3511	N351	0.229060	0.603520	0.861090
N3521	N352	0.207440	0.625750	0.854330
C5261	C526	0.283550	0.577280	0.883750
H1761	H176	0.273460	0.567310	0.868390
C5271	C527	0.309790	0.566480	0.894720
C5281	C528	0.325180	0.540040	0.879090
O3531	O353	0.969200	0.892530	0.151800
O3541	O354	0.969410	0.856480	0.187160
N3531	N353	0.896480	0.861090	0.270940
N3541	N354	0.874250	0.854330	0.292560
C5291	C529	0.922720	0.883750	0.216450
H1771	H177	0.932690	0.868390	0.226540
C5301	C530	0.933520	0.894720	0.190210
C5311	C531	0.959960	0.879090	0.174820
O3551	O355	0.969200	0.392530	0.651800
O3561	O356	0.969410	0.356480	0.687160
N3551	N355	0.896480	0.361090	0.770940
N3561	N356	0.874250	0.354330	0.792560
C5321	C532	0.922720	0.383750	0.716450
H1781	H178	0.932690	0.368390	0.726540
C5331	C533	0.933520	0.394720	0.690210
C5341	C534	0.959960	0.379090	0.674820
O3571	O357	0.469200	0.892530	0.651800
O3581	O358	0.469410	0.856480	0.687160
N3571	N357	0.396480	0.861090	0.770940
N3581	N358	0.374250	0.854330	0.792560
C5351	C535	0.422720	0.883750	0.716450
H1791	H179	0.432690	0.868390	0.726540
C5361	C536	0.433520	0.894720	0.690210
C5371	C537	0.459960	0.879090	0.674820
O3591	O359	0.469200	0.392530	0.151800
O3601	O360	0.469410	0.356480	0.187160
N3591	N359	0.396480	0.361090	0.270940
N3601	N360	0.374250	0.354330	0.292560
C5381	C538	0.422720	0.383750	0.216450
H1801	H180	0.432690	0.368390	0.226540
C5391	C539	0.433520	0.394720	0.190210
C5401	C540	0.459960	0.379090	0.174820
O3611	O361	0.969200	0.107470	0.848200
O3621	O362	0.969410	0.143520	0.812840
N3611	N361	0.896480	0.138910	0.729060
N3621	N362	0.874250	0.145670	0.707440
C5411	C541	0.922720	0.116250	0.783550
H1811	H181	0.932690	0.131610	0.773460
C5421	C542	0.933520	0.105280	0.809790
C5431	C543	0.959960	0.120910	0.825180
O3631	O363	0.969200	0.607470	0.348200
O3641	O364	0.969410	0.643520	0.312840
N3631	N363	0.896480	0.638910	0.229060
N3641	N364	0.874250	0.645670	0.207440
C5441	C544	0.922720	0.616250	0.283550
H1821	H182	0.932690	0.631610	0.273460
C5451	C545	0.933520	0.605280	0.309790
C5461	C546	0.959960	0.620910	0.325180
O3651	O365	0.469200	0.107470	0.348200
O3661	O366	0.469410	0.143520	0.312840
N3651	N365	0.396480	0.138910	0.229060
N3661	N366	0.374250	0.145670	0.207440
C5471	C547	0.422720	0.116250	0.283550
H1831	H183	0.432690	0.131610	0.273460
C5481	C548	0.433520	0.105280	0.309790
C5491	C549	0.459960	0.120910	0.325180
O3671	O367	0.469200	0.607470	0.848200
O3681	O368	0.469410	0.643520	0.812840
N3671	N367	0.396480	0.638910	0.729060
N3681	N368	0.374250	0.645670	0.707440
C5501	C550	0.422720	0.616250	0.783550
H1841	H184	0.432690	0.631610	0.773460
C5511	C551	0.433520	0.605280	0.809790
C5521	C552	0.459960	0.620910	0.825180
O3691	O369	0.030800	0.892530	0.848200
O3701	O370	0.030590	0.856480	0.812840
N3691	N369	0.103520	0.861090	0.729060
N3701	N370	0.125750	0.854330	0.707440
C5531	C553	0.077280	0.883750	0.783550
H1851	H185	0.067310	0.868390	0.773460
C5541	C554	0.066480	0.894720	0.809790
C5551	C555	0.040040	0.879090	0.825180
O3711	O371	0.030800	0.392530	0.348200
O3721	O372	0.030590	0.356480	0.312840
N3711	N371	0.103520	0.361090	0.229060
N3721	N372	0.125750	0.354330	0.207440
C5561	C556	0.077280	0.383750	0.283550
H1861	H186	0.067310	0.368390	0.273460
C5571	C557	0.066480	0.394720	0.309790
C5581	C558	0.040040	0.379090	0.325180
O3731	O373	0.530800	0.892530	0.348200
O3741	O374	0.530590	0.856480	0.312840
N3731	N373	0.603520	0.861090	0.229060
N3741	N374	0.625750	0.854330	0.207440
C5591	C559	0.577280	0.883750	0.283550
H1871	H187	0.567310	0.868390	0.273460
C5601	C560	0.566480	0.894720	0.309790
C5611	C561	0.540040	0.879090	0.325180
O3751	O375	0.530800	0.392530	0.848200
O3761	O376	0.530590	0.356480	0.812840
N3751	N375	0.603520	0.361090	0.729060
N3761	N376	0.625750	0.354330	0.707440
C5621	C562	0.577280	0.383750	0.783550
H1881	H188	0.567310	0.368390	0.773460
C5631	C563	0.566480	0.394720	0.809790
C5641	C564	0.540040	0.379090	0.825180
O3771	O377	0.030800	0.107470	0.151800
O3781	O378	0.030590	0.143520	0.187160
N3771	N377	0.103520	0.138910	0.270940
N3781	N378	0.125750	0.145670	0.292560
C5651	C565	0.077280	0.116250	0.216450
H1891	H189	0.067310	0.131610	0.226540
C5661	C566	0.066480	0.105280	0.190210
C5671	C567	0.040040	0.120910	0.174820
O3791	O379	0.030800	0.607470	0.651800
O3801	O380	0.030590	0.643520	0.687160
N3791	N379	0.103520	0.638910	0.770940
N3801	N380	0.125750	0.645670	0.792560
C5681	C568	0.077280	0.616250	0.716450
H1901	H190	0.067310	0.631610	0.726540
C5691	C569	0.066480	0.605280	0.690210
C5701	C570	0.040040	0.620910	0.674820
O3811	O381	0.530800	0.107470	0.651800
O3821	O382	0.530590	0.143520	0.687160
N3811	N381	0.603520	0.138910	0.770940
N3821	N382	0.625750	0.145670	0.792560
C5711	C571	0.577280	0.116250	0.716450
H1911	H191	0.567310	0.131610	0.726540
C5721	C572	0.566480	0.105280	0.690210
C5731	C573	0.540040	0.120910	0.674820
O3831	O383	0.530800	0.607470	0.151800
O3841	O384	0.530590	0.643520	0.187160
N3831	N383	0.603520	0.638910	0.270940
N3841	N384	0.625750	0.645670	0.292560
C5741	C574	0.577280	0.616250	0.216450
H1921	H192	0.567310	0.631610	0.226540
C5751	C575	0.566480	0.605280	0.190210
C5761	C576	0.540040	0.620910	0.174820
Cu11	Cu1	0.168670	0.168670	0.000000
Cu21	Cu2	0.126560	0.126560	0.000000
O3851	O385	0.092800	0.092800	0.000000
O3861	O386	0.202740	0.202740	0.000000
Cu31	Cu3	0.168670	0.668670	0.500000
Cu41	Cu4	0.126560	0.626560	0.500000
O3871	O387	0.092800	0.592800	0.500000
O3881	O388	0.202740	0.702740	0.500000
Cu51	Cu5	0.668670	0.168670	0.500000
Cu61	Cu6	0.626560	0.126560	0.500000
O3891	O389	0.592800	0.092800	0.500000
O3901	O390	0.702740	0.202740	0.500000
Cu71	Cu7	0.668670	0.668670	0.000000
Cu81	Cu8	0.626560	0.626560	0.000000
O3911	O391	0.592800	0.592800	0.000000
O3921	O392	0.702740	0.702740	0.000000
Cu91	Cu9	0.831330	0.831330	0.000000
Cu101	Cu10	0.873440	0.873440	0.000000
O3931	O393	0.907200	0.907200	0.000000
O3941	O394	0.797260	0.797260	0.000000
Cu111	Cu11	0.831330	0.331330	0.500000
Cu121	Cu12	0.873440	0.373440	0.500000
O3951	O395	0.907200	0.407200	0.500000
O3961	O396	0.797260	0.297260	0.500000
Cu131	Cu13	0.331330	0.831330	0.500000
Cu141	Cu14	0.373440	0.873440	0.500000
O3971	O397	0.407200	0.907200	0.500000
O3981	O398	0.297260	0.797260	0.500000
Cu151	Cu15	0.331330	0.331330	0.000000
Cu161	Cu16	0.373440	0.373440	0.000000
O3991	O399	0.407200	0.407200	0.000000
O4001	O400	0.297260	0.297260	0.000000
Cu171	Cu17	0.831330	0.168670	0.000000
Cu181	Cu18	0.873440	0.126560	0.000000
O4011	O401	0.907200	0.092800	0.000000
O4021	O402	0.797260	0.202740	0.000000
Cu191	Cu19	0.831330	0.668670	0.500000
Cu201	Cu20	0.873440	0.626560	0.500000
O4031	O403	0.907200	0.592800	0.500000
O4041	O404	0.797260	0.702740	0.500000
Cu211	Cu21	0.331330	0.168670	0.500000
Cu221	Cu22	0.373440	0.126560	0.500000
O4051	O405	0.407200	0.092800	0.500000
O4061	O406	0.297260	0.202740	0.500000
Cu231	Cu23	0.331330	0.668670	0.000000
Cu241	Cu24	0.373440	0.626560	0.000000
O4071	O407	0.407200	0.592800	0.000000
O4081	O408	0.297260	0.702740	0.000000
Cu251	Cu25	0.168670	0.831330	0.000000
Cu261	Cu26	0.126560	0.873440	0.000000
O4091	O409	0.092800	0.907200	0.000000
O4101	O410	0.202740	0.797260	0.000000
Cu271	Cu27	0.168670	0.331330	0.500000
Cu281	Cu28	0.126560	0.373440	0.500000
O4111	O411	0.092800	0.407200	0.500000
O4121	O412	0.202740	0.297260	0.500000
Cu291	Cu29	0.668670	0.831330	0.500000
Cu301	Cu30	0.626560	0.873440	0.500000
O4131	O413	0.592800	0.907200	0.500000
O4141	O414	0.702740	0.797260	0.500000
Cu311	Cu31	0.668670	0.331330	0.000000
Cu321	Cu32	0.626560	0.373440	0.000000
O4151	O415	0.592800	0.407200	0.000000
O4161	O416	0.702740	0.297260	0.000000
Cu331	Cu33	0.000000	0.168670	0.168670
Cu341	Cu34	0.000000	0.126560	0.126560
O4171	O417	0.000000	0.092800	0.092800
O4181	O418	0.000000	0.202740	0.202740
Cu351	Cu35	0.000000	0.668670	0.668670
Cu361	Cu36	0.000000	0.626560	0.626560
O4191	O419	0.000000	0.592800	0.592800
O4201	O420	0.000000	0.702740	0.702740
Cu371	Cu37	0.500000	0.168670	0.668670
Cu381	Cu38	0.500000	0.126560	0.626560
O4211	O421	0.500000	0.092800	0.592800
O4221	O422	0.500000	0.202740	0.702740
Cu391	Cu39	0.500000	0.668670	0.168670
Cu401	Cu40	0.500000	0.626560	0.126560
O4231	O423	0.500000	0.592800	0.092800
O4241	O424	0.500000	0.702740	0.202740
Cu411	Cu41	0.000000	0.831330	0.831330
Cu421	Cu42	0.000000	0.873440	0.873440
O4251	O425	0.000000	0.907200	0.907200
O4261	O426	0.000000	0.797260	0.797260
Cu431	Cu43	0.000000	0.331330	0.331330
Cu441	Cu44	0.000000	0.373440	0.373440
O4271	O427	0.000000	0.407200	0.407200
O4281	O428	0.000000	0.297260	0.297260
Cu451	Cu45	0.500000	0.831330	0.331330
Cu461	Cu46	0.500000	0.873440	0.373440
O4291	O429	0.500000	0.907200	0.407200
O4301	O430	0.500000	0.797260	0.297260
Cu471	Cu47	0.500000	0.331330	0.831330
Cu481	Cu48	0.500000	0.373440	0.873440
O4311	O431	0.500000	0.407200	0.907200
O4321	O432	0.500000	0.297260	0.797260
Cu491	Cu49	0.000000	0.831330	0.168670
Cu501	Cu50	0.000000	0.873440	0.126560
O4331	O433	0.000000	0.907200	0.092800
O4341	O434	0.000000	0.797260	0.202740
Cu511	Cu51	0.000000	0.331330	0.668670
Cu521	Cu52	0.000000	0.373440	0.626560
O4351	O435	0.000000	0.407200	0.592800
O4361	O436	0.000000	0.297260	0.702740
Cu531	Cu53	0.500000	0.831330	0.668670
Cu541	Cu54	0.500000	0.873440	0.626560
O4371	O437	0.500000	0.907200	0.592800
O4381	O438	0.500000	0.797260	0.702740
Cu551	Cu55	0.500000	0.331330	0.168670
Cu561	Cu56	0.500000	0.373440	0.126560
O4391	O439	0.500000	0.407200	0.092800
O4401	O440	0.500000	0.297260	0.202740
Cu571	Cu57	0.000000	0.168670	0.831330
Cu581	Cu58	0.000000	0.126560	0.873440
O4411	O441	0.000000	0.092800	0.907200
O4421	O442	0.000000	0.202740	0.797260
Cu591	Cu59	0.000000	0.668670	0.331330
Cu601	Cu60	0.000000	0.626560	0.373440
O4431	O443	0.000000	0.592800	0.407200
O4441	O444	0.000000	0.702740	0.297260
Cu611	Cu61	0.500000	0.168670	0.331330
Cu621	Cu62	0.500000	0.126560	0.373440
O4451	O445	0.500000	0.092800	0.407200
O4461	O446	0.500000	0.202740	0.297260
Cu631	Cu63	0.500000	0.668670	0.831330
Cu641	Cu64	0.500000	0.626560	0.873440
O4471	O447	0.500000	0.592800	0.907200
O4481	O448	0.500000	0.702740	0.797260
Cu651	Cu65	0.168670	0.000000	0.168670
Cu661	Cu66	0.126560	0.000000	0.126560
O4491	O449	0.092800	0.000000	0.092800
O4501	O450	0.202740	0.000000	0.202740
Cu671	Cu67	0.168670	0.500000	0.668670
Cu681	Cu68	0.126560	0.500000	0.626560
O4511	O451	0.092800	0.500000	0.592800
O4521	O452	0.202740	0.500000	0.702740
Cu691	Cu69	0.668670	0.000000	0.668670
Cu701	Cu70	0.626560	0.000000	0.626560
O4531	O453	0.592800	0.000000	0.592800
O4541	O454	0.702740	0.000000	0.702740
Cu711	Cu71	0.668670	0.500000	0.168670
Cu721	Cu72	0.626560	0.500000	0.126560
O4551	O455	0.592800	0.500000	0.092800
O4561	O456	0.702740	0.500000	0.202740
Cu731	Cu73	0.831330	0.000000	0.831330
Cu741	Cu74	0.873440	0.000000	0.873440
O4571	O457	0.907200	0.000000	0.907200
O4581	O458	0.797260	0.000000	0.797260
Cu751	Cu75	0.831330	0.500000	0.331330
Cu761	Cu76	0.873440	0.500000	0.373440
O4591	O459	0.907200	0.500000	0.407200
O4601	O460	0.797260	0.500000	0.297260
Cu771	Cu77	0.331330	0.000000	0.331330
Cu781	Cu78	0.373440	0.000000	0.373440
O4611	O461	0.407200	0.000000	0.407200
O4621	O462	0.297260	0.000000	0.297260
Cu791	Cu79	0.331330	0.500000	0.831330
Cu801	Cu80	0.373440	0.500000	0.873440
O4631	O463	0.407200	0.500000	0.907200
O4641	O464	0.297260	0.500000	0.797260
Cu811	Cu81	0.168670	0.000000	0.831330
Cu821	Cu82	0.126560	0.000000	0.873440
O4651	O465	0.092800	0.000000	0.907200
O4661	O466	0.202740	0.000000	0.797260
Cu831	Cu83	0.168670	0.500000	0.331330
Cu841	Cu84	0.126560	0.500000	0.373440
O4671	O467	0.092800	0.500000	0.407200
O4681	O468	0.202740	0.500000	0.297260
Cu851	Cu85	0.668670	0.000000	0.331330
Cu861	Cu86	0.626560	0.000000	0.373440
O4691	O469	0.592800	0.000000	0.407200
O4701	O470	0.702740	0.000000	0.297260
Cu871	Cu87	0.668670	0.500000	0.831330
Cu881	Cu88	0.626560	0.500000	0.873440
O4711	O471	0.592800	0.500000	0.907200
O4721	O472	0.702740	0.500000	0.797260
Cu891	Cu89	0.831330	0.000000	0.168670
Cu901	Cu90	0.873440	0.000000	0.126560
O4731	O473	0.907200	0.000000	0.092800
O4741	O474	0.797260	0.000000	0.202740
Cu911	Cu91	0.831330	0.500000	0.668670
Cu921	Cu92	0.873440	0.500000	0.626560
O4751	O475	0.907200	0.500000	0.592800
O4761	O476	0.797260	0.500000	0.702740
Cu931	Cu93	0.331330	0.000000	0.668670
Cu941	Cu94	0.373440	0.000000	0.626560
O4771	O477	0.407200	0.000000	0.592800
O4781	O478	0.297260	0.000000	0.702740
Cu951	Cu95	0.331330	0.500000	0.168670
Cu961	Cu96	0.373440	0.500000	0.126560
O4791	O479	0.407200	0.500000	0.092800
O4801	O480	0.297260	0.500000	0.202740
Cu971	Cu97	0.325040	0.174960	0.121950
O4811	O481	0.304200	0.195800	0.089100
Cu981	Cu98	0.325040	0.674960	0.621950
O4821	O482	0.304200	0.695800	0.589100
Cu991	Cu99	0.674960	0.825040	0.121950
O4831	O483	0.695800	0.804200	0.089100
Cu1001	Cu100	0.674960	0.325040	0.621950
O4841	O484	0.695800	0.304200	0.589100
Cu1011	Cu101	0.174960	0.325040	0.121950
O4851	O485	0.195800	0.304200	0.089100
Cu1021	Cu102	0.674960	0.174960	0.878050
O4861	O486	0.695800	0.195800	0.910900
Cu1031	Cu103	0.674960	0.674960	0.378050
O4871	O487	0.695800	0.695800	0.410900
Cu1041	Cu104	0.174960	0.174960	0.378050
O4881	O488	0.195800	0.195800	0.410900
Cu1051	Cu105	0.325040	0.825040	0.878050
O4891	O489	0.304200	0.804200	0.910900
Cu1061	Cu106	0.325040	0.325040	0.378050
O4901	O490	0.304200	0.304200	0.410900
Cu1071	Cu107	0.121950	0.325040	0.174960
O4911	O491	0.089100	0.304200	0.195800
Cu1081	Cu108	0.621950	0.325040	0.674960
O4921	O492	0.589100	0.304200	0.695800
Cu1091	Cu109	0.121950	0.674960	0.825040
O4931	O493	0.089100	0.695800	0.804200
Cu1101	Cu110	0.121950	0.174960	0.325040
O4941	O494	0.089100	0.195800	0.304200
Cu1111	Cu111	0.621950	0.674960	0.325040
O4951	O495	0.589100	0.695800	0.304200
Cu1121	Cu112	0.878050	0.674960	0.174960
O4961	O496	0.910900	0.695800	0.195800
Cu1131	Cu113	0.378050	0.674960	0.674960
O4971	O497	0.410900	0.695800	0.695800
Cu1141	Cu114	0.378050	0.174960	0.174960
O4981	O498	0.410900	0.195800	0.195800
Cu1151	Cu115	0.878050	0.325040	0.825040
O4991	O499	0.910900	0.304200	0.804200
Cu1161	Cu116	0.378050	0.325040	0.325040
O5001	O500	0.410900	0.304200	0.304200
Cu1171	Cu117	0.174960	0.121950	0.325040
O5011	O501	0.195800	0.089100	0.304200
Cu1181	Cu118	0.174960	0.621950	0.825040
O5021	O502	0.195800	0.589100	0.804200
Cu1191	Cu119	0.825040	0.121950	0.674960
O5031	O503	0.804200	0.089100	0.695800
Cu1201	Cu120	0.825040	0.621950	0.174960
O5041	O504	0.804200	0.589100	0.195800
Cu1211	Cu121	0.325040	0.121950	0.174960
O5051	O505	0.304200	0.089100	0.195800
Cu1221	Cu122	0.174960	0.878050	0.674960
O5061	O506	0.195800	0.910900	0.695800
Cu1231	Cu123	0.174960	0.378050	0.174960
O5071	O507	0.195800	0.410900	0.195800
Cu1241	Cu124	0.825040	0.878050	0.325040
O5081	O508	0.804200	0.910900	0.304200
Cu1251	Cu125	0.825040	0.378050	0.825040
O5091	O509	0.804200	0.410900	0.804200
Cu1261	Cu126	0.325040	0.378050	0.325040
O5101	O510	0.304200	0.410900	0.304200
Cu1271	Cu127	0.174960	0.325040	0.878050
O5111	O511	0.195800	0.304200	0.910900
Cu1281	Cu128	0.174960	0.825040	0.378050
O5121	O512	0.195800	0.804200	0.410900
Cu1291	Cu129	0.825040	0.674960	0.878050
O5131	O513	0.804200	0.695800	0.910900
Cu1301	Cu130	0.825040	0.174960	0.378050
O5141	O514	0.804200	0.195800	0.410900
Cu1311	Cu131	0.325040	0.174960	0.878050
O5151	O515	0.304200	0.195800	0.910900
Cu1321	Cu132	0.174960	0.674960	0.121950
O5161	O516	0.195800	0.695800	0.089100
Cu1331	Cu133	0.174960	0.174960	0.621950
O5171	O517	0.195800	0.195800	0.589100
Cu1341	Cu134	0.825040	0.325040	0.121950
O5181	O518	0.804200	0.304200	0.089100
Cu1351	Cu135	0.825040	0.825040	0.621950
O5191	O519	0.804200	0.804200	0.589100
Cu1361	Cu136	0.325040	0.325040	0.621950
O5201	O520	0.304200	0.304200	0.589100
Cu1371	Cu137	0.325040	0.121950	0.825040
O5211	O521	0.304200	0.089100	0.804200
Cu1381	Cu138	0.325040	0.621950	0.325040
O5221	O522	0.304200	0.589100	0.304200
Cu1391	Cu139	0.674960	0.121950	0.174960
O5231	O523	0.695800	0.089100	0.195800
Cu1401	Cu140	0.674960	0.621950	0.674960
O5241	O524	0.695800	0.589100	0.695800
Cu1411	Cu141	0.174960	0.621950	0.174960
O5251	O525	0.195800	0.589100	0.195800
Cu1421	Cu142	0.674960	0.878050	0.825040
O5261	O526	0.695800	0.910900	0.804200
Cu1431	Cu143	0.674960	0.378050	0.325040
O5271	O527	0.695800	0.410900	0.304200
Cu1441	Cu144	0.174960	0.878050	0.325040
O5281	O528	0.195800	0.910900	0.304200
Cu1451	Cu145	0.325040	0.878050	0.174960
O5291	O529	0.304200	0.910900	0.195800
Cu1461	Cu146	0.325040	0.378050	0.674960
O5301	O530	0.304200	0.410900	0.695800
Cu1471	Cu147	0.121950	0.174960	0.674960
O5311	O531	0.089100	0.195800	0.695800
Cu1481	Cu148	0.621950	0.174960	0.174960
O5321	O532	0.589100	0.195800	0.195800
Cu1491	Cu149	0.121950	0.825040	0.325040
O5331	O533	0.089100	0.804200	0.304200
Cu1501	Cu150	0.621950	0.825040	0.825040
O5341	O534	0.589100	0.804200	0.804200
Cu1511	Cu151	0.621950	0.325040	0.325040
O5351	O535	0.589100	0.304200	0.304200
Cu1521	Cu152	0.878050	0.174960	0.325040
O5361	O536	0.910900	0.195800	0.304200
Cu1531	Cu153	0.378050	0.174960	0.825040
O5371	O537	0.410900	0.195800	0.804200
Cu1541	Cu154	0.878050	0.825040	0.674960
O5381	O538	0.910900	0.804200	0.695800
Cu1551	Cu155	0.878050	0.325040	0.174960
O5391	O539	0.910900	0.304200	0.195800
Cu1561	Cu156	0.378050	0.825040	0.174960
O5401	O540	0.410900	0.804200	0.195800
Cu1571	Cu157	0.674960	0.825040	0.878050
O5411	O541	0.695800	0.804200	0.910900
Cu1581	Cu158	0.674960	0.325040	0.378050
O5421	O542	0.695800	0.304200	0.410900
Cu1591	Cu159	0.325040	0.674960	0.378050
O5431	O543	0.304200	0.695800	0.410900
Cu1601	Cu160	0.325040	0.825040	0.121950
O5441	O544	0.304200	0.804200	0.089100
Cu1611	Cu161	0.674960	0.174960	0.121950
O5451	O545	0.695800	0.195800	0.089100
Cu1621	Cu162	0.674960	0.674960	0.621950
O5461	O546	0.695800	0.695800	0.589100
Cu1631	Cu163	0.878050	0.674960	0.825040
O5471	O547	0.910900	0.695800	0.804200
Cu1641	Cu164	0.378050	0.674960	0.325040
O5481	O548	0.410900	0.695800	0.304200
Cu1651	Cu165	0.378050	0.325040	0.674960
O5491	O549	0.410900	0.304200	0.695800
Cu1661	Cu166	0.121950	0.325040	0.825040
O5501	O550	0.089100	0.304200	0.804200
Cu1671	Cu167	0.121950	0.674960	0.174960
O5511	O551	0.089100	0.695800	0.195800
Cu1681	Cu168	0.621950	0.674960	0.674960
O5521	O552	0.589100	0.695800	0.695800
Cu1691	Cu169	0.825040	0.878050	0.674960
O5531	O553	0.804200	0.910900	0.695800
Cu1701	Cu170	0.825040	0.378050	0.174960
O5541	O554	0.804200	0.410900	0.195800
Cu1711	Cu171	0.174960	0.378050	0.825040
O5551	O555	0.195800	0.410900	0.804200
Cu1721	Cu172	0.825040	0.121950	0.325040
O5561	O556	0.804200	0.089100	0.304200
Cu1731	Cu173	0.825040	0.621950	0.825040
O5571	O557	0.804200	0.589100	0.804200
Cu1741	Cu174	0.174960	0.121950	0.674960
O5581	O558	0.195800	0.089100	0.695800
Cu1751	Cu175	0.825040	0.674960	0.121950
O5591	O559	0.804200	0.695800	0.089100
Cu1761	Cu176	0.825040	0.174960	0.621950
O5601	O560	0.804200	0.195800	0.589100
Cu1771	Cu177	0.174960	0.825040	0.621950
O5611	O561	0.195800	0.804200	0.589100
Cu1781	Cu178	0.825040	0.325040	0.878050
O5621	O562	0.804200	0.304200	0.910900
Cu1791	Cu179	0.825040	0.825040	0.378050
O5631	O563	0.804200	0.804200	0.410900
Cu1801	Cu180	0.174960	0.674960	0.878050
O5641	O564	0.195800	0.695800	0.910900
Cu1811	Cu181	0.674960	0.878050	0.174960
O5651	O565	0.695800	0.910900	0.195800
Cu1821	Cu182	0.674960	0.378050	0.674960
O5661	O566	0.695800	0.410900	0.695800
Cu1831	Cu183	0.325040	0.878050	0.825040
O5671	O567	0.304200	0.910900	0.804200
Cu1841	Cu184	0.325040	0.621950	0.674960
O5681	O568	0.304200	0.589100	0.695800
Cu1851	Cu185	0.674960	0.121950	0.825040
O5691	O569	0.695800	0.089100	0.804200
Cu1861	Cu186	0.674960	0.621950	0.325040
O5701	O570	0.695800	0.589100	0.304200
Cu1871	Cu187	0.878050	0.825040	0.325040
O5711	O571	0.910900	0.804200	0.304200
Cu1881	Cu188	0.378050	0.825040	0.825040
O5721	O572	0.410900	0.804200	0.804200
Cu1891	Cu189	0.878050	0.174960	0.674960
O5731	O573	0.910900	0.195800	0.695800
Cu1901	Cu190	0.121950	0.825040	0.674960
O5741	O574	0.089100	0.804200	0.695800
Cu1911	Cu191	0.621950	0.825040	0.174960
O5751	O575	0.589100	0.804200	0.195800
Cu1921	Cu192	0.621950	0.174960	0.825040
O5761	O576	0.589100	0.195800	0.804200
O5771	O577	0.339300	0.160700	0.160700
O5781	O578	0.339300	0.660700	0.660700
O5791	O579	0.660700	0.839300	0.160700
O5801	O580	0.660700	0.339300	0.660700
O5811	O581	0.160700	0.339300	0.160700
O5821	O582	0.660700	0.160700	0.839300
O5831	O583	0.660700	0.660700	0.339300
O5841	O584	0.160700	0.160700	0.339300
O5851	O585	0.339300	0.839300	0.839300
O5861	O586	0.339300	0.339300	0.339300
O5871	O587	0.160700	0.660700	0.839300
O5881	O588	0.839300	0.660700	0.160700
O5891	O589	0.839300	0.339300	0.839300
O5901	O590	0.839300	0.160700	0.660700
O5911	O591	0.160700	0.839300	0.660700
O5921	O592	0.839300	0.839300	0.339300
O5931	O593	0.160700	0.339300	0.839300
O5941	O594	0.839300	0.660700	0.839300
O5951	O595	0.839300	0.160700	0.339300
O5961	O596	0.339300	0.160700	0.839300
O5971	O597	0.160700	0.660700	0.160700
O5981	O598	0.839300	0.339300	0.160700
O5991	O599	0.339300	0.339300	0.660700
O6001	O600	0.339300	0.660700	0.339300
O6011	O601	0.660700	0.160700	0.160700
O6021	O602	0.660700	0.660700	0.660700
O6031	O603	0.660700	0.839300	0.839300
O6041	O604	0.660700	0.339300	0.339300
O6051	O605	0.160700	0.839300	0.339300
O6061	O606	0.339300	0.839300	0.160700
O6071	O607	0.160700	0.160700	0.660700
O6081	O608	0.839300	0.839300	0.660700
C5771	C577	0.256000	0.118740	0.118740
C5781	C578	0.228100	0.103900	0.103900
C5791	C579	0.177450	0.080430	0.080430
H1931	H193	0.159550	0.072780	0.072780
C5801	C580	0.256000	0.618740	0.618740
C5811	C581	0.228100	0.603900	0.603900
C5821	C582	0.177450	0.580430	0.580430
H1941	H194	0.159550	0.572780	0.572780
C5831	C583	0.756000	0.118740	0.618740
C5841	C584	0.728100	0.103900	0.603900
C5851	C585	0.677450	0.080430	0.580430
H1951	H195	0.659550	0.072780	0.572780
C5861	C586	0.756000	0.618740	0.118740
C5871	C587	0.728100	0.603900	0.103900
C5881	C588	0.677450	0.580430	0.080430
H1961	H196	0.659550	0.572780	0.072780
C5891	C589	0.744000	0.881260	0.118740
C5901	C590	0.771900	0.896100	0.103900
C5911	C591	0.822550	0.919570	0.080430
H1971	H197	0.840450	0.927220	0.072780
C5921	C592	0.744000	0.381260	0.618740
C5931	C593	0.771900	0.396100	0.603900
C5941	C594	0.822550	0.419570	0.580430
H1981	H198	0.840450	0.427220	0.572780
C5951	C595	0.244000	0.881260	0.618740
C5961	C596	0.271900	0.896100	0.603900
C5971	C597	0.322550	0.919570	0.580430
H1991	H199	0.340450	0.927220	0.572780
C5981	C598	0.244000	0.381260	0.118740
C5991	C599	0.271900	0.396100	0.103900
C6001	C600	0.322550	0.419570	0.080430
H2001	H200	0.340450	0.427220	0.072780
C6011	C601	0.744000	0.118740	0.881260
C6021	C602	0.771900	0.103900	0.896100
C6031	C603	0.822550	0.080430	0.919570
H2011	H201	0.840450	0.072780	0.927220
C6041	C604	0.744000	0.618740	0.381260
C6051	C605	0.771900	0.603900	0.396100
C6061	C606	0.822550	0.580430	0.419570
H2021	H202	0.840450	0.572780	0.427220
C6071	C607	0.244000	0.118740	0.381260
C6081	C608	0.271900	0.103900	0.396100
C6091	C609	0.322550	0.080430	0.419570
H2031	H203	0.340450	0.072780	0.427220
C6101	C610	0.244000	0.618740	0.881260
C6111	C611	0.271900	0.603900	0.896100
C6121	C612	0.322550	0.580430	0.919570
H2041	H204	0.340450	0.572780	0.927220
C6131	C613	0.256000	0.881260	0.881260
C6141	C614	0.228100	0.896100	0.896100
C6151	C615	0.177450	0.919570	0.919570
H2051	H205	0.159550	0.927220	0.927220
C6161	C616	0.256000	0.381260	0.381260
C6171	C617	0.228100	0.396100	0.396100
C6181	C618	0.177450	0.419570	0.419570
H2061	H206	0.159550	0.427220	0.427220
C6191	C619	0.756000	0.881260	0.381260
C6201	C620	0.728100	0.896100	0.396100
C6211	C621	0.677450	0.919570	0.419570
H2071	H207	0.659550	0.927220	0.427220
C6221	C622	0.756000	0.381260	0.881260
C6231	C623	0.728100	0.396100	0.896100
C6241	C624	0.677450	0.419570	0.919570
H2081	H208	0.659550	0.427220	0.927220
C6251	C625	0.118740	0.256000	0.118740
C6261	C626	0.103900	0.228100	0.103900
C6271	C627	0.080430	0.177450	0.080430
H2091	H209	0.072780	0.159550	0.072780
C6281	C628	0.118740	0.756000	0.618740
C6291	C629	0.103900	0.728100	0.603900
C6301	C630	0.080430	0.677450	0.580430
H2101	H210	0.072780	0.659550	0.572780
C6311	C631	0.618740	0.256000	0.618740
C6321	C632	0.603900	0.228100	0.603900
C6331	C633	0.580430	0.177450	0.580430
H2111	H211	0.572780	0.159550	0.572780
C6341	C634	0.618740	0.756000	0.118740
C6351	C635	0.603900	0.728100	0.103900
C6361	C636	0.580430	0.677450	0.080430
H2121	H212	0.572780	0.659550	0.072780
C6371	C637	0.118740	0.744000	0.881260
C6381	C638	0.103900	0.771900	0.896100
C6391	C639	0.080430	0.822550	0.919570
H2131	H213	0.072780	0.840450	0.927220
C6401	C640	0.118740	0.244000	0.381260
C6411	C641	0.103900	0.271900	0.396100
C6421	C642	0.080430	0.322550	0.419570
H2141	H214	0.072780	0.340450	0.427220
C6431	C643	0.618740	0.744000	0.381260
C6441	C644	0.603900	0.771900	0.396100
C6451	C645	0.580430	0.822550	0.419570
H2151	H215	0.572780	0.840450	0.427220
C6461	C646	0.618740	0.244000	0.881260
C6471	C647	0.603900	0.271900	0.896100
C6481	C648	0.580430	0.322550	0.919570
H2161	H216	0.572780	0.340450	0.927220
C6491	C649	0.881260	0.744000	0.118740
C6501	C650	0.896100	0.771900	0.103900
C6511	C651	0.919570	0.822550	0.080430
H2171	H217	0.927220	0.840450	0.072780
C6521	C652	0.881260	0.244000	0.618740
C6531	C653	0.896100	0.271900	0.603900
C6541	C654	0.919570	0.322550	0.580430
H2181	H218	0.927220	0.340450	0.572780
C6551	C655	0.381260	0.744000	0.618740
C6561	C656	0.396100	0.771900	0.603900
C6571	C657	0.419570	0.822550	0.580430
H2191	H219	0.427220	0.840450	0.572780
C6581	C658	0.381260	0.244000	0.118740
C6591	C659	0.396100	0.271900	0.103900
C6601	C660	0.419570	0.322550	0.080430
H2201	H220	0.427220	0.340450	0.072780
C6611	C661	0.881260	0.256000	0.881260
C6621	C662	0.896100	0.228100	0.896100
C6631	C663	0.919570	0.177450	0.919570
H2211	H221	0.927220	0.159550	0.927220
C6641	C664	0.881260	0.756000	0.381260
C6651	C665	0.896100	0.728100	0.396100
C6661	C666	0.919570	0.677450	0.419570
H2221	H222	0.927220	0.659550	0.427220
C6671	C667	0.381260	0.256000	0.381260
C6681	C668	0.396100	0.228100	0.396100
C6691	C669	0.419570	0.177450	0.419570
H2231	H223	0.427220	0.159550	0.427220
C6701	C670	0.381260	0.756000	0.881260
C6711	C671	0.396100	0.728100	0.896100
C6721	C672	0.419570	0.677450	0.919570
H2241	H224	0.427220	0.659550	0.927220
C6731	C673	0.118740	0.118740	0.256000
C6741	C674	0.103900	0.103900	0.228100
C6751	C675	0.080430	0.080430	0.177450
H2251	H225	0.072780	0.072780	0.159550
C6761	C676	0.118740	0.618740	0.756000
C6771	C677	0.103900	0.603900	0.728100
C6781	C678	0.080430	0.580430	0.677450
H2261	H226	0.072780	0.572780	0.659550
C6791	C679	0.618740	0.118740	0.756000
C6801	C680	0.603900	0.103900	0.728100
C6811	C681	0.580430	0.080430	0.677450
H2271	H227	0.572780	0.072780	0.659550
C6821	C682	0.618740	0.618740	0.256000
C6831	C683	0.603900	0.603900	0.228100
C6841	C684	0.580430	0.580430	0.177450
H2281	H228	0.572780	0.572780	0.159550
C6851	C685	0.881260	0.118740	0.744000
C6861	C686	0.896100	0.103900	0.771900
C6871	C687	0.919570	0.080430	0.822550
H2291	H229	0.927220	0.072780	0.840450
C6881	C688	0.881260	0.618740	0.244000
C6891	C689	0.896100	0.603900	0.271900
C6901	C690	0.919570	0.580430	0.322550
H2301	H230	0.927220	0.572780	0.340450
C6911	C691	0.381260	0.118740	0.244000
C6921	C692	0.396100	0.103900	0.271900
C6931	C693	0.419570	0.080430	0.322550
H2311	H231	0.427220	0.072780	0.340450
C6941	C694	0.381260	0.618740	0.744000
C6951	C695	0.396100	0.603900	0.771900
C6961	C696	0.419570	0.580430	0.822550
H2321	H232	0.427220	0.572780	0.840450
C6971	C697	0.118740	0.881260	0.744000
C6981	C698	0.103900	0.896100	0.771900
C6991	C699	0.080430	0.919570	0.822550
H2331	H233	0.072780	0.927220	0.840450
C7001	C700	0.118740	0.381260	0.244000
C7011	C701	0.103900	0.396100	0.271900
C7021	C702	0.080430	0.419570	0.322550
H2341	H234	0.072780	0.427220	0.340450
C7031	C703	0.618740	0.881260	0.244000
C7041	C704	0.603900	0.896100	0.271900
C7051	C705	0.580430	0.919570	0.322550
H2351	H235	0.572780	0.927220	0.340450
C7061	C706	0.618740	0.381260	0.744000
C7071	C707	0.603900	0.396100	0.771900
C7081	C708	0.580430	0.419570	0.822550
H2361	H236	0.572780	0.427220	0.840450
C7091	C709	0.881260	0.881260	0.256000
C7101	C710	0.896100	0.896100	0.228100
C7111	C711	0.919570	0.919570	0.177450
H2371	H237	0.927220	0.927220	0.159550
C7121	C712	0.881260	0.381260	0.756000
C7131	C713	0.896100	0.396100	0.728100
C7141	C714	0.919570	0.419570	0.677450
H2381	H238	0.927220	0.427220	0.659550
C7151	C715	0.381260	0.881260	0.756000
C7161	C716	0.396100	0.896100	0.728100
C7171	C717	0.419570	0.919570	0.677450
H2391	H239	0.427220	0.927220	0.659550
C7181	C718	0.381260	0.381260	0.256000
C7191	C719	0.396100	0.396100	0.228100
C7201	C720	0.419570	0.419570	0.177450
H2401	H240	0.427220	0.427220	0.159550
C7211	C721	0.118740	0.256000	0.881260
C7221	C722	0.103900	0.228100	0.896100
C7231	C723	0.080430	0.177450	0.919570
H2411	H241	0.072780	0.159550	0.927220
C7241	C724	0.118740	0.756000	0.381260
C7251	C725	0.103900	0.728100	0.396100
C7261	C726	0.080430	0.677450	0.419570
H2421	H242	0.072780	0.659550	0.427220
C7271	C727	0.618740	0.256000	0.381260
C7281	C728	0.603900	0.228100	0.396100
C7291	C729	0.580430	0.177450	0.419570
H2431	H243	0.572780	0.159550	0.427220
C7301	C730	0.618740	0.756000	0.881260
C7311	C731	0.603900	0.728100	0.896100
C7321	C732	0.580430	0.677450	0.919570
H2441	H244	0.572780	0.659550	0.927220
C7331	C733	0.881260	0.744000	0.881260
C7341	C734	0.896100	0.771900	0.896100
C7351	C735	0.919570	0.822550	0.919570
H2451	H245	0.927220	0.840450	0.927220
C7361	C736	0.881260	0.244000	0.381260
C7371	C737	0.896100	0.271900	0.396100
C7381	C738	0.919570	0.322550	0.419570
H2461	H246	0.927220	0.340450	0.427220
C7391	C739	0.381260	0.744000	0.381260
C7401	C740	0.396100	0.771900	0.396100
C7411	C741	0.419570	0.822550	0.419570
H2471	H247	0.427220	0.840450	0.427220
C7421	C742	0.381260	0.244000	0.881260
C7431	C743	0.396100	0.271900	0.896100
C7441	C744	0.419570	0.322550	0.919570
H2481	H248	0.427220	0.340450	0.927220
C7451	C745	0.118740	0.744000	0.118740
C7461	C746	0.103900	0.771900	0.103900
C7471	C747	0.080430	0.822550	0.080430
H2491	H249	0.072780	0.840450	0.072780
C7481	C748	0.118740	0.244000	0.618740
C7491	C749	0.103900	0.271900	0.603900
C7501	C750	0.080430	0.322550	0.580430
H2501	H250	0.072780	0.340450	0.572780
C7511	C751	0.618740	0.744000	0.618740
C7521	C752	0.603900	0.771900	0.603900
C7531	C753	0.580430	0.822550	0.580430
H2511	H251	0.572780	0.840450	0.572780
C7541	C754	0.618740	0.244000	0.118740
C7551	C755	0.603900	0.271900	0.103900
C7561	C756	0.580430	0.322550	0.080430
H2521	H252	0.572780	0.340450	0.072780
C7571	C757	0.881260	0.256000	0.118740
C7581	C758	0.896100	0.228100	0.103900
C7591	C759	0.919570	0.177450	0.080430
H2531	H253	0.927220	0.159550	0.072780
C7601	C760	0.881260	0.756000	0.618740
C7611	C761	0.896100	0.728100	0.603900
C7621	C762	0.919570	0.677450	0.580430
H2541	H254	0.927220	0.659550	0.572780
C7631	C763	0.381260	0.256000	0.618740
C7641	C764	0.396100	0.228100	0.603900
C7651	C765	0.419570	0.177450	0.580430
H2551	H255	0.427220	0.159550	0.572780
C7661	C766	0.381260	0.756000	0.118740
C7671	C767	0.396100	0.728100	0.103900
C7681	C768	0.419570	0.677450	0.080430
H2561	H256	0.427220	0.659550	0.072780
C7691	C769	0.256000	0.118740	0.881260
C7701	C770	0.228100	0.103900	0.896100
C7711	C771	0.177450	0.080430	0.919570
H2571	H257	0.159550	0.072780	0.927220
C7721	C772	0.256000	0.618740	0.381260
C7731	C773	0.228100	0.603900	0.396100
C7741	C774	0.177450	0.580430	0.419570
H2581	H258	0.159550	0.572780	0.427220
C7751	C775	0.756000	0.118740	0.381260
C7761	C776	0.728100	0.103900	0.396100
C7771	C777	0.677450	0.080430	0.419570
H2591	H259	0.659550	0.072780	0.427220
C7781	C778	0.756000	0.618740	0.881260
C7791	C779	0.728100	0.603900	0.896100
C7801	C780	0.677450	0.580430	0.919570
H2601	H260	0.659550	0.572780	0.927220
C7811	C781	0.744000	0.118740	0.118740
C7821	C782	0.771900	0.103900	0.103900
C7831	C783	0.822550	0.080430	0.080430
H2611	H261	0.840450	0.072780	0.072780
C7841	C784	0.744000	0.618740	0.618740
C7851	C785	0.771900	0.603900	0.603900
C7861	C786	0.822550	0.580430	0.580430
H2621	H262	0.840450	0.572780	0.572780
C7871	C787	0.244000	0.118740	0.618740
C7881	C788	0.271900	0.103900	0.603900
C7891	C789	0.322550	0.080430	0.580430
H2631	H263	0.340450	0.072780	0.572780
C7901	C790	0.244000	0.618740	0.118740
C7911	C791	0.271900	0.603900	0.103900
C7921	C792	0.322550	0.580430	0.080430
H2641	H264	0.340450	0.572780	0.072780
C7931	C793	0.744000	0.881260	0.881260
C7941	C794	0.771900	0.896100	0.896100
C7951	C795	0.822550	0.919570	0.919570
H2651	H265	0.840450	0.927220	0.927220
C7961	C796	0.744000	0.381260	0.381260
C7971	C797	0.771900	0.396100	0.396100
C7981	C798	0.822550	0.419570	0.419570
H2661	H266	0.840450	0.427220	0.427220
C7991	C799	0.244000	0.881260	0.381260
C8001	C800	0.271900	0.896100	0.396100
C8011	C801	0.322550	0.919570	0.419570
H2671	H267	0.340450	0.927220	0.427220
C8021	C802	0.244000	0.381260	0.881260
C8031	C803	0.271900	0.396100	0.896100
C8041	C804	0.322550	0.419570	0.919570
H2681	H268	0.340450	0.427220	0.927220
C8051	C805	0.256000	0.881260	0.118740
C8061	C806	0.228100	0.896100	0.103900
C8071	C807	0.177450	0.919570	0.080430
H2691	H269	0.159550	0.927220	0.072780
C8081	C808	0.256000	0.381260	0.618740
C8091	C809	0.228100	0.396100	0.603900
C8101	C810	0.177450	0.419570	0.580430
H2701	H270	0.159550	0.427220	0.572780
C8111	C811	0.756000	0.881260	0.618740
C8121	C812	0.728100	0.896100	0.603900
C8131	C813	0.677450	0.919570	0.580430
H2711	H271	0.659550	0.927220	0.572780
C8141	C814	0.756000	0.381260	0.118740
C8151	C815	0.728100	0.396100	0.103900
C8161	C816	0.677450	0.419570	0.080430
H2721	H272	0.659550	0.427220	0.072780
C8171	C817	0.118740	0.118740	0.744000
C8181	C818	0.103900	0.103900	0.771900
C8191	C819	0.080430	0.080430	0.822550
H2731	H273	0.072780	0.072780	0.840450
C8201	C820	0.118740	0.618740	0.244000
C8211	C821	0.103900	0.603900	0.271900
C8221	C822	0.080430	0.580430	0.322550
H2741	H274	0.072780	0.572780	0.340450
C8231	C823	0.618740	0.118740	0.244000
C8241	C824	0.603900	0.103900	0.271900
C8251	C825	0.580430	0.080430	0.322550
H2751	H275	0.572780	0.072780	0.340450
C8261	C826	0.618740	0.618740	0.744000
C8271	C827	0.603900	0.603900	0.771900
C8281	C828	0.580430	0.580430	0.822550
H2761	H276	0.572780	0.572780	0.840450
C8291	C829	0.118740	0.881260	0.256000
C8301	C830	0.103900	0.896100	0.228100
C8311	C831	0.080430	0.919570	0.177450
H2771	H277	0.072780	0.927220	0.159550
C8321	C832	0.118740	0.381260	0.756000
C8331	C833	0.103900	0.396100	0.728100
C8341	C834	0.080430	0.419570	0.677450
H2781	H278	0.072780	0.427220	0.659550
C8351	C835	0.618740	0.881260	0.756000
C8361	C836	0.603900	0.896100	0.728100
C8371	C837	0.580430	0.919570	0.677450
H2791	H279	0.572780	0.927220	0.659550
C8381	C838	0.618740	0.381260	0.256000
C8391	C839	0.603900	0.396100	0.228100
C8401	C840	0.580430	0.419570	0.177450
H2801	H280	0.572780	0.427220	0.159550
C8411	C841	0.881260	0.118740	0.256000
C8421	C842	0.896100	0.103900	0.228100
C8431	C843	0.919570	0.080430	0.177450
H2811	H281	0.927220	0.072780	0.159550
C8441	C844	0.881260	0.618740	0.756000
C8451	C845	0.896100	0.603900	0.728100
C8461	C846	0.919570	0.580430	0.677450
H2821	H282	0.927220	0.572780	0.659550
C8471	C847	0.381260	0.118740	0.756000
C8481	C848	0.396100	0.103900	0.728100
C8491	C849	0.419570	0.080430	0.677450
H2831	H283	0.427220	0.072780	0.659550
C8501	C850	0.381260	0.618740	0.256000
C8511	C851	0.396100	0.603900	0.228100
C8521	C852	0.419570	0.580430	0.177450
H2841	H284	0.427220	0.572780	0.159550
C8531	C853	0.881260	0.881260	0.744000
C8541	C854	0.896100	0.896100	0.771900
C8551	C855	0.919570	0.919570	0.822550
H2851	H285	0.927220	0.927220	0.840450
C8561	C856	0.881260	0.381260	0.244000
C8571	C857	0.896100	0.396100	0.271900
C8581	C858	0.919570	0.419570	0.322550
H2861	H286	0.927220	0.427220	0.340450
C8591	C859	0.381260	0.881260	0.244000
C8601	C860	0.396100	0.896100	0.271900
C8611	C861	0.419570	0.919570	0.322550
H2871	H287	0.427220	0.927220	0.340450
C8621	C862	0.381260	0.381260	0.744000
C8631	C863	0.396100	0.396100	0.771900
C8641	C864	0.419570	0.419570	0.822550
H2881	H288	0.427220	0.427220	0.840450
