data_ONEYOW_freeONLY_PM
_symmetry_space_group_name_H-M	'P1'
_cell_length_a	20.375600
_cell_length_b	28.392700
_cell_length_c	28.392700
_cell_angle_alpha	90.000000
_cell_angle_beta	90.000000
_cell_angle_gamma	90.000000
_symmetry_Int_Tables_number 1

loop_
_symmetry_equiv_pos_as_xyz
'x,y,z'

loop_
_atom_site_label
_atom_site_type_symbol
_atom_site_fract_x
_atom_site_fract_y
_atom_site_fract_z
Zn11	Zn1	0.641700	0.083510	0.781220
Zn21	Zn2	0.141700	0.916490	0.218780
Zn31	Zn3	0.891700	0.718780	0.583510
Zn41	Zn4	0.391700	0.281220	0.416490
Zn51	Zn5	0.608300	0.416490	0.281220
Zn61	Zn6	0.108300	0.583510	0.718780
Zn71	Zn7	0.358300	0.781220	0.083510
Zn81	Zn8	0.858300	0.218780	0.916490
Zn91	Zn9	0.750000	0.147970	0.852030
Zn101	Zn10	0.250000	0.852030	0.147970
Zn111	Zn11	0.000000	0.647970	0.647970
Zn121	Zn12	0.500000	0.352030	0.352030
H11	H1	0.538900	0.110500	0.661200
H21	H2	0.539600	0.126700	0.608400
H31	H3	0.645500	0.111300	0.662700
H41	H4	0.710700	0.133900	0.594700
H51	H5	0.647200	0.152400	0.569300
H61	H6	0.705300	0.045300	0.619700
H71	H7	0.697200	0.973400	0.590400
H81	H8	0.638000	0.959700	0.525300
H91	H9	0.565600	0.022100	0.498300
H101	H10	0.593600	0.098100	0.522600
H111	H11	0.074400	0.482600	0.800200
H121	H12	0.069700	0.429100	0.814000
H131	H13	0.082900	0.460400	0.722200
H141	H14	0.031600	0.369200	0.737600
H151	H15	0.069900	0.385900	0.692800
H161	H16	0.156500	0.329300	0.806100
H171	H17	0.268000	0.322600	0.791000
H181	H18	0.312800	0.357700	0.724600
H191	H19	0.246000	0.399400	0.673200
H201	H20	0.134500	0.406100	0.688300
H211	H21	0.812000	0.522100	0.365700
H221	H22	0.757600	0.506900	0.329000
H231	H23	0.808500	0.470200	0.399700
H241	H24	0.792900	0.394900	0.356600
H251	H25	0.800600	0.429700	0.314900
H261	H26	0.828200	0.411900	0.541900
H271	H27	0.854100	0.337600	0.661100
H281	H28	0.741500	0.284600	0.558900
H291	H29	0.856000	0.267500	0.690500
H301	H30	0.820800	0.205800	0.739700
H311	H31	0.694900	0.249300	0.613500
H321	H32	0.886000	0.463800	0.565100
H331	H33	0.942000	0.523000	0.592200
H341	H34	0.914900	0.392200	0.685600
H351	H35	0.692900	0.295900	0.494400
H361	H36	0.648600	0.305400	0.422600
H371	H37	0.785600	0.416400	0.481700
H381	H38	0.038900	0.889500	0.338800
H391	H39	0.039600	0.873300	0.391600
H401	H40	0.145500	0.888700	0.337300
H411	H41	0.210700	0.866100	0.405300
H421	H42	0.147200	0.847600	0.430700
H431	H43	0.205300	0.954700	0.380300
H441	H44	0.197200	0.026600	0.409600
H451	H45	0.138000	0.040300	0.474700
H461	H46	0.065600	0.977900	0.501700
H471	H47	0.093600	0.901900	0.477400
H481	H48	0.574400	0.517400	0.199800
H491	H49	0.569700	0.570900	0.186000
H501	H50	0.582900	0.539600	0.277800
H511	H51	0.531600	0.630800	0.262400
H521	H52	0.569900	0.614100	0.307200
H531	H53	0.656500	0.670700	0.193900
H541	H54	0.768000	0.677400	0.209000
H551	H55	0.812800	0.642300	0.275400
H561	H56	0.746000	0.600600	0.326800
H571	H57	0.634500	0.593900	0.311700
H581	H58	0.312000	0.477900	0.634300
H591	H59	0.257600	0.493100	0.671000
H601	H60	0.308500	0.529800	0.600300
H611	H61	0.292900	0.605100	0.643400
H621	H62	0.300600	0.570300	0.685100
H631	H63	0.328200	0.588100	0.458100
H641	H64	0.354100	0.662400	0.338900
H651	H65	0.241500	0.715400	0.441100
H661	H66	0.356000	0.732500	0.309500
H671	H67	0.320800	0.794200	0.260300
H681	H68	0.194900	0.750700	0.386500
H691	H69	0.386000	0.536200	0.434900
H701	H70	0.442000	0.477000	0.407800
H711	H71	0.414900	0.607800	0.314400
H721	H72	0.192900	0.704100	0.505600
H731	H73	0.148600	0.694600	0.577400
H741	H74	0.285600	0.583600	0.518300
H751	H75	0.788900	0.838800	0.610500
H761	H76	0.789600	0.891600	0.626700
H771	H77	0.895500	0.837300	0.611300
H781	H78	0.960700	0.905300	0.633900
H791	H79	0.897200	0.930700	0.652400
H801	H80	0.955300	0.880300	0.545300
H811	H81	0.947200	0.909600	0.473400
H821	H82	0.888000	0.974700	0.459700
H831	H83	0.815600	0.001700	0.522100
H841	H84	0.843600	0.977400	0.598100
H851	H85	0.324400	0.699800	0.982600
H861	H86	0.319700	0.686000	0.929100
H871	H87	0.332900	0.777800	0.960400
H881	H88	0.281600	0.762400	0.869200
H891	H89	0.319900	0.807200	0.885900
H901	H90	0.406500	0.693900	0.829300
H911	H91	0.518000	0.709000	0.822600
H921	H92	0.562800	0.775400	0.857700
H931	H93	0.496000	0.826800	0.899400
H941	H94	0.384500	0.811700	0.906100
H951	H95	0.062000	0.134300	0.022100
H961	H96	0.007600	0.171000	0.006900
H971	H97	0.058500	0.100300	0.970200
H981	H98	0.042900	0.143400	0.894900
H991	H99	0.050600	0.185100	0.929700
H1001	H100	0.078200	0.958100	0.911900
H1011	H101	0.104100	0.838900	0.837600
H1021	H102	0.991500	0.941100	0.784600
H1031	H103	0.106000	0.809500	0.767500
H1041	H104	0.070800	0.760300	0.705800
H1051	H105	0.944900	0.886500	0.749300
H1061	H106	0.136000	0.934900	0.963800
H1071	H107	0.192000	0.907800	0.023000
H1081	H108	0.164900	0.814400	0.892200
H1091	H109	0.942900	0.005600	0.795900
H1101	H110	0.898600	0.077400	0.805400
H1111	H111	0.035600	0.018300	0.916400
H1121	H112	0.288900	0.161200	0.389500
H1131	H113	0.289600	0.108400	0.373300
H1141	H114	0.395500	0.162700	0.388700
H1151	H115	0.460700	0.094700	0.366100
H1161	H116	0.397200	0.069300	0.347600
H1171	H117	0.455300	0.119700	0.454700
H1181	H118	0.447200	0.090400	0.526600
H1191	H119	0.388000	0.025300	0.540300
H1201	H120	0.315600	0.998300	0.477900
H1211	H121	0.343600	0.022600	0.401900
H1221	H122	0.824400	0.300200	0.017400
H1231	H123	0.819700	0.314000	0.070900
H1241	H124	0.832900	0.222200	0.039600
H1251	H125	0.781600	0.237600	0.130800
H1261	H126	0.819900	0.192800	0.114100
H1271	H127	0.906500	0.306100	0.170700
H1281	H128	0.018000	0.291000	0.177400
H1291	H129	0.062800	0.224600	0.142300
H1301	H130	0.996000	0.173200	0.100600
H1311	H131	0.884500	0.188300	0.093900
H1321	H132	0.562000	0.865700	0.977900
H1331	H133	0.507600	0.829000	0.993100
H1341	H134	0.558500	0.899700	0.029800
H1351	H135	0.542900	0.856600	0.105100
H1361	H136	0.550600	0.814900	0.070300
H1371	H137	0.578200	0.041900	0.088100
H1381	H138	0.604100	0.161100	0.162400
H1391	H139	0.491500	0.058900	0.215400
H1401	H140	0.606000	0.190500	0.232500
H1411	H141	0.570800	0.239700	0.294200
H1421	H142	0.444900	0.113500	0.250700
H1431	H143	0.636000	0.065100	0.036200
H1441	H144	0.692000	0.092200	0.977000
H1451	H145	0.664900	0.185600	0.107800
H1461	H146	0.442900	0.994400	0.204100
H1471	H147	0.398600	0.922600	0.194600
H1481	H148	0.535600	0.981700	0.083600
H1491	H149	0.711100	0.389500	0.161200
H1501	H150	0.710400	0.373300	0.108400
H1511	H151	0.604500	0.388700	0.162700
H1521	H152	0.539300	0.366100	0.094700
H1531	H153	0.602800	0.347600	0.069300
H1541	H154	0.544700	0.454700	0.119700
H1551	H155	0.552800	0.526600	0.090400
H1561	H156	0.612000	0.540300	0.025300
H1571	H157	0.684400	0.477900	0.998300
H1581	H158	0.656400	0.401900	0.022600
H1591	H159	0.175600	0.017400	0.300200
H1601	H160	0.180300	0.070900	0.314000
H1611	H161	0.167100	0.039600	0.222200
H1621	H162	0.218400	0.130800	0.237600
H1631	H163	0.180100	0.114100	0.192800
H1641	H164	0.093500	0.170700	0.306100
H1651	H165	0.982000	0.177400	0.291000
H1661	H166	0.937200	0.142300	0.224600
H1671	H167	0.004000	0.100600	0.173200
H1681	H168	0.115500	0.093900	0.188300
H1691	H169	0.438000	0.977900	0.865700
H1701	H170	0.492400	0.993100	0.829000
H1711	H171	0.441500	0.029800	0.899700
H1721	H172	0.457100	0.105100	0.856600
H1731	H173	0.449400	0.070300	0.814900
H1741	H174	0.421800	0.088100	0.041900
H1751	H175	0.395900	0.162400	0.161100
H1761	H176	0.508500	0.215400	0.058900
H1771	H177	0.394000	0.232500	0.190500
H1781	H178	0.429200	0.294200	0.239700
H1791	H179	0.555100	0.250700	0.113500
H1801	H180	0.364000	0.036200	0.065100
H1811	H181	0.308000	0.977000	0.092200
H1821	H182	0.335100	0.107800	0.185600
H1831	H183	0.557100	0.204100	0.994400
H1841	H184	0.601400	0.194600	0.922600
H1851	H185	0.464400	0.083600	0.981700
H1861	H186	0.211100	0.610500	0.838800
H1871	H187	0.210400	0.626700	0.891600
H1881	H188	0.104500	0.611300	0.837300
H1891	H189	0.039300	0.633900	0.905300
H1901	H190	0.102800	0.652400	0.930700
H1911	H191	0.044700	0.545300	0.880300
H1921	H192	0.052800	0.473400	0.909600
H1931	H193	0.112000	0.459700	0.974700
H1941	H194	0.184400	0.522100	0.001700
H1951	H195	0.156400	0.598100	0.977400
H1961	H196	0.675600	0.982600	0.699800
H1971	H197	0.680300	0.929100	0.686000
H1981	H198	0.667100	0.960400	0.777800
H1991	H199	0.718400	0.869200	0.762400
H2001	H200	0.680100	0.885900	0.807200
H2011	H201	0.593500	0.829300	0.693900
H2021	H202	0.482000	0.822600	0.709000
H2031	H203	0.437200	0.857700	0.775400
H2041	H204	0.504000	0.899400	0.826800
H2051	H205	0.615500	0.906100	0.811700
H2061	H206	0.938000	0.022100	0.134300
H2071	H207	0.992400	0.006900	0.171000
H2081	H208	0.941500	0.970200	0.100300
H2091	H209	0.957100	0.894900	0.143400
H2101	H210	0.949400	0.929700	0.185100
H2111	H211	0.921800	0.911900	0.958100
H2121	H212	0.895900	0.837600	0.838900
H2131	H213	0.008500	0.784600	0.941100
H2141	H214	0.894000	0.767500	0.809500
H2151	H215	0.929200	0.705800	0.760300
H2161	H216	0.055100	0.749300	0.886500
H2171	H217	0.864000	0.963800	0.934900
H2181	H218	0.808000	0.023000	0.907800
H2191	H219	0.835100	0.892200	0.814400
H2201	H220	0.057100	0.795900	0.005600
H2211	H221	0.101400	0.805400	0.077400
H2221	H222	0.964400	0.916400	0.018300
H2231	H223	0.461100	0.661200	0.110500
H2241	H224	0.460400	0.608400	0.126700
H2251	H225	0.354500	0.662700	0.111300
H2261	H226	0.289300	0.594700	0.133900
H2271	H227	0.352800	0.569300	0.152400
H2281	H228	0.294700	0.619700	0.045300
H2291	H229	0.302800	0.590400	0.973400
H2301	H230	0.362000	0.525300	0.959700
H2311	H231	0.434400	0.498300	0.022100
H2321	H232	0.406400	0.522600	0.098100
H2331	H233	0.925600	0.800200	0.482600
H2341	H234	0.930300	0.814000	0.429100
H2351	H235	0.917100	0.722200	0.460400
H2361	H236	0.968400	0.737600	0.369200
H2371	H237	0.930100	0.692800	0.385900
H2381	H238	0.843500	0.806100	0.329300
H2391	H239	0.732000	0.791000	0.322600
H2401	H240	0.687200	0.724600	0.357700
H2411	H241	0.754000	0.673200	0.399400
H2421	H242	0.865500	0.688300	0.406100
H2431	H243	0.188000	0.365700	0.522100
H2441	H244	0.242400	0.329000	0.506900
H2451	H245	0.191500	0.399700	0.470200
H2461	H246	0.207100	0.356600	0.394900
H2471	H247	0.199400	0.314900	0.429700
H2481	H248	0.171800	0.541900	0.411900
H2491	H249	0.145900	0.661100	0.337600
H2501	H250	0.258500	0.558900	0.284600
H2511	H251	0.144000	0.690500	0.267500
H2521	H252	0.179200	0.739700	0.205800
H2531	H253	0.305100	0.613500	0.249300
H2541	H254	0.114000	0.565100	0.463800
H2551	H255	0.058000	0.592200	0.523000
H2561	H256	0.085100	0.685600	0.392200
H2571	H257	0.307100	0.494400	0.295900
H2581	H258	0.351400	0.422600	0.305400
H2591	H259	0.214400	0.481700	0.416400
H2601	H260	0.961100	0.338800	0.889500
H2611	H261	0.960400	0.391600	0.873300
H2621	H262	0.854500	0.337300	0.888700
H2631	H263	0.789300	0.405300	0.866100
H2641	H264	0.852800	0.430700	0.847600
H2651	H265	0.794700	0.380300	0.954700
H2661	H266	0.802800	0.409600	0.026600
H2671	H267	0.862000	0.474700	0.040300
H2681	H268	0.934400	0.501700	0.977900
H2691	H269	0.906400	0.477400	0.901900
H2701	H270	0.425600	0.199800	0.517400
H2711	H271	0.430300	0.186000	0.570900
H2721	H272	0.417100	0.277800	0.539600
H2731	H273	0.468400	0.262400	0.630800
H2741	H274	0.430100	0.307200	0.614100
H2751	H275	0.343500	0.193900	0.670700
H2761	H276	0.232000	0.209000	0.677400
H2771	H277	0.187200	0.275400	0.642300
H2781	H278	0.254000	0.326800	0.600600
H2791	H279	0.365500	0.311700	0.593900
H2801	H280	0.688000	0.634300	0.477900
H2811	H281	0.742400	0.671000	0.493100
H2821	H282	0.691500	0.600300	0.529800
H2831	H283	0.707100	0.643400	0.605100
H2841	H284	0.699400	0.685100	0.570300
H2851	H285	0.671800	0.458100	0.588100
H2861	H286	0.645900	0.338900	0.662400
H2871	H287	0.758500	0.441100	0.715400
H2881	H288	0.644000	0.309500	0.732500
H2891	H289	0.679200	0.260300	0.794200
H2901	H290	0.805100	0.386500	0.750700
H2911	H291	0.614000	0.434900	0.536200
H2921	H292	0.558000	0.407800	0.477000
H2931	H293	0.585100	0.314400	0.607800
H2941	H294	0.807100	0.505600	0.704100
H2951	H295	0.851400	0.577400	0.694600
H2961	H296	0.714400	0.518300	0.583600
C11	C1	0.581500	0.205400	0.666200
C21	C2	0.554900	0.134400	0.639800
C31	C3	0.628900	0.134800	0.640400
C41	C4	0.663800	0.129100	0.591200
C51	C5	0.650500	0.079900	0.572500
C61	C6	0.680200	0.040900	0.592800
C71	C7	0.674800	0.998000	0.575900
C81	C8	0.638400	0.989400	0.539100
C91	C9	0.598500	0.027400	0.520400
C101	C10	0.612700	0.072300	0.537500
C111	C11	0.947900	0.461000	0.767200
C121	C12	0.050300	0.453700	0.794900
C131	C13	0.053200	0.439200	0.739300
C141	C14	0.067770	0.388620	0.726830
C151	C15	0.134430	0.368320	0.748670
C161	C16	0.174430	0.343320	0.779450
C171	C17	0.241240	0.339330	0.770430
C181	C18	0.268060	0.360340	0.730620
C191	C19	0.228060	0.385340	0.699830
C201	C20	0.161250	0.389340	0.708860
C211	C21	0.696540	0.486620	0.415600
C221	C22	0.770200	0.506080	0.361970
C231	C23	0.773400	0.464240	0.376870
C241	C24	0.812870	0.424620	0.347560
C251	C25	0.821700	0.384750	0.559610
C261	C26	0.851200	0.380200	0.604000
C271	C27	0.836100	0.340200	0.631100
C281	C28	0.795600	0.304900	0.615200
C291	C29	0.768600	0.308400	0.570200
C301	C30	0.781800	0.347700	0.541800
C311	C31	0.776800	0.265600	0.646900
C321	C32	0.816300	0.252400	0.684800
C331	C33	0.794200	0.214900	0.714800
C341	C34	0.736300	0.192300	0.708300
C351	C35	0.698800	0.203700	0.669800
C361	C36	0.720600	0.241400	0.639400
C371	C37	0.892300	0.418400	0.621800
C381	C38	0.903800	0.461400	0.595100
C391	C39	0.937600	0.496400	0.611000
C401	C40	0.968400	0.496300	0.656200
C411	C41	0.958500	0.456500	0.682400
C421	C42	0.920800	0.418200	0.666200
C431	C43	0.748700	0.353500	0.494500
C441	C44	0.704100	0.322300	0.476800
C451	C45	0.675800	0.329000	0.434400
C461	C46	0.685200	0.368700	0.407600
C471	C47	0.727000	0.403100	0.428000
C481	C48	0.757300	0.393800	0.469500
C491	C49	0.717900	0.157000	0.745800
C501	C50	0.005400	0.539100	0.671600
C511	C51	0.646400	0.376400	0.363900
C521	C52	0.527700	0.051400	0.737400
C531	C53	0.513800	0.004900	0.670500
C541	C54	0.410000	0.033000	0.722000
C551	C55	0.511000	0.956000	0.659000
C561	C56	0.081500	0.794600	0.333800
C571	C57	0.054900	0.865600	0.360200
C581	C58	0.128900	0.865200	0.359600
C591	C59	0.163800	0.870900	0.408800
C601	C60	0.150500	0.920100	0.427500
C611	C61	0.180200	0.959100	0.407200
C621	C62	0.174800	0.002000	0.424100
C631	C63	0.138400	0.010600	0.460900
C641	C64	0.098500	0.972600	0.479600
C651	C65	0.112700	0.927700	0.462500
C661	C66	0.447900	0.539000	0.232800
C671	C67	0.550300	0.546300	0.205100
C681	C68	0.553200	0.560800	0.260700
C691	C69	0.567770	0.611380	0.273170
C701	C70	0.634430	0.631680	0.251330
C711	C71	0.674430	0.656680	0.220550
C721	C72	0.741240	0.660670	0.229570
C731	C73	0.768060	0.639660	0.269380
C741	C74	0.728060	0.614660	0.300170
C751	C75	0.661250	0.610660	0.291140
C761	C76	0.196540	0.513380	0.584400
C771	C77	0.270200	0.493920	0.638030
C781	C78	0.273400	0.535760	0.623130
C791	C79	0.312870	0.575380	0.652440
C801	C80	0.321700	0.615250	0.440390
C811	C81	0.351200	0.619800	0.396000
C821	C82	0.336100	0.659800	0.368900
C831	C83	0.295600	0.695100	0.384800
C841	C84	0.268600	0.691600	0.429800
C851	C85	0.281800	0.652300	0.458200
C861	C86	0.276800	0.734400	0.353100
C871	C87	0.316300	0.747600	0.315200
C881	C88	0.294200	0.785100	0.285200
C891	C89	0.236300	0.807700	0.291700
C901	C90	0.198800	0.796300	0.330200
C911	C91	0.220600	0.758600	0.360600
C921	C92	0.392300	0.581600	0.378200
C931	C93	0.403800	0.538600	0.404900
C941	C94	0.437600	0.503600	0.389000
C951	C95	0.468400	0.503700	0.343800
C961	C96	0.458500	0.543500	0.317600
C971	C97	0.420800	0.581800	0.333800
C981	C98	0.248700	0.646500	0.505500
C991	C99	0.204100	0.677700	0.523200
C1001	C100	0.175800	0.671000	0.565600
C1011	C101	0.185200	0.631300	0.592400
C1021	C102	0.227000	0.596900	0.572000
C1031	C103	0.257300	0.606200	0.530500
C1041	C104	0.217900	0.843000	0.254200
C1051	C105	0.505400	0.460900	0.328400
C1061	C106	0.146400	0.623600	0.636100
C1071	C107	0.027700	0.948600	0.262600
C1081	C108	0.013800	0.995100	0.329500
C1091	C109	0.910000	0.967000	0.278000
C1101	C110	0.011000	0.044000	0.341000
C1111	C111	0.831500	0.833800	0.705400
C1121	C112	0.804900	0.860200	0.634400
C1131	C113	0.878900	0.859600	0.634800
C1141	C114	0.913800	0.908800	0.629100
C1151	C115	0.900500	0.927500	0.579900
C1161	C116	0.930200	0.907200	0.540900
C1171	C117	0.924800	0.924100	0.498000
C1181	C118	0.888400	0.960900	0.489400
C1191	C119	0.848500	0.979600	0.527400
C1201	C120	0.862700	0.962500	0.572300
C1211	C121	0.197900	0.732800	0.961000
C1221	C122	0.300300	0.705100	0.953700
C1231	C123	0.303200	0.760700	0.939200
C1241	C124	0.317770	0.773170	0.888620
C1251	C125	0.384430	0.751330	0.868320
C1261	C126	0.424430	0.720550	0.843320
C1271	C127	0.491240	0.729570	0.839330
C1281	C128	0.518060	0.769380	0.860340
C1291	C129	0.478060	0.800170	0.885340
C1301	C130	0.411250	0.791140	0.889340
C1311	C131	0.946540	0.084400	0.986620
C1321	C132	0.020200	0.138030	0.006080
C1331	C133	0.023400	0.123130	0.964240
C1341	C134	0.062870	0.152440	0.924620
C1351	C135	0.071700	0.940390	0.884750
C1361	C136	0.101200	0.896000	0.880200
C1371	C137	0.086100	0.868900	0.840200
C1381	C138	0.045600	0.884800	0.804900
C1391	C139	0.018600	0.929800	0.808400
C1401	C140	0.031800	0.958200	0.847700
C1411	C141	0.026800	0.853100	0.765600
C1421	C142	0.066300	0.815200	0.752400
C1431	C143	0.044200	0.785200	0.714900
C1441	C144	0.986300	0.791700	0.692300
C1451	C145	0.948800	0.830200	0.703700
C1461	C146	0.970600	0.860600	0.741400
C1471	C147	0.142300	0.878200	0.918400
C1481	C148	0.153800	0.904900	0.961400
C1491	C149	0.187600	0.889000	0.996400
C1501	C150	0.218400	0.843800	0.996300
C1511	C151	0.208500	0.817600	0.956500
C1521	C152	0.170800	0.833800	0.918200
C1531	C153	0.998700	0.005500	0.853500
C1541	C154	0.954100	0.023200	0.822300
C1551	C155	0.925800	0.065600	0.829000
C1561	C156	0.935200	0.092400	0.868700
C1571	C157	0.977000	0.072000	0.903100
C1581	C158	0.007300	0.030500	0.893800
C1591	C159	0.967900	0.754200	0.657000
C1601	C160	0.255400	0.828400	0.039100
C1611	C161	0.896400	0.136100	0.876400
C1621	C162	0.777700	0.762600	0.551400
C1631	C163	0.763800	0.829500	0.504900
C1641	C164	0.660000	0.778000	0.533000
C1651	C165	0.761000	0.841000	0.456000
C1661	C166	0.331500	0.166200	0.294600
C1671	C167	0.304900	0.139800	0.365600
C1681	C168	0.378900	0.140400	0.365200
C1691	C169	0.413800	0.091200	0.370900
C1701	C170	0.400500	0.072500	0.420100
C1711	C171	0.430200	0.092800	0.459100
C1721	C172	0.424800	0.075900	0.502000
C1731	C173	0.388400	0.039100	0.510600
C1741	C174	0.348500	0.020400	0.472600
C1751	C175	0.362700	0.037500	0.427700
C1761	C176	0.697900	0.267200	0.039000
C1771	C177	0.800300	0.294900	0.046300
C1781	C178	0.803200	0.239300	0.060800
C1791	C179	0.817770	0.226830	0.111380
C1801	C180	0.884430	0.248670	0.131680
C1811	C181	0.924430	0.279450	0.156680
C1821	C182	0.991240	0.270430	0.160670
C1831	C183	0.018060	0.230620	0.139660
C1841	C184	0.978060	0.199830	0.114660
C1851	C185	0.911250	0.208860	0.110660
C1861	C186	0.446540	0.915600	0.013380
C1871	C187	0.520200	0.861970	0.993920
C1881	C188	0.523400	0.876870	0.035760
C1891	C189	0.562870	0.847560	0.075380
C1901	C190	0.571700	0.059610	0.115250
C1911	C191	0.601200	0.104000	0.119800
C1921	C192	0.586100	0.131100	0.159800
C1931	C193	0.545600	0.115200	0.195100
C1941	C194	0.518600	0.070200	0.191600
C1951	C195	0.531800	0.041800	0.152300
C1961	C196	0.526800	0.146900	0.234400
C1971	C197	0.566300	0.184800	0.247600
C1981	C198	0.544200	0.214800	0.285100
C1991	C199	0.486300	0.208300	0.307700
C2001	C200	0.448800	0.169800	0.296300
C2011	C201	0.470600	0.139400	0.258600
C2021	C202	0.642300	0.121800	0.081600
C2031	C203	0.653800	0.095100	0.038600
C2041	C204	0.687600	0.111000	0.003600
C2051	C205	0.718400	0.156200	0.003700
C2061	C206	0.708500	0.182400	0.043500
C2071	C207	0.670800	0.166200	0.081800
C2081	C208	0.498700	0.994500	0.146500
C2091	C209	0.454100	0.976800	0.177700
C2101	C210	0.425800	0.934400	0.171000
C2111	C211	0.435200	0.907600	0.131300
C2121	C212	0.477000	0.928000	0.096900
C2131	C213	0.507300	0.969500	0.106200
C2141	C214	0.467900	0.245800	0.343000
C2151	C215	0.755400	0.171600	0.960900
C2161	C216	0.396400	0.863900	0.123600
C2171	C217	0.277700	0.237400	0.448600
C2181	C218	0.263800	0.170500	0.495100
C2191	C219	0.160000	0.222000	0.467000
C2201	C220	0.261000	0.159000	0.544000
C2211	C221	0.668500	0.294600	0.166200
C2221	C222	0.695100	0.365600	0.139800
C2231	C223	0.621100	0.365200	0.140400
C2241	C224	0.586200	0.370900	0.091200
C2251	C225	0.599500	0.420100	0.072500
C2261	C226	0.569800	0.459100	0.092800
C2271	C227	0.575200	0.502000	0.075900
C2281	C228	0.611600	0.510600	0.039100
C2291	C229	0.651500	0.472600	0.020400
C2301	C230	0.637300	0.427700	0.037500
C2311	C231	0.302100	0.039000	0.267200
C2321	C232	0.199700	0.046300	0.294900
C2331	C233	0.196800	0.060800	0.239300
C2341	C234	0.182230	0.111380	0.226830
C2351	C235	0.115570	0.131680	0.248670
C2361	C236	0.075570	0.156680	0.279450
C2371	C237	0.008760	0.160670	0.270430
C2381	C238	0.981940	0.139660	0.230620
C2391	C239	0.021940	0.114660	0.199830
C2401	C240	0.088750	0.110660	0.208860
C2411	C241	0.553460	0.013380	0.915600
C2421	C242	0.479800	0.993920	0.861970
C2431	C243	0.476600	0.035760	0.876870
C2441	C244	0.437130	0.075380	0.847560
C2451	C245	0.428300	0.115250	0.059610
C2461	C246	0.398800	0.119800	0.104000
C2471	C247	0.413900	0.159800	0.131100
C2481	C248	0.454400	0.195100	0.115200
C2491	C249	0.481400	0.191600	0.070200
C2501	C250	0.468200	0.152300	0.041800
C2511	C251	0.473200	0.234400	0.146900
C2521	C252	0.433700	0.247600	0.184800
C2531	C253	0.455800	0.285100	0.214800
C2541	C254	0.513700	0.307700	0.208300
C2551	C255	0.551200	0.296300	0.169800
C2561	C256	0.529400	0.258600	0.139400
C2571	C257	0.357700	0.081600	0.121800
C2581	C258	0.346200	0.038600	0.095100
C2591	C259	0.312400	0.003600	0.111000
C2601	C260	0.281600	0.003700	0.156200
C2611	C261	0.291500	0.043500	0.182400
C2621	C262	0.329200	0.081800	0.166200
C2631	C263	0.501300	0.146500	0.994500
C2641	C264	0.545900	0.177700	0.976800
C2651	C265	0.574200	0.171000	0.934400
C2661	C266	0.564800	0.131300	0.907600
C2671	C267	0.523000	0.096900	0.928000
C2681	C268	0.492700	0.106200	0.969500
C2691	C269	0.532100	0.343000	0.245800
C2701	C270	0.244600	0.960900	0.171600
C2711	C271	0.603600	0.123600	0.863900
C2721	C272	0.722300	0.448600	0.237400
C2731	C273	0.736200	0.495100	0.170500
C2741	C274	0.840000	0.467000	0.222000
C2751	C275	0.739000	0.544000	0.159000
C2761	C276	0.168500	0.705400	0.833800
C2771	C277	0.195100	0.634400	0.860200
C2781	C278	0.121100	0.634800	0.859600
C2791	C279	0.086200	0.629100	0.908800
C2801	C280	0.099500	0.579900	0.927500
C2811	C281	0.069800	0.540900	0.907200
C2821	C282	0.075200	0.498000	0.924100
C2831	C283	0.111600	0.489400	0.960900
C2841	C284	0.151500	0.527400	0.979600
C2851	C285	0.137300	0.572300	0.962500
C2861	C286	0.802100	0.961000	0.732800
C2871	C287	0.699700	0.953700	0.705100
C2881	C288	0.696800	0.939200	0.760700
C2891	C289	0.682230	0.888620	0.773170
C2901	C290	0.615570	0.868320	0.751330
C2911	C291	0.575570	0.843320	0.720550
C2921	C292	0.508760	0.839330	0.729570
C2931	C293	0.481940	0.860340	0.769380
C2941	C294	0.521940	0.885340	0.800170
C2951	C295	0.588750	0.889340	0.791140
C2961	C296	0.053460	0.986620	0.084400
C2971	C297	0.979800	0.006080	0.138030
C2981	C298	0.976600	0.964240	0.123130
C2991	C299	0.937130	0.924620	0.152440
C3001	C300	0.928300	0.884750	0.940390
C3011	C301	0.898800	0.880200	0.896000
C3021	C302	0.913900	0.840200	0.868900
C3031	C303	0.954400	0.804900	0.884800
C3041	C304	0.981400	0.808400	0.929800
C3051	C305	0.968200	0.847700	0.958200
C3061	C306	0.973200	0.765600	0.853100
C3071	C307	0.933700	0.752400	0.815200
C3081	C308	0.955800	0.714900	0.785200
C3091	C309	0.013700	0.692300	0.791700
C3101	C310	0.051200	0.703700	0.830200
C3111	C311	0.029400	0.741400	0.860600
C3121	C312	0.857700	0.918400	0.878200
C3131	C313	0.846200	0.961400	0.904900
C3141	C314	0.812400	0.996400	0.889000
C3151	C315	0.781600	0.996300	0.843800
C3161	C316	0.791500	0.956500	0.817600
C3171	C317	0.829200	0.918200	0.833800
C3181	C318	0.001300	0.853500	0.005500
C3191	C319	0.045900	0.822300	0.023200
C3201	C320	0.074200	0.829000	0.065600
C3211	C321	0.064800	0.868700	0.092400
C3221	C322	0.023000	0.903100	0.072000
C3231	C323	0.992700	0.893800	0.030500
C3241	C324	0.032100	0.657000	0.754200
C3251	C325	0.744600	0.039100	0.828400
C3261	C326	0.103600	0.876400	0.136100
C3271	C327	0.222300	0.551400	0.762600
C3281	C328	0.236200	0.504900	0.829500
C3291	C329	0.340000	0.533000	0.778000
C3301	C330	0.239000	0.456000	0.841000
C3311	C331	0.418500	0.666200	0.205400
C3321	C332	0.445100	0.639800	0.134400
C3331	C333	0.371100	0.640400	0.134800
C3341	C334	0.336200	0.591200	0.129100
C3351	C335	0.349500	0.572500	0.079900
C3361	C336	0.319800	0.592800	0.040900
C3371	C337	0.325200	0.575900	0.998000
C3381	C338	0.361600	0.539100	0.989400
C3391	C339	0.401500	0.520400	0.027400
C3401	C340	0.387300	0.537500	0.072300
C3411	C341	0.052100	0.767200	0.461000
C3421	C342	0.949700	0.794900	0.453700
C3431	C343	0.946800	0.739300	0.439200
C3441	C344	0.932230	0.726830	0.388620
C3451	C345	0.865570	0.748670	0.368320
C3461	C346	0.825570	0.779450	0.343320
C3471	C347	0.758760	0.770430	0.339330
C3481	C348	0.731940	0.730620	0.360340
C3491	C349	0.771940	0.699830	0.385340
C3501	C350	0.838750	0.708860	0.389340
C3511	C351	0.303460	0.415600	0.486620
C3521	C352	0.229800	0.361970	0.506080
C3531	C353	0.226600	0.376870	0.464240
C3541	C354	0.187130	0.347560	0.424620
C3551	C355	0.178300	0.559610	0.384750
C3561	C356	0.148800	0.604000	0.380200
C3571	C357	0.163900	0.631100	0.340200
C3581	C358	0.204400	0.615200	0.304900
C3591	C359	0.231400	0.570200	0.308400
C3601	C360	0.218200	0.541800	0.347700
C3611	C361	0.223200	0.646900	0.265600
C3621	C362	0.183700	0.684800	0.252400
C3631	C363	0.205800	0.714800	0.214900
C3641	C364	0.263700	0.708300	0.192300
C3651	C365	0.301200	0.669800	0.203700
C3661	C366	0.279400	0.639400	0.241400
C3671	C367	0.107700	0.621800	0.418400
C3681	C368	0.096200	0.595100	0.461400
C3691	C369	0.062400	0.611000	0.496400
C3701	C370	0.031600	0.656200	0.496300
C3711	C371	0.041500	0.682400	0.456500
C3721	C372	0.079200	0.666200	0.418200
C3731	C373	0.251300	0.494500	0.353500
C3741	C374	0.295900	0.476800	0.322300
C3751	C375	0.324200	0.434400	0.329000
C3761	C376	0.314800	0.407600	0.368700
C3771	C377	0.273000	0.428000	0.403100
C3781	C378	0.242700	0.469500	0.393800
C3791	C379	0.282100	0.745800	0.157000
C3801	C380	0.994600	0.671600	0.539100
C3811	C381	0.353600	0.363900	0.376400
C3821	C382	0.472300	0.737400	0.051400
C3831	C383	0.486200	0.670500	0.004900
C3841	C384	0.590000	0.722000	0.033000
C3851	C385	0.489000	0.659000	0.956000
C3861	C386	0.918500	0.333800	0.794600
C3871	C387	0.945100	0.360200	0.865600
C3881	C388	0.871100	0.359600	0.865200
C3891	C389	0.836200	0.408800	0.870900
C3901	C390	0.849500	0.427500	0.920100
C3911	C391	0.819800	0.407200	0.959100
C3921	C392	0.825200	0.424100	0.002000
C3931	C393	0.861600	0.460900	0.010600
C3941	C394	0.901500	0.479600	0.972600
C3951	C395	0.887300	0.462500	0.927700
C3961	C396	0.552100	0.232800	0.539000
C3971	C397	0.449700	0.205100	0.546300
C3981	C398	0.446800	0.260700	0.560800
C3991	C399	0.432230	0.273170	0.611380
C4001	C400	0.365570	0.251330	0.631680
C4011	C401	0.325570	0.220550	0.656680
C4021	C402	0.258760	0.229570	0.660670
C4031	C403	0.231940	0.269380	0.639660
C4041	C404	0.271940	0.300170	0.614660
C4051	C405	0.338750	0.291140	0.610660
C4061	C406	0.803460	0.584400	0.513380
C4071	C407	0.729800	0.638030	0.493920
C4081	C408	0.726600	0.623130	0.535760
C4091	C409	0.687130	0.652440	0.575380
C4101	C410	0.678300	0.440390	0.615250
C4111	C411	0.648800	0.396000	0.619800
C4121	C412	0.663900	0.368900	0.659800
C4131	C413	0.704400	0.384800	0.695100
C4141	C414	0.731400	0.429800	0.691600
C4151	C415	0.718200	0.458200	0.652300
C4161	C416	0.723200	0.353100	0.734400
C4171	C417	0.683700	0.315200	0.747600
C4181	C418	0.705800	0.285200	0.785100
C4191	C419	0.763700	0.291700	0.807700
C4201	C420	0.801200	0.330200	0.796300
C4211	C421	0.779400	0.360600	0.758600
C4221	C422	0.607700	0.378200	0.581600
C4231	C423	0.596200	0.404900	0.538600
C4241	C424	0.562400	0.389000	0.503600
C4251	C425	0.531600	0.343800	0.503700
C4261	C426	0.541500	0.317600	0.543500
C4271	C427	0.579200	0.333800	0.581800
C4281	C428	0.751300	0.505500	0.646500
C4291	C429	0.795900	0.523200	0.677700
C4301	C430	0.824200	0.565600	0.671000
C4311	C431	0.814800	0.592400	0.631300
C4321	C432	0.773000	0.572000	0.596900
C4331	C433	0.742700	0.530500	0.606200
C4341	C434	0.782100	0.254200	0.843000
C4351	C435	0.494600	0.328400	0.460900
C4361	C436	0.853600	0.636100	0.623600
C4371	C437	0.972300	0.262600	0.948600
C4381	C438	0.986200	0.329500	0.995100
C4391	C439	0.090000	0.278000	0.967000
C4401	C440	0.989000	0.341000	0.044000
N11	N1	0.638900	0.183000	0.659200
N21	N2	0.985300	0.451300	0.729300
N31	N3	0.733990	0.450030	0.405420
N41	N4	0.486200	0.024000	0.710300
N51	N5	0.138900	0.817000	0.340800
N61	N6	0.485300	0.548700	0.270700
N71	N7	0.233990	0.549970	0.594580
N81	N8	0.986200	0.976000	0.289700
N91	N9	0.888900	0.840800	0.683000
N101	N10	0.235300	0.770700	0.951300
N111	N11	0.983990	0.094580	0.950030
N121	N12	0.736200	0.789700	0.524000
N131	N13	0.388900	0.159200	0.317000
N141	N14	0.735300	0.229300	0.048700
N151	N15	0.483990	0.905420	0.049970
N161	N16	0.236200	0.210300	0.476000
N171	N17	0.611100	0.317000	0.159200
N181	N18	0.264700	0.048700	0.229300
N191	N19	0.516010	0.049970	0.905420
N201	N20	0.763800	0.476000	0.210300
N211	N21	0.111100	0.683000	0.840800
N221	N22	0.764700	0.951300	0.770700
N231	N23	0.016010	0.950030	0.094580
N241	N24	0.263800	0.524000	0.789700
N251	N25	0.361100	0.659200	0.183000
N261	N26	0.014700	0.729300	0.451300
N271	N27	0.266010	0.405420	0.450030
N281	N28	0.513800	0.710300	0.024000
N291	N29	0.861100	0.340800	0.817000
N301	N30	0.514700	0.270700	0.548700
N311	N31	0.766010	0.594580	0.549970
N321	N32	0.013800	0.289700	0.976000
O11	O1	0.574300	0.247300	0.676900
O21	O2	0.530000	0.178600	0.653200
O31	O3	0.890500	0.468600	0.769700
O41	O4	0.989300	0.459300	0.805900
O51	O5	0.636900	0.491290	0.423100
O61	O6	0.725490	0.525110	0.388250
O71	O7	0.663450	0.136190	0.741060
O81	O8	0.754490	0.150900	0.778690
O91	O9	0.002090	0.574590	0.644750
O101	O10	0.578010	0.044030	0.737850
O111	O11	0.041680	0.537180	0.707680
O121	O12	0.603090	0.348740	0.354360
O131	O13	0.663230	0.410340	0.337180
O141	O14	0.074300	0.752700	0.323100
O151	O15	0.030000	0.821400	0.346800
O161	O16	0.390500	0.531400	0.230300
O171	O17	0.489300	0.540700	0.194100
O181	O18	0.136900	0.508710	0.576900
O191	O19	0.225490	0.474890	0.611750
O201	O20	0.163450	0.863810	0.258940
O211	O21	0.254490	0.849100	0.221310
O221	O22	0.502090	0.425410	0.355250
O231	O23	0.078010	0.955970	0.262150
O241	O24	0.541680	0.462820	0.292320
O251	O25	0.103090	0.651260	0.645640
O261	O26	0.163230	0.589660	0.662820
O271	O27	0.824300	0.823100	0.747300
O281	O28	0.780000	0.846800	0.678600
O291	O29	0.140500	0.730300	0.968600
O301	O30	0.239300	0.694100	0.959300
O311	O31	0.886900	0.076900	0.991290
O321	O32	0.975490	0.111750	0.025110
O331	O33	0.913450	0.758940	0.636190
O341	O34	0.004490	0.721310	0.650900
O351	O35	0.252090	0.855250	0.074590
O361	O36	0.828010	0.762150	0.544030
O371	O37	0.291680	0.792320	0.037180
O381	O38	0.853090	0.145640	0.848740
O391	O39	0.913230	0.162820	0.910340
O401	O40	0.324300	0.176900	0.252700
O411	O41	0.280000	0.153200	0.321400
O421	O42	0.640500	0.269700	0.031400
O431	O43	0.739300	0.305900	0.040700
O441	O44	0.386900	0.923100	0.008710
O451	O45	0.475490	0.888250	0.974890
O461	O46	0.413450	0.241060	0.363810
O471	O47	0.504490	0.278690	0.349100
O481	O48	0.752090	0.144750	0.925410
O491	O49	0.328010	0.237850	0.455970
O501	O50	0.791680	0.207680	0.962820
O511	O51	0.353090	0.854360	0.151260
O521	O52	0.413230	0.837180	0.089660
O531	O53	0.675700	0.252700	0.176900
O541	O54	0.720000	0.321400	0.153200
O551	O55	0.359500	0.031400	0.269700
O561	O56	0.260700	0.040700	0.305900
O571	O57	0.613100	0.008710	0.923100
O581	O58	0.524510	0.974890	0.888250
O591	O59	0.586550	0.363810	0.241060
O601	O60	0.495510	0.349100	0.278690
O611	O61	0.247910	0.925410	0.144750
O621	O62	0.671990	0.455970	0.237850
O631	O63	0.208320	0.962820	0.207680
O641	O64	0.646910	0.151260	0.854360
O651	O65	0.586770	0.089660	0.837180
O661	O66	0.175700	0.747300	0.823100
O671	O67	0.220000	0.678600	0.846800
O681	O68	0.859500	0.968600	0.730300
O691	O69	0.760700	0.959300	0.694100
O701	O70	0.113100	0.991290	0.076900
O711	O71	0.024510	0.025110	0.111750
O721	O72	0.086550	0.636190	0.758940
O731	O73	0.995510	0.650900	0.721310
O741	O74	0.747910	0.074590	0.855250
O751	O75	0.171990	0.544030	0.762150
O761	O76	0.708320	0.037180	0.792320
O771	O77	0.146910	0.848740	0.145640
O781	O78	0.086770	0.910340	0.162820
O791	O79	0.425700	0.676900	0.247300
O801	O80	0.470000	0.653200	0.178600
O811	O81	0.109500	0.769700	0.468600
O821	O82	0.010700	0.805900	0.459300
O831	O83	0.363100	0.423100	0.491290
O841	O84	0.274510	0.388250	0.525110
O851	O85	0.336550	0.741060	0.136190
O861	O86	0.245510	0.778690	0.150900
O871	O87	0.997910	0.644750	0.574590
O881	O88	0.421990	0.737850	0.044030
O891	O89	0.958320	0.707680	0.537180
O901	O90	0.396910	0.354360	0.348740
O911	O91	0.336770	0.337180	0.410340
O921	O92	0.925700	0.323100	0.752700
O931	O93	0.970000	0.346800	0.821400
O941	O94	0.609500	0.230300	0.531400
O951	O95	0.510700	0.194100	0.540700
O961	O96	0.863100	0.576900	0.508710
O971	O97	0.774510	0.611750	0.474890
O981	O98	0.836550	0.258940	0.863810
O991	O99	0.745510	0.221310	0.849100
O1001	O100	0.497910	0.355250	0.425410
O1011	O101	0.921990	0.262150	0.955970
O1021	O102	0.458320	0.292320	0.462820
O1031	O103	0.896910	0.645640	0.651260
O1041	O104	0.836770	0.662820	0.589660
