data_OPAMOI_freeONLY_PM
_symmetry_space_group_name_H-M	'P1'
_cell_length_a	7.066100
_cell_length_b	9.677800
_cell_length_c	11.621700
_cell_angle_alpha	106.326000
_cell_angle_beta	97.843000
_cell_angle_gamma	107.707000
_symmetry_Int_Tables_number 1

loop_
_symmetry_equiv_pos_as_xyz
'x,y,z'

loop_
_atom_site_label
_atom_site_type_symbol
_atom_site_fract_x
_atom_site_fract_y
_atom_site_fract_z
V11	V1	0.170950	0.130460	0.277220
P11	P1	0.224470	0.327690	0.151940
P21	P2	0.081360	0.230300	0.797260
O11	O1	0.304800	0.307700	0.871100
O21	O2	0.428500	0.417000	0.133540
O31	O3	0.227500	0.351700	0.290900
O41	O4	0.061700	0.196900	0.658810
O51	O5	0.170900	0.150500	0.105700
O61	O6	0.049000	0.367800	0.094600
O71	O7	0.961900	0.336900	0.841430
O81	O8	0.043100	0.135700	0.386900
O91	O9	0.985000	0.078800	0.823620
O101	O10	0.300300	0.014800	0.529600
H11	H1	0.345400	0.027800	0.470600
H21	H2	0.377000	0.085000	0.587000
O111	O11	0.286500	0.582800	0.008550
O121	O12	0.389900	0.125800	0.333300
V21	V2	0.829050	0.869540	0.722780
P31	P3	0.775530	0.672310	0.848060
P41	P4	0.918640	0.769700	0.202740
O131	O13	0.695200	0.692300	0.128900
O141	O14	0.571500	0.583000	0.866460
O151	O15	0.772500	0.648300	0.709100
O161	O16	0.938300	0.803100	0.341190
O171	O17	0.829100	0.849500	0.894300
O181	O18	0.951000	0.632200	0.905400
O191	O19	0.038100	0.663100	0.158570
O201	O20	0.956900	0.864300	0.613100
O211	O21	0.015000	0.921200	0.176380
O221	O22	0.699700	0.985200	0.470400
H31	H3	0.654600	0.972200	0.529400
H41	H4	0.623000	0.915000	0.413000
O231	O23	0.713500	0.417200	0.991450
O241	O24	0.610100	0.874200	0.666700
Co11	Co1	0.000000	0.000000	0.500000
V31	V3	0.000000	0.500000	0.000000
V41	V4	0.500000	0.500000	0.000000
