data_OPAPUR_freeONLY_PM
_symmetry_space_group_name_H-M	'P1'
_cell_length_a	9.450400
_cell_length_b	11.458000
_cell_length_c	14.579000
_cell_angle_alpha	69.860000
_cell_angle_beta	85.460000
_cell_angle_gamma	86.300000
_symmetry_Int_Tables_number 1

loop_
_symmetry_equiv_pos_as_xyz
'x,y,z'

loop_
_atom_site_label
_atom_site_type_symbol
_atom_site_fract_x
_atom_site_fract_y
_atom_site_fract_z
Dy11	Dy1	0.797220	0.954680	0.002600
Dy21	Dy2	0.202780	0.045320	0.997400
H11	H1	0.864600	0.368900	0.841100
H21	H2	0.970600	0.371500	0.752300
H31	H3	0.334000	0.384000	0.889000
H41	H4	0.274000	0.472000	0.806000
H51	H5	0.877500	0.943300	0.556300
H61	H6	0.871700	0.065400	0.464400
H71	H7	0.275900	0.345400	0.394100
H81	H8	0.261000	0.282700	0.321400
H91	H9	0.853700	0.099400	0.280900
H101	H10	0.814800	0.224800	0.197300
H111	H11	0.120500	0.533000	0.434300
H121	H12	0.112300	0.409700	0.525000
H131	H13	0.668500	0.044800	0.607700
H141	H14	0.625000	0.119000	0.672200
H151	H15	0.482800	0.837700	0.808600
H161	H16	0.633600	0.833100	0.757500
H171	H17	0.029300	0.481500	0.908800
H181	H18	0.079400	0.387500	0.008600
H191	H19	0.627200	0.191500	0.994700
H201	H20	0.571000	0.158300	0.929200
H211	H21	0.562000	0.925000	0.139000
H221	H22	0.631000	0.831000	0.183000
H231	H23	0.135400	0.631100	0.158900
H241	H24	0.029400	0.628500	0.247700
H251	H25	0.666000	0.616000	0.111000
H261	H26	0.726000	0.528000	0.194000
H271	H27	0.122500	0.056700	0.443700
H281	H28	0.128300	0.934600	0.535600
H291	H29	0.724100	0.654600	0.605900
H301	H30	0.739000	0.717300	0.678600
H311	H31	0.146300	0.900600	0.719100
H321	H32	0.185200	0.775200	0.802700
H331	H33	0.879500	0.467000	0.565700
H341	H34	0.887700	0.590300	0.475000
H351	H35	0.331500	0.955200	0.392300
H361	H36	0.375000	0.881000	0.327800
H371	H37	0.517200	0.162300	0.191400
H381	H38	0.366400	0.166900	0.242500
H391	H39	0.970700	0.518500	0.091200
H401	H40	0.920600	0.612500	0.991400
H411	H41	0.372800	0.808500	0.005300
H421	H42	0.429000	0.841700	0.070800
H431	H43	0.438000	0.075000	0.861000
H441	H44	0.369000	0.169000	0.817000
C11	C1	0.925200	0.097800	0.143200
C21	C2	0.885600	0.197200	0.680600
C31	C3	0.001400	0.217300	0.872400
C41	C4	0.909800	0.318300	0.804800
C51	C5	0.927500	0.018000	0.519200
C61	C6	0.983700	0.303600	0.315200
C71	C7	0.888100	0.160000	0.219700
C81	C8	0.942200	0.093700	0.582800
C91	C9	0.995400	0.406600	0.414500
C101	C10	0.057000	0.470000	0.475500
C111	C11	0.578300	0.801400	0.819300
C121	C12	0.641100	0.848200	0.892200
C131	C13	0.402100	0.614800	0.911800
C141	C14	0.190300	0.545500	0.960400
C151	C15	0.059400	0.474700	0.972600
C161	C16	0.074800	0.902200	0.856800
C171	C17	0.114400	0.802800	0.319400
C181	C18	0.998600	0.782700	0.127600
C191	C19	0.090200	0.681700	0.195200
C201	C20	0.072500	0.982000	0.480800
C211	C21	0.016300	0.696400	0.684800
C221	C22	0.111900	0.840000	0.780300
C231	C23	0.057800	0.906300	0.417200
C241	C24	0.004600	0.593400	0.585500
C251	C25	0.943000	0.530000	0.524500
C261	C26	0.421700	0.198600	0.180700
C271	C27	0.358900	0.151800	0.107800
C281	C28	0.597900	0.385200	0.088200
C291	C29	0.809700	0.454500	0.039600
C301	C30	0.940600	0.525300	0.027400
S11	S1	0.048830	0.225630	0.236460
S21	S2	0.568740	0.635210	0.849930
S31	S3	0.775050	0.263500	0.751910
S41	S4	0.951170	0.774370	0.763540
S51	S5	0.431260	0.364790	0.150070
S61	S6	0.224950	0.736500	0.248090
N11	N1	0.309700	0.532400	0.905420
N21	N2	0.207400	0.631900	0.997700
N31	N3	0.076000	0.347200	0.361840
N41	N4	0.022000	0.204600	0.661600
N51	N5	0.343800	0.674800	0.967500
N61	N6	0.830100	0.128100	0.633170
N71	N7	0.338100	0.452600	0.850300
N81	N8	0.223300	0.321800	0.358700
N91	N9	0.058300	0.137200	0.598200
N101	N10	0.862800	0.399400	0.402700
N111	N11	0.854300	0.333400	0.337300
N121	N12	0.689800	0.092800	0.638400
N131	N13	0.690300	0.467600	0.094580
N141	N14	0.792600	0.368100	0.002300
N151	N15	0.924000	0.652800	0.638160
N161	N16	0.978000	0.795400	0.338400
N171	N17	0.656200	0.325200	0.032500
N181	N18	0.169900	0.871900	0.366830
N191	N19	0.661900	0.547400	0.149700
N201	N20	0.776700	0.678200	0.641300
N211	N21	0.941700	0.862800	0.401800
N221	N22	0.137200	0.600600	0.597300
N231	N23	0.145700	0.666600	0.662700
N241	N24	0.310200	0.907200	0.361600
O11	O1	0.828000	0.042400	0.124700
O21	O2	0.948900	0.115490	0.924670
O31	O3	0.127600	0.238560	0.876720
O41	O4	0.050600	0.107700	0.106900
O51	O5	0.686700	0.777900	0.970490
O61	O6	0.647300	0.965670	0.866530
O71	O7	0.630400	0.123340	0.981070
O81	O8	0.601200	0.881800	0.126790
O91	O9	0.172000	0.957600	0.875300
O101	O10	0.051100	0.884510	0.075330
O111	O11	0.872400	0.761440	0.123280
O121	O12	0.949400	0.892300	0.893100
O131	O13	0.313300	0.222100	0.029510
O141	O14	0.352700	0.034330	0.133470
O151	O15	0.369600	0.876660	0.018930
O161	O16	0.398800	0.118200	0.873210
