data_OPAPEB_freeONLY_PM
_symmetry_space_group_name_H-M	'P1'
_cell_length_a	9.510400
_cell_length_b	11.515000
_cell_length_c	14.575000
_cell_angle_alpha	69.470000
_cell_angle_beta	85.290000
_cell_angle_gamma	86.390000
_symmetry_Int_Tables_number 1

loop_
_symmetry_equiv_pos_as_xyz
'x,y,z'

loop_
_atom_site_label
_atom_site_type_symbol
_atom_site_fract_x
_atom_site_fract_y
_atom_site_fract_z
Sm11	Sm1	0.796180	0.955250	0.002240
Sm21	Sm2	0.203820	0.044750	0.997760
H11	H1	0.866600	0.369700	0.839200
H21	H2	0.970900	0.372700	0.749600
H31	H3	0.336000	0.393000	0.883000
H41	H4	0.271000	0.475000	0.802000
H51	H5	0.877300	0.943600	0.556600
H61	H6	0.872500	0.065100	0.463700
H71	H7	0.274800	0.350300	0.391300
H81	H8	0.259700	0.286200	0.320100
H91	H9	0.852100	0.101600	0.283400
H101	H10	0.815300	0.226200	0.198100
H111	H11	0.118900	0.533400	0.433700
H121	H12	0.111200	0.410500	0.525200
H131	H13	0.670200	0.048100	0.605700
H141	H14	0.628400	0.117800	0.673200
H151	H15	0.484200	0.836600	0.806300
H161	H16	0.634900	0.830700	0.756600
H171	H17	0.028700	0.484600	0.907700
H181	H18	0.077800	0.388100	0.007100
H191	H19	0.625500	0.195800	0.993900
H201	H20	0.569300	0.162600	0.928400
H211	H21	0.133400	0.630300	0.160800
H221	H22	0.029100	0.627300	0.250400
H231	H23	0.664000	0.607000	0.117000
H241	H24	0.729000	0.525000	0.198000
H251	H25	0.122700	0.056400	0.443400
H261	H26	0.127500	0.934900	0.536300
H271	H27	0.725200	0.649700	0.608700
H281	H28	0.740300	0.713800	0.679900
H291	H29	0.147900	0.898400	0.716600
H301	H30	0.184700	0.773800	0.801900
H311	H31	0.881100	0.466600	0.566300
H321	H32	0.888800	0.589500	0.474800
H331	H33	0.329800	0.951900	0.394300
H341	H34	0.371600	0.882200	0.326800
H351	H35	0.515800	0.163400	0.193700
H361	H36	0.365100	0.169300	0.243400
H371	H37	0.971300	0.515400	0.092300
H381	H38	0.922200	0.611900	0.992900
H391	H39	0.374500	0.804200	0.006100
H401	H40	0.430700	0.837400	0.071600
C11	C1	0.923800	0.098100	0.147100
C21	C2	0.886600	0.195800	0.680100
C31	C3	0.004500	0.221100	0.870600
C41	C4	0.912000	0.319200	0.803400
C51	C5	0.927400	0.018000	0.518900
C61	C6	0.982500	0.303700	0.316000
C71	C7	0.887300	0.161100	0.221500
C81	C8	0.942900	0.094500	0.582100
C91	C9	0.996300	0.406600	0.415300
C101	C10	0.056000	0.470300	0.475500
C111	C11	0.578500	0.799800	0.818200
C121	C12	0.639100	0.846900	0.890500
C131	C13	0.401300	0.614000	0.912000
C141	C14	0.189200	0.544600	0.960400
C151	C15	0.058800	0.475600	0.971900
C161	C16	0.076200	0.901900	0.852900
C171	C17	0.113400	0.804200	0.319900
C181	C18	0.995500	0.778900	0.129400
C191	C19	0.088000	0.680800	0.196600
C201	C20	0.072600	0.982000	0.481100
C211	C21	0.017500	0.696300	0.684000
C221	C22	0.112700	0.838900	0.778500
C231	C23	0.057100	0.905500	0.417900
C241	C24	0.003700	0.593400	0.584700
C251	C25	0.944000	0.529700	0.524500
C261	C26	0.421500	0.200200	0.181800
C271	C27	0.360900	0.153100	0.109500
C281	C28	0.598700	0.386000	0.088000
C291	C29	0.810800	0.455400	0.039600
C301	C30	0.941200	0.524400	0.028100
S11	S1	0.048040	0.226200	0.237410
S21	S2	0.567260	0.633700	0.850440
S31	S3	0.778070	0.259570	0.753410
S41	S4	0.951960	0.773800	0.762590
S51	S5	0.432740	0.366300	0.149560
S61	S6	0.221930	0.740430	0.246590
N11	N1	0.307700	0.533100	0.905100
N21	N2	0.206500	0.630400	0.998200
N31	N3	0.075700	0.347700	0.362200
N41	N4	0.023400	0.203500	0.662000
N51	N5	0.343300	0.673800	0.967800
N61	N6	0.831500	0.126300	0.633900
N71	N7	0.336500	0.454300	0.849100
N81	N8	0.222300	0.325200	0.357200
N91	N9	0.058200	0.136700	0.597100
N101	N10	0.863800	0.399500	0.403000
N111	N11	0.854800	0.332000	0.339600
N121	N12	0.692300	0.093200	0.638100
N131	N13	0.692300	0.466900	0.094900
N141	N14	0.793500	0.369600	0.001800
N151	N15	0.924300	0.652300	0.637800
N161	N16	0.976600	0.796500	0.338000
N171	N17	0.656700	0.326200	0.032200
N181	N18	0.168500	0.873700	0.366100
N191	N19	0.663500	0.545700	0.150900
N201	N20	0.777700	0.674800	0.642800
N211	N21	0.941800	0.863300	0.402900
N221	N22	0.136200	0.600500	0.597000
N231	N23	0.145200	0.668000	0.660400
N241	N24	0.307700	0.906800	0.361900
O11	O1	0.827000	0.044400	0.127000
O21	O2	0.955700	0.118000	0.925500
O31	O3	0.130700	0.243800	0.872800
O41	O4	0.050400	0.103200	0.112100
O51	O5	0.685900	0.777100	0.969100
O61	O6	0.643400	0.963800	0.865000
O71	O7	0.628700	0.127600	0.980300
O81	O8	0.596300	0.881100	0.130800
O91	O9	0.173000	0.955600	0.873000
O101	O10	0.044300	0.882000	0.074500
O111	O11	0.869300	0.756200	0.127200
O121	O12	0.949600	0.896800	0.887900
O131	O13	0.314100	0.222900	0.030900
O141	O14	0.356600	0.036200	0.135000
O151	O15	0.371300	0.872400	0.019700
O161	O16	0.403700	0.118900	0.869200
