data_OPIFUQ_freeONLY_PM
_symmetry_space_group_name_H-M	'P1'
_cell_length_a	41.005100
_cell_length_b	41.005100
_cell_length_c	41.005100
_cell_angle_alpha	90.000000
_cell_angle_beta	90.000000
_cell_angle_gamma	90.000000
_symmetry_Int_Tables_number 1

loop_
_symmetry_equiv_pos_as_xyz
'x,y,z'

loop_
_atom_site_label
_atom_site_type_symbol
_atom_site_fract_x
_atom_site_fract_y
_atom_site_fract_z
O11	O1	0.652530	0.747070	0.949900
O21	O2	0.695210	0.716540	0.962130
C11	C1	0.670770	0.723060	0.944860
C21	C2	0.663510	0.701270	0.917160
S11	S1	0.630260	0.709640	0.892610
C31	C3	0.681500	0.673870	0.907580
C41	C4	0.639200	0.676790	0.868000
H11	H1	0.699900	0.665900	0.918100
C51	C5	0.666900	0.659900	0.878800
O31	O3	0.652530	0.247070	0.449900
O41	O4	0.695210	0.216540	0.462130
C61	C6	0.670770	0.223060	0.444860
C71	C7	0.663510	0.201270	0.417160
S21	S2	0.630260	0.209640	0.392610
C81	C8	0.681500	0.173870	0.407580
C91	C9	0.639200	0.176790	0.368000
H21	H2	0.699900	0.165900	0.418100
C101	C10	0.666900	0.159900	0.378800
O51	O5	0.152530	0.747070	0.449900
O61	O6	0.195210	0.716540	0.462130
C111	C11	0.170770	0.723060	0.444860
C121	C12	0.163510	0.701270	0.417160
S31	S3	0.130260	0.709640	0.392610
C131	C13	0.181500	0.673870	0.407580
C141	C14	0.139200	0.676790	0.368000
H31	H3	0.199900	0.665900	0.418100
C151	C15	0.166900	0.659900	0.378800
O71	O7	0.152530	0.247070	0.949900
O81	O8	0.195210	0.216540	0.962130
C161	C16	0.170770	0.223060	0.944860
C171	C17	0.163510	0.201270	0.917160
S41	S4	0.130260	0.209640	0.892610
C181	C18	0.181500	0.173870	0.907580
C191	C19	0.139200	0.176790	0.868000
H41	H4	0.199900	0.165900	0.918100
C201	C20	0.166900	0.159900	0.878800
O91	O9	0.347470	0.252930	0.949900
O101	O10	0.304790	0.283460	0.962130
C211	C21	0.329230	0.276940	0.944860
C221	C22	0.336490	0.298730	0.917160
S51	S5	0.369740	0.290360	0.892610
C231	C23	0.318500	0.326130	0.907580
C241	C24	0.360800	0.323210	0.868000
H51	H5	0.300100	0.334100	0.918100
C251	C25	0.333100	0.340100	0.878800
O111	O11	0.347470	0.752930	0.449900
O121	O12	0.304790	0.783460	0.462130
C261	C26	0.329230	0.776940	0.444860
C271	C27	0.336490	0.798730	0.417160
S61	S6	0.369740	0.790360	0.392610
C281	C28	0.318500	0.826130	0.407580
C291	C29	0.360800	0.823210	0.368000
H61	H6	0.300100	0.834100	0.418100
C301	C30	0.333100	0.840100	0.378800
O131	O13	0.847470	0.252930	0.449900
O141	O14	0.804790	0.283460	0.462130
C311	C31	0.829230	0.276940	0.444860
C321	C32	0.836490	0.298730	0.417160
S71	S7	0.869740	0.290360	0.392610
C331	C33	0.818500	0.326130	0.407580
C341	C34	0.860800	0.323210	0.368000
H71	H7	0.800100	0.334100	0.418100
C351	C35	0.833100	0.340100	0.378800
O151	O15	0.847470	0.752930	0.949900
O161	O16	0.804790	0.783460	0.962130
C361	C36	0.829230	0.776940	0.944860
C371	C37	0.836490	0.798730	0.917160
S81	S8	0.869740	0.790360	0.892610
C381	C38	0.818500	0.826130	0.907580
C391	C39	0.860800	0.823210	0.868000
H81	H8	0.800100	0.834100	0.918100
C401	C40	0.833100	0.840100	0.878800
O171	O17	0.347470	0.747070	0.050100
O181	O18	0.304790	0.716540	0.037870
C411	C41	0.329230	0.723060	0.055140
C421	C42	0.336490	0.701270	0.082840
S91	S9	0.369740	0.709640	0.107390
C431	C43	0.318500	0.673870	0.092420
C441	C44	0.360800	0.676790	0.132000
H91	H9	0.300100	0.665900	0.081900
C451	C45	0.333100	0.659900	0.121200
O191	O19	0.347470	0.247070	0.550100
O201	O20	0.304790	0.216540	0.537870
C461	C46	0.329230	0.223060	0.555140
C471	C47	0.336490	0.201270	0.582840
S101	S10	0.369740	0.209640	0.607390
C481	C48	0.318500	0.173870	0.592420
C491	C49	0.360800	0.176790	0.632000
H101	H10	0.300100	0.165900	0.581900
C501	C50	0.333100	0.159900	0.621200
O211	O21	0.847470	0.747070	0.550100
O221	O22	0.804790	0.716540	0.537870
C511	C51	0.829230	0.723060	0.555140
C521	C52	0.836490	0.701270	0.582840
S111	S11	0.869740	0.709640	0.607390
C531	C53	0.818500	0.673870	0.592420
C541	C54	0.860800	0.676790	0.632000
H111	H11	0.800100	0.665900	0.581900
C551	C55	0.833100	0.659900	0.621200
O231	O23	0.847470	0.247070	0.050100
O241	O24	0.804790	0.216540	0.037870
C561	C56	0.829230	0.223060	0.055140
C571	C57	0.836490	0.201270	0.082840
S121	S12	0.869740	0.209640	0.107390
C581	C58	0.818500	0.173870	0.092420
C591	C59	0.860800	0.176790	0.132000
H121	H12	0.800100	0.165900	0.081900
C601	C60	0.833100	0.159900	0.121200
O251	O25	0.652530	0.252930	0.050100
O261	O26	0.695210	0.283460	0.037870
C611	C61	0.670770	0.276940	0.055140
C621	C62	0.663510	0.298730	0.082840
S131	S13	0.630260	0.290360	0.107390
C631	C63	0.681500	0.326130	0.092420
C641	C64	0.639200	0.323210	0.132000
H131	H13	0.699900	0.334100	0.081900
C651	C65	0.666900	0.340100	0.121200
O271	O27	0.652530	0.752930	0.550100
O281	O28	0.695210	0.783460	0.537870
C661	C66	0.670770	0.776940	0.555140
C671	C67	0.663510	0.798730	0.582840
S141	S14	0.630260	0.790360	0.607390
C681	C68	0.681500	0.826130	0.592420
C691	C69	0.639200	0.823210	0.632000
H141	H14	0.699900	0.834100	0.581900
C701	C70	0.666900	0.840100	0.621200
O291	O29	0.152530	0.252930	0.550100
O301	O30	0.195210	0.283460	0.537870
C711	C71	0.170770	0.276940	0.555140
C721	C72	0.163510	0.298730	0.582840
S151	S15	0.130260	0.290360	0.607390
C731	C73	0.181500	0.326130	0.592420
C741	C74	0.139200	0.323210	0.632000
H151	H15	0.199900	0.334100	0.581900
C751	C75	0.166900	0.340100	0.621200
O311	O31	0.152530	0.752930	0.050100
O321	O32	0.195210	0.783460	0.037870
C761	C76	0.170770	0.776940	0.055140
C771	C77	0.163510	0.798730	0.082840
S161	S16	0.130260	0.790360	0.107390
C781	C78	0.181500	0.826130	0.092420
C791	C79	0.139200	0.823210	0.132000
H161	H16	0.199900	0.834100	0.081900
C801	C80	0.166900	0.840100	0.121200
O331	O33	0.949900	0.652530	0.747070
O341	O34	0.962130	0.695210	0.716540
C811	C81	0.944860	0.670770	0.723060
C821	C82	0.917160	0.663510	0.701270
S171	S17	0.892610	0.630260	0.709640
C831	C83	0.907580	0.681500	0.673870
C841	C84	0.868000	0.639200	0.676790
H171	H17	0.918100	0.699900	0.665900
C851	C85	0.878800	0.666900	0.659900
O351	O35	0.949900	0.152530	0.247070
O361	O36	0.962130	0.195210	0.216540
C861	C86	0.944860	0.170770	0.223060
C871	C87	0.917160	0.163510	0.201270
S181	S18	0.892610	0.130260	0.209640
C881	C88	0.907580	0.181500	0.173870
C891	C89	0.868000	0.139200	0.176790
H181	H18	0.918100	0.199900	0.165900
C901	C90	0.878800	0.166900	0.159900
O371	O37	0.449900	0.652530	0.247070
O381	O38	0.462130	0.695210	0.216540
C911	C91	0.444860	0.670770	0.223060
C921	C92	0.417160	0.663510	0.201270
S191	S19	0.392610	0.630260	0.209640
C931	C93	0.407580	0.681500	0.173870
C941	C94	0.368000	0.639200	0.176790
H191	H19	0.418100	0.699900	0.165900
C951	C95	0.378800	0.666900	0.159900
O391	O39	0.449900	0.152530	0.747070
O401	O40	0.462130	0.195210	0.716540
C961	C96	0.444860	0.170770	0.723060
C971	C97	0.417160	0.163510	0.701270
S201	S20	0.392610	0.130260	0.709640
C981	C98	0.407580	0.181500	0.673870
C991	C99	0.368000	0.139200	0.676790
H201	H20	0.418100	0.199900	0.665900
C1001	C100	0.378800	0.166900	0.659900
O411	O41	0.949900	0.347470	0.252930
O421	O42	0.962130	0.304790	0.283460
C1011	C101	0.944860	0.329230	0.276940
C1021	C102	0.917160	0.336490	0.298730
S211	S21	0.892610	0.369740	0.290360
C1031	C103	0.907580	0.318500	0.326130
C1041	C104	0.868000	0.360800	0.323210
H211	H21	0.918100	0.300100	0.334100
C1051	C105	0.878800	0.333100	0.340100
O431	O43	0.949900	0.847470	0.752930
O441	O44	0.962130	0.804790	0.783460
C1061	C106	0.944860	0.829230	0.776940
C1071	C107	0.917160	0.836490	0.798730
S221	S22	0.892610	0.869740	0.790360
C1081	C108	0.907580	0.818500	0.826130
C1091	C109	0.868000	0.860800	0.823210
H221	H22	0.918100	0.800100	0.834100
C1101	C110	0.878800	0.833100	0.840100
O451	O45	0.449900	0.347470	0.752930
O461	O46	0.462130	0.304790	0.783460
C1111	C111	0.444860	0.329230	0.776940
C1121	C112	0.417160	0.336490	0.798730
S231	S23	0.392610	0.369740	0.790360
C1131	C113	0.407580	0.318500	0.826130
C1141	C114	0.368000	0.360800	0.823210
H231	H23	0.418100	0.300100	0.834100
C1151	C115	0.378800	0.333100	0.840100
O471	O47	0.449900	0.847470	0.252930
O481	O48	0.462130	0.804790	0.283460
C1161	C116	0.444860	0.829230	0.276940
C1171	C117	0.417160	0.836490	0.298730
S241	S24	0.392610	0.869740	0.290360
C1181	C118	0.407580	0.818500	0.326130
C1191	C119	0.368000	0.860800	0.323210
H241	H24	0.418100	0.800100	0.334100
C1201	C120	0.378800	0.833100	0.340100
O491	O49	0.050100	0.347470	0.747070
O501	O50	0.037870	0.304790	0.716540
C1211	C121	0.055140	0.329230	0.723060
C1221	C122	0.082840	0.336490	0.701270
S251	S25	0.107390	0.369740	0.709640
C1231	C123	0.092420	0.318500	0.673870
C1241	C124	0.132000	0.360800	0.676790
H251	H25	0.081900	0.300100	0.665900
C1251	C125	0.121200	0.333100	0.659900
O511	O51	0.050100	0.847470	0.247070
O521	O52	0.037870	0.804790	0.216540
C1261	C126	0.055140	0.829230	0.223060
C1271	C127	0.082840	0.836490	0.201270
S261	S26	0.107390	0.869740	0.209640
C1281	C128	0.092420	0.818500	0.173870
C1291	C129	0.132000	0.860800	0.176790
H261	H26	0.081900	0.800100	0.165900
C1301	C130	0.121200	0.833100	0.159900
O531	O53	0.550100	0.347470	0.247070
O541	O54	0.537870	0.304790	0.216540
C1311	C131	0.555140	0.329230	0.223060
C1321	C132	0.582840	0.336490	0.201270
S271	S27	0.607390	0.369740	0.209640
C1331	C133	0.592420	0.318500	0.173870
C1341	C134	0.632000	0.360800	0.176790
H271	H27	0.581900	0.300100	0.165900
C1351	C135	0.621200	0.333100	0.159900
O551	O55	0.550100	0.847470	0.747070
O561	O56	0.537870	0.804790	0.716540
C1361	C136	0.555140	0.829230	0.723060
C1371	C137	0.582840	0.836490	0.701270
S281	S28	0.607390	0.869740	0.709640
C1381	C138	0.592420	0.818500	0.673870
C1391	C139	0.632000	0.860800	0.676790
H281	H28	0.581900	0.800100	0.665900
C1401	C140	0.621200	0.833100	0.659900
O571	O57	0.050100	0.652530	0.252930
O581	O58	0.037870	0.695210	0.283460
C1411	C141	0.055140	0.670770	0.276940
C1421	C142	0.082840	0.663510	0.298730
S291	S29	0.107390	0.630260	0.290360
C1431	C143	0.092420	0.681500	0.326130
C1441	C144	0.132000	0.639200	0.323210
H291	H29	0.081900	0.699900	0.334100
C1451	C145	0.121200	0.666900	0.340100
O591	O59	0.050100	0.152530	0.752930
O601	O60	0.037870	0.195210	0.783460
C1461	C146	0.055140	0.170770	0.776940
C1471	C147	0.082840	0.163510	0.798730
S301	S30	0.107390	0.130260	0.790360
C1481	C148	0.092420	0.181500	0.826130
C1491	C149	0.132000	0.139200	0.823210
H301	H30	0.081900	0.199900	0.834100
C1501	C150	0.121200	0.166900	0.840100
O611	O61	0.550100	0.652530	0.752930
O621	O62	0.537870	0.695210	0.783460
C1511	C151	0.555140	0.670770	0.776940
C1521	C152	0.582840	0.663510	0.798730
S311	S31	0.607390	0.630260	0.790360
C1531	C153	0.592420	0.681500	0.826130
C1541	C154	0.632000	0.639200	0.823210
H311	H31	0.581900	0.699900	0.834100
C1551	C155	0.621200	0.666900	0.840100
O631	O63	0.550100	0.152530	0.252930
O641	O64	0.537870	0.195210	0.283460
C1561	C156	0.555140	0.170770	0.276940
C1571	C157	0.582840	0.163510	0.298730
S321	S32	0.607390	0.130260	0.290360
C1581	C158	0.592420	0.181500	0.326130
C1591	C159	0.632000	0.139200	0.323210
H321	H32	0.581900	0.199900	0.334100
C1601	C160	0.621200	0.166900	0.340100
O651	O65	0.747070	0.949900	0.652530
O661	O66	0.716540	0.962130	0.695210
C1611	C161	0.723060	0.944860	0.670770
C1621	C162	0.701270	0.917160	0.663510
S331	S33	0.709640	0.892610	0.630260
C1631	C163	0.673870	0.907580	0.681500
C1641	C164	0.676790	0.868000	0.639200
H331	H33	0.665900	0.918100	0.699900
C1651	C165	0.659900	0.878800	0.666900
O671	O67	0.747070	0.449900	0.152530
O681	O68	0.716540	0.462130	0.195210
C1661	C166	0.723060	0.444860	0.170770
C1671	C167	0.701270	0.417160	0.163510
S341	S34	0.709640	0.392610	0.130260
C1681	C168	0.673870	0.407580	0.181500
C1691	C169	0.676790	0.368000	0.139200
H341	H34	0.665900	0.418100	0.199900
C1701	C170	0.659900	0.378800	0.166900
O691	O69	0.247070	0.949900	0.152530
O701	O70	0.216540	0.962130	0.195210
C1711	C171	0.223060	0.944860	0.170770
C1721	C172	0.201270	0.917160	0.163510
S351	S35	0.209640	0.892610	0.130260
C1731	C173	0.173870	0.907580	0.181500
C1741	C174	0.176790	0.868000	0.139200
H351	H35	0.165900	0.918100	0.199900
C1751	C175	0.159900	0.878800	0.166900
O711	O71	0.247070	0.449900	0.652530
O721	O72	0.216540	0.462130	0.695210
C1761	C176	0.223060	0.444860	0.670770
C1771	C177	0.201270	0.417160	0.663510
S361	S36	0.209640	0.392610	0.630260
C1781	C178	0.173870	0.407580	0.681500
C1791	C179	0.176790	0.368000	0.639200
H361	H36	0.165900	0.418100	0.699900
C1801	C180	0.159900	0.378800	0.666900
O731	O73	0.252930	0.949900	0.347470
O741	O74	0.283460	0.962130	0.304790
C1811	C181	0.276940	0.944860	0.329230
C1821	C182	0.298730	0.917160	0.336490
S371	S37	0.290360	0.892610	0.369740
C1831	C183	0.326130	0.907580	0.318500
C1841	C184	0.323210	0.868000	0.360800
H371	H37	0.334100	0.918100	0.300100
C1851	C185	0.340100	0.878800	0.333100
O751	O75	0.252930	0.449900	0.847470
O761	O76	0.283460	0.462130	0.804790
C1861	C186	0.276940	0.444860	0.829230
C1871	C187	0.298730	0.417160	0.836490
S381	S38	0.290360	0.392610	0.869740
C1881	C188	0.326130	0.407580	0.818500
C1891	C189	0.323210	0.368000	0.860800
H381	H38	0.334100	0.418100	0.800100
C1901	C190	0.340100	0.378800	0.833100
O771	O77	0.752930	0.949900	0.847470
O781	O78	0.783460	0.962130	0.804790
C1911	C191	0.776940	0.944860	0.829230
C1921	C192	0.798730	0.917160	0.836490
S391	S39	0.790360	0.892610	0.869740
C1931	C193	0.826130	0.907580	0.818500
C1941	C194	0.823210	0.868000	0.860800
H391	H39	0.834100	0.918100	0.800100
C1951	C195	0.840100	0.878800	0.833100
O791	O79	0.752930	0.449900	0.347470
O801	O80	0.783460	0.462130	0.304790
C1961	C196	0.776940	0.444860	0.329230
C1971	C197	0.798730	0.417160	0.336490
S401	S40	0.790360	0.392610	0.369740
C1981	C198	0.826130	0.407580	0.318500
C1991	C199	0.823210	0.368000	0.360800
H401	H40	0.834100	0.418100	0.300100
C2001	C200	0.840100	0.378800	0.333100
O811	O81	0.747070	0.050100	0.347470
O821	O82	0.716540	0.037870	0.304790
C2011	C201	0.723060	0.055140	0.329230
C2021	C202	0.701270	0.082840	0.336490
S411	S41	0.709640	0.107390	0.369740
C2031	C203	0.673870	0.092420	0.318500
C2041	C204	0.676790	0.132000	0.360800
H411	H41	0.665900	0.081900	0.300100
C2051	C205	0.659900	0.121200	0.333100
O831	O83	0.747070	0.550100	0.847470
O841	O84	0.716540	0.537870	0.804790
C2061	C206	0.723060	0.555140	0.829230
C2071	C207	0.701270	0.582840	0.836490
S421	S42	0.709640	0.607390	0.869740
C2081	C208	0.673870	0.592420	0.818500
C2091	C209	0.676790	0.632000	0.860800
H421	H42	0.665900	0.581900	0.800100
C2101	C210	0.659900	0.621200	0.833100
O851	O85	0.247070	0.050100	0.847470
O861	O86	0.216540	0.037870	0.804790
C2111	C211	0.223060	0.055140	0.829230
C2121	C212	0.201270	0.082840	0.836490
S431	S43	0.209640	0.107390	0.869740
C2131	C213	0.173870	0.092420	0.818500
C2141	C214	0.176790	0.132000	0.860800
H431	H43	0.165900	0.081900	0.800100
C2151	C215	0.159900	0.121200	0.833100
O871	O87	0.247070	0.550100	0.347470
O881	O88	0.216540	0.537870	0.304790
C2161	C216	0.223060	0.555140	0.329230
C2171	C217	0.201270	0.582840	0.336490
S441	S44	0.209640	0.607390	0.369740
C2181	C218	0.173870	0.592420	0.318500
C2191	C219	0.176790	0.632000	0.360800
H441	H44	0.165900	0.581900	0.300100
C2201	C220	0.159900	0.621200	0.333100
O891	O89	0.252930	0.050100	0.652530
O901	O90	0.283460	0.037870	0.695210
C2211	C221	0.276940	0.055140	0.670770
C2221	C222	0.298730	0.082840	0.663510
S451	S45	0.290360	0.107390	0.630260
C2231	C223	0.326130	0.092420	0.681500
C2241	C224	0.323210	0.132000	0.639200
H451	H45	0.334100	0.081900	0.699900
C2251	C225	0.340100	0.121200	0.666900
O911	O91	0.252930	0.550100	0.152530
O921	O92	0.283460	0.537870	0.195210
C2261	C226	0.276940	0.555140	0.170770
C2271	C227	0.298730	0.582840	0.163510
S461	S46	0.290360	0.607390	0.130260
C2281	C228	0.326130	0.592420	0.181500
C2291	C229	0.323210	0.632000	0.139200
H461	H46	0.334100	0.581900	0.199900
C2301	C230	0.340100	0.621200	0.166900
O931	O93	0.752930	0.050100	0.152530
O941	O94	0.783460	0.037870	0.195210
C2311	C231	0.776940	0.055140	0.170770
C2321	C232	0.798730	0.082840	0.163510
S471	S47	0.790360	0.107390	0.130260
C2331	C233	0.826130	0.092420	0.181500
C2341	C234	0.823210	0.132000	0.139200
H471	H47	0.834100	0.081900	0.199900
C2351	C235	0.840100	0.121200	0.166900
O951	O95	0.752930	0.550100	0.652530
O961	O96	0.783460	0.537870	0.695210
C2361	C236	0.776940	0.555140	0.670770
C2371	C237	0.798730	0.582840	0.663510
S481	S48	0.790360	0.607390	0.630260
C2381	C238	0.826130	0.592420	0.681500
C2391	C239	0.823210	0.632000	0.639200
H481	H48	0.834100	0.581900	0.699900
C2401	C240	0.840100	0.621200	0.666900
O971	O97	0.247070	0.152530	0.550100
O981	O98	0.216540	0.195210	0.537870
C2411	C241	0.223060	0.170770	0.555140
C2421	C242	0.201270	0.163510	0.582840
S491	S49	0.209640	0.130260	0.607390
C2431	C243	0.173870	0.181500	0.592420
C2441	C244	0.176790	0.139200	0.632000
H491	H49	0.165900	0.199900	0.581900
C2451	C245	0.159900	0.166900	0.621200
O991	O99	0.247070	0.652530	0.050100
O1001	O100	0.216540	0.695210	0.037870
C2461	C246	0.223060	0.670770	0.055140
C2471	C247	0.201270	0.663510	0.082840
S501	S50	0.209640	0.630260	0.107390
C2481	C248	0.173870	0.681500	0.092420
C2491	C249	0.176790	0.639200	0.132000
H501	H50	0.165900	0.699900	0.081900
C2501	C250	0.159900	0.666900	0.121200
O1011	O101	0.747070	0.152530	0.050100
O1021	O102	0.716540	0.195210	0.037870
C2511	C251	0.723060	0.170770	0.055140
C2521	C252	0.701270	0.163510	0.082840
S511	S51	0.709640	0.130260	0.107390
C2531	C253	0.673870	0.181500	0.092420
C2541	C254	0.676790	0.139200	0.132000
H511	H51	0.665900	0.199900	0.081900
C2551	C255	0.659900	0.166900	0.121200
O1031	O103	0.747070	0.652530	0.550100
O1041	O104	0.716540	0.695210	0.537870
C2561	C256	0.723060	0.670770	0.555140
C2571	C257	0.701270	0.663510	0.582840
S521	S52	0.709640	0.630260	0.607390
C2581	C258	0.673870	0.681500	0.592420
C2591	C259	0.676790	0.639200	0.632000
H521	H52	0.665900	0.699900	0.581900
C2601	C260	0.659900	0.666900	0.621200
O1051	O105	0.752930	0.847470	0.550100
O1061	O106	0.783460	0.804790	0.537870
C2611	C261	0.776940	0.829230	0.555140
C2621	C262	0.798730	0.836490	0.582840
S531	S53	0.790360	0.869740	0.607390
C2631	C263	0.826130	0.818500	0.592420
C2641	C264	0.823210	0.860800	0.632000
H531	H53	0.834100	0.800100	0.581900
C2651	C265	0.840100	0.833100	0.621200
O1071	O107	0.752930	0.347470	0.050100
O1081	O108	0.783460	0.304790	0.037870
C2661	C266	0.776940	0.329230	0.055140
C2671	C267	0.798730	0.336490	0.082840
S541	S54	0.790360	0.369740	0.107390
C2681	C268	0.826130	0.318500	0.092420
C2691	C269	0.823210	0.360800	0.132000
H541	H54	0.834100	0.300100	0.081900
C2701	C270	0.840100	0.333100	0.121200
O1091	O109	0.252930	0.847470	0.050100
O1101	O110	0.283460	0.804790	0.037870
C2711	C271	0.276940	0.829230	0.055140
C2721	C272	0.298730	0.836490	0.082840
S551	S55	0.290360	0.869740	0.107390
C2731	C273	0.326130	0.818500	0.092420
C2741	C274	0.323210	0.860800	0.132000
H551	H55	0.334100	0.800100	0.081900
C2751	C275	0.340100	0.833100	0.121200
O1111	O111	0.252930	0.347470	0.550100
O1121	O112	0.283460	0.304790	0.537870
C2761	C276	0.276940	0.329230	0.555140
C2771	C277	0.298730	0.336490	0.582840
S561	S56	0.290360	0.369740	0.607390
C2781	C278	0.326130	0.318500	0.592420
C2791	C279	0.323210	0.360800	0.632000
H561	H56	0.334100	0.300100	0.581900
C2801	C280	0.340100	0.333100	0.621200
O1131	O113	0.247070	0.847470	0.449900
O1141	O114	0.216540	0.804790	0.462130
C2811	C281	0.223060	0.829230	0.444860
C2821	C282	0.201270	0.836490	0.417160
S571	S57	0.209640	0.869740	0.392610
C2831	C283	0.173870	0.818500	0.407580
C2841	C284	0.176790	0.860800	0.368000
H571	H57	0.165900	0.800100	0.418100
C2851	C285	0.159900	0.833100	0.378800
O1151	O115	0.247070	0.347470	0.949900
O1161	O116	0.216540	0.304790	0.962130
C2861	C286	0.223060	0.329230	0.944860
C2871	C287	0.201270	0.336490	0.917160
S581	S58	0.209640	0.369740	0.892610
C2881	C288	0.173870	0.318500	0.907580
C2891	C289	0.176790	0.360800	0.868000
H581	H58	0.165900	0.300100	0.918100
C2901	C290	0.159900	0.333100	0.878800
O1171	O117	0.747070	0.847470	0.949900
O1181	O118	0.716540	0.804790	0.962130
C2911	C291	0.723060	0.829230	0.944860
C2921	C292	0.701270	0.836490	0.917160
S591	S59	0.709640	0.869740	0.892610
C2931	C293	0.673870	0.818500	0.907580
C2941	C294	0.676790	0.860800	0.868000
H591	H59	0.665900	0.800100	0.918100
C2951	C295	0.659900	0.833100	0.878800
O1191	O119	0.747070	0.347470	0.449900
O1201	O120	0.716540	0.304790	0.462130
C2961	C296	0.723060	0.329230	0.444860
C2971	C297	0.701270	0.336490	0.417160
S601	S60	0.709640	0.369740	0.392610
C2981	C298	0.673870	0.318500	0.407580
C2991	C299	0.676790	0.360800	0.368000
H601	H60	0.665900	0.300100	0.418100
C3001	C300	0.659900	0.333100	0.378800
O1211	O121	0.752930	0.152530	0.449900
O1221	O122	0.783460	0.195210	0.462130
C3011	C301	0.776940	0.170770	0.444860
C3021	C302	0.798730	0.163510	0.417160
S611	S61	0.790360	0.130260	0.392610
C3031	C303	0.826130	0.181500	0.407580
C3041	C304	0.823210	0.139200	0.368000
H611	H61	0.834100	0.199900	0.418100
C3051	C305	0.840100	0.166900	0.378800
O1231	O123	0.752930	0.652530	0.949900
O1241	O124	0.783460	0.695210	0.962130
C3061	C306	0.776940	0.670770	0.944860
C3071	C307	0.798730	0.663510	0.917160
S621	S62	0.790360	0.630260	0.892610
C3081	C308	0.826130	0.681500	0.907580
C3091	C309	0.823210	0.639200	0.868000
H621	H62	0.834100	0.699900	0.918100
C3101	C310	0.840100	0.666900	0.878800
O1251	O125	0.252930	0.152530	0.949900
O1261	O126	0.283460	0.195210	0.962130
C3111	C311	0.276940	0.170770	0.944860
C3121	C312	0.298730	0.163510	0.917160
S631	S63	0.290360	0.130260	0.892610
C3131	C313	0.326130	0.181500	0.907580
C3141	C314	0.323210	0.139200	0.868000
H631	H63	0.334100	0.199900	0.918100
C3151	C315	0.340100	0.166900	0.878800
O1271	O127	0.252930	0.652530	0.449900
O1281	O128	0.283460	0.695210	0.462130
C3161	C316	0.276940	0.670770	0.444860
C3171	C317	0.298730	0.663510	0.417160
S641	S64	0.290360	0.630260	0.392610
C3181	C318	0.326130	0.681500	0.407580
C3191	C319	0.323210	0.639200	0.368000
H641	H64	0.334100	0.699900	0.418100
C3201	C320	0.340100	0.666900	0.378800
O1291	O129	0.152530	0.449900	0.752930
O1301	O130	0.195210	0.462130	0.783460
C3211	C321	0.170770	0.444860	0.776940
C3221	C322	0.163510	0.417160	0.798730
S651	S65	0.130260	0.392610	0.790360
C3231	C323	0.181500	0.407580	0.826130
C3241	C324	0.139200	0.368000	0.823210
H651	H65	0.199900	0.418100	0.834100
C3251	C325	0.166900	0.378800	0.840100
O1311	O131	0.152530	0.949900	0.252930
O1321	O132	0.195210	0.962130	0.283460
C3261	C326	0.170770	0.944860	0.276940
C3271	C327	0.163510	0.917160	0.298730
S661	S66	0.130260	0.892610	0.290360
C3281	C328	0.181500	0.907580	0.326130
C3291	C329	0.139200	0.868000	0.323210
H661	H66	0.199900	0.918100	0.334100
C3301	C330	0.166900	0.878800	0.340100
O1331	O133	0.652530	0.449900	0.252930
O1341	O134	0.695210	0.462130	0.283460
C3311	C331	0.670770	0.444860	0.276940
C3321	C332	0.663510	0.417160	0.298730
S671	S67	0.630260	0.392610	0.290360
C3331	C333	0.681500	0.407580	0.326130
C3341	C334	0.639200	0.368000	0.323210
H671	H67	0.699900	0.418100	0.334100
C3351	C335	0.666900	0.378800	0.340100
O1351	O135	0.652530	0.949900	0.752930
O1361	O136	0.695210	0.962130	0.783460
C3361	C336	0.670770	0.944860	0.776940
C3371	C337	0.663510	0.917160	0.798730
S681	S68	0.630260	0.892610	0.790360
C3381	C338	0.681500	0.907580	0.826130
C3391	C339	0.639200	0.868000	0.823210
H681	H68	0.699900	0.918100	0.834100
C3401	C340	0.666900	0.878800	0.840100
O1371	O137	0.847470	0.449900	0.247070
O1381	O138	0.804790	0.462130	0.216540
C3411	C341	0.829230	0.444860	0.223060
C3421	C342	0.836490	0.417160	0.201270
S691	S69	0.869740	0.392610	0.209640
C3431	C343	0.818500	0.407580	0.173870
C3441	C344	0.860800	0.368000	0.176790
H691	H69	0.800100	0.418100	0.165900
C3451	C345	0.833100	0.378800	0.159900
O1391	O139	0.847470	0.949900	0.747070
O1401	O140	0.804790	0.962130	0.716540
C3461	C346	0.829230	0.944860	0.723060
C3471	C347	0.836490	0.917160	0.701270
S701	S70	0.869740	0.892610	0.709640
C3481	C348	0.818500	0.907580	0.673870
C3491	C349	0.860800	0.868000	0.676790
H701	H70	0.800100	0.918100	0.665900
C3501	C350	0.833100	0.878800	0.659900
O1411	O141	0.347470	0.449900	0.747070
O1421	O142	0.304790	0.462130	0.716540
C3511	C351	0.329230	0.444860	0.723060
C3521	C352	0.336490	0.417160	0.701270
S711	S71	0.369740	0.392610	0.709640
C3531	C353	0.318500	0.407580	0.673870
C3541	C354	0.360800	0.368000	0.676790
H711	H71	0.300100	0.418100	0.665900
C3551	C355	0.333100	0.378800	0.659900
O1431	O143	0.347470	0.949900	0.247070
O1441	O144	0.304790	0.962130	0.216540
C3561	C356	0.329230	0.944860	0.223060
C3571	C357	0.336490	0.917160	0.201270
S721	S72	0.369740	0.892610	0.209640
C3581	C358	0.318500	0.907580	0.173870
C3591	C359	0.360800	0.868000	0.176790
H721	H72	0.300100	0.918100	0.165900
C3601	C360	0.333100	0.878800	0.159900
O1451	O145	0.847470	0.550100	0.752930
O1461	O146	0.804790	0.537870	0.783460
C3611	C361	0.829230	0.555140	0.776940
C3621	C362	0.836490	0.582840	0.798730
S731	S73	0.869740	0.607390	0.790360
C3631	C363	0.818500	0.592420	0.826130
C3641	C364	0.860800	0.632000	0.823210
H731	H73	0.800100	0.581900	0.834100
C3651	C365	0.833100	0.621200	0.840100
O1471	O147	0.847470	0.050100	0.252930
O1481	O148	0.804790	0.037870	0.283460
C3661	C366	0.829230	0.055140	0.276940
C3671	C367	0.836490	0.082840	0.298730
S741	S74	0.869740	0.107390	0.290360
C3681	C368	0.818500	0.092420	0.326130
C3691	C369	0.860800	0.132000	0.323210
H741	H74	0.800100	0.081900	0.334100
C3701	C370	0.833100	0.121200	0.340100
O1491	O149	0.347470	0.550100	0.252930
O1501	O150	0.304790	0.537870	0.283460
C3711	C371	0.329230	0.555140	0.276940
C3721	C372	0.336490	0.582840	0.298730
S751	S75	0.369740	0.607390	0.290360
C3731	C373	0.318500	0.592420	0.326130
C3741	C374	0.360800	0.632000	0.323210
H751	H75	0.300100	0.581900	0.334100
C3751	C375	0.333100	0.621200	0.340100
O1511	O151	0.347470	0.050100	0.752930
O1521	O152	0.304790	0.037870	0.783460
C3761	C376	0.329230	0.055140	0.776940
C3771	C377	0.336490	0.082840	0.798730
S761	S76	0.369740	0.107390	0.790360
C3781	C378	0.318500	0.092420	0.826130
C3791	C379	0.360800	0.132000	0.823210
H761	H76	0.300100	0.081900	0.834100
C3801	C380	0.333100	0.121200	0.840100
O1531	O153	0.152530	0.550100	0.247070
O1541	O154	0.195210	0.537870	0.216540
C3811	C381	0.170770	0.555140	0.223060
C3821	C382	0.163510	0.582840	0.201270
S771	S77	0.130260	0.607390	0.209640
C3831	C383	0.181500	0.592420	0.173870
C3841	C384	0.139200	0.632000	0.176790
H771	H77	0.199900	0.581900	0.165900
C3851	C385	0.166900	0.621200	0.159900
O1551	O155	0.152530	0.050100	0.747070
O1561	O156	0.195210	0.037870	0.716540
C3861	C386	0.170770	0.055140	0.723060
C3871	C387	0.163510	0.082840	0.701270
S781	S78	0.130260	0.107390	0.709640
C3881	C388	0.181500	0.092420	0.673870
C3891	C389	0.139200	0.132000	0.676790
H781	H78	0.199900	0.081900	0.665900
C3901	C390	0.166900	0.121200	0.659900
O1571	O157	0.652530	0.550100	0.747070
O1581	O158	0.695210	0.537870	0.716540
C3911	C391	0.670770	0.555140	0.723060
C3921	C392	0.663510	0.582840	0.701270
S791	S79	0.630260	0.607390	0.709640
C3931	C393	0.681500	0.592420	0.673870
C3941	C394	0.639200	0.632000	0.676790
H791	H79	0.699900	0.581900	0.665900
C3951	C395	0.666900	0.621200	0.659900
O1591	O159	0.652530	0.050100	0.247070
O1601	O160	0.695210	0.037870	0.216540
C3961	C396	0.670770	0.055140	0.223060
C3971	C397	0.663510	0.082840	0.201270
S801	S80	0.630260	0.107390	0.209640
C3981	C398	0.681500	0.092420	0.173870
C3991	C399	0.639200	0.132000	0.176790
H801	H80	0.699900	0.081900	0.165900
C4001	C400	0.666900	0.121200	0.159900
O1611	O161	0.449900	0.247070	0.847470
O1621	O162	0.462130	0.216540	0.804790
C4011	C401	0.444860	0.223060	0.829230
C4021	C402	0.417160	0.201270	0.836490
S811	S81	0.392610	0.209640	0.869740
C4031	C403	0.407580	0.173870	0.818500
C4041	C404	0.368000	0.176790	0.860800
H811	H81	0.418100	0.165900	0.800100
C4051	C405	0.378800	0.159900	0.833100
O1631	O163	0.449900	0.747070	0.347470
O1641	O164	0.462130	0.716540	0.304790
C4061	C406	0.444860	0.723060	0.329230
C4071	C407	0.417160	0.701270	0.336490
S821	S82	0.392610	0.709640	0.369740
C4081	C408	0.407580	0.673870	0.318500
C4091	C409	0.368000	0.676790	0.360800
H821	H82	0.418100	0.665900	0.300100
C4101	C410	0.378800	0.659900	0.333100
O1651	O165	0.949900	0.247070	0.347470
O1661	O166	0.962130	0.216540	0.304790
C4111	C411	0.944860	0.223060	0.329230
C4121	C412	0.917160	0.201270	0.336490
S831	S83	0.892610	0.209640	0.369740
C4131	C413	0.907580	0.173870	0.318500
C4141	C414	0.868000	0.176790	0.360800
H831	H83	0.918100	0.165900	0.300100
C4151	C415	0.878800	0.159900	0.333100
O1671	O167	0.949900	0.747070	0.847470
O1681	O168	0.962130	0.716540	0.804790
C4161	C416	0.944860	0.723060	0.829230
C4171	C417	0.917160	0.701270	0.836490
S841	S84	0.892610	0.709640	0.869740
C4181	C418	0.907580	0.673870	0.818500
C4191	C419	0.868000	0.676790	0.860800
H841	H84	0.918100	0.665900	0.800100
C4201	C420	0.878800	0.659900	0.833100
O1691	O169	0.449900	0.752930	0.152530
O1701	O170	0.462130	0.783460	0.195210
C4211	C421	0.444860	0.776940	0.170770
C4221	C422	0.417160	0.798730	0.163510
S851	S85	0.392610	0.790360	0.130260
C4231	C423	0.407580	0.826130	0.181500
C4241	C424	0.368000	0.823210	0.139200
H851	H85	0.418100	0.834100	0.199900
C4251	C425	0.378800	0.840100	0.166900
O1711	O171	0.449900	0.252930	0.652530
O1721	O172	0.462130	0.283460	0.695210
C4261	C426	0.444860	0.276940	0.670770
C4271	C427	0.417160	0.298730	0.663510
S861	S86	0.392610	0.290360	0.630260
C4281	C428	0.407580	0.326130	0.681500
C4291	C429	0.368000	0.323210	0.639200
H861	H86	0.418100	0.334100	0.699900
C4301	C430	0.378800	0.340100	0.666900
O1731	O173	0.949900	0.752930	0.652530
O1741	O174	0.962130	0.783460	0.695210
C4311	C431	0.944860	0.776940	0.670770
C4321	C432	0.917160	0.798730	0.663510
S871	S87	0.892610	0.790360	0.630260
C4331	C433	0.907580	0.826130	0.681500
C4341	C434	0.868000	0.823210	0.639200
H871	H87	0.918100	0.834100	0.699900
C4351	C435	0.878800	0.840100	0.666900
O1751	O175	0.949900	0.252930	0.152530
O1761	O176	0.962130	0.283460	0.195210
C4361	C436	0.944860	0.276940	0.170770
C4371	C437	0.917160	0.298730	0.163510
S881	S88	0.892610	0.290360	0.130260
C4381	C438	0.907580	0.326130	0.181500
C4391	C439	0.868000	0.323210	0.139200
H881	H88	0.918100	0.334100	0.199900
C4401	C440	0.878800	0.340100	0.166900
O1771	O177	0.550100	0.247070	0.152530
O1781	O178	0.537870	0.216540	0.195210
C4411	C441	0.555140	0.223060	0.170770
C4421	C442	0.582840	0.201270	0.163510
S891	S89	0.607390	0.209640	0.130260
C4431	C443	0.592420	0.173870	0.181500
C4441	C444	0.632000	0.176790	0.139200
H891	H89	0.581900	0.165900	0.199900
C4451	C445	0.621200	0.159900	0.166900
O1791	O179	0.550100	0.747070	0.652530
O1801	O180	0.537870	0.716540	0.695210
C4461	C446	0.555140	0.723060	0.670770
C4471	C447	0.582840	0.701270	0.663510
S901	S90	0.607390	0.709640	0.630260
C4481	C448	0.592420	0.673870	0.681500
C4491	C449	0.632000	0.676790	0.639200
H901	H90	0.581900	0.665900	0.699900
C4501	C450	0.621200	0.659900	0.666900
O1811	O181	0.050100	0.247070	0.652530
O1821	O182	0.037870	0.216540	0.695210
C4511	C451	0.055140	0.223060	0.670770
C4521	C452	0.082840	0.201270	0.663510
S911	S91	0.107390	0.209640	0.630260
C4531	C453	0.092420	0.173870	0.681500
C4541	C454	0.132000	0.176790	0.639200
H911	H91	0.081900	0.165900	0.699900
C4551	C455	0.121200	0.159900	0.666900
O1831	O183	0.050100	0.747070	0.152530
O1841	O184	0.037870	0.716540	0.195210
C4561	C456	0.055140	0.723060	0.170770
C4571	C457	0.082840	0.701270	0.163510
S921	S92	0.107390	0.709640	0.130260
C4581	C458	0.092420	0.673870	0.181500
C4591	C459	0.132000	0.676790	0.139200
H921	H92	0.081900	0.665900	0.199900
C4601	C460	0.121200	0.659900	0.166900
O1851	O185	0.550100	0.752930	0.847470
O1861	O186	0.537870	0.783460	0.804790
C4611	C461	0.555140	0.776940	0.829230
C4621	C462	0.582840	0.798730	0.836490
S931	S93	0.607390	0.790360	0.869740
C4631	C463	0.592420	0.826130	0.818500
C4641	C464	0.632000	0.823210	0.860800
H931	H93	0.581900	0.834100	0.800100
C4651	C465	0.621200	0.840100	0.833100
O1871	O187	0.550100	0.252930	0.347470
O1881	O188	0.537870	0.283460	0.304790
C4661	C466	0.555140	0.276940	0.329230
C4671	C467	0.582840	0.298730	0.336490
S941	S94	0.607390	0.290360	0.369740
C4681	C468	0.592420	0.326130	0.318500
C4691	C469	0.632000	0.323210	0.360800
H941	H94	0.581900	0.334100	0.300100
C4701	C470	0.621200	0.340100	0.333100
O1891	O189	0.050100	0.752930	0.347470
O1901	O190	0.037870	0.783460	0.304790
C4711	C471	0.055140	0.776940	0.329230
C4721	C472	0.082840	0.798730	0.336490
S951	S95	0.107390	0.790360	0.369740
C4731	C473	0.092420	0.826130	0.318500
C4741	C474	0.132000	0.823210	0.360800
H951	H95	0.081900	0.834100	0.300100
C4751	C475	0.121200	0.840100	0.333100
O1911	O191	0.050100	0.252930	0.847470
O1921	O192	0.037870	0.283460	0.804790
C4761	C476	0.055140	0.276940	0.829230
C4771	C477	0.082840	0.298730	0.836490
S961	S96	0.107390	0.290360	0.869740
C4781	C478	0.092420	0.326130	0.818500
C4791	C479	0.132000	0.323210	0.860800
H961	H96	0.081900	0.334100	0.800100
C4801	C480	0.121200	0.340100	0.833100
O1931	O193	0.347470	0.252930	0.050100
O1941	O194	0.304790	0.283460	0.037870
C4811	C481	0.329230	0.276940	0.055140
C4821	C482	0.336490	0.298730	0.082840
S971	S97	0.369740	0.290360	0.107390
C4831	C483	0.318500	0.326130	0.092420
C4841	C484	0.360800	0.323210	0.132000
H971	H97	0.300100	0.334100	0.081900
C4851	C485	0.333100	0.340100	0.121200
O1951	O195	0.347470	0.752930	0.550100
O1961	O196	0.304790	0.783460	0.537870
C4861	C486	0.329230	0.776940	0.555140
C4871	C487	0.336490	0.798730	0.582840
S981	S98	0.369740	0.790360	0.607390
C4881	C488	0.318500	0.826130	0.592420
C4891	C489	0.360800	0.823210	0.632000
H981	H98	0.300100	0.834100	0.581900
C4901	C490	0.333100	0.840100	0.621200
O1971	O197	0.847470	0.252930	0.550100
O1981	O198	0.804790	0.283460	0.537870
C4911	C491	0.829230	0.276940	0.555140
C4921	C492	0.836490	0.298730	0.582840
S991	S99	0.869740	0.290360	0.607390
C4931	C493	0.818500	0.326130	0.592420
C4941	C494	0.860800	0.323210	0.632000
H991	H99	0.800100	0.334100	0.581900
C4951	C495	0.833100	0.340100	0.621200
O1991	O199	0.847470	0.752930	0.050100
O2001	O200	0.804790	0.783460	0.037870
C4961	C496	0.829230	0.776940	0.055140
C4971	C497	0.836490	0.798730	0.082840
S1001	S100	0.869740	0.790360	0.107390
C4981	C498	0.818500	0.826130	0.092420
C4991	C499	0.860800	0.823210	0.132000
H1001	H100	0.800100	0.834100	0.081900
C5001	C500	0.833100	0.840100	0.121200
O2011	O201	0.652530	0.747070	0.050100
O2021	O202	0.695210	0.716540	0.037870
C5011	C501	0.670770	0.723060	0.055140
C5021	C502	0.663510	0.701270	0.082840
S1011	S101	0.630260	0.709640	0.107390
C5031	C503	0.681500	0.673870	0.092420
C5041	C504	0.639200	0.676790	0.132000
H1011	H101	0.699900	0.665900	0.081900
C5051	C505	0.666900	0.659900	0.121200
O2031	O203	0.652530	0.247070	0.550100
O2041	O204	0.695210	0.216540	0.537870
C5061	C506	0.670770	0.223060	0.555140
C5071	C507	0.663510	0.201270	0.582840
S1021	S102	0.630260	0.209640	0.607390
C5081	C508	0.681500	0.173870	0.592420
C5091	C509	0.639200	0.176790	0.632000
H1021	H102	0.699900	0.165900	0.581900
C5101	C510	0.666900	0.159900	0.621200
O2051	O205	0.152530	0.747070	0.550100
O2061	O206	0.195210	0.716540	0.537870
C5111	C511	0.170770	0.723060	0.555140
C5121	C512	0.163510	0.701270	0.582840
S1031	S103	0.130260	0.709640	0.607390
C5131	C513	0.181500	0.673870	0.592420
C5141	C514	0.139200	0.676790	0.632000
H1031	H103	0.199900	0.665900	0.581900
C5151	C515	0.166900	0.659900	0.621200
O2071	O207	0.152530	0.247070	0.050100
O2081	O208	0.195210	0.216540	0.037870
C5161	C516	0.170770	0.223060	0.055140
C5171	C517	0.163510	0.201270	0.082840
S1041	S104	0.130260	0.209640	0.107390
C5181	C518	0.181500	0.173870	0.092420
C5191	C519	0.139200	0.176790	0.132000
H1041	H104	0.199900	0.165900	0.081900
C5201	C520	0.166900	0.159900	0.121200
O2091	O209	0.652530	0.252930	0.949900
O2101	O210	0.695210	0.283460	0.962130
C5211	C521	0.670770	0.276940	0.944860
C5221	C522	0.663510	0.298730	0.917160
S1051	S105	0.630260	0.290360	0.892610
C5231	C523	0.681500	0.326130	0.907580
C5241	C524	0.639200	0.323210	0.868000
H1051	H105	0.699900	0.334100	0.918100
C5251	C525	0.666900	0.340100	0.878800
O2111	O211	0.652530	0.752930	0.449900
O2121	O212	0.695210	0.783460	0.462130
C5261	C526	0.670770	0.776940	0.444860
C5271	C527	0.663510	0.798730	0.417160
S1061	S106	0.630260	0.790360	0.392610
C5281	C528	0.681500	0.826130	0.407580
C5291	C529	0.639200	0.823210	0.368000
H1061	H106	0.699900	0.834100	0.418100
C5301	C530	0.666900	0.840100	0.378800
O2131	O213	0.152530	0.252930	0.449900
O2141	O214	0.195210	0.283460	0.462130
C5311	C531	0.170770	0.276940	0.444860
C5321	C532	0.163510	0.298730	0.417160
S1071	S107	0.130260	0.290360	0.392610
C5331	C533	0.181500	0.326130	0.407580
C5341	C534	0.139200	0.323210	0.368000
H1071	H107	0.199900	0.334100	0.418100
C5351	C535	0.166900	0.340100	0.378800
O2151	O215	0.152530	0.752930	0.949900
O2161	O216	0.195210	0.783460	0.962130
C5361	C536	0.170770	0.776940	0.944860
C5371	C537	0.163510	0.798730	0.917160
S1081	S108	0.130260	0.790360	0.892610
C5381	C538	0.181500	0.826130	0.907580
C5391	C539	0.139200	0.823210	0.868000
H1081	H108	0.199900	0.834100	0.918100
C5401	C540	0.166900	0.840100	0.878800
O2171	O217	0.347470	0.747070	0.949900
O2181	O218	0.304790	0.716540	0.962130
C5411	C541	0.329230	0.723060	0.944860
C5421	C542	0.336490	0.701270	0.917160
S1091	S109	0.369740	0.709640	0.892610
C5431	C543	0.318500	0.673870	0.907580
C5441	C544	0.360800	0.676790	0.868000
H1091	H109	0.300100	0.665900	0.918100
C5451	C545	0.333100	0.659900	0.878800
O2191	O219	0.347470	0.247070	0.449900
O2201	O220	0.304790	0.216540	0.462130
C5461	C546	0.329230	0.223060	0.444860
C5471	C547	0.336490	0.201270	0.417160
S1101	S110	0.369740	0.209640	0.392610
C5481	C548	0.318500	0.173870	0.407580
C5491	C549	0.360800	0.176790	0.368000
H1101	H110	0.300100	0.165900	0.418100
C5501	C550	0.333100	0.159900	0.378800
O2211	O221	0.847470	0.747070	0.449900
O2221	O222	0.804790	0.716540	0.462130
C5511	C551	0.829230	0.723060	0.444860
C5521	C552	0.836490	0.701270	0.417160
S1111	S111	0.869740	0.709640	0.392610
C5531	C553	0.818500	0.673870	0.407580
C5541	C554	0.860800	0.676790	0.368000
H1111	H111	0.800100	0.665900	0.418100
C5551	C555	0.833100	0.659900	0.378800
O2231	O223	0.847470	0.247070	0.949900
O2241	O224	0.804790	0.216540	0.962130
C5561	C556	0.829230	0.223060	0.944860
C5571	C557	0.836490	0.201270	0.917160
S1121	S112	0.869740	0.209640	0.892610
C5581	C558	0.818500	0.173870	0.907580
C5591	C559	0.860800	0.176790	0.868000
H1121	H112	0.800100	0.165900	0.918100
C5601	C560	0.833100	0.159900	0.878800
O2251	O225	0.050100	0.347470	0.252930
O2261	O226	0.037870	0.304790	0.283460
C5611	C561	0.055140	0.329230	0.276940
C5621	C562	0.082840	0.336490	0.298730
S1131	S113	0.107390	0.369740	0.290360
C5631	C563	0.092420	0.318500	0.326130
C5641	C564	0.132000	0.360800	0.323210
H1131	H113	0.081900	0.300100	0.334100
C5651	C565	0.121200	0.333100	0.340100
O2271	O227	0.050100	0.847470	0.752930
O2281	O228	0.037870	0.804790	0.783460
C5661	C566	0.055140	0.829230	0.776940
C5671	C567	0.082840	0.836490	0.798730
S1141	S114	0.107390	0.869740	0.790360
C5681	C568	0.092420	0.818500	0.826130
C5691	C569	0.132000	0.860800	0.823210
H1141	H114	0.081900	0.800100	0.834100
C5701	C570	0.121200	0.833100	0.840100
O2291	O229	0.550100	0.347470	0.752930
O2301	O230	0.537870	0.304790	0.783460
C5711	C571	0.555140	0.329230	0.776940
C5721	C572	0.582840	0.336490	0.798730
S1151	S115	0.607390	0.369740	0.790360
C5731	C573	0.592420	0.318500	0.826130
C5741	C574	0.632000	0.360800	0.823210
H1151	H115	0.581900	0.300100	0.834100
C5751	C575	0.621200	0.333100	0.840100
O2311	O231	0.550100	0.847470	0.252930
O2321	O232	0.537870	0.804790	0.283460
C5761	C576	0.555140	0.829230	0.276940
C5771	C577	0.582840	0.836490	0.298730
S1161	S116	0.607390	0.869740	0.290360
C5781	C578	0.592420	0.818500	0.326130
C5791	C579	0.632000	0.860800	0.323210
H1161	H116	0.581900	0.800100	0.334100
C5801	C580	0.621200	0.833100	0.340100
O2331	O233	0.050100	0.652530	0.747070
O2341	O234	0.037870	0.695210	0.716540
C5811	C581	0.055140	0.670770	0.723060
C5821	C582	0.082840	0.663510	0.701270
S1171	S117	0.107390	0.630260	0.709640
C5831	C583	0.092420	0.681500	0.673870
C5841	C584	0.132000	0.639200	0.676790
H1171	H117	0.081900	0.699900	0.665900
C5851	C585	0.121200	0.666900	0.659900
O2351	O235	0.050100	0.152530	0.247070
O2361	O236	0.037870	0.195210	0.216540
C5861	C586	0.055140	0.170770	0.223060
C5871	C587	0.082840	0.163510	0.201270
S1181	S118	0.107390	0.130260	0.209640
C5881	C588	0.092420	0.181500	0.173870
C5891	C589	0.132000	0.139200	0.176790
H1181	H118	0.081900	0.199900	0.165900
C5901	C590	0.121200	0.166900	0.159900
O2371	O237	0.550100	0.652530	0.247070
O2381	O238	0.537870	0.695210	0.216540
C5911	C591	0.555140	0.670770	0.223060
C5921	C592	0.582840	0.663510	0.201270
S1191	S119	0.607390	0.630260	0.209640
C5931	C593	0.592420	0.681500	0.173870
C5941	C594	0.632000	0.639200	0.176790
H1191	H119	0.581900	0.699900	0.165900
C5951	C595	0.621200	0.666900	0.159900
O2391	O239	0.550100	0.152530	0.747070
O2401	O240	0.537870	0.195210	0.716540
C5961	C596	0.555140	0.170770	0.723060
C5971	C597	0.582840	0.163510	0.701270
S1201	S120	0.607390	0.130260	0.709640
C5981	C598	0.592420	0.181500	0.673870
C5991	C599	0.632000	0.139200	0.676790
H1201	H120	0.581900	0.199900	0.665900
C6001	C600	0.621200	0.166900	0.659900
O2411	O241	0.949900	0.652530	0.252930
O2421	O242	0.962130	0.695210	0.283460
C6011	C601	0.944860	0.670770	0.276940
C6021	C602	0.917160	0.663510	0.298730
S1211	S121	0.892610	0.630260	0.290360
C6031	C603	0.907580	0.681500	0.326130
C6041	C604	0.868000	0.639200	0.323210
H1211	H121	0.918100	0.699900	0.334100
C6051	C605	0.878800	0.666900	0.340100
O2431	O243	0.949900	0.152530	0.752930
O2441	O244	0.962130	0.195210	0.783460
C6061	C606	0.944860	0.170770	0.776940
C6071	C607	0.917160	0.163510	0.798730
S1221	S122	0.892610	0.130260	0.790360
C6081	C608	0.907580	0.181500	0.826130
C6091	C609	0.868000	0.139200	0.823210
H1221	H122	0.918100	0.199900	0.834100
C6101	C610	0.878800	0.166900	0.840100
O2451	O245	0.449900	0.652530	0.752930
O2461	O246	0.462130	0.695210	0.783460
C6111	C611	0.444860	0.670770	0.776940
C6121	C612	0.417160	0.663510	0.798730
S1231	S123	0.392610	0.630260	0.790360
C6131	C613	0.407580	0.681500	0.826130
C6141	C614	0.368000	0.639200	0.823210
H1231	H123	0.418100	0.699900	0.834100
C6151	C615	0.378800	0.666900	0.840100
O2471	O247	0.449900	0.152530	0.252930
O2481	O248	0.462130	0.195210	0.283460
C6161	C616	0.444860	0.170770	0.276940
C6171	C617	0.417160	0.163510	0.298730
S1241	S124	0.392610	0.130260	0.290360
C6181	C618	0.407580	0.181500	0.326130
C6191	C619	0.368000	0.139200	0.323210
H1241	H124	0.418100	0.199900	0.334100
C6201	C620	0.378800	0.166900	0.340100
O2491	O249	0.949900	0.347470	0.747070
O2501	O250	0.962130	0.304790	0.716540
C6211	C621	0.944860	0.329230	0.723060
C6221	C622	0.917160	0.336490	0.701270
S1251	S125	0.892610	0.369740	0.709640
C6231	C623	0.907580	0.318500	0.673870
C6241	C624	0.868000	0.360800	0.676790
H1251	H125	0.918100	0.300100	0.665900
C6251	C625	0.878800	0.333100	0.659900
O2511	O251	0.949900	0.847470	0.247070
O2521	O252	0.962130	0.804790	0.216540
C6261	C626	0.944860	0.829230	0.223060
C6271	C627	0.917160	0.836490	0.201270
S1261	S126	0.892610	0.869740	0.209640
C6281	C628	0.907580	0.818500	0.173870
C6291	C629	0.868000	0.860800	0.176790
H1261	H126	0.918100	0.800100	0.165900
C6301	C630	0.878800	0.833100	0.159900
O2531	O253	0.449900	0.347470	0.247070
O2541	O254	0.462130	0.304790	0.216540
C6311	C631	0.444860	0.329230	0.223060
C6321	C632	0.417160	0.336490	0.201270
S1271	S127	0.392610	0.369740	0.209640
C6331	C633	0.407580	0.318500	0.173870
C6341	C634	0.368000	0.360800	0.176790
H1271	H127	0.418100	0.300100	0.165900
C6351	C635	0.378800	0.333100	0.159900
O2551	O255	0.449900	0.847470	0.747070
O2561	O256	0.462130	0.804790	0.716540
C6361	C636	0.444860	0.829230	0.723060
C6371	C637	0.417160	0.836490	0.701270
S1281	S128	0.392610	0.869740	0.709640
C6381	C638	0.407580	0.818500	0.673870
C6391	C639	0.368000	0.860800	0.676790
H1281	H128	0.418100	0.800100	0.665900
C6401	C640	0.378800	0.833100	0.659900
O2571	O257	0.252930	0.050100	0.347470
O2581	O258	0.283460	0.037870	0.304790
C6411	C641	0.276940	0.055140	0.329230
C6421	C642	0.298730	0.082840	0.336490
S1291	S129	0.290360	0.107390	0.369740
C6431	C643	0.326130	0.092420	0.318500
C6441	C644	0.323210	0.132000	0.360800
H1291	H129	0.334100	0.081900	0.300100
C6451	C645	0.340100	0.121200	0.333100
O2591	O259	0.252930	0.550100	0.847470
O2601	O260	0.283460	0.537870	0.804790
C6461	C646	0.276940	0.555140	0.829230
C6471	C647	0.298730	0.582840	0.836490
S1301	S130	0.290360	0.607390	0.869740
C6481	C648	0.326130	0.592420	0.818500
C6491	C649	0.323210	0.632000	0.860800
H1301	H130	0.334100	0.581900	0.800100
C6501	C650	0.340100	0.621200	0.833100
O2611	O261	0.752930	0.050100	0.847470
O2621	O262	0.783460	0.037870	0.804790
C6511	C651	0.776940	0.055140	0.829230
C6521	C652	0.798730	0.082840	0.836490
S1311	S131	0.790360	0.107390	0.869740
C6531	C653	0.826130	0.092420	0.818500
C6541	C654	0.823210	0.132000	0.860800
H1311	H131	0.834100	0.081900	0.800100
C6551	C655	0.840100	0.121200	0.833100
O2631	O263	0.752930	0.550100	0.347470
O2641	O264	0.783460	0.537870	0.304790
C6561	C656	0.776940	0.555140	0.329230
C6571	C657	0.798730	0.582840	0.336490
S1321	S132	0.790360	0.607390	0.369740
C6581	C658	0.826130	0.592420	0.318500
C6591	C659	0.823210	0.632000	0.360800
H1321	H132	0.834100	0.581900	0.300100
C6601	C660	0.840100	0.621200	0.333100
O2651	O265	0.747070	0.050100	0.652530
O2661	O266	0.716540	0.037870	0.695210
C6611	C661	0.723060	0.055140	0.670770
C6621	C662	0.701270	0.082840	0.663510
S1331	S133	0.709640	0.107390	0.630260
C6631	C663	0.673870	0.092420	0.681500
C6641	C664	0.676790	0.132000	0.639200
H1331	H133	0.665900	0.081900	0.699900
C6651	C665	0.659900	0.121200	0.666900
O2671	O267	0.747070	0.550100	0.152530
O2681	O268	0.716540	0.537870	0.195210
C6661	C666	0.723060	0.555140	0.170770
C6671	C667	0.701270	0.582840	0.163510
S1341	S134	0.709640	0.607390	0.130260
C6681	C668	0.673870	0.592420	0.181500
C6691	C669	0.676790	0.632000	0.139200
H1341	H134	0.665900	0.581900	0.199900
C6701	C670	0.659900	0.621200	0.166900
O2691	O269	0.247070	0.050100	0.152530
O2701	O270	0.216540	0.037870	0.195210
C6711	C671	0.223060	0.055140	0.170770
C6721	C672	0.201270	0.082840	0.163510
S1351	S135	0.209640	0.107390	0.130260
C6731	C673	0.173870	0.092420	0.181500
C6741	C674	0.176790	0.132000	0.139200
H1351	H135	0.165900	0.081900	0.199900
C6751	C675	0.159900	0.121200	0.166900
O2711	O271	0.247070	0.550100	0.652530
O2721	O272	0.216540	0.537870	0.695210
C6761	C676	0.223060	0.555140	0.670770
C6771	C677	0.201270	0.582840	0.663510
S1361	S136	0.209640	0.607390	0.630260
C6781	C678	0.173870	0.592420	0.681500
C6791	C679	0.176790	0.632000	0.639200
H1361	H136	0.165900	0.581900	0.699900
C6801	C680	0.159900	0.621200	0.666900
O2731	O273	0.252930	0.949900	0.652530
O2741	O274	0.283460	0.962130	0.695210
C6811	C681	0.276940	0.944860	0.670770
C6821	C682	0.298730	0.917160	0.663510
S1371	S137	0.290360	0.892610	0.630260
C6831	C683	0.326130	0.907580	0.681500
C6841	C684	0.323210	0.868000	0.639200
H1371	H137	0.334100	0.918100	0.699900
C6851	C685	0.340100	0.878800	0.666900
O2751	O275	0.252930	0.449900	0.152530
O2761	O276	0.283460	0.462130	0.195210
C6861	C686	0.276940	0.444860	0.170770
C6871	C687	0.298730	0.417160	0.163510
S1381	S138	0.290360	0.392610	0.130260
C6881	C688	0.326130	0.407580	0.181500
C6891	C689	0.323210	0.368000	0.139200
H1381	H138	0.334100	0.418100	0.199900
C6901	C690	0.340100	0.378800	0.166900
O2771	O277	0.752930	0.949900	0.152530
O2781	O278	0.783460	0.962130	0.195210
C6911	C691	0.776940	0.944860	0.170770
C6921	C692	0.798730	0.917160	0.163510
S1391	S139	0.790360	0.892610	0.130260
C6931	C693	0.826130	0.907580	0.181500
C6941	C694	0.823210	0.868000	0.139200
H1391	H139	0.834100	0.918100	0.199900
C6951	C695	0.840100	0.878800	0.166900
O2791	O279	0.752930	0.449900	0.652530
O2801	O280	0.783460	0.462130	0.695210
C6961	C696	0.776940	0.444860	0.670770
C6971	C697	0.798730	0.417160	0.663510
S1401	S140	0.790360	0.392610	0.630260
C6981	C698	0.826130	0.407580	0.681500
C6991	C699	0.823210	0.368000	0.639200
H1401	H140	0.834100	0.418100	0.699900
C7001	C700	0.840100	0.378800	0.666900
O2811	O281	0.747070	0.949900	0.347470
O2821	O282	0.716540	0.962130	0.304790
C7011	C701	0.723060	0.944860	0.329230
C7021	C702	0.701270	0.917160	0.336490
S1411	S141	0.709640	0.892610	0.369740
C7031	C703	0.673870	0.907580	0.318500
C7041	C704	0.676790	0.868000	0.360800
H1411	H141	0.665900	0.918100	0.300100
C7051	C705	0.659900	0.878800	0.333100
O2831	O283	0.747070	0.449900	0.847470
O2841	O284	0.716540	0.462130	0.804790
C7061	C706	0.723060	0.444860	0.829230
C7071	C707	0.701270	0.417160	0.836490
S1421	S142	0.709640	0.392610	0.869740
C7081	C708	0.673870	0.407580	0.818500
C7091	C709	0.676790	0.368000	0.860800
H1421	H142	0.665900	0.418100	0.800100
C7101	C710	0.659900	0.378800	0.833100
O2851	O285	0.247070	0.949900	0.847470
O2861	O286	0.216540	0.962130	0.804790
C7111	C711	0.223060	0.944860	0.829230
C7121	C712	0.201270	0.917160	0.836490
S1431	S143	0.209640	0.892610	0.869740
C7131	C713	0.173870	0.907580	0.818500
C7141	C714	0.176790	0.868000	0.860800
H1431	H143	0.165900	0.918100	0.800100
C7151	C715	0.159900	0.878800	0.833100
O2871	O287	0.247070	0.449900	0.347470
O2881	O288	0.216540	0.462130	0.304790
C7161	C716	0.223060	0.444860	0.329230
C7171	C717	0.201270	0.417160	0.336490
S1441	S144	0.209640	0.392610	0.369740
C7181	C718	0.173870	0.407580	0.318500
C7191	C719	0.176790	0.368000	0.360800
H1441	H144	0.165900	0.418100	0.300100
C7201	C720	0.159900	0.378800	0.333100
O2891	O289	0.752930	0.847470	0.449900
O2901	O290	0.783460	0.804790	0.462130
C7211	C721	0.776940	0.829230	0.444860
C7221	C722	0.798730	0.836490	0.417160
S1451	S145	0.790360	0.869740	0.392610
C7231	C723	0.826130	0.818500	0.407580
C7241	C724	0.823210	0.860800	0.368000
H1451	H145	0.834100	0.800100	0.418100
C7251	C725	0.840100	0.833100	0.378800
O2911	O291	0.752930	0.347470	0.949900
O2921	O292	0.783460	0.304790	0.962130
C7261	C726	0.776940	0.329230	0.944860
C7271	C727	0.798730	0.336490	0.917160
S1461	S146	0.790360	0.369740	0.892610
C7281	C728	0.826130	0.318500	0.907580
C7291	C729	0.823210	0.360800	0.868000
H1461	H146	0.834100	0.300100	0.918100
C7301	C730	0.840100	0.333100	0.878800
O2931	O293	0.252930	0.847470	0.949900
O2941	O294	0.283460	0.804790	0.962130
C7311	C731	0.276940	0.829230	0.944860
C7321	C732	0.298730	0.836490	0.917160
S1471	S147	0.290360	0.869740	0.892610
C7331	C733	0.326130	0.818500	0.907580
C7341	C734	0.323210	0.860800	0.868000
H1471	H147	0.334100	0.800100	0.918100
C7351	C735	0.340100	0.833100	0.878800
O2951	O295	0.252930	0.347470	0.449900
O2961	O296	0.283460	0.304790	0.462130
C7361	C736	0.276940	0.329230	0.444860
C7371	C737	0.298730	0.336490	0.417160
S1481	S148	0.290360	0.369740	0.392610
C7381	C738	0.326130	0.318500	0.407580
C7391	C739	0.323210	0.360800	0.368000
H1481	H148	0.334100	0.300100	0.418100
C7401	C740	0.340100	0.333100	0.378800
O2971	O297	0.247070	0.152530	0.449900
O2981	O298	0.216540	0.195210	0.462130
C7411	C741	0.223060	0.170770	0.444860
C7421	C742	0.201270	0.163510	0.417160
S1491	S149	0.209640	0.130260	0.392610
C7431	C743	0.173870	0.181500	0.407580
C7441	C744	0.176790	0.139200	0.368000
H1491	H149	0.165900	0.199900	0.418100
C7451	C745	0.159900	0.166900	0.378800
O2991	O299	0.247070	0.652530	0.949900
O3001	O300	0.216540	0.695210	0.962130
C7461	C746	0.223060	0.670770	0.944860
C7471	C747	0.201270	0.663510	0.917160
S1501	S150	0.209640	0.630260	0.892610
C7481	C748	0.173870	0.681500	0.907580
C7491	C749	0.176790	0.639200	0.868000
H1501	H150	0.165900	0.699900	0.918100
C7501	C750	0.159900	0.666900	0.878800
O3011	O301	0.747070	0.152530	0.949900
O3021	O302	0.716540	0.195210	0.962130
C7511	C751	0.723060	0.170770	0.944860
C7521	C752	0.701270	0.163510	0.917160
S1511	S151	0.709640	0.130260	0.892610
C7531	C753	0.673870	0.181500	0.907580
C7541	C754	0.676790	0.139200	0.868000
H1511	H151	0.665900	0.199900	0.918100
C7551	C755	0.659900	0.166900	0.878800
O3031	O303	0.747070	0.652530	0.449900
O3041	O304	0.716540	0.695210	0.462130
C7561	C756	0.723060	0.670770	0.444860
C7571	C757	0.701270	0.663510	0.417160
S1521	S152	0.709640	0.630260	0.392610
C7581	C758	0.673870	0.681500	0.407580
C7591	C759	0.676790	0.639200	0.368000
H1521	H152	0.665900	0.699900	0.418100
C7601	C760	0.659900	0.666900	0.378800
O3051	O305	0.752930	0.152530	0.550100
O3061	O306	0.783460	0.195210	0.537870
C7611	C761	0.776940	0.170770	0.555140
C7621	C762	0.798730	0.163510	0.582840
S1531	S153	0.790360	0.130260	0.607390
C7631	C763	0.826130	0.181500	0.592420
C7641	C764	0.823210	0.139200	0.632000
H1531	H153	0.834100	0.199900	0.581900
C7651	C765	0.840100	0.166900	0.621200
O3071	O307	0.752930	0.652530	0.050100
O3081	O308	0.783460	0.695210	0.037870
C7661	C766	0.776940	0.670770	0.055140
C7671	C767	0.798730	0.663510	0.082840
S1541	S154	0.790360	0.630260	0.107390
C7681	C768	0.826130	0.681500	0.092420
C7691	C769	0.823210	0.639200	0.132000
H1541	H154	0.834100	0.699900	0.081900
C7701	C770	0.840100	0.666900	0.121200
O3091	O309	0.252930	0.152530	0.050100
O3101	O310	0.283460	0.195210	0.037870
C7711	C771	0.276940	0.170770	0.055140
C7721	C772	0.298730	0.163510	0.082840
S1551	S155	0.290360	0.130260	0.107390
C7731	C773	0.326130	0.181500	0.092420
C7741	C774	0.323210	0.139200	0.132000
H1551	H155	0.334100	0.199900	0.081900
C7751	C775	0.340100	0.166900	0.121200
O3111	O311	0.252930	0.652530	0.550100
O3121	O312	0.283460	0.695210	0.537870
C7761	C776	0.276940	0.670770	0.555140
C7771	C777	0.298730	0.663510	0.582840
S1561	S156	0.290360	0.630260	0.607390
C7781	C778	0.326130	0.681500	0.592420
C7791	C779	0.323210	0.639200	0.632000
H1561	H156	0.334100	0.699900	0.581900
C7801	C780	0.340100	0.666900	0.621200
O3131	O313	0.247070	0.847470	0.550100
O3141	O314	0.216540	0.804790	0.537870
C7811	C781	0.223060	0.829230	0.555140
C7821	C782	0.201270	0.836490	0.582840
S1571	S157	0.209640	0.869740	0.607390
C7831	C783	0.173870	0.818500	0.592420
C7841	C784	0.176790	0.860800	0.632000
H1571	H157	0.165900	0.800100	0.581900
C7851	C785	0.159900	0.833100	0.621200
O3151	O315	0.247070	0.347470	0.050100
O3161	O316	0.216540	0.304790	0.037870
C7861	C786	0.223060	0.329230	0.055140
C7871	C787	0.201270	0.336490	0.082840
S1581	S158	0.209640	0.369740	0.107390
C7881	C788	0.173870	0.318500	0.092420
C7891	C789	0.176790	0.360800	0.132000
H1581	H158	0.165900	0.300100	0.081900
C7901	C790	0.159900	0.333100	0.121200
O3171	O317	0.747070	0.847470	0.050100
O3181	O318	0.716540	0.804790	0.037870
C7911	C791	0.723060	0.829230	0.055140
C7921	C792	0.701270	0.836490	0.082840
S1591	S159	0.709640	0.869740	0.107390
C7931	C793	0.673870	0.818500	0.092420
C7941	C794	0.676790	0.860800	0.132000
H1591	H159	0.665900	0.800100	0.081900
C7951	C795	0.659900	0.833100	0.121200
O3191	O319	0.747070	0.347470	0.550100
O3201	O320	0.716540	0.304790	0.537870
C7961	C796	0.723060	0.329230	0.555140
C7971	C797	0.701270	0.336490	0.582840
S1601	S160	0.709640	0.369740	0.607390
C7981	C798	0.673870	0.318500	0.592420
C7991	C799	0.676790	0.360800	0.632000
H1601	H160	0.665900	0.300100	0.581900
C8001	C800	0.659900	0.333100	0.621200
O3211	O321	0.847470	0.550100	0.247070
O3221	O322	0.804790	0.537870	0.216540
C8011	C801	0.829230	0.555140	0.223060
C8021	C802	0.836490	0.582840	0.201270
S1611	S161	0.869740	0.607390	0.209640
C8031	C803	0.818500	0.592420	0.173870
C8041	C804	0.860800	0.632000	0.176790
H1611	H161	0.800100	0.581900	0.165900
C8051	C805	0.833100	0.621200	0.159900
O3231	O323	0.847470	0.050100	0.747070
O3241	O324	0.804790	0.037870	0.716540
C8061	C806	0.829230	0.055140	0.723060
C8071	C807	0.836490	0.082840	0.701270
S1621	S162	0.869740	0.107390	0.709640
C8081	C808	0.818500	0.092420	0.673870
C8091	C809	0.860800	0.132000	0.676790
H1621	H162	0.800100	0.081900	0.665900
C8101	C810	0.833100	0.121200	0.659900
O3251	O325	0.347470	0.550100	0.747070
O3261	O326	0.304790	0.537870	0.716540
C8111	C811	0.329230	0.555140	0.723060
C8121	C812	0.336490	0.582840	0.701270
S1631	S163	0.369740	0.607390	0.709640
C8131	C813	0.318500	0.592420	0.673870
C8141	C814	0.360800	0.632000	0.676790
H1631	H163	0.300100	0.581900	0.665900
C8151	C815	0.333100	0.621200	0.659900
O3271	O327	0.347470	0.050100	0.247070
O3281	O328	0.304790	0.037870	0.216540
C8161	C816	0.329230	0.055140	0.223060
C8171	C817	0.336490	0.082840	0.201270
S1641	S164	0.369740	0.107390	0.209640
C8181	C818	0.318500	0.092420	0.173870
C8191	C819	0.360800	0.132000	0.176790
H1641	H164	0.300100	0.081900	0.165900
C8201	C820	0.333100	0.121200	0.159900
O3291	O329	0.152530	0.550100	0.752930
O3301	O330	0.195210	0.537870	0.783460
C8211	C821	0.170770	0.555140	0.776940
C8221	C822	0.163510	0.582840	0.798730
S1651	S165	0.130260	0.607390	0.790360
C8231	C823	0.181500	0.592420	0.826130
C8241	C824	0.139200	0.632000	0.823210
H1651	H165	0.199900	0.581900	0.834100
C8251	C825	0.166900	0.621200	0.840100
O3311	O331	0.152530	0.050100	0.252930
O3321	O332	0.195210	0.037870	0.283460
C8261	C826	0.170770	0.055140	0.276940
C8271	C827	0.163510	0.082840	0.298730
S1661	S166	0.130260	0.107390	0.290360
C8281	C828	0.181500	0.092420	0.326130
C8291	C829	0.139200	0.132000	0.323210
H1661	H166	0.199900	0.081900	0.334100
C8301	C830	0.166900	0.121200	0.340100
O3331	O333	0.652530	0.550100	0.252930
O3341	O334	0.695210	0.537870	0.283460
C8311	C831	0.670770	0.555140	0.276940
C8321	C832	0.663510	0.582840	0.298730
S1671	S167	0.630260	0.607390	0.290360
C8331	C833	0.681500	0.592420	0.326130
C8341	C834	0.639200	0.632000	0.323210
H1671	H167	0.699900	0.581900	0.334100
C8351	C835	0.666900	0.621200	0.340100
O3351	O335	0.652530	0.050100	0.752930
O3361	O336	0.695210	0.037870	0.783460
C8361	C836	0.670770	0.055140	0.776940
C8371	C837	0.663510	0.082840	0.798730
S1681	S168	0.630260	0.107390	0.790360
C8381	C838	0.681500	0.092420	0.826130
C8391	C839	0.639200	0.132000	0.823210
H1681	H168	0.699900	0.081900	0.834100
C8401	C840	0.666900	0.121200	0.840100
O3371	O337	0.152530	0.449900	0.247070
O3381	O338	0.195210	0.462130	0.216540
C8411	C841	0.170770	0.444860	0.223060
C8421	C842	0.163510	0.417160	0.201270
S1691	S169	0.130260	0.392610	0.209640
C8431	C843	0.181500	0.407580	0.173870
C8441	C844	0.139200	0.368000	0.176790
H1691	H169	0.199900	0.418100	0.165900
C8451	C845	0.166900	0.378800	0.159900
O3391	O339	0.152530	0.949900	0.747070
O3401	O340	0.195210	0.962130	0.716540
C8461	C846	0.170770	0.944860	0.723060
C8471	C847	0.163510	0.917160	0.701270
S1701	S170	0.130260	0.892610	0.709640
C8481	C848	0.181500	0.907580	0.673870
C8491	C849	0.139200	0.868000	0.676790
H1701	H170	0.199900	0.918100	0.665900
C8501	C850	0.166900	0.878800	0.659900
O3411	O341	0.652530	0.449900	0.747070
O3421	O342	0.695210	0.462130	0.716540
C8511	C851	0.670770	0.444860	0.723060
C8521	C852	0.663510	0.417160	0.701270
S1711	S171	0.630260	0.392610	0.709640
C8531	C853	0.681500	0.407580	0.673870
C8541	C854	0.639200	0.368000	0.676790
H1711	H171	0.699900	0.418100	0.665900
C8551	C855	0.666900	0.378800	0.659900
O3431	O343	0.652530	0.949900	0.247070
O3441	O344	0.695210	0.962130	0.216540
C8561	C856	0.670770	0.944860	0.223060
C8571	C857	0.663510	0.917160	0.201270
S1721	S172	0.630260	0.892610	0.209640
C8581	C858	0.681500	0.907580	0.173870
C8591	C859	0.639200	0.868000	0.176790
H1721	H172	0.699900	0.918100	0.165900
C8601	C860	0.666900	0.878800	0.159900
O3451	O345	0.847470	0.449900	0.752930
O3461	O346	0.804790	0.462130	0.783460
C8611	C861	0.829230	0.444860	0.776940
C8621	C862	0.836490	0.417160	0.798730
S1731	S173	0.869740	0.392610	0.790360
C8631	C863	0.818500	0.407580	0.826130
C8641	C864	0.860800	0.368000	0.823210
H1731	H173	0.800100	0.418100	0.834100
C8651	C865	0.833100	0.378800	0.840100
O3471	O347	0.847470	0.949900	0.252930
O3481	O348	0.804790	0.962130	0.283460
C8661	C866	0.829230	0.944860	0.276940
C8671	C867	0.836490	0.917160	0.298730
S1741	S174	0.869740	0.892610	0.290360
C8681	C868	0.818500	0.907580	0.326130
C8691	C869	0.860800	0.868000	0.323210
H1741	H174	0.800100	0.918100	0.334100
C8701	C870	0.833100	0.878800	0.340100
O3491	O349	0.347470	0.449900	0.252930
O3501	O350	0.304790	0.462130	0.283460
C8711	C871	0.329230	0.444860	0.276940
C8721	C872	0.336490	0.417160	0.298730
S1751	S175	0.369740	0.392610	0.290360
C8731	C873	0.318500	0.407580	0.326130
C8741	C874	0.360800	0.368000	0.323210
H1751	H175	0.300100	0.418100	0.334100
C8751	C875	0.333100	0.378800	0.340100
O3511	O351	0.347470	0.949900	0.752930
O3521	O352	0.304790	0.962130	0.783460
C8761	C876	0.329230	0.944860	0.776940
C8771	C877	0.336490	0.917160	0.798730
S1761	S176	0.369740	0.892610	0.790360
C8781	C878	0.318500	0.907580	0.826130
C8791	C879	0.360800	0.868000	0.823210
H1761	H176	0.300100	0.918100	0.834100
C8801	C880	0.333100	0.878800	0.840100
O3531	O353	0.550100	0.752930	0.152530
O3541	O354	0.537870	0.783460	0.195210
C8811	C881	0.555140	0.776940	0.170770
C8821	C882	0.582840	0.798730	0.163510
S1771	S177	0.607390	0.790360	0.130260
C8831	C883	0.592420	0.826130	0.181500
C8841	C884	0.632000	0.823210	0.139200
H1771	H177	0.581900	0.834100	0.199900
C8851	C885	0.621200	0.840100	0.166900
O3551	O355	0.550100	0.252930	0.652530
O3561	O356	0.537870	0.283460	0.695210
C8861	C886	0.555140	0.276940	0.670770
C8871	C887	0.582840	0.298730	0.663510
S1781	S178	0.607390	0.290360	0.630260
C8881	C888	0.592420	0.326130	0.681500
C8891	C889	0.632000	0.323210	0.639200
H1781	H178	0.581900	0.334100	0.699900
C8901	C890	0.621200	0.340100	0.666900
O3571	O357	0.050100	0.752930	0.652530
O3581	O358	0.037870	0.783460	0.695210
C8911	C891	0.055140	0.776940	0.670770
C8921	C892	0.082840	0.798730	0.663510
S1791	S179	0.107390	0.790360	0.630260
C8931	C893	0.092420	0.826130	0.681500
C8941	C894	0.132000	0.823210	0.639200
H1791	H179	0.081900	0.834100	0.699900
C8951	C895	0.121200	0.840100	0.666900
O3591	O359	0.050100	0.252930	0.152530
O3601	O360	0.037870	0.283460	0.195210
C8961	C896	0.055140	0.276940	0.170770
C8971	C897	0.082840	0.298730	0.163510
S1801	S180	0.107390	0.290360	0.130260
C8981	C898	0.092420	0.326130	0.181500
C8991	C899	0.132000	0.323210	0.139200
H1801	H180	0.081900	0.334100	0.199900
C9001	C900	0.121200	0.340100	0.166900
O3611	O361	0.550100	0.247070	0.847470
O3621	O362	0.537870	0.216540	0.804790
C9011	C901	0.555140	0.223060	0.829230
C9021	C902	0.582840	0.201270	0.836490
S1811	S181	0.607390	0.209640	0.869740
C9031	C903	0.592420	0.173870	0.818500
C9041	C904	0.632000	0.176790	0.860800
H1811	H181	0.581900	0.165900	0.800100
C9051	C905	0.621200	0.159900	0.833100
O3631	O363	0.550100	0.747070	0.347470
O3641	O364	0.537870	0.716540	0.304790
C9061	C906	0.555140	0.723060	0.329230
C9071	C907	0.582840	0.701270	0.336490
S1821	S182	0.607390	0.709640	0.369740
C9081	C908	0.592420	0.673870	0.318500
C9091	C909	0.632000	0.676790	0.360800
H1821	H182	0.581900	0.665900	0.300100
C9101	C910	0.621200	0.659900	0.333100
O3651	O365	0.050100	0.247070	0.347470
O3661	O366	0.037870	0.216540	0.304790
C9111	C911	0.055140	0.223060	0.329230
C9121	C912	0.082840	0.201270	0.336490
S1831	S183	0.107390	0.209640	0.369740
C9131	C913	0.092420	0.173870	0.318500
C9141	C914	0.132000	0.176790	0.360800
H1831	H183	0.081900	0.165900	0.300100
C9151	C915	0.121200	0.159900	0.333100
O3671	O367	0.050100	0.747070	0.847470
O3681	O368	0.037870	0.716540	0.804790
C9161	C916	0.055140	0.723060	0.829230
C9171	C917	0.082840	0.701270	0.836490
S1841	S184	0.107390	0.709640	0.869740
C9181	C918	0.092420	0.673870	0.818500
C9191	C919	0.132000	0.676790	0.860800
H1841	H184	0.081900	0.665900	0.800100
C9201	C920	0.121200	0.659900	0.833100
O3691	O369	0.449900	0.752930	0.847470
O3701	O370	0.462130	0.783460	0.804790
C9211	C921	0.444860	0.776940	0.829230
C9221	C922	0.417160	0.798730	0.836490
S1851	S185	0.392610	0.790360	0.869740
C9231	C923	0.407580	0.826130	0.818500
C9241	C924	0.368000	0.823210	0.860800
H1851	H185	0.418100	0.834100	0.800100
C9251	C925	0.378800	0.840100	0.833100
O3711	O371	0.449900	0.252930	0.347470
O3721	O372	0.462130	0.283460	0.304790
C9261	C926	0.444860	0.276940	0.329230
C9271	C927	0.417160	0.298730	0.336490
S1861	S186	0.392610	0.290360	0.369740
C9281	C928	0.407580	0.326130	0.318500
C9291	C929	0.368000	0.323210	0.360800
H1861	H186	0.418100	0.334100	0.300100
C9301	C930	0.378800	0.340100	0.333100
O3731	O373	0.949900	0.752930	0.347470
O3741	O374	0.962130	0.783460	0.304790
C9311	C931	0.944860	0.776940	0.329230
C9321	C932	0.917160	0.798730	0.336490
S1871	S187	0.892610	0.790360	0.369740
C9331	C933	0.907580	0.826130	0.318500
C9341	C934	0.868000	0.823210	0.360800
H1871	H187	0.918100	0.834100	0.300100
C9351	C935	0.878800	0.840100	0.333100
O3751	O375	0.949900	0.252930	0.847470
O3761	O376	0.962130	0.283460	0.804790
C9361	C936	0.944860	0.276940	0.829230
C9371	C937	0.917160	0.298730	0.836490
S1881	S188	0.892610	0.290360	0.869740
C9381	C938	0.907580	0.326130	0.818500
C9391	C939	0.868000	0.323210	0.860800
H1881	H188	0.918100	0.334100	0.800100
C9401	C940	0.878800	0.340100	0.833100
O3771	O377	0.449900	0.247070	0.152530
O3781	O378	0.462130	0.216540	0.195210
C9411	C941	0.444860	0.223060	0.170770
C9421	C942	0.417160	0.201270	0.163510
S1891	S189	0.392610	0.209640	0.130260
C9431	C943	0.407580	0.173870	0.181500
C9441	C944	0.368000	0.176790	0.139200
H1891	H189	0.418100	0.165900	0.199900
C9451	C945	0.378800	0.159900	0.166900
O3791	O379	0.449900	0.747070	0.652530
O3801	O380	0.462130	0.716540	0.695210
C9461	C946	0.444860	0.723060	0.670770
C9471	C947	0.417160	0.701270	0.663510
S1901	S190	0.392610	0.709640	0.630260
C9481	C948	0.407580	0.673870	0.681500
C9491	C949	0.368000	0.676790	0.639200
H1901	H190	0.418100	0.665900	0.699900
C9501	C950	0.378800	0.659900	0.666900
O3811	O381	0.949900	0.247070	0.652530
O3821	O382	0.962130	0.216540	0.695210
C9511	C951	0.944860	0.223060	0.670770
C9521	C952	0.917160	0.201270	0.663510
S1911	S191	0.892610	0.209640	0.630260
C9531	C953	0.907580	0.173870	0.681500
C9541	C954	0.868000	0.176790	0.639200
H1911	H191	0.918100	0.165900	0.699900
C9551	C955	0.878800	0.159900	0.666900
O3831	O383	0.949900	0.747070	0.152530
O3841	O384	0.962130	0.716540	0.195210
C9561	C956	0.944860	0.723060	0.170770
C9571	C957	0.917160	0.701270	0.163510
S1921	S192	0.892610	0.709640	0.130260
C9581	C958	0.907580	0.673870	0.181500
C9591	C959	0.868000	0.676790	0.139200
H1921	H192	0.918100	0.665900	0.199900
C9601	C960	0.878800	0.659900	0.166900
Sr11	Sr1	0.687960	0.768120	0.000000
O3851	O385	0.645200	0.811700	0.000000
Sr21	Sr2	0.687960	0.268120	0.500000
O3861	O386	0.645200	0.311700	0.500000
Sr31	Sr3	0.187960	0.768120	0.500000
O3871	O387	0.145200	0.811700	0.500000
Sr41	Sr4	0.187960	0.268120	0.000000
O3881	O388	0.145200	0.311700	0.000000
Sr51	Sr5	0.312040	0.231880	0.000000
O3891	O389	0.354800	0.188300	0.000000
Sr61	Sr6	0.312040	0.731880	0.500000
O3901	O390	0.354800	0.688300	0.500000
Sr71	Sr7	0.812040	0.231880	0.500000
O3911	O391	0.854800	0.188300	0.500000
Sr81	Sr8	0.812040	0.731880	0.000000
O3921	O392	0.854800	0.688300	0.000000
Sr91	Sr9	0.312040	0.768120	0.000000
O3931	O393	0.354800	0.811700	0.000000
Sr101	Sr10	0.312040	0.268120	0.500000
O3941	O394	0.354800	0.311700	0.500000
Sr111	Sr11	0.812040	0.768120	0.500000
O3951	O395	0.854800	0.811700	0.500000
Sr121	Sr12	0.812040	0.268120	0.000000
O3961	O396	0.854800	0.311700	0.000000
Sr131	Sr13	0.687960	0.231880	0.000000
O3971	O397	0.645200	0.188300	0.000000
Sr141	Sr14	0.687960	0.731880	0.500000
O3981	O398	0.645200	0.688300	0.500000
Sr151	Sr15	0.187960	0.231880	0.500000
O3991	O399	0.145200	0.188300	0.500000
Sr161	Sr16	0.187960	0.731880	0.000000
O4001	O400	0.145200	0.688300	0.000000
Sr171	Sr17	0.000000	0.687960	0.768120
O4011	O401	0.000000	0.645200	0.811700
Sr181	Sr18	0.000000	0.187960	0.268120
O4021	O402	0.000000	0.145200	0.311700
Sr191	Sr19	0.500000	0.687960	0.268120
O4031	O403	0.500000	0.645200	0.311700
Sr201	Sr20	0.500000	0.187960	0.768120
O4041	O404	0.500000	0.145200	0.811700
Sr211	Sr21	0.000000	0.312040	0.231880
O4051	O405	0.000000	0.354800	0.188300
Sr221	Sr22	0.000000	0.812040	0.731880
O4061	O406	0.000000	0.854800	0.688300
Sr231	Sr23	0.500000	0.312040	0.731880
O4071	O407	0.500000	0.354800	0.688300
Sr241	Sr24	0.500000	0.812040	0.231880
O4081	O408	0.500000	0.854800	0.188300
Sr251	Sr25	0.000000	0.312040	0.768120
O4091	O409	0.000000	0.354800	0.811700
Sr261	Sr26	0.000000	0.812040	0.268120
O4101	O410	0.000000	0.854800	0.311700
Sr271	Sr27	0.500000	0.312040	0.268120
O4111	O411	0.500000	0.354800	0.311700
Sr281	Sr28	0.500000	0.812040	0.768120
O4121	O412	0.500000	0.854800	0.811700
Sr291	Sr29	0.000000	0.687960	0.231880
O4131	O413	0.000000	0.645200	0.188300
Sr301	Sr30	0.000000	0.187960	0.731880
O4141	O414	0.000000	0.145200	0.688300
Sr311	Sr31	0.500000	0.687960	0.731880
O4151	O415	0.500000	0.645200	0.688300
Sr321	Sr32	0.500000	0.187960	0.231880
O4161	O416	0.500000	0.145200	0.188300
Sr331	Sr33	0.768120	0.000000	0.687960
O4171	O417	0.811700	0.000000	0.645200
Sr341	Sr34	0.768120	0.500000	0.187960
O4181	O418	0.811700	0.500000	0.145200
Sr351	Sr35	0.268120	0.000000	0.187960
O4191	O419	0.311700	0.000000	0.145200
Sr361	Sr36	0.268120	0.500000	0.687960
O4201	O420	0.311700	0.500000	0.645200
Sr371	Sr37	0.231880	0.000000	0.312040
O4211	O421	0.188300	0.000000	0.354800
Sr381	Sr38	0.231880	0.500000	0.812040
O4221	O422	0.188300	0.500000	0.854800
Sr391	Sr39	0.731880	0.000000	0.812040
O4231	O423	0.688300	0.000000	0.854800
Sr401	Sr40	0.731880	0.500000	0.312040
O4241	O424	0.688300	0.500000	0.354800
Sr411	Sr41	0.768120	0.000000	0.312040
O4251	O425	0.811700	0.000000	0.354800
Sr421	Sr42	0.768120	0.500000	0.812040
O4261	O426	0.811700	0.500000	0.854800
Sr431	Sr43	0.268120	0.000000	0.812040
O4271	O427	0.311700	0.000000	0.854800
Sr441	Sr44	0.268120	0.500000	0.312040
O4281	O428	0.311700	0.500000	0.354800
Sr451	Sr45	0.231880	0.000000	0.687960
O4291	O429	0.188300	0.000000	0.645200
Sr461	Sr46	0.231880	0.500000	0.187960
O4301	O430	0.188300	0.500000	0.145200
Sr471	Sr47	0.731880	0.000000	0.187960
O4311	O431	0.688300	0.000000	0.145200
Sr481	Sr48	0.731880	0.500000	0.687960
O4321	O432	0.688300	0.500000	0.645200
Sr491	Sr49	0.268120	0.187960	0.500000
O4331	O433	0.311700	0.145200	0.500000
Sr501	Sr50	0.268120	0.687960	0.000000
O4341	O434	0.311700	0.645200	0.000000
Sr511	Sr51	0.768120	0.187960	0.000000
O4351	O435	0.811700	0.145200	0.000000
Sr521	Sr52	0.768120	0.687960	0.500000
O4361	O436	0.811700	0.645200	0.500000
Sr531	Sr53	0.731880	0.812040	0.500000
O4371	O437	0.688300	0.854800	0.500000
Sr541	Sr54	0.731880	0.312040	0.000000
O4381	O438	0.688300	0.354800	0.000000
Sr551	Sr55	0.231880	0.812040	0.000000
O4391	O439	0.188300	0.854800	0.000000
Sr561	Sr56	0.231880	0.312040	0.500000
O4401	O440	0.188300	0.354800	0.500000
Sr571	Sr57	0.268120	0.812040	0.500000
O4411	O441	0.311700	0.854800	0.500000
Sr581	Sr58	0.268120	0.312040	0.000000
O4421	O442	0.311700	0.354800	0.000000
Sr591	Sr59	0.768120	0.812040	0.000000
O4431	O443	0.811700	0.854800	0.000000
Sr601	Sr60	0.768120	0.312040	0.500000
O4441	O444	0.811700	0.354800	0.500000
Sr611	Sr61	0.731880	0.187960	0.500000
O4451	O445	0.688300	0.145200	0.500000
Sr621	Sr62	0.731880	0.687960	0.000000
O4461	O446	0.688300	0.645200	0.000000
Sr631	Sr63	0.231880	0.187960	0.000000
O4471	O447	0.188300	0.145200	0.000000
Sr641	Sr64	0.231880	0.687960	0.500000
O4481	O448	0.188300	0.645200	0.500000
Sr651	Sr65	0.187960	0.500000	0.731880
O4491	O449	0.145200	0.500000	0.688300
Sr661	Sr66	0.187960	0.000000	0.231880
O4501	O450	0.145200	0.000000	0.188300
Sr671	Sr67	0.687960	0.500000	0.231880
O4511	O451	0.645200	0.500000	0.188300
Sr681	Sr68	0.687960	0.000000	0.731880
O4521	O452	0.645200	0.000000	0.688300
Sr691	Sr69	0.812040	0.500000	0.268120
O4531	O453	0.854800	0.500000	0.311700
Sr701	Sr70	0.812040	0.000000	0.768120
O4541	O454	0.854800	0.000000	0.811700
Sr711	Sr71	0.312040	0.500000	0.768120
O4551	O455	0.354800	0.500000	0.811700
Sr721	Sr72	0.312040	0.000000	0.268120
O4561	O456	0.354800	0.000000	0.311700
Sr731	Sr73	0.812040	0.500000	0.731880
O4571	O457	0.854800	0.500000	0.688300
Sr741	Sr74	0.812040	0.000000	0.231880
O4581	O458	0.854800	0.000000	0.188300
Sr751	Sr75	0.312040	0.500000	0.231880
O4591	O459	0.354800	0.500000	0.188300
Sr761	Sr76	0.312040	0.000000	0.731880
O4601	O460	0.354800	0.000000	0.688300
Sr771	Sr77	0.187960	0.500000	0.268120
O4611	O461	0.145200	0.500000	0.311700
Sr781	Sr78	0.187960	0.000000	0.768120
O4621	O462	0.145200	0.000000	0.811700
Sr791	Sr79	0.687960	0.500000	0.768120
O4631	O463	0.645200	0.500000	0.811700
Sr801	Sr80	0.687960	0.000000	0.268120
O4641	O464	0.645200	0.000000	0.311700
Sr811	Sr81	0.500000	0.268120	0.812040
O4651	O465	0.500000	0.311700	0.854800
Sr821	Sr82	0.500000	0.768120	0.312040
O4661	O466	0.500000	0.811700	0.354800
Sr831	Sr83	0.000000	0.268120	0.312040
O4671	O467	0.000000	0.311700	0.354800
Sr841	Sr84	0.000000	0.768120	0.812040
O4681	O468	0.000000	0.811700	0.854800
Sr851	Sr85	0.500000	0.731880	0.187960
O4691	O469	0.500000	0.688300	0.145200
Sr861	Sr86	0.500000	0.231880	0.687960
O4701	O470	0.500000	0.188300	0.645200
Sr871	Sr87	0.000000	0.731880	0.687960
O4711	O471	0.000000	0.688300	0.645200
Sr881	Sr88	0.000000	0.231880	0.187960
O4721	O472	0.000000	0.188300	0.145200
Sr891	Sr89	0.500000	0.268120	0.187960
O4731	O473	0.500000	0.311700	0.145200
Sr901	Sr90	0.500000	0.768120	0.687960
O4741	O474	0.500000	0.811700	0.645200
Sr911	Sr91	0.000000	0.268120	0.687960
O4751	O475	0.000000	0.311700	0.645200
Sr921	Sr92	0.000000	0.768120	0.187960
O4761	O476	0.000000	0.811700	0.145200
Sr931	Sr93	0.500000	0.731880	0.812040
O4771	O477	0.500000	0.688300	0.854800
Sr941	Sr94	0.500000	0.231880	0.312040
O4781	O478	0.500000	0.188300	0.354800
Sr951	Sr95	0.000000	0.731880	0.312040
O4791	O479	0.000000	0.688300	0.354800
Sr961	Sr96	0.000000	0.231880	0.812040
O4801	O480	0.000000	0.188300	0.854800
O4811	O481	0.750000	0.750000	0.000000
O4821	O482	0.250000	0.250000	0.000000
O4831	O483	0.250000	0.750000	0.000000
O4841	O484	0.750000	0.250000	0.000000
O4851	O485	0.000000	0.750000	0.750000
O4861	O486	0.000000	0.250000	0.250000
O4871	O487	0.000000	0.250000	0.750000
O4881	O488	0.000000	0.750000	0.250000
O4891	O489	0.750000	0.000000	0.750000
O4901	O490	0.250000	0.000000	0.250000
O4911	O491	0.750000	0.000000	0.250000
O4921	O492	0.250000	0.000000	0.750000
O4931	O493	0.250000	0.250000	0.500000
O4941	O494	0.750000	0.750000	0.500000
O4951	O495	0.250000	0.750000	0.500000
O4961	O496	0.750000	0.250000	0.500000
O4971	O497	0.250000	0.500000	0.750000
O4981	O498	0.750000	0.500000	0.250000
O4991	O499	0.750000	0.500000	0.750000
O5001	O500	0.250000	0.500000	0.250000
O5011	O501	0.500000	0.250000	0.750000
O5021	O502	0.500000	0.750000	0.250000
O5031	O503	0.500000	0.250000	0.250000
O5041	O504	0.500000	0.750000	0.750000
