data_OQESAF_freeONLY_PM
_symmetry_space_group_name_H-M	'P1'
_cell_length_a	7.156380
_cell_length_b	13.040500
_cell_length_c	31.192000
_cell_angle_alpha	88.278100
_cell_angle_beta	83.713000
_cell_angle_gamma	74.074300
_symmetry_Int_Tables_number 1

loop_
_symmetry_equiv_pos_as_xyz
'x,y,z'

loop_
_atom_site_label
_atom_site_type_symbol
_atom_site_fract_x
_atom_site_fract_y
_atom_site_fract_z
Cd11	Cd1	0.598680	0.802640	0.250000
Cd21	Cd2	0.401320	0.197360	0.750000
H11	H1	0.955000	0.287800	0.139500
H21	H2	0.649000	0.425800	0.142200
H31	H3	0.308200	0.724600	0.038000
H41	H4	0.400600	0.800200	0.967700
H51	H5	0.540900	0.663400	0.144100
H61	H6	0.275100	0.725000	0.193400
H71	H7	0.969000	0.578000	0.128900
H81	H8	0.235700	0.530200	0.076900
H91	H9	0.496100	0.276600	0.118000
H101	H10	0.619800	0.144400	0.166800
H111	H11	0.258100	0.979200	0.134200
H121	H12	0.134500	0.111400	0.085300
H131	H13	0.757200	0.287800	0.360500
H141	H14	0.925200	0.425800	0.357800
H151	H15	0.967200	0.724600	0.462000
H161	H16	0.799200	0.800200	0.532300
H171	H17	0.795700	0.663400	0.355900
H181	H18	0.999900	0.725000	0.306600
H191	H19	0.453000	0.578000	0.371100
H201	H20	0.234100	0.530200	0.423100
H211	H21	0.227300	0.276600	0.382000
H221	H22	0.235800	0.144400	0.333200
H231	H23	0.762700	0.979200	0.365800
H241	H24	0.754100	0.111400	0.414700
H251	H25	0.045000	0.712200	0.860500
H261	H26	0.351000	0.574200	0.857800
H271	H27	0.691800	0.275400	0.962000
H281	H28	0.599400	0.199800	0.032300
H291	H29	0.459100	0.336600	0.855900
H301	H30	0.724900	0.275000	0.806600
H311	H31	0.031000	0.422000	0.871100
H321	H32	0.764300	0.469800	0.923100
H331	H33	0.503900	0.723400	0.882000
H341	H34	0.380200	0.855600	0.833200
H351	H35	0.741900	0.020800	0.865800
H361	H36	0.865500	0.888600	0.914700
H371	H37	0.242800	0.712200	0.639500
H381	H38	0.074800	0.574200	0.642200
H391	H39	0.032800	0.275400	0.538000
H401	H40	0.200800	0.199800	0.467700
H411	H41	0.204300	0.336600	0.644100
H421	H42	0.000100	0.275000	0.693400
H431	H43	0.547000	0.422000	0.628900
H441	H44	0.765900	0.469800	0.576900
H451	H45	0.772700	0.723400	0.618000
H461	H46	0.764200	0.855600	0.666800
H471	H47	0.237300	0.020800	0.634200
H481	H48	0.245900	0.888600	0.585300
Pd11	Pd1	0.000000	0.500000	0.000000
Pd21	Pd2	0.500000	0.500000	0.500000
C11	C1	0.027800	0.356400	0.079400
C21	C2	0.916900	0.340200	0.118900
C31	C3	0.749100	0.415800	0.119700
C41	C4	0.741700	0.478600	0.082200
C51	C5	0.588400	0.560200	0.070500
C61	C6	0.583500	0.617000	0.033100
C71	C7	0.428500	0.701000	0.021500
C81	C8	0.477200	0.743600	0.982400
C91	C9	0.675000	0.680000	0.969200
C101	C10	0.216900	0.300200	0.067100
C111	C11	0.410000	0.594200	0.103500
C121	C12	0.423200	0.649600	0.140100
C131	C13	0.264900	0.684200	0.170200
C141	C14	0.097500	0.661000	0.166900
C151	C15	0.081800	0.598400	0.131400
C161	C16	0.244400	0.569200	0.100700
C171	C17	0.924500	0.697000	0.198600
C181	C18	0.303400	0.207200	0.096800
C191	C19	0.448500	0.217000	0.121200
C201	C20	0.522100	0.137800	0.150500
C211	C21	0.451700	0.048600	0.155300
C221	C22	0.305600	0.038800	0.130900
C231	C23	0.232000	0.118000	0.101700
C241	C24	0.518200	0.959600	0.188500
C251	C25	0.615800	0.356400	0.420600
C261	C26	0.742900	0.340200	0.381100
C271	C27	0.835100	0.415800	0.380300
C281	C28	0.779700	0.478600	0.417800
C291	C29	0.851400	0.560200	0.429500
C301	C30	0.799500	0.617000	0.466900
C311	C31	0.870500	0.701000	0.478500
C321	C32	0.779200	0.743600	0.517600
C331	C33	0.645000	0.680000	0.530800
C341	C34	0.482900	0.300200	0.432900
C351	C35	0.995800	0.594200	0.396500
C361	C36	0.927200	0.649600	0.359900
C371	C37	0.050900	0.684200	0.329800
C381	C38	0.241500	0.661000	0.333100
C391	C39	0.319800	0.598400	0.368600
C401	C40	0.186400	0.569200	0.399300
C411	C41	0.378500	0.697000	0.301400
C421	C42	0.489400	0.207200	0.403200
C431	C43	0.334500	0.217000	0.378800
C441	C44	0.340100	0.137800	0.349500
C451	C45	0.499700	0.048600	0.344700
C461	C46	0.655600	0.038800	0.369100
C471	C47	0.650000	0.118000	0.398300
C481	C48	0.522200	0.959600	0.311500
C491	C49	0.972200	0.643600	0.920600
C501	C50	0.083100	0.659800	0.881100
C511	C51	0.250900	0.584200	0.880300
C521	C52	0.258300	0.521400	0.917800
C531	C53	0.411600	0.439800	0.929500
C541	C54	0.416500	0.383000	0.966900
C551	C55	0.571500	0.299000	0.978500
C561	C56	0.522800	0.256400	0.017600
C571	C57	0.325000	0.320000	0.030800
C581	C58	0.783100	0.699800	0.932900
C591	C59	0.590000	0.405800	0.896500
C601	C60	0.576800	0.350400	0.859900
C611	C61	0.735100	0.315800	0.829800
C621	C62	0.902500	0.339000	0.833100
C631	C63	0.918200	0.401600	0.868600
C641	C64	0.755600	0.430800	0.899300
C651	C65	0.075500	0.303000	0.801400
C661	C66	0.696600	0.792800	0.903200
C671	C67	0.551500	0.783000	0.878800
C681	C68	0.477900	0.862200	0.849500
C691	C69	0.548300	0.951400	0.844700
C701	C70	0.694400	0.961200	0.869100
C711	C71	0.768000	0.882000	0.898300
C721	C72	0.481800	0.040400	0.811500
C731	C73	0.384200	0.643600	0.579400
C741	C74	0.257100	0.659800	0.618900
C751	C75	0.164900	0.584200	0.619700
C761	C76	0.220300	0.521400	0.582200
C771	C77	0.148600	0.439800	0.570500
C781	C78	0.200500	0.383000	0.533100
C791	C79	0.129500	0.299000	0.521500
C801	C80	0.220800	0.256400	0.482400
C811	C81	0.355000	0.320000	0.469200
C821	C82	0.517100	0.699800	0.567100
C831	C83	0.004200	0.405800	0.603500
C841	C84	0.072800	0.350400	0.640100
C851	C85	0.949100	0.315800	0.670200
C861	C86	0.758500	0.339000	0.666900
C871	C87	0.680200	0.401600	0.631400
C881	C88	0.813600	0.430800	0.600700
C891	C89	0.621500	0.303000	0.698600
C901	C90	0.510600	0.792800	0.596800
C911	C91	0.665500	0.783000	0.621200
C921	C92	0.659900	0.862200	0.650500
C931	C93	0.500300	0.951400	0.655300
C941	C94	0.344400	0.961200	0.630900
C951	C95	0.350000	0.882000	0.601700
C961	C96	0.477800	0.040400	0.688500
N11	N1	0.917200	0.437200	0.057600
N21	N2	0.742700	0.601600	0.001000
N31	N3	0.645600	0.437200	0.442400
N41	N4	0.655700	0.601600	0.499000
N51	N5	0.082800	0.562800	0.942400
N61	N6	0.257300	0.398400	0.999000
N71	N7	0.354400	0.562800	0.557600
N81	N8	0.344300	0.398400	0.501000
O11	O1	0.934100	0.758400	0.227500
O21	O2	0.771900	0.669800	0.195500
O31	O3	0.661600	0.972800	0.200900
O41	O4	0.416400	0.893200	0.199300
O51	O5	0.307500	0.758400	0.272500
O61	O6	0.558300	0.669800	0.304500
O71	O7	0.365600	0.972800	0.299100
O81	O8	0.690400	0.893200	0.300700
O91	O9	0.065900	0.241600	0.772500
O101	O10	0.228100	0.330200	0.804500
O111	O11	0.338400	0.027200	0.799100
O121	O12	0.583600	0.106800	0.800700
O131	O13	0.692500	0.241600	0.727500
O141	O14	0.441700	0.330200	0.695500
O151	O15	0.634400	0.027200	0.700900
O161	O16	0.309600	0.106800	0.699300
