data_OQIQUB01_charged_PM
_symmetry_space_group_name_H-M	'P1'
_cell_length_a	19.129900
_cell_length_b	19.129900
_cell_length_c	19.129900
_cell_angle_alpha	105.852000
_cell_angle_beta	105.852000
_cell_angle_gamma	116.981000
_symmetry_Int_Tables_number 1

loop_
_symmetry_equiv_pos_as_xyz
'x,y,z'

loop_
_atom_site_label
_atom_site_type_symbol
_atom_site_fract_x
_atom_site_fract_y
_atom_site_fract_z
Cu11	Cu1	0.517850	0.258150	0.776000
Cu21	Cu2	0.482150	0.741850	0.224000
Cu31	Cu3	0.741850	0.517850	0.259700
Cu41	Cu4	0.258150	0.482150	0.740300
Cu51	Cu5	0.841660	0.841660	0.000000
Cu61	Cu6	0.158340	0.158340	0.000000
H11	H1	0.794400	0.941900	0.906100
H21	H2	0.432500	0.050400	0.964500
H31	H3	0.534900	0.119200	0.021900
H41	H4	0.709300	0.008400	0.867100
H51	H5	0.742600	0.081700	0.953700
H61	H6	0.734700	0.899400	0.074500
H71	H7	0.327100	0.931100	0.772200
H81	H8	0.338800	0.958200	0.861800
H91	H9	0.302200	0.860600	0.804400
H101	H10	0.723800	0.140200	0.022200
H111	H11	0.660700	0.145600	0.057900
H121	H12	0.675700	0.183800	0.996500
H131	H13	0.391400	0.785700	0.689900
H141	H14	0.324600	0.802800	0.710200
H151	H15	0.307900	0.620400	0.670900
H161	H16	0.506900	0.784800	0.762100
H171	H17	0.609000	0.856300	0.817100
H181	H18	0.559600	0.853000	0.734800
H191	H19	0.331200	0.658600	0.881400
H201	H20	0.035800	0.888300	0.093900
H211	H21	0.085900	0.468000	0.035500
H221	H22	0.097300	0.513000	0.978100
H231	H23	0.141300	0.842200	0.132900
H241	H24	0.128000	0.788900	0.046300
H251	H25	0.824900	0.660200	0.925500
H261	H26	0.158900	0.554900	0.227800
H271	H27	0.096400	0.477000	0.138200
H281	H28	0.056200	0.497800	0.195600
H291	H29	0.118000	0.701600	0.977800
H301	H30	0.087700	0.602800	0.942100
H311	H31	0.187300	0.679200	0.003500
H321	H32	0.095800	0.701500	0.310100
H331	H33	0.092600	0.614400	0.289800
H341	H34	0.949500	0.637000	0.329100
H351	H35	0.022700	0.744800	0.237900
H361	H36	0.039200	0.791900	0.182900
H371	H37	0.118200	0.824800	0.265200
H381	H38	0.777200	0.449800	0.118600
H391	H39	0.888300	0.794400	0.852500
H401	H40	0.468000	0.432500	0.382100
H411	H41	0.513000	0.534900	0.415700
H421	H42	0.842200	0.709300	0.700900
H431	H43	0.788900	0.742600	0.660900
H441	H44	0.660200	0.734700	0.835300
H451	H45	0.554900	0.327100	0.396000
H461	H46	0.477000	0.338800	0.380600
H471	H47	0.497800	0.302200	0.441600
H481	H48	0.701600	0.723800	0.583600
H491	H49	0.602800	0.660700	0.515100
H501	H50	0.679200	0.675700	0.491900
H511	H51	0.701500	0.391400	0.605700
H521	H52	0.614400	0.324600	0.521800
H531	H53	0.637000	0.307900	0.687500
H541	H54	0.744800	0.506900	0.722100
H551	H55	0.791900	0.609000	0.752700
H561	H56	0.824800	0.559600	0.706600
H571	H57	0.449800	0.331200	0.672600
H581	H58	0.941900	0.035800	0.147500
H591	H59	0.050400	0.085900	0.617900
H601	H60	0.119200	0.097300	0.584300
H611	H61	0.008400	0.141300	0.299100
H621	H62	0.081700	0.128000	0.339100
H631	H63	0.899400	0.824900	0.164700
H641	H64	0.931100	0.158900	0.604000
H651	H65	0.958200	0.096400	0.619400
H661	H66	0.860600	0.056200	0.558400
H671	H67	0.140200	0.118000	0.416400
H681	H68	0.145600	0.087700	0.484900
H691	H69	0.183800	0.187300	0.508100
H701	H70	0.785700	0.095800	0.394300
H711	H71	0.802800	0.092600	0.478200
H721	H72	0.620400	0.949500	0.312500
H731	H73	0.784800	0.022700	0.277900
H741	H74	0.856300	0.039200	0.247300
H751	H75	0.853000	0.118200	0.293400
H761	H76	0.658600	0.777200	0.327400
H771	H77	0.205600	0.058100	0.093900
H781	H78	0.567500	0.949600	0.035500
H791	H79	0.465100	0.880800	0.978100
H801	H80	0.290700	0.991600	0.132900
H811	H81	0.257400	0.918300	0.046300
H821	H82	0.265300	0.100600	0.925500
H831	H83	0.672900	0.068900	0.227800
H841	H84	0.661200	0.041800	0.138200
H851	H85	0.697800	0.139400	0.195600
H861	H86	0.276200	0.859800	0.977800
H871	H87	0.339300	0.854400	0.942100
H881	H88	0.324300	0.816200	0.003500
H891	H89	0.608600	0.214300	0.310100
H901	H90	0.675400	0.197200	0.289800
H911	H91	0.692100	0.379600	0.329100
H921	H92	0.493100	0.215200	0.237900
H931	H93	0.391000	0.143700	0.182900
H941	H94	0.440400	0.147000	0.265200
H951	H95	0.668800	0.341400	0.118600
H961	H96	0.964200	0.111700	0.906100
H971	H97	0.914100	0.532000	0.964500
H981	H98	0.902700	0.487000	0.021900
H991	H99	0.858700	0.157800	0.867100
H1001	H100	0.872000	0.211100	0.953700
H1011	H101	0.175100	0.339800	0.074500
H1021	H102	0.841100	0.445100	0.772200
H1031	H103	0.903600	0.523000	0.861800
H1041	H104	0.943800	0.502200	0.804400
H1051	H105	0.882000	0.298400	0.022200
H1061	H106	0.912300	0.397200	0.057900
H1071	H107	0.812700	0.320800	0.996500
H1081	H108	0.904200	0.298500	0.689900
H1091	H109	0.907400	0.385600	0.710200
H1101	H110	0.050500	0.363000	0.670900
H1111	H111	0.977300	0.255200	0.762100
H1121	H112	0.960800	0.208100	0.817100
H1131	H113	0.881800	0.175200	0.734800
H1141	H114	0.222800	0.550200	0.881400
H1151	H115	0.111700	0.205600	0.147500
H1161	H116	0.532000	0.567500	0.617900
H1171	H117	0.487000	0.465100	0.584300
H1181	H118	0.157800	0.290700	0.299100
H1191	H119	0.211100	0.257400	0.339100
H1201	H120	0.339800	0.265300	0.164700
H1211	H121	0.445100	0.672900	0.604000
H1221	H122	0.523000	0.661200	0.619400
H1231	H123	0.502200	0.697800	0.558400
H1241	H124	0.298400	0.276200	0.416400
H1251	H125	0.397200	0.339300	0.484900
H1261	H126	0.320800	0.324300	0.508100
H1271	H127	0.298500	0.608600	0.394300
H1281	H128	0.385600	0.675400	0.478200
H1291	H129	0.363000	0.692100	0.312500
H1301	H130	0.255200	0.493100	0.277900
H1311	H131	0.208100	0.391000	0.247300
H1321	H132	0.175200	0.440400	0.293400
H1331	H133	0.550200	0.668800	0.327400
H1341	H134	0.058100	0.964200	0.852500
H1351	H135	0.949600	0.914100	0.382100
H1361	H136	0.880800	0.902700	0.415700
H1371	H137	0.991600	0.858700	0.700900
H1381	H138	0.918300	0.872000	0.660900
H1391	H139	0.100600	0.175100	0.835300
H1401	H140	0.068900	0.841100	0.396000
H1411	H141	0.041800	0.903600	0.380600
H1421	H142	0.139400	0.943800	0.441600
H1431	H143	0.859800	0.882000	0.583600
H1441	H144	0.854400	0.912300	0.515100
H1451	H145	0.816200	0.812700	0.491900
H1461	H146	0.214300	0.904200	0.605700
H1471	H147	0.197200	0.907400	0.521800
H1481	H148	0.379600	0.050500	0.687500
H1491	H149	0.215200	0.977300	0.722100
H1501	H150	0.143700	0.960800	0.752700
H1511	H151	0.147000	0.881800	0.706600
H1521	H152	0.341400	0.222800	0.672600
C11	C1	0.593330	0.048930	0.939440
C21	C2	0.505810	0.024140	0.916570
C31	C3	0.608460	0.991720	0.894140
C41	C4	0.434710	0.945060	0.849210
C51	C5	0.771870	0.939510	0.943360
C61	C6	0.489100	0.084770	0.965410
C71	C7	0.450810	0.887130	0.804960
C81	C8	0.701960	0.018740	0.916360
C91	C9	0.738730	0.917190	0.034360
C101	C10	0.507130	0.156530	0.871400
C111	C11	0.342440	0.921640	0.819200
C121	C12	0.670380	0.137670	0.010470
C131	C13	0.536280	0.909660	0.827740
C141	C14	0.374580	0.799850	0.732470
C151	C15	0.317120	0.647050	0.724090
C161	C16	0.554720	0.844700	0.780940
C171	C17	0.479250	0.245740	0.915770
C181	C18	0.330470	0.668580	0.836310
C191	C19	0.109490	0.653890	0.060560
C201	C20	0.107570	0.589240	0.083430
C211	C21	0.097580	0.714320	0.105860
C221	C22	0.095850	0.585500	0.150790
C231	C23	0.996150	0.828510	0.056640
C241	C24	0.119360	0.523690	0.034590
C251	C25	0.082170	0.645850	0.195040
C261	C26	0.102380	0.785600	0.083640
C271	C27	0.882830	0.704370	0.965640
C281	C28	0.285130	0.635730	0.128600
C291	C29	0.102440	0.523240	0.180800
C301	C30	0.127200	0.659910	0.989530
C311	C31	0.081920	0.708540	0.172260
C321	C32	0.067380	0.642110	0.267530
C331	C33	0.922960	0.593030	0.275910
C341	C34	0.063760	0.773780	0.219060
C351	C35	0.329970	0.563480	0.084230
C361	C36	0.832270	0.494160	0.163690
C371	C37	0.653890	0.593330	0.544400
C381	C38	0.589240	0.505810	0.481670
C391	C39	0.714320	0.608460	0.616740
C401	C40	0.585500	0.434710	0.489650
C411	C41	0.828510	0.771870	0.832360
C421	C42	0.523690	0.489100	0.404330
C431	C43	0.645850	0.450810	0.563680
C441	C44	0.785600	0.701960	0.683220
C451	C45	0.704370	0.738730	0.821540
C461	C46	0.635730	0.507130	0.350600
C471	C47	0.523240	0.342440	0.420800
C481	C48	0.659910	0.670380	0.532710
C491	C49	0.708540	0.536280	0.626620
C501	C50	0.642110	0.374580	0.574730
C511	C51	0.593030	0.317120	0.670070
C521	C52	0.773780	0.554720	0.710020
C531	C53	0.563480	0.479250	0.233510
C541	C54	0.494160	0.330470	0.661890
C551	C55	0.048930	0.109490	0.455600
C561	C56	0.024140	0.107570	0.518330
C571	C57	0.991720	0.097580	0.383260
C581	C58	0.945060	0.095850	0.510350
C591	C59	0.939510	0.996150	0.167640
C601	C60	0.084770	0.119360	0.595670
C611	C61	0.887130	0.082170	0.436320
C621	C62	0.018740	0.102380	0.316780
C631	C63	0.917190	0.882830	0.178460
C641	C64	0.156530	0.285130	0.649400
C651	C65	0.921640	0.102440	0.579200
C661	C66	0.137670	0.127200	0.467290
C671	C67	0.909660	0.081920	0.373380
C681	C68	0.799850	0.067380	0.425270
C691	C69	0.647050	0.922960	0.329930
C701	C70	0.844700	0.063760	0.289980
C711	C71	0.245740	0.329970	0.766490
C721	C72	0.668580	0.832270	0.338110
C731	C73	0.406670	0.951070	0.060560
C741	C74	0.494190	0.975860	0.083430
C751	C75	0.391540	0.008280	0.105860
C761	C76	0.565290	0.054940	0.150790
C771	C77	0.228130	0.060490	0.056640
C781	C78	0.510900	0.915230	0.034590
C791	C79	0.549190	0.112870	0.195040
C801	C80	0.298040	0.981260	0.083640
C811	C81	0.261270	0.082810	0.965640
C821	C82	0.492870	0.843470	0.128600
C831	C83	0.657560	0.078360	0.180800
C841	C84	0.329620	0.862330	0.989530
C851	C85	0.463720	0.090340	0.172260
C861	C86	0.625420	0.200150	0.267530
C871	C87	0.682880	0.352950	0.275910
C881	C88	0.445280	0.155300	0.219060
C891	C89	0.520750	0.754260	0.084230
C901	C90	0.669530	0.331420	0.163690
C911	C91	0.890510	0.346110	0.939440
C921	C92	0.892430	0.410760	0.916570
C931	C93	0.902420	0.285680	0.894140
C941	C94	0.904150	0.414500	0.849210
C951	C95	0.003850	0.171490	0.943360
C961	C96	0.880640	0.476310	0.965410
C971	C97	0.917830	0.354150	0.804960
C981	C98	0.897620	0.214400	0.916360
C991	C99	0.117170	0.295630	0.034360
C1001	C100	0.714870	0.364270	0.871400
C1011	C101	0.897560	0.476760	0.819200
C1021	C102	0.872800	0.340090	0.010470
C1031	C103	0.918080	0.291460	0.827740
C1041	C104	0.932620	0.357890	0.732470
C1051	C105	0.077040	0.406970	0.724090
C1061	C106	0.936240	0.226220	0.780940
C1071	C107	0.670030	0.436520	0.915770
C1081	C108	0.167730	0.505840	0.836310
C1091	C109	0.346110	0.406670	0.455600
C1101	C110	0.410760	0.494190	0.518330
C1111	C111	0.285680	0.391540	0.383260
C1121	C112	0.414500	0.565290	0.510350
C1131	C113	0.171490	0.228130	0.167640
C1141	C114	0.476310	0.510900	0.595670
C1151	C115	0.354150	0.549190	0.436320
C1161	C116	0.214400	0.298040	0.316780
C1171	C117	0.295630	0.261270	0.178460
C1181	C118	0.364270	0.492870	0.649400
C1191	C119	0.476760	0.657560	0.579200
C1201	C120	0.340090	0.329620	0.467290
C1211	C121	0.291460	0.463720	0.373380
C1221	C122	0.357890	0.625420	0.425270
C1231	C123	0.406970	0.682880	0.329930
C1241	C124	0.226220	0.445280	0.289980
C1251	C125	0.436520	0.520750	0.766490
C1261	C126	0.505840	0.669530	0.338110
C1271	C127	0.951070	0.890510	0.544400
C1281	C128	0.975860	0.892430	0.481670
C1291	C129	0.008280	0.902420	0.616740
C1301	C130	0.054940	0.904150	0.489650
C1311	C131	0.060490	0.003850	0.832360
C1321	C132	0.915230	0.880640	0.404330
C1331	C133	0.112870	0.917830	0.563680
C1341	C134	0.981260	0.897620	0.683220
C1351	C135	0.082810	0.117170	0.821540
C1361	C136	0.843470	0.714870	0.350600
C1371	C137	0.078360	0.897560	0.420800
C1381	C138	0.862330	0.872800	0.532710
C1391	C139	0.090340	0.918080	0.626620
C1401	C140	0.200150	0.932620	0.574730
C1411	C141	0.352950	0.077040	0.670070
C1421	C142	0.155300	0.936240	0.710020
C1431	C143	0.754260	0.670030	0.233510
C1441	C144	0.331420	0.167730	0.661890
N11	N1	0.782180	0.903880	0.993260
N21	N2	0.725050	0.970570	0.954860
N31	N3	0.488560	0.145180	0.930080
N41	N4	0.702290	0.957350	0.013320
N51	N5	0.500160	0.216680	0.859340
N61	N6	0.349130	0.728010	0.761180
N71	N7	0.470150	0.201820	0.959090
N81	N8	0.361370	0.747820	0.839790
N91	N9	0.298720	0.605140	0.763020
N101	N10	0.910620	0.788920	0.006740
N111	N11	0.015710	0.770190	0.045140
N121	N12	0.215100	0.558480	0.069920
N131	N13	0.944030	0.688970	0.986680
N141	N14	0.357340	0.640820	0.140660
N151	N15	0.966830	0.587950	0.238820
N161	N16	0.242730	0.511060	0.040910
N171	N17	0.908030	0.521580	0.160210
N181	N18	0.842120	0.535700	0.236980
N191	N19	0.788920	0.782180	0.878300
N201	N20	0.770190	0.725050	0.754480
N211	N21	0.558480	0.488560	0.343380
N221	N22	0.688970	0.702290	0.744940
N231	N23	0.640820	0.500160	0.283480
N241	N24	0.587950	0.349130	0.621120
N251	N25	0.511060	0.470150	0.268330
N261	N26	0.521580	0.361370	0.613550
N271	N27	0.535700	0.298720	0.693580
N281	N28	0.903880	0.910620	0.121700
N291	N29	0.970570	0.015710	0.245520
N301	N30	0.145180	0.215100	0.656620
N311	N31	0.957350	0.944030	0.255060
N321	N32	0.216680	0.357340	0.716520
N331	N33	0.728010	0.966830	0.378880
N341	N34	0.201820	0.242730	0.731670
N351	N35	0.747820	0.908030	0.386450
N361	N36	0.605140	0.842120	0.306420
N371	N37	0.217820	0.096120	0.006740
N381	N38	0.274950	0.029430	0.045140
N391	N39	0.511440	0.854820	0.069920
N401	N40	0.297710	0.042650	0.986680
N411	N41	0.499840	0.783320	0.140660
N421	N42	0.650870	0.271990	0.238820
N431	N43	0.529850	0.798180	0.040910
N441	N44	0.638630	0.252180	0.160210
N451	N45	0.701280	0.394860	0.236980
N461	N46	0.089380	0.211080	0.993260
N471	N47	0.984290	0.229810	0.954860
N481	N48	0.784900	0.441520	0.930080
N491	N49	0.055970	0.311030	0.013320
N501	N50	0.642660	0.359180	0.859340
N511	N51	0.033170	0.412050	0.761180
N521	N52	0.757270	0.488940	0.959090
N531	N53	0.091970	0.478420	0.839790
N541	N54	0.157880	0.464300	0.763020
N551	N55	0.211080	0.217820	0.121700
N561	N56	0.229810	0.274950	0.245520
N571	N57	0.441520	0.511440	0.656620
N581	N58	0.311030	0.297710	0.255060
N591	N59	0.359180	0.499840	0.716520
N601	N60	0.412050	0.650870	0.378880
N611	N61	0.488940	0.529850	0.731670
N621	N62	0.478420	0.638630	0.386450
N631	N63	0.464300	0.701280	0.306420
N641	N64	0.096120	0.089380	0.878300
N651	N65	0.029430	0.984290	0.754480
N661	N66	0.854820	0.784900	0.343380
N671	N67	0.042650	0.055970	0.744940
N681	N68	0.783320	0.642660	0.283480
N691	N69	0.271990	0.033170	0.621120
N701	N70	0.798180	0.757270	0.268330
N711	N71	0.252180	0.091970	0.613550
N721	N72	0.394860	0.157880	0.693580
N731	N73	0.940770	0.179540	0.120310
O11	O1	0.943690	0.125400	0.069090
O21	O2	0.896350	0.204200	0.100550
O31	O3	0.988780	0.200330	0.189110
N741	N74	0.059230	0.820460	0.879690
O41	O4	0.056310	0.874600	0.930910
O51	O5	0.103650	0.795800	0.899450
O61	O6	0.011220	0.799670	0.810890
N751	N75	0.820460	0.940770	0.761230
O71	O7	0.874600	0.943690	0.818290
O81	O8	0.795800	0.896350	0.692150
O91	O9	0.799670	0.988780	0.788450
N761	N76	0.179540	0.059230	0.238770
O101	O10	0.125400	0.056310	0.181710
O111	O11	0.204200	0.103650	0.307850
O121	O12	0.200330	0.011220	0.211550
