data_ORAKUO_freeONLY_PM
_symmetry_space_group_name_H-M	'P1'
_cell_length_a	14.475100
_cell_length_b	21.355400
_cell_length_c	20.611400
_cell_angle_alpha	90.000000
_cell_angle_beta	90.000000
_cell_angle_gamma	90.000000
_symmetry_Int_Tables_number 1

loop_
_symmetry_equiv_pos_as_xyz
'x,y,z'

loop_
_atom_site_label
_atom_site_type_symbol
_atom_site_fract_x
_atom_site_fract_y
_atom_site_fract_z
Re11	Re1	0.904690	0.639400	0.441300
S11	S1	0.869690	0.737900	0.489130
O11	O1	0.701700	0.566600	0.820100
N11	N1	0.852200	0.658400	0.653900
N21	N2	0.737200	0.586100	0.531000
N31	N3	0.881400	0.507400	0.365200
N41	N4	0.732100	0.670300	0.345900
N51	N5	0.850900	0.809200	0.320200
C11	C1	0.904000	0.670300	0.614300
C21	C2	0.795300	0.604500	0.499100
C31	C3	0.887800	0.552000	0.394000
C41	C4	0.793400	0.659200	0.379800
C51	C5	0.904500	0.787700	0.354700
O21	O2	0.593000	0.543400	0.398400
Re21	Re2	0.404690	0.139400	0.441300
S21	S2	0.369690	0.237900	0.489130
O31	O3	0.201700	0.066600	0.820100
N61	N6	0.352200	0.158400	0.653900
N71	N7	0.237200	0.086100	0.531000
N81	N8	0.381400	0.007400	0.365200
N91	N9	0.232100	0.170300	0.345900
N101	N10	0.350900	0.309200	0.320200
C61	C6	0.404000	0.170300	0.614300
C71	C7	0.295300	0.104500	0.499100
C81	C8	0.387800	0.052000	0.394000
C91	C9	0.293400	0.159200	0.379800
C101	C10	0.404500	0.287700	0.354700
O41	O4	0.093000	0.043400	0.398400
Re31	Re3	0.095310	0.360600	0.941300
S31	S3	0.130310	0.262100	0.989130
O51	O5	0.298300	0.433400	0.320100
N111	N11	0.147800	0.341600	0.153900
N121	N12	0.262800	0.413900	0.031000
N131	N13	0.118600	0.492600	0.865200
N141	N14	0.267900	0.329700	0.845900
N151	N15	0.149100	0.190800	0.820200
C111	C11	0.096000	0.329700	0.114300
C121	C12	0.204700	0.395500	0.999100
C131	C13	0.112200	0.448000	0.894000
C141	C14	0.206600	0.340800	0.879800
C151	C15	0.095500	0.212300	0.854700
O61	O6	0.407000	0.456600	0.898400
Re41	Re4	0.595310	0.860600	0.941300
S41	S4	0.630310	0.762100	0.989130
O71	O7	0.798300	0.933400	0.320100
N161	N16	0.647800	0.841600	0.153900
N171	N17	0.762800	0.913900	0.031000
N181	N18	0.618600	0.992600	0.865200
N191	N19	0.767900	0.829700	0.845900
N201	N20	0.649100	0.690800	0.820200
C161	C16	0.596000	0.829700	0.114300
C171	C17	0.704700	0.895500	0.999100
C181	C18	0.612200	0.948000	0.894000
C191	C19	0.706600	0.840800	0.879800
C201	C20	0.595500	0.712300	0.854700
O81	O8	0.907000	0.956600	0.898400
Re51	Re5	0.095310	0.639400	0.058700
S51	S5	0.130310	0.737900	0.010870
O91	O9	0.298300	0.566600	0.679900
N211	N21	0.147800	0.658400	0.846100
N221	N22	0.262800	0.586100	0.969000
N231	N23	0.118600	0.507400	0.134800
N241	N24	0.267900	0.670300	0.154100
N251	N25	0.149100	0.809200	0.179800
C211	C21	0.096000	0.670300	0.885700
C221	C22	0.204700	0.604500	0.000900
C231	C23	0.112200	0.552000	0.106000
C241	C24	0.206600	0.659200	0.120200
C251	C25	0.095500	0.787700	0.145300
O101	O10	0.407000	0.543400	0.101600
Re61	Re6	0.595310	0.139400	0.058700
S61	S6	0.630310	0.237900	0.010870
O111	O11	0.798300	0.066600	0.679900
N261	N26	0.647800	0.158400	0.846100
N271	N27	0.762800	0.086100	0.969000
N281	N28	0.618600	0.007400	0.134800
N291	N29	0.767900	0.170300	0.154100
N301	N30	0.649100	0.309200	0.179800
C261	C26	0.596000	0.170300	0.885700
C271	C27	0.704700	0.104500	0.000900
C281	C28	0.612200	0.052000	0.106000
C291	C29	0.706600	0.159200	0.120200
C301	C30	0.595500	0.287700	0.145300
O121	O12	0.907000	0.043400	0.101600
Re71	Re7	0.904690	0.360600	0.558700
S71	S7	0.869690	0.262100	0.510870
O131	O13	0.701700	0.433400	0.179900
N311	N31	0.852200	0.341600	0.346100
N321	N32	0.737200	0.413900	0.469000
N331	N33	0.881400	0.492600	0.634800
N341	N34	0.732100	0.329700	0.654100
N351	N35	0.850900	0.190800	0.679800
C311	C31	0.904000	0.329700	0.385700
C321	C32	0.795300	0.395500	0.500900
C331	C33	0.887800	0.448000	0.606000
C341	C34	0.793400	0.340800	0.620200
C351	C35	0.904500	0.212300	0.645300
O141	O14	0.593000	0.456600	0.601600
Re81	Re8	0.404690	0.860600	0.558700
S81	S8	0.369690	0.762100	0.510870
O151	O15	0.201700	0.933400	0.179900
N361	N36	0.352200	0.841600	0.346100
N371	N37	0.237200	0.913900	0.469000
N381	N38	0.381400	0.992600	0.634800
N391	N39	0.232100	0.829700	0.654100
N401	N40	0.350900	0.690800	0.679800
C361	C36	0.404000	0.829700	0.385700
C371	C37	0.295300	0.895500	0.500900
C381	C38	0.387800	0.948000	0.606000
C391	C39	0.293400	0.840800	0.620200
C401	C40	0.404500	0.712300	0.645300
O161	O16	0.093000	0.956600	0.601600
Re91	Re9	0.095310	0.360600	0.558700
S91	S9	0.130310	0.262100	0.510870
O171	O17	0.298300	0.433400	0.179900
N411	N41	0.147800	0.341600	0.346100
N421	N42	0.262800	0.413900	0.469000
N431	N43	0.118600	0.492600	0.634800
N441	N44	0.267900	0.329700	0.654100
N451	N45	0.149100	0.190800	0.679800
C411	C41	0.096000	0.329700	0.385700
C421	C42	0.204700	0.395500	0.500900
C431	C43	0.112200	0.448000	0.606000
C441	C44	0.206600	0.340800	0.620200
C451	C45	0.095500	0.212300	0.645300
O181	O18	0.407000	0.456600	0.601600
Re101	Re10	0.595310	0.860600	0.558700
S101	S10	0.630310	0.762100	0.510870
O191	O19	0.798300	0.933400	0.179900
N461	N46	0.647800	0.841600	0.346100
N471	N47	0.762800	0.913900	0.469000
N481	N48	0.618600	0.992600	0.634800
N491	N49	0.767900	0.829700	0.654100
N501	N50	0.649100	0.690800	0.679800
C461	C46	0.596000	0.829700	0.385700
C471	C47	0.704700	0.895500	0.500900
C481	C48	0.612200	0.948000	0.606000
C491	C49	0.706600	0.840800	0.620200
C501	C50	0.595500	0.712300	0.645300
O201	O20	0.907000	0.956600	0.601600
Re111	Re11	0.904690	0.639400	0.058700
S111	S11	0.869690	0.737900	0.010870
O211	O21	0.701700	0.566600	0.679900
N511	N51	0.852200	0.658400	0.846100
N521	N52	0.737200	0.586100	0.969000
N531	N53	0.881400	0.507400	0.134800
N541	N54	0.732100	0.670300	0.154100
N551	N55	0.850900	0.809200	0.179800
C511	C51	0.904000	0.670300	0.885700
C521	C52	0.795300	0.604500	0.000900
C531	C53	0.887800	0.552000	0.106000
C541	C54	0.793400	0.659200	0.120200
C551	C55	0.904500	0.787700	0.145300
O221	O22	0.593000	0.543400	0.101600
Re121	Re12	0.404690	0.139400	0.058700
S121	S12	0.369690	0.237900	0.010870
O231	O23	0.201700	0.066600	0.679900
N561	N56	0.352200	0.158400	0.846100
N571	N57	0.237200	0.086100	0.969000
N581	N58	0.381400	0.007400	0.134800
N591	N59	0.232100	0.170300	0.154100
N601	N60	0.350900	0.309200	0.179800
C561	C56	0.404000	0.170300	0.885700
C571	C57	0.295300	0.104500	0.000900
C581	C58	0.387800	0.052000	0.106000
C591	C59	0.293400	0.159200	0.120200
C601	C60	0.404500	0.287700	0.145300
O241	O24	0.093000	0.043400	0.101600
Re131	Re13	0.904690	0.360600	0.941300
S131	S13	0.869690	0.262100	0.989130
O251	O25	0.701700	0.433400	0.320100
N611	N61	0.852200	0.341600	0.153900
N621	N62	0.737200	0.413900	0.031000
N631	N63	0.881400	0.492600	0.865200
N641	N64	0.732100	0.329700	0.845900
N651	N65	0.850900	0.190800	0.820200
C611	C61	0.904000	0.329700	0.114300
C621	C62	0.795300	0.395500	0.999100
C631	C63	0.887800	0.448000	0.894000
C641	C64	0.793400	0.340800	0.879800
C651	C65	0.904500	0.212300	0.854700
O261	O26	0.593000	0.456600	0.898400
Re141	Re14	0.404690	0.860600	0.941300
S141	S14	0.369690	0.762100	0.989130
O271	O27	0.201700	0.933400	0.320100
N661	N66	0.352200	0.841600	0.153900
N671	N67	0.237200	0.913900	0.031000
N681	N68	0.381400	0.992600	0.865200
N691	N69	0.232100	0.829700	0.845900
N701	N70	0.350900	0.690800	0.820200
C661	C66	0.404000	0.829700	0.114300
C671	C67	0.295300	0.895500	0.999100
C681	C68	0.387800	0.948000	0.894000
C691	C69	0.293400	0.840800	0.879800
C701	C70	0.404500	0.712300	0.854700
O281	O28	0.093000	0.956600	0.898400
Re151	Re15	0.095310	0.639400	0.441300
S151	S15	0.130310	0.737900	0.489130
O291	O29	0.298300	0.566600	0.820100
N711	N71	0.147800	0.658400	0.653900
N721	N72	0.262800	0.586100	0.531000
N731	N73	0.118600	0.507400	0.365200
N741	N74	0.267900	0.670300	0.345900
N751	N75	0.149100	0.809200	0.320200
C711	C71	0.096000	0.670300	0.614300
C721	C72	0.204700	0.604500	0.499100
C731	C73	0.112200	0.552000	0.394000
C741	C74	0.206600	0.659200	0.379800
C751	C75	0.095500	0.787700	0.354700
O301	O30	0.407000	0.543400	0.398400
Re161	Re16	0.595310	0.139400	0.441300
S161	S16	0.630310	0.237900	0.489130
O311	O31	0.798300	0.066600	0.820100
N761	N76	0.647800	0.158400	0.653900
N771	N77	0.762800	0.086100	0.531000
N781	N78	0.618600	0.007400	0.365200
N791	N79	0.767900	0.170300	0.345900
N801	N80	0.649100	0.309200	0.320200
C761	C76	0.596000	0.170300	0.614300
C771	C77	0.704700	0.104500	0.499100
C781	C78	0.612200	0.052000	0.394000
C791	C79	0.706600	0.159200	0.379800
C801	C80	0.595500	0.287700	0.354700
O321	O32	0.907000	0.043400	0.398400
Re171	Re17	0.000000	0.694430	0.541580
Re181	Re18	0.000000	0.749330	0.420750
S171	S17	0.000000	0.584770	0.517310
S181	S18	0.000000	0.661680	0.350810
N811	N81	0.000000	0.821800	0.626700
N821	N82	0.000000	0.894500	0.465400
C811	C81	0.000000	0.778900	0.595700
C821	C82	0.000000	0.843500	0.451500
Re191	Re19	0.500000	0.194430	0.541580
Re201	Re20	0.500000	0.249330	0.420750
S191	S19	0.500000	0.084770	0.517310
S201	S20	0.500000	0.161680	0.350810
N831	N83	0.500000	0.321800	0.626700
N841	N84	0.500000	0.394500	0.465400
C831	C83	0.500000	0.278900	0.595700
C841	C84	0.500000	0.343500	0.451500
Re211	Re21	0.000000	0.305570	0.041580
Re221	Re22	0.000000	0.250670	0.920750
S211	S21	0.000000	0.415230	0.017310
S221	S22	0.000000	0.338320	0.850810
N851	N85	0.000000	0.178200	0.126700
N861	N86	0.000000	0.105500	0.965400
C851	C85	0.000000	0.221100	0.095700
C861	C86	0.000000	0.156500	0.951500
Re231	Re23	0.500000	0.805570	0.041580
Re241	Re24	0.500000	0.750670	0.920750
S231	S23	0.500000	0.915230	0.017310
S241	S24	0.500000	0.838320	0.850810
N871	N87	0.500000	0.678200	0.126700
N881	N88	0.500000	0.605500	0.965400
C871	C87	0.500000	0.721100	0.095700
C881	C88	0.500000	0.656500	0.951500
Re251	Re25	0.000000	0.694430	0.958420
Re261	Re26	0.000000	0.749330	0.079250
S251	S25	0.000000	0.584770	0.982690
S261	S26	0.000000	0.661680	0.149190
N891	N89	0.000000	0.821800	0.873300
N901	N90	0.000000	0.894500	0.034600
C891	C89	0.000000	0.778900	0.904300
C901	C90	0.000000	0.843500	0.048500
Re271	Re27	0.500000	0.194430	0.958420
Re281	Re28	0.500000	0.249330	0.079250
S271	S27	0.500000	0.084770	0.982690
S281	S28	0.500000	0.161680	0.149190
N911	N91	0.500000	0.321800	0.873300
N921	N92	0.500000	0.394500	0.034600
C911	C91	0.500000	0.278900	0.904300
C921	C92	0.500000	0.343500	0.048500
Re291	Re29	0.000000	0.305570	0.458420
Re301	Re30	0.000000	0.250670	0.579250
S291	S29	0.000000	0.415230	0.482690
S301	S30	0.000000	0.338320	0.649190
N931	N93	0.000000	0.178200	0.373300
N941	N94	0.000000	0.105500	0.534600
C931	C93	0.000000	0.221100	0.404300
C941	C94	0.000000	0.156500	0.548500
Re311	Re31	0.500000	0.805570	0.458420
Re321	Re32	0.500000	0.750670	0.579250
S311	S31	0.500000	0.915230	0.482690
S321	S32	0.500000	0.838320	0.649190
N951	N95	0.500000	0.678200	0.373300
N961	N96	0.500000	0.605500	0.534600
C951	C95	0.500000	0.721100	0.404300
C961	C96	0.500000	0.656500	0.548500
Yb11	Yb1	0.762460	0.642510	0.750000
O331	O33	0.877400	0.568400	0.750000
O341	O34	0.814800	0.743900	0.750000
Yb21	Yb2	0.262460	0.142510	0.750000
O351	O35	0.377400	0.068400	0.750000
O361	O36	0.314800	0.243900	0.750000
Yb31	Yb3	0.237540	0.357490	0.250000
O371	O37	0.122600	0.431600	0.250000
O381	O38	0.185200	0.256100	0.250000
Yb41	Yb4	0.737540	0.857490	0.250000
O391	O39	0.622600	0.931600	0.250000
O401	O40	0.685200	0.756100	0.250000
Yb51	Yb5	0.237540	0.642510	0.750000
O411	O41	0.122600	0.568400	0.750000
O421	O42	0.185200	0.743900	0.750000
Yb61	Yb6	0.737540	0.142510	0.750000
O431	O43	0.622600	0.068400	0.750000
O441	O44	0.685200	0.243900	0.750000
Yb71	Yb7	0.762460	0.357490	0.250000
O451	O45	0.877400	0.431600	0.250000
O461	O46	0.814800	0.256100	0.250000
Yb81	Yb8	0.262460	0.857490	0.250000
O471	O47	0.377400	0.931600	0.250000
O481	O48	0.314800	0.756100	0.250000
K11	K1	0.593700	0.500000	0.500000
K21	K2	0.093700	0.000000	0.500000
K31	K3	0.406300	0.500000	0.000000
K41	K4	0.906300	0.000000	0.000000
K51	K5	0.406300	0.500000	0.500000
K61	K6	0.906300	0.000000	0.500000
K71	K7	0.593700	0.500000	0.000000
K81	K8	0.093700	0.000000	0.000000
