data_OREZES_freeONLY_PM
_symmetry_space_group_name_H-M	'P1'
_cell_length_a	17.850000
_cell_length_b	17.850000
_cell_length_c	13.064000
_cell_angle_alpha	90.000000
_cell_angle_beta	90.000000
_cell_angle_gamma	120.000000
_symmetry_Int_Tables_number 1

loop_
_symmetry_equiv_pos_as_xyz
'x,y,z'

loop_
_atom_site_label
_atom_site_type_symbol
_atom_site_fract_x
_atom_site_fract_y
_atom_site_fract_z
Cu11	Cu1	0.580900	0.445200	0.132140
Cu21	Cu2	0.579400	0.444100	0.388400
O11	O1	0.641800	0.466100	0.253400
O21	O2	0.556400	0.321700	0.137300
O31	O3	0.494700	0.200000	0.030500
O41	O4	0.436800	0.674600	0.892400
O51	O5	0.514900	0.805000	0.966000
O61	O6	0.424000	0.446200	0.905000
O71	O7	0.571600	0.556000	0.113100
N11	N1	0.504500	0.404700	0.010500
N21	N2	0.509400	0.602000	0.988600
C11	C1	0.502300	0.270800	0.061000
C21	C2	0.489000	0.458000	0.991000
C31	C3	0.527700	0.545100	0.039600
C41	C4	0.478000	0.714000	0.967000
C51	C5	0.520800	0.683000	0.038000
H11	H1	0.581100	0.726500	0.059200
C61	C6	0.452500	0.654200	0.120300
H21	H2	0.442900	0.703600	0.108400
H31	H3	0.495600	0.675300	0.176300
C71	C7	0.377000	0.610000	0.193000
H41	H4	0.325300	0.591900	0.149500
H51	H5	0.381000	0.657700	0.236400
C81	C8	0.283000	0.416000	0.214000
H61	H6	0.305400	0.423200	0.143900
H71	H7	0.221800	0.399900	0.211600
H81	H8	0.288600	0.370300	0.248400
S11	S1	0.320000	0.181700	0.200000
C91	C9	0.452500	0.311100	0.002000
H91	H9	0.465600	0.303300	0.930000
C101	C10	0.363000	0.245000	0.007000
H101	H10	0.353400	0.225500	0.935100
H111	H11	0.336000	0.282100	0.011900
C111	C11	0.291900	0.163700	0.058000
H121	H12	0.292600	0.111700	0.032700
H131	H13	0.234200	0.156800	0.044900
C121	C12	0.238000	0.219000	0.175000
H141	H14	0.268400	0.279800	0.154400
H151	H15	0.204500	0.211900	0.237400
H161	H16	0.198400	0.183800	0.120000
S21	S2	0.344700	0.517900	0.284200
Au11	Au1	0.314100	0.023700	0.216500
Cl11	Cl1	0.254100	0.018200	0.357900
Cu31	Cu3	0.554800	0.135700	0.132140
Cu41	Cu4	0.555900	0.135300	0.388400
O81	O8	0.533900	0.175700	0.253400
O91	O9	0.678300	0.234700	0.137300
O101	O10	0.800000	0.294700	0.030500
O111	O11	0.325400	0.762200	0.892400
O121	O12	0.195000	0.709900	0.966000
O131	O13	0.553800	0.977800	0.905000
O141	O14	0.444000	0.015600	0.113100
N31	N3	0.595300	0.099800	0.010500
N41	N4	0.398000	0.907400	0.988600
C131	C13	0.729200	0.231500	0.061000
C141	C14	0.542000	0.031000	0.991000
C151	C15	0.454900	0.982600	0.039600
C161	C16	0.286000	0.764000	0.967000
C171	C17	0.317000	0.837800	0.038000
H171	H17	0.273500	0.854600	0.059200
C181	C18	0.345800	0.798300	0.120300
H181	H18	0.296400	0.739300	0.108400
H191	H19	0.324700	0.820300	0.176300
C191	C19	0.390000	0.767000	0.193000
H201	H20	0.408100	0.733400	0.149500
H211	H21	0.342300	0.723300	0.236400
C201	C20	0.584000	0.867000	0.214000
H221	H22	0.576800	0.882200	0.143900
H231	H23	0.600100	0.821900	0.211600
H241	H24	0.629700	0.918300	0.248400
S31	S3	0.818300	0.138300	0.200000
C211	C21	0.688900	0.141400	0.002000
H251	H25	0.696700	0.162300	0.930000
C221	C22	0.755000	0.118000	0.007000
H261	H26	0.774500	0.127900	0.935100
H271	H27	0.717900	0.053900	0.011900
C231	C23	0.836300	0.128200	0.058000
H281	H28	0.888300	0.180900	0.032700
H291	H29	0.843200	0.077400	0.044900
C241	C24	0.781000	0.019000	0.175000
H301	H30	0.720200	0.988600	0.154400
H311	H31	0.788100	0.992600	0.237400
H321	H32	0.816200	0.014600	0.120000
S41	S4	0.482100	0.826800	0.284200
Au21	Au2	0.976300	0.290400	0.216500
Cl21	Cl2	0.981800	0.235900	0.357900
Cu51	Cu5	0.864300	0.419100	0.132140
Cu61	Cu6	0.864700	0.420600	0.388400
O151	O15	0.824300	0.358200	0.253400
O161	O16	0.765300	0.443600	0.137300
O171	O17	0.705300	0.505300	0.030500
O181	O18	0.237800	0.563200	0.892400
O191	O19	0.290100	0.485100	0.966000
O201	O20	0.022200	0.576000	0.905000
O211	O21	0.984400	0.428400	0.113100
N51	N5	0.900200	0.495500	0.010500
N61	N6	0.092600	0.490600	0.988600
C251	C25	0.768500	0.497700	0.061000
C261	C26	0.969000	0.511000	0.991000
C271	C27	0.017400	0.472300	0.039600
C281	C28	0.236000	0.522000	0.967000
C291	C29	0.162200	0.479200	0.038000
H331	H33	0.145400	0.418900	0.059200
C301	C30	0.201700	0.547500	0.120300
H341	H34	0.260700	0.557100	0.108400
H351	H35	0.179700	0.504400	0.176300
C311	C31	0.233000	0.623000	0.193000
H361	H36	0.266600	0.674700	0.149500
H371	H37	0.276700	0.619000	0.236400
C321	C32	0.133000	0.717000	0.214000
H381	H38	0.117800	0.694600	0.143900
H391	H39	0.178100	0.778200	0.211600
H401	H40	0.081700	0.711400	0.248400
S51	S5	0.861700	0.680000	0.200000
C331	C33	0.858600	0.547500	0.002000
H411	H41	0.837700	0.534400	0.930000
C341	C34	0.882000	0.637000	0.007000
H421	H42	0.872100	0.646600	0.935100
H431	H43	0.946100	0.664000	0.011900
C351	C35	0.871800	0.708100	0.058000
H441	H44	0.819100	0.707400	0.032700
H451	H45	0.922600	0.765800	0.044900
C361	C36	0.981000	0.762000	0.175000
H461	H46	0.011400	0.731600	0.154400
H471	H47	0.007400	0.795500	0.237400
H481	H48	0.985400	0.801600	0.120000
S61	S6	0.173200	0.655300	0.284200
Au31	Au3	0.709600	0.685900	0.216500
Cl31	Cl3	0.764100	0.745900	0.357900
Cu71	Cu7	0.419100	0.554800	0.632140
Cu81	Cu8	0.420600	0.555900	0.888400
O221	O22	0.358200	0.533900	0.753400
O231	O23	0.443600	0.678300	0.637300
O241	O24	0.505300	0.800000	0.530500
O251	O25	0.563200	0.325400	0.392400
O261	O26	0.485100	0.195000	0.466000
O271	O27	0.576000	0.553800	0.405000
O281	O28	0.428400	0.444000	0.613100
N71	N7	0.495500	0.595300	0.510500
N81	N8	0.490600	0.398000	0.488600
C371	C37	0.497700	0.729200	0.561000
C381	C38	0.511000	0.542000	0.491000
C391	C39	0.472300	0.454900	0.539600
C401	C40	0.522000	0.286000	0.467000
C411	C41	0.479200	0.317000	0.538000
H491	H49	0.418900	0.273500	0.559200
C421	C42	0.547500	0.345800	0.620300
H501	H50	0.557100	0.296400	0.608400
H511	H51	0.504400	0.324700	0.676300
C431	C43	0.623000	0.390000	0.693000
H521	H52	0.674700	0.408100	0.649500
H531	H53	0.619000	0.342300	0.736400
C441	C44	0.717000	0.584000	0.714000
H541	H54	0.694600	0.576800	0.643900
H551	H55	0.778200	0.600100	0.711600
H561	H56	0.711400	0.629700	0.748400
S71	S7	0.680000	0.818300	0.700000
C451	C45	0.547500	0.688900	0.502000
H571	H57	0.534400	0.696700	0.430000
C461	C46	0.637000	0.755000	0.507000
H581	H58	0.646600	0.774500	0.435100
H591	H59	0.664000	0.717900	0.511900
C471	C47	0.708100	0.836300	0.558000
H601	H60	0.707400	0.888300	0.532700
H611	H61	0.765800	0.843200	0.544900
C481	C48	0.762000	0.781000	0.675000
H621	H62	0.731600	0.720200	0.654400
H631	H63	0.795500	0.788100	0.737400
H641	H64	0.801600	0.816200	0.620000
S81	S8	0.655300	0.482100	0.784200
Au41	Au4	0.685900	0.976300	0.716500
Cl41	Cl4	0.745900	0.981800	0.857900
Cu91	Cu9	0.445200	0.864300	0.632140
Cu101	Cu10	0.444100	0.864700	0.888400
O291	O29	0.466100	0.824300	0.753400
O301	O30	0.321700	0.765300	0.637300
O311	O31	0.200000	0.705300	0.530500
O321	O32	0.674600	0.237800	0.392400
O331	O33	0.805000	0.290100	0.466000
O341	O34	0.446200	0.022200	0.405000
O351	O35	0.556000	0.984400	0.613100
N91	N9	0.404700	0.900200	0.510500
N101	N10	0.602000	0.092600	0.488600
C491	C49	0.270800	0.768500	0.561000
C501	C50	0.458000	0.969000	0.491000
C511	C51	0.545100	0.017400	0.539600
C521	C52	0.714000	0.236000	0.467000
C531	C53	0.683000	0.162200	0.538000
H651	H65	0.726500	0.145400	0.559200
C541	C54	0.654200	0.201700	0.620300
H661	H66	0.703600	0.260700	0.608400
H671	H67	0.675300	0.179700	0.676300
C551	C55	0.610000	0.233000	0.693000
H681	H68	0.591900	0.266600	0.649500
H691	H69	0.657700	0.276700	0.736400
C561	C56	0.416000	0.133000	0.714000
H701	H70	0.423200	0.117800	0.643900
H711	H71	0.399900	0.178100	0.711600
H721	H72	0.370300	0.081700	0.748400
S91	S9	0.181700	0.861700	0.700000
C571	C57	0.311100	0.858600	0.502000
H731	H73	0.303300	0.837700	0.430000
C581	C58	0.245000	0.882000	0.507000
H741	H74	0.225500	0.872100	0.435100
H751	H75	0.282100	0.946100	0.511900
C591	C59	0.163700	0.871800	0.558000
H761	H76	0.111700	0.819100	0.532700
H771	H77	0.156800	0.922600	0.544900
C601	C60	0.219000	0.981000	0.675000
H781	H78	0.279800	0.011400	0.654400
H791	H79	0.211900	0.007400	0.737400
H801	H80	0.183800	0.985400	0.620000
S101	S10	0.517900	0.173200	0.784200
Au51	Au5	0.023700	0.709600	0.716500
Cl51	Cl5	0.018200	0.764100	0.857900
Cu111	Cu11	0.135700	0.580900	0.632140
Cu121	Cu12	0.135300	0.579400	0.888400
O361	O36	0.175700	0.641800	0.753400
O371	O37	0.234700	0.556400	0.637300
O381	O38	0.294700	0.494700	0.530500
O391	O39	0.762200	0.436800	0.392400
O401	O40	0.709900	0.514900	0.466000
O411	O41	0.977800	0.424000	0.405000
O421	O42	0.015600	0.571600	0.613100
N111	N11	0.099800	0.504500	0.510500
N121	N12	0.907400	0.509400	0.488600
C611	C61	0.231500	0.502300	0.561000
C621	C62	0.031000	0.489000	0.491000
C631	C63	0.982600	0.527700	0.539600
C641	C64	0.764000	0.478000	0.467000
C651	C65	0.837800	0.520800	0.538000
H811	H81	0.854600	0.581100	0.559200
C661	C66	0.798300	0.452500	0.620300
H821	H82	0.739300	0.442900	0.608400
H831	H83	0.820300	0.495600	0.676300
C671	C67	0.767000	0.377000	0.693000
H841	H84	0.733400	0.325300	0.649500
H851	H85	0.723300	0.381000	0.736400
C681	C68	0.867000	0.283000	0.714000
H861	H86	0.882200	0.305400	0.643900
H871	H87	0.821900	0.221800	0.711600
H881	H88	0.918300	0.288600	0.748400
S111	S11	0.138300	0.320000	0.700000
C691	C69	0.141400	0.452500	0.502000
H891	H89	0.162300	0.465600	0.430000
C701	C70	0.118000	0.363000	0.507000
H901	H90	0.127900	0.353400	0.435100
H911	H91	0.053900	0.336000	0.511900
C711	C71	0.128200	0.291900	0.558000
H921	H92	0.180900	0.292600	0.532700
H931	H93	0.077400	0.234200	0.544900
C721	C72	0.019000	0.238000	0.675000
H941	H94	0.988600	0.268400	0.654400
H951	H95	0.992600	0.204500	0.737400
H961	H96	0.014600	0.198400	0.620000
S121	S12	0.826800	0.344700	0.784200
Au61	Au6	0.290400	0.314100	0.716500
Cl61	Cl6	0.235900	0.254100	0.857900
Ca11	Ca1	0.666670	0.333330	0.254100
Ca21	Ca2	0.333330	0.666670	0.754100
