data_ORIWAP_freeONLY_PM
_symmetry_space_group_name_H-M	'P1'
_cell_length_a	26.131700
_cell_length_b	26.131700
_cell_length_c	6.722000
_cell_angle_alpha	90.000000
_cell_angle_beta	90.000000
_cell_angle_gamma	120.000000
_symmetry_Int_Tables_number 1

loop_
_symmetry_equiv_pos_as_xyz
'x,y,z'

loop_
_atom_site_label
_atom_site_type_symbol
_atom_site_fract_x
_atom_site_fract_y
_atom_site_fract_z
Co11	Co1	0.384960	0.349260	0.150080
C11	C1	0.329260	0.208140	0.285400
C21	C2	0.344150	0.220150	0.085200
C31	C3	0.348220	0.178670	0.966540
H11	H1	0.359800	0.188000	0.811100
C41	C4	0.313920	0.245620	0.423000
O11	O1	0.323820	0.291950	0.358400
O21	O2	0.299720	0.228920	0.590200
O31	O3	0.355350	0.272140	0.995700
O41	O4	0.454790	0.339540	0.292300
Co21	Co2	0.051630	0.682590	0.483410
C51	C5	0.995930	0.541470	0.618730
C61	C6	0.010820	0.553480	0.418530
C71	C7	0.014890	0.512000	0.299870
H21	H2	0.026470	0.521330	0.144430
C81	C8	0.980590	0.578950	0.756330
O51	O5	0.990490	0.625280	0.691730
O61	O6	0.966390	0.562250	0.923530
O71	O7	0.022020	0.605470	0.329030
O81	O8	0.121460	0.672870	0.625630
Co31	Co3	0.718290	0.015930	0.816750
C91	C9	0.662590	0.874810	0.952070
C101	C10	0.677480	0.886820	0.751870
C111	C11	0.681550	0.845340	0.633210
H31	H3	0.693130	0.854670	0.477770
C121	C12	0.647250	0.912290	0.089670
O91	O9	0.657150	0.958620	0.025070
O101	O10	0.633050	0.895590	0.256870
O111	O11	0.688680	0.938810	0.662370
O121	O12	0.788120	0.006210	0.958970
Co41	Co4	0.650740	0.035700	0.150080
C131	C13	0.791860	0.121120	0.285400
C141	C14	0.779850	0.124000	0.085200
C151	C15	0.821330	0.169550	0.966540
H41	H4	0.812000	0.171800	0.811100
C161	C16	0.754380	0.068300	0.423000
O131	O13	0.708050	0.031870	0.358400
O141	O14	0.771080	0.070800	0.590200
O151	O15	0.727860	0.083210	0.995700
O161	O16	0.660460	0.115250	0.292300
Co51	Co5	0.317410	0.369030	0.483410
C171	C17	0.458530	0.454450	0.618730
C181	C18	0.446520	0.457330	0.418530
C191	C19	0.488000	0.502880	0.299870
H51	H5	0.478670	0.505130	0.144430
C201	C20	0.421050	0.401630	0.756330
O171	O17	0.374720	0.365200	0.691730
O181	O18	0.437750	0.404130	0.923530
O191	O19	0.394530	0.416540	0.329030
O201	O20	0.327130	0.448580	0.625630
Co61	Co6	0.984070	0.702370	0.816750
C211	C21	0.125190	0.787790	0.952070
C221	C22	0.113180	0.790670	0.751870
C231	C23	0.154660	0.836220	0.633210
H61	H6	0.145330	0.838470	0.477770
C241	C24	0.087710	0.734970	0.089670
O211	O21	0.041380	0.698540	0.025070
O221	O22	0.104410	0.737470	0.256870
O231	O23	0.061190	0.749880	0.662370
O241	O24	0.993790	0.781920	0.958970
Co71	Co7	0.964300	0.615040	0.150080
C251	C25	0.878880	0.670740	0.285400
C261	C26	0.876000	0.655850	0.085200
C271	C27	0.830450	0.651780	0.966540
H71	H7	0.828200	0.640200	0.811100
C281	C28	0.931700	0.686080	0.423000
O251	O25	0.968130	0.676180	0.358400
O261	O26	0.929200	0.700280	0.590200
O271	O27	0.916790	0.644650	0.995700
O281	O28	0.884750	0.545210	0.292300
Co81	Co8	0.630970	0.948370	0.483410
C291	C29	0.545550	0.004070	0.618730
C301	C30	0.542670	0.989180	0.418530
C311	C31	0.497120	0.985110	0.299870
H81	H8	0.494870	0.973530	0.144430
C321	C32	0.598370	0.019410	0.756330
O291	O29	0.634800	0.009510	0.691730
O301	O30	0.595870	0.033610	0.923530
O311	O31	0.583460	0.977980	0.329030
O321	O32	0.551420	0.878540	0.625630
Co91	Co9	0.297630	0.281710	0.816750
C331	C33	0.212210	0.337410	0.952070
C341	C34	0.209330	0.322520	0.751870
C351	C35	0.163780	0.318450	0.633210
H91	H9	0.161530	0.306870	0.477770
C361	C36	0.265030	0.352750	0.089670
O331	O33	0.301460	0.342850	0.025070
O341	O34	0.262530	0.366950	0.256870
O351	O35	0.250120	0.311320	0.662370
O361	O36	0.218080	0.211880	0.958970
Co101	Co10	0.615040	0.650740	0.849920
C371	C37	0.670740	0.791860	0.714600
C381	C38	0.655850	0.779850	0.914800
C391	C39	0.651780	0.821330	0.033460
H101	H10	0.640200	0.812000	0.188900
C401	C40	0.686080	0.754380	0.577000
O371	O37	0.676180	0.708050	0.641600
O381	O38	0.700280	0.771080	0.409800
O391	O39	0.644650	0.727860	0.004300
O401	O40	0.545210	0.660460	0.707700
Co111	Co11	0.281710	0.984070	0.183250
C411	C41	0.337410	0.125190	0.047930
C421	C42	0.322520	0.113180	0.248130
C431	C43	0.318450	0.154660	0.366790
H111	H11	0.306870	0.145330	0.522230
C441	C44	0.352750	0.087710	0.910330
O411	O41	0.342850	0.041380	0.974930
O421	O42	0.366950	0.104410	0.743130
O431	O43	0.311320	0.061190	0.337630
O441	O44	0.211880	0.993790	0.041030
Co121	Co12	0.948370	0.317410	0.516590
C451	C45	0.004070	0.458530	0.381270
C461	C46	0.989180	0.446520	0.581470
C471	C47	0.985110	0.488000	0.700130
H121	H12	0.973530	0.478670	0.855570
C481	C48	0.019410	0.421050	0.243670
O451	O45	0.009510	0.374720	0.308270
O461	O46	0.033610	0.437750	0.076470
O471	O47	0.977980	0.394530	0.670970
O481	O48	0.878540	0.327130	0.374370
Co131	Co13	0.349260	0.964300	0.849920
C491	C49	0.208140	0.878880	0.714600
C501	C50	0.220150	0.876000	0.914800
C511	C51	0.178670	0.830450	0.033460
H131	H13	0.188000	0.828200	0.188900
C521	C52	0.245620	0.931700	0.577000
O491	O49	0.291950	0.968130	0.641600
O501	O50	0.228920	0.929200	0.409800
O511	O51	0.272140	0.916790	0.004300
O521	O52	0.339540	0.884750	0.707700
Co141	Co14	0.015930	0.297630	0.183250
C531	C53	0.874810	0.212210	0.047930
C541	C54	0.886820	0.209330	0.248130
C551	C55	0.845340	0.163780	0.366790
H141	H14	0.854670	0.161530	0.522230
C561	C56	0.912290	0.265030	0.910330
O531	O53	0.958620	0.301460	0.974930
O541	O54	0.895590	0.262530	0.743130
O551	O55	0.938810	0.250120	0.337630
O561	O56	0.006210	0.218080	0.041030
Co151	Co15	0.682590	0.630970	0.516590
C571	C57	0.541470	0.545550	0.381270
C581	C58	0.553480	0.542670	0.581470
C591	C59	0.512000	0.497120	0.700130
H151	H15	0.521330	0.494870	0.855570
C601	C60	0.578950	0.598370	0.243670
O571	O57	0.625280	0.634800	0.308270
O581	O58	0.562250	0.595870	0.076470
O591	O59	0.605470	0.583460	0.670970
O601	O60	0.672870	0.551420	0.374370
Co161	Co16	0.035700	0.384960	0.849920
C611	C61	0.121120	0.329260	0.714600
C621	C62	0.124000	0.344150	0.914800
C631	C63	0.169550	0.348220	0.033460
H161	H16	0.171800	0.359800	0.188900
C641	C64	0.068300	0.313920	0.577000
O611	O61	0.031870	0.323820	0.641600
O621	O62	0.070800	0.299720	0.409800
O631	O63	0.083210	0.355350	0.004300
O641	O64	0.115250	0.454790	0.707700
Co171	Co17	0.702370	0.718290	0.183250
C651	C65	0.787790	0.662590	0.047930
C661	C66	0.790670	0.677480	0.248130
C671	C67	0.836220	0.681550	0.366790
H171	H17	0.838470	0.693130	0.522230
C681	C68	0.734970	0.647250	0.910330
O651	O65	0.698540	0.657150	0.974930
O661	O66	0.737470	0.633050	0.743130
O671	O67	0.749880	0.688680	0.337630
O681	O68	0.781920	0.788120	0.041030
Co181	Co18	0.369030	0.051630	0.516590
C691	C69	0.454450	0.995930	0.381270
C701	C70	0.457330	0.010820	0.581470
C711	C71	0.502880	0.014890	0.700130
H181	H18	0.505130	0.026470	0.855570
C721	C72	0.401630	0.980590	0.243670
O691	O69	0.365200	0.990490	0.308270
O701	O70	0.404130	0.966390	0.076470
O711	O71	0.416540	0.022020	0.670970
O721	O72	0.448580	0.121460	0.374370
