data_OROJEM_freeONLY_PM
_symmetry_space_group_name_H-M	'P1'
_cell_length_a	8.432000
_cell_length_b	12.954000
_cell_length_c	15.023000
_cell_angle_alpha	102.275000
_cell_angle_beta	104.021000
_cell_angle_gamma	97.420000
_symmetry_Int_Tables_number 1

loop_
_symmetry_equiv_pos_as_xyz
'x,y,z'

loop_
_atom_site_label
_atom_site_type_symbol
_atom_site_fract_x
_atom_site_fract_y
_atom_site_fract_z
Mo11	Mo1	0.813560	0.102360	0.831630
O11	O1	0.900400	0.340200	0.028000
O21	O2	0.993100	0.563300	0.132800
H11	H1	0.004300	0.628500	0.163000
H21	H2	0.984100	0.524200	0.170700
N11	N1	0.769800	0.524800	0.951700
C11	C1	0.575100	0.641800	0.952900
H31	H3	0.552000	0.708800	0.976700
Mo21	Mo2	0.851920	0.218260	0.052100
Cu11	Cu1	0.359260	0.966370	0.739580
C21	C2	0.299000	0.413400	0.514500
H41	H4	0.293800	0.461800	0.473200
H51	H5	0.345300	0.456100	0.579500
O31	O3	0.224700	0.076700	0.707500
H61	H6	0.123000	0.060500	0.706000
H71	H7	0.248100	0.144400	0.715100
N21	N2	0.664000	0.097800	0.398200
O41	O4	0.625800	0.047500	0.748000
Mo31	Mo3	0.055230	0.124570	0.222830
N31	N3	0.407900	0.336900	0.491600
H81	H8	0.381800	0.297500	0.434500
C31	C3	0.716300	0.044500	0.463600
H91	H9	0.749100	0.979600	0.444100
O51	O5	0.474100	0.850600	0.783000
H101	H10	0.548000	0.813300	0.775600
H111	H11	0.417900	0.822800	0.814800
O61	O6	0.104600	0.857800	0.726300
N41	N4	0.241500	0.396400	0.724700
H121	H12	0.244900	0.463100	0.724800
C41	C4	0.724300	0.079900	0.557600
H131	H13	0.760700	0.039900	0.600400
O71	O7	0.390700	0.037800	0.872300
H141	H14	0.478900	0.085200	0.887200
H151	H15	0.353000	0.044000	0.920400
O81	O8	0.874700	0.225900	0.813900
C51	C5	0.676700	0.176800	0.586900
H161	H16	0.686700	0.205700	0.650600
O91	O9	0.009500	0.136600	0.968500
C61	C6	0.616200	0.227700	0.521700
O101	O10	0.703700	0.141300	0.931500
O111	O11	0.379300	0.278400	0.786900
C71	C7	0.545700	0.324100	0.553500
O121	O12	0.235600	0.180400	0.310300
C81	C8	0.114400	0.274600	0.561600
H171	H17	0.017800	0.218500	0.527300
H181	H18	0.211600	0.241200	0.567100
O131	O13	0.612500	0.387900	0.632300
C91	C9	0.649200	0.447200	0.889900
H191	H19	0.673800	0.379600	0.870300
O141	O14	0.704900	0.231800	0.113600
C101	C10	0.451200	0.562600	0.887700
H201	H20	0.344300	0.575600	0.866800
O151	O15	0.820400	0.948400	0.882800
C111	C11	0.489100	0.463300	0.854000
O161	O16	0.047400	0.237200	0.158200
C121	C12	0.364500	0.371400	0.784800
O171	O17	0.860400	0.052100	0.076200
C131	C13	0.732900	0.621500	0.982700
H211	H21	0.816200	0.676100	0.025500
O181	O18	0.959800	0.027700	0.774500
C141	C14	0.099900	0.317400	0.658000
H221	H22	0.001900	0.350100	0.652300
H231	H23	0.080800	0.257200	0.685500
C151	C15	0.128300	0.354800	0.502400
H241	H24	0.081200	0.316900	0.436100
H251	H25	0.060500	0.407500	0.517300
C161	C16	0.615800	0.187400	0.427500
H261	H26	0.579500	0.226400	0.383800
Mo41	Mo4	0.186440	0.897640	0.168370
O191	O19	0.099600	0.659800	0.972000
O201	O20	0.006900	0.436700	0.867200
H271	H27	0.995700	0.371500	0.837000
H281	H28	0.015900	0.475800	0.829300
N51	N5	0.230200	0.475200	0.048300
C171	C17	0.424900	0.358200	0.047100
H291	H29	0.448000	0.291200	0.023300
Mo51	Mo5	0.148080	0.781740	0.947900
Cu21	Cu2	0.640740	0.033630	0.260420
C181	C18	0.701000	0.586600	0.485500
H301	H30	0.706200	0.538200	0.526800
H311	H31	0.654700	0.543900	0.420500
O211	O21	0.775300	0.923300	0.292500
H321	H32	0.877000	0.939500	0.294000
H331	H33	0.751900	0.855600	0.284900
N61	N6	0.336000	0.902200	0.601800
O221	O22	0.374200	0.952500	0.252000
Mo61	Mo6	0.944770	0.875430	0.777170
N71	N7	0.592100	0.663100	0.508400
H341	H34	0.618200	0.702500	0.565500
C191	C19	0.283700	0.955500	0.536400
H351	H35	0.250900	0.020400	0.555900
O231	O23	0.525900	0.149400	0.217000
H361	H36	0.452000	0.186700	0.224400
H371	H37	0.582100	0.177200	0.185200
O241	O24	0.895400	0.142200	0.273700
N81	N8	0.758500	0.603600	0.275300
H381	H38	0.755100	0.536900	0.275200
C201	C20	0.275700	0.920100	0.442400
H391	H39	0.239300	0.960100	0.399600
O251	O25	0.609300	0.962200	0.127700
H401	H40	0.521100	0.914800	0.112800
H411	H41	0.647000	0.956000	0.079600
O261	O26	0.125300	0.774100	0.186100
C211	C21	0.323300	0.823200	0.413100
H421	H42	0.313300	0.794300	0.349400
O271	O27	0.990500	0.863400	0.031500
C221	C22	0.383800	0.772300	0.478300
O281	O28	0.296300	0.858700	0.068500
O291	O29	0.620700	0.721600	0.213100
C231	C23	0.454300	0.675900	0.446500
O301	O30	0.764400	0.819600	0.689700
C241	C24	0.885600	0.725400	0.438400
H431	H43	0.982200	0.781500	0.472700
H441	H44	0.788400	0.758800	0.432900
O311	O31	0.387500	0.612100	0.367700
C251	C25	0.350800	0.552800	0.110100
H451	H45	0.326200	0.620400	0.129700
O321	O32	0.295100	0.768200	0.886400
C261	C26	0.548800	0.437400	0.112300
H461	H46	0.655700	0.424400	0.133200
O331	O33	0.179600	0.051600	0.117200
C271	C27	0.510900	0.536700	0.146000
O341	O34	0.952600	0.762800	0.841800
C281	C28	0.635500	0.628600	0.215200
O351	O35	0.139600	0.947900	0.923800
C291	C29	0.267100	0.378500	0.017300
H471	H47	0.183800	0.323900	0.974500
O361	O36	0.040200	0.972300	0.225500
C301	C30	0.900100	0.682600	0.342000
H481	H48	0.998100	0.649900	0.347700
H491	H49	0.919200	0.742800	0.314500
C311	C31	0.871700	0.645200	0.497600
H501	H50	0.918800	0.683100	0.563900
H511	H51	0.939500	0.592500	0.482700
C321	C32	0.384200	0.812600	0.572500
H521	H52	0.420500	0.773600	0.616200
Te11	Te1	0.000000	0.000000	0.000000
Cu31	Cu3	0.000000	0.500000	0.000000
