data_OROLUD_freeONLY_PM
_symmetry_space_group_name_H-M	'P1'
_cell_length_a	9.638000
_cell_length_b	20.597900
_cell_length_c	10.420700
_cell_angle_alpha	90.000000
_cell_angle_beta	95.034000
_cell_angle_gamma	90.000000
_symmetry_Int_Tables_number 1

loop_
_symmetry_equiv_pos_as_xyz
'x,y,z'

loop_
_atom_site_label
_atom_site_type_symbol
_atom_site_fract_x
_atom_site_fract_y
_atom_site_fract_z
Zn11	Zn1	0.170070	0.307400	0.360140
Zn21	Zn2	0.693790	0.457040	0.591230
Zn31	Zn3	0.924220	0.429640	0.120060
P11	P1	0.061120	0.292410	0.059670
H11	H1	0.971000	0.243700	0.080000
P21	P2	0.431480	0.399960	0.436680
H21	H2	0.475000	0.417100	0.326000
P31	P3	0.788780	0.498640	0.871750
H31	H3	0.732000	0.557400	0.868000
P41	P4	0.885140	0.387870	0.403930
H41	H4	0.810000	0.335500	0.415000
O11	O1	0.977600	0.353260	0.036500
O21	O2	0.159700	0.294280	0.178300
O31	O3	0.133400	0.274310	0.941890
O41	O4	0.355800	0.336350	0.418900
O51	O5	0.337900	0.455460	0.472200
O61	O6	0.557400	0.392550	0.533000
O71	O7	0.698900	0.455880	0.778260
O81	O8	0.783200	0.474720	0.007850
O91	O9	0.934100	0.506050	0.829640
O101	O10	0.863800	0.431750	0.518500
O111	O11	0.036000	0.369260	0.411300
O121	O12	0.830300	0.418050	0.277700
Zn41	Zn4	0.829930	0.807400	0.139860
Zn51	Zn5	0.306210	0.957040	0.908770
Zn61	Zn6	0.075780	0.929640	0.379940
P51	P5	0.938880	0.792410	0.440330
H51	H5	0.029000	0.743700	0.420000
P61	P6	0.568520	0.899960	0.063320
H61	H6	0.525000	0.917100	0.174000
P71	P7	0.211220	0.998640	0.628250
H71	H7	0.268000	0.057400	0.632000
P81	P8	0.114860	0.887870	0.096070
H81	H8	0.190000	0.835500	0.085000
O131	O13	0.022400	0.853260	0.463500
O141	O14	0.840300	0.794280	0.321700
O151	O15	0.866600	0.774310	0.558110
O161	O16	0.644200	0.836350	0.081100
O171	O17	0.662100	0.955460	0.027800
O181	O18	0.442600	0.892550	0.967000
O191	O19	0.301100	0.955880	0.721740
O201	O20	0.216800	0.974720	0.492150
O211	O21	0.065900	0.006050	0.670360
O221	O22	0.136200	0.931750	0.981500
O231	O23	0.964000	0.869260	0.088700
O241	O24	0.169700	0.918050	0.222300
Zn71	Zn7	0.829930	0.692600	0.639860
Zn81	Zn8	0.306210	0.542960	0.408770
Zn91	Zn9	0.075780	0.570360	0.879940
P91	P9	0.938880	0.707590	0.940330
H91	H9	0.029000	0.756300	0.920000
P101	P10	0.568520	0.600040	0.563320
H101	H10	0.525000	0.582900	0.674000
P111	P11	0.211220	0.501360	0.128250
H111	H11	0.268000	0.442600	0.132000
P121	P12	0.114860	0.612130	0.596070
H121	H12	0.190000	0.664500	0.585000
O251	O25	0.022400	0.646740	0.963500
O261	O26	0.840300	0.705720	0.821700
O271	O27	0.866600	0.725690	0.058110
O281	O28	0.644200	0.663650	0.581100
O291	O29	0.662100	0.544540	0.527800
O301	O30	0.442600	0.607450	0.467000
O311	O31	0.301100	0.544120	0.221740
O321	O32	0.216800	0.525280	0.992150
O331	O33	0.065900	0.493950	0.170360
O341	O34	0.136200	0.568250	0.481500
O351	O35	0.964000	0.630740	0.588700
O361	O36	0.169700	0.581950	0.722300
Zn101	Zn10	0.170070	0.192600	0.860140
Zn111	Zn11	0.693790	0.042960	0.091230
Zn121	Zn12	0.924220	0.070360	0.620060
P131	P13	0.061120	0.207590	0.559670
H131	H13	0.971000	0.256300	0.580000
P141	P14	0.431480	0.100040	0.936680
H141	H14	0.475000	0.082900	0.826000
P151	P15	0.788780	0.001360	0.371750
H151	H15	0.732000	0.942600	0.368000
P161	P16	0.885140	0.112130	0.903930
H161	H16	0.810000	0.164500	0.915000
O371	O37	0.977600	0.146740	0.536500
O381	O38	0.159700	0.205720	0.678300
O391	O39	0.133400	0.225690	0.441890
O401	O40	0.355800	0.163650	0.918900
O411	O41	0.337900	0.044540	0.972200
O421	O42	0.557400	0.107450	0.033000
O431	O43	0.698900	0.044120	0.278260
O441	O44	0.783200	0.025280	0.507850
O451	O45	0.934100	0.993950	0.329640
O461	O46	0.863800	0.068250	0.018500
O471	O47	0.036000	0.130740	0.911300
O481	O48	0.830300	0.081950	0.777700
