data_ORULEU_freeONLY_PM
_symmetry_space_group_name_H-M	'P1'
_cell_length_a	11.545000
_cell_length_b	20.225000
_cell_length_c	14.390000
_cell_angle_alpha	90.000000
_cell_angle_beta	90.528000
_cell_angle_gamma	90.000000
_symmetry_Int_Tables_number 1

loop_
_symmetry_equiv_pos_as_xyz
'x,y,z'

loop_
_atom_site_label
_atom_site_type_symbol
_atom_site_fract_x
_atom_site_fract_y
_atom_site_fract_z
Co11	Co1	0.246130	0.121780	0.231270
Co21	Co2	0.311920	0.138560	0.000570
Co31	Co3	0.147800	0.255330	0.096420
O11	O1	0.419900	0.133970	0.204820
O21	O2	0.466300	0.164780	0.061280
O31	O3	0.648600	0.203130	0.471640
O41	O4	0.805700	0.263500	0.445400
O51	O5	0.982300	0.256180	0.129000
O61	O6	0.955100	0.156080	0.066700
O71	O7	0.683000	0.957950	0.959700
O81	O8	0.770200	0.973050	0.823850
O91	O9	0.735700	0.286170	0.798880
O101	O10	0.725900	0.200780	0.700620
O111	O11	0.196910	0.162180	0.102610
H11	H1	0.141000	0.137000	0.088000
O121	O12	0.068600	0.112370	0.277000
N11	N1	0.301600	0.078370	0.360370
N21	N2	0.401900	0.001700	0.620000
H21	H2	0.429500	0.962200	0.622500
N31	N3	0.364100	0.102120	0.871640
C11	C1	0.608300	0.172610	0.181900
C21	C2	0.617000	0.186090	0.277000
H31	H3	0.552300	0.180300	0.314100
C31	C3	0.720000	0.208050	0.317300
C41	C4	0.815700	0.216380	0.261100
H41	H4	0.883900	0.233200	0.286500
C51	C5	0.811400	0.199980	0.167100
C61	C6	0.707200	0.177970	0.125890
C71	C7	0.725600	0.226200	0.418400
C81	C8	0.923400	0.204010	0.114600
C91	C9	0.708800	0.156540	0.026200
C101	C10	0.719300	0.201410	0.952900
H51	H5	0.719600	0.246600	0.965000
C111	C11	0.729400	0.178680	0.861500
C121	C12	0.733700	0.111180	0.843800
H61	H6	0.742600	0.096000	0.783300
C131	C13	0.724700	0.066410	0.916500
C141	C14	0.710000	0.089510	0.006600
H71	H7	0.700800	0.059300	0.054700
C151	C15	0.731000	0.226220	0.781400
C161	C16	0.726600	0.993350	0.898400
C171	C17	0.356800	0.115530	0.424500
H81	H8	0.371500	0.159600	0.410200
C181	C18	0.392700	0.092400	0.509600
H91	H9	0.431700	0.120000	0.551000
C191	C19	0.369900	0.026840	0.533100
C201	C20	0.317500	0.986660	0.466500
H101	H10	0.304900	0.942000	0.478100
C211	C21	0.284600	0.014600	0.382300
H111	H11	0.248700	0.987600	0.338500
C221	C22	0.392100	0.036690	0.702700
C231	C23	0.452400	0.016340	0.781000
H121	H12	0.502800	0.980500	0.778300
C241	C24	0.436500	0.050170	0.863300
H131	H13	0.477900	0.036400	0.915500
C251	C25	0.307700	0.120740	0.795200
H141	H14	0.258800	0.157100	0.799600
C261	C26	0.315960	0.090520	0.710870
H151	H15	0.272500	0.105100	0.660200
C271	C27	0.488280	0.155640	0.145110
Co41	Co4	0.253870	0.621780	0.268730
Co51	Co5	0.188080	0.638560	0.499430
Co61	Co6	0.352200	0.755330	0.403580
O131	O13	0.080100	0.633970	0.295180
O141	O14	0.033700	0.664780	0.438720
O151	O15	0.851400	0.703130	0.028360
O161	O16	0.694300	0.763500	0.054600
O171	O17	0.517700	0.756180	0.371000
O181	O18	0.544900	0.656080	0.433300
O191	O19	0.817000	0.457950	0.540300
O201	O20	0.729800	0.473050	0.676150
O211	O21	0.764300	0.786170	0.701120
O221	O22	0.774100	0.700780	0.799380
O231	O23	0.303090	0.662180	0.397390
H161	H16	0.359000	0.637000	0.412000
O241	O24	0.431400	0.612370	0.223000
N41	N4	0.198400	0.578370	0.139630
N51	N5	0.098100	0.501700	0.880000
H171	H17	0.070500	0.462200	0.877500
N61	N6	0.135900	0.602120	0.628360
C281	C28	0.891700	0.672610	0.318100
C291	C29	0.883000	0.686090	0.223000
H181	H18	0.947700	0.680300	0.185900
C301	C30	0.780000	0.708050	0.182700
C311	C31	0.684300	0.716380	0.238900
H191	H19	0.616100	0.733200	0.213500
C321	C32	0.688600	0.699980	0.332900
C331	C33	0.792800	0.677970	0.374110
C341	C34	0.774400	0.726200	0.081600
C351	C35	0.576600	0.704010	0.385400
C361	C36	0.791200	0.656540	0.473800
C371	C37	0.780700	0.701410	0.547100
H201	H20	0.780400	0.746600	0.535000
C381	C38	0.770600	0.678680	0.638500
C391	C39	0.766300	0.611180	0.656200
H211	H21	0.757400	0.596000	0.716700
C401	C40	0.775300	0.566410	0.583500
C411	C41	0.790000	0.589510	0.493400
H221	H22	0.799200	0.559300	0.445300
C421	C42	0.769000	0.726220	0.718600
C431	C43	0.773400	0.493350	0.601600
C441	C44	0.143200	0.615530	0.075500
H231	H23	0.128500	0.659600	0.089800
C451	C45	0.107300	0.592400	0.990400
H241	H24	0.068300	0.620000	0.949000
C461	C46	0.130100	0.526840	0.966900
C471	C47	0.182500	0.486660	0.033500
H251	H25	0.195100	0.442000	0.021900
C481	C48	0.215400	0.514600	0.117700
H261	H26	0.251300	0.487600	0.161500
C491	C49	0.107900	0.536690	0.797300
C501	C50	0.047600	0.516340	0.719000
H271	H27	0.997200	0.480500	0.721700
C511	C51	0.063500	0.550170	0.636700
H281	H28	0.022100	0.536400	0.584500
C521	C52	0.192300	0.620740	0.704800
H291	H29	0.241200	0.657100	0.700400
C531	C53	0.184040	0.590520	0.789130
H301	H30	0.227500	0.605100	0.839800
C541	C54	0.011720	0.655640	0.354890
Co71	Co7	0.753870	0.878220	0.768730
Co81	Co8	0.688080	0.861440	0.999430
Co91	Co9	0.852200	0.744670	0.903580
O251	O25	0.580100	0.866030	0.795180
O261	O26	0.533700	0.835220	0.938720
O271	O27	0.351400	0.796870	0.528360
O281	O28	0.194300	0.736500	0.554600
O291	O29	0.017700	0.743820	0.871000
O301	O30	0.044900	0.843920	0.933300
O311	O31	0.317000	0.042050	0.040300
O321	O32	0.229800	0.026950	0.176150
O331	O33	0.264300	0.713830	0.201120
O341	O34	0.274100	0.799220	0.299380
O351	O35	0.803090	0.837820	0.897390
H311	H31	0.859000	0.863000	0.912000
O361	O36	0.931400	0.887630	0.723000
N71	N7	0.698400	0.921630	0.639630
N81	N8	0.598100	0.998300	0.380000
H321	H32	0.570500	0.037800	0.377500
N91	N9	0.635900	0.897880	0.128360
C551	C55	0.391700	0.827390	0.818100
C561	C56	0.383000	0.813910	0.723000
H331	H33	0.447700	0.819700	0.685900
C571	C57	0.280000	0.791950	0.682700
C581	C58	0.184300	0.783620	0.738900
H341	H34	0.116100	0.766800	0.713500
C591	C59	0.188600	0.800020	0.832900
C601	C60	0.292800	0.822030	0.874110
C611	C61	0.274400	0.773800	0.581600
C621	C62	0.076600	0.795990	0.885400
C631	C63	0.291200	0.843460	0.973800
C641	C64	0.280700	0.798590	0.047100
H351	H35	0.280400	0.753400	0.035000
C651	C65	0.270600	0.821320	0.138500
C661	C66	0.266300	0.888820	0.156200
H361	H36	0.257400	0.904000	0.216700
C671	C67	0.275300	0.933590	0.083500
C681	C68	0.290000	0.910490	0.993400
H371	H37	0.299200	0.940700	0.945300
C691	C69	0.269000	0.773780	0.218600
C701	C70	0.273400	0.006650	0.101600
C711	C71	0.643200	0.884470	0.575500
H381	H38	0.628500	0.840400	0.589800
C721	C72	0.607300	0.907600	0.490400
H391	H39	0.568300	0.880000	0.449000
C731	C73	0.630100	0.973160	0.466900
C741	C74	0.682500	0.013340	0.533500
H401	H40	0.695100	0.058000	0.521900
C751	C75	0.715400	0.985400	0.617700
H411	H41	0.751300	0.012400	0.661500
C761	C76	0.607900	0.963310	0.297300
C771	C77	0.547600	0.983660	0.219000
H421	H42	0.497200	0.019500	0.221700
C781	C78	0.563500	0.949830	0.136700
H431	H43	0.522100	0.963600	0.084500
C791	C79	0.692300	0.879260	0.204800
H441	H44	0.741200	0.842900	0.200400
C801	C80	0.684040	0.909480	0.289130
H451	H45	0.727500	0.894900	0.339800
C811	C81	0.511720	0.844360	0.854890
Co101	Co10	0.746130	0.378220	0.731270
Co111	Co11	0.811920	0.361440	0.500570
Co121	Co12	0.647800	0.244670	0.596420
O371	O37	0.919900	0.366030	0.704820
O381	O38	0.966300	0.335220	0.561280
O391	O39	0.148600	0.296870	0.971640
O401	O40	0.305700	0.236500	0.945400
O411	O41	0.482300	0.243820	0.629000
O421	O42	0.455100	0.343920	0.566700
O431	O43	0.183000	0.542050	0.459700
O441	O44	0.270200	0.526950	0.323850
O451	O45	0.235700	0.213830	0.298880
O461	O46	0.225900	0.299220	0.200620
O471	O47	0.696910	0.337820	0.602610
H461	H46	0.641000	0.363000	0.588000
O481	O48	0.568600	0.387630	0.777000
N101	N10	0.801600	0.421630	0.860370
N111	N11	0.901900	0.498300	0.120000
H471	H47	0.929500	0.537800	0.122500
N121	N12	0.864100	0.397880	0.371640
C821	C82	0.108300	0.327390	0.681900
C831	C83	0.117000	0.313910	0.777000
H481	H48	0.052300	0.319700	0.814100
C841	C84	0.220000	0.291950	0.817300
C851	C85	0.315700	0.283620	0.761100
H491	H49	0.383900	0.266800	0.786500
C861	C86	0.311400	0.300020	0.667100
C871	C87	0.207200	0.322030	0.625890
C881	C88	0.225600	0.273800	0.918400
C891	C89	0.423400	0.295990	0.614600
C901	C90	0.208800	0.343460	0.526200
C911	C91	0.219300	0.298590	0.452900
H501	H50	0.219600	0.253400	0.465000
C921	C92	0.229400	0.321320	0.361500
C931	C93	0.233700	0.388820	0.343800
H511	H51	0.242600	0.404000	0.283300
C941	C94	0.224700	0.433590	0.416500
C951	C95	0.210000	0.410490	0.506600
H521	H52	0.200800	0.440700	0.554700
C961	C96	0.231000	0.273780	0.281400
C971	C97	0.226600	0.506650	0.398400
C981	C98	0.856800	0.384470	0.924500
H531	H53	0.871500	0.340400	0.910200
C991	C99	0.892700	0.407600	0.009600
H541	H54	0.931700	0.380000	0.051000
C1001	C100	0.869900	0.473160	0.033100
C1011	C101	0.817500	0.513340	0.966500
H551	H55	0.804900	0.558000	0.978100
C1021	C102	0.784600	0.485400	0.882300
H561	H56	0.748700	0.512400	0.838500
C1031	C103	0.892100	0.463310	0.202700
C1041	C104	0.952400	0.483660	0.281000
H571	H57	0.002800	0.519500	0.278300
C1051	C105	0.936500	0.449830	0.363300
H581	H58	0.977900	0.463600	0.415500
C1061	C106	0.807700	0.379260	0.295200
H591	H59	0.758800	0.342900	0.299600
C1071	C107	0.815960	0.409480	0.210870
H601	H60	0.772500	0.394900	0.160200
C1081	C108	0.988280	0.344360	0.645110
