data_OSILOS_charged_PM
_symmetry_space_group_name_H-M	'P1'
_cell_length_a	4.995000
_cell_length_b	16.875700
_cell_length_c	16.875700
_cell_angle_alpha	88.745000
_cell_angle_beta	81.489300
_cell_angle_gamma	81.489300
_symmetry_Int_Tables_number 1

loop_
_symmetry_equiv_pos_as_xyz
'x,y,z'

loop_
_atom_site_label
_atom_site_type_symbol
_atom_site_fract_x
_atom_site_fract_y
_atom_site_fract_z
Cu11	Cu1	0.500000	0.000000	0.000000
Cu21	Cu2	0.000000	0.500000	0.500000
Cu31	Cu3	0.500000	0.000000	0.500000
Cu41	Cu4	0.500000	0.500000	0.000000
H11	H1	0.875700	0.274000	0.104000
H21	H2	0.073800	0.287400	0.025200
H31	H3	0.526800	0.165200	0.083800
H41	H4	0.753700	0.226000	0.396000
H51	H5	0.886400	0.212600	0.474800
H61	H6	0.275800	0.334800	0.416200
H71	H7	0.979700	0.896000	0.774000
H81	H8	0.099000	0.974800	0.787400
H91	H9	0.610600	0.916200	0.665200
H101	H10	0.149700	0.604000	0.726000
H111	H11	0.361200	0.525200	0.712600
H121	H12	0.692000	0.583800	0.834800
H131	H13	0.124300	0.726000	0.896000
H141	H14	0.926200	0.712600	0.974800
H151	H15	0.473200	0.834800	0.916200
H161	H16	0.246300	0.774000	0.604000
H171	H17	0.113600	0.787400	0.525200
H181	H18	0.724200	0.665200	0.583800
H191	H19	0.020300	0.104000	0.226000
H201	H20	0.901000	0.025200	0.212600
H211	H21	0.389400	0.083800	0.334800
H221	H22	0.850300	0.396000	0.274000
H231	H23	0.638800	0.474800	0.287400
H241	H24	0.308000	0.416200	0.165200
C11	C1	0.891100	0.276600	0.046000
C21	C2	0.682500	0.345000	0.022600
C31	C3	0.664700	0.154600	0.040400
C41	C4	0.713700	0.223400	0.454000
C51	C5	0.550100	0.155000	0.477400
C61	C6	0.359700	0.345400	0.459600
C71	C7	0.937100	0.954000	0.776600
C81	C8	0.705100	0.977400	0.845000
C91	C9	0.705100	0.959600	0.654600
C101	C10	0.167700	0.546000	0.723400
C111	C11	0.027500	0.522600	0.655000
C121	C12	0.819300	0.540400	0.845400
C131	C13	0.108900	0.723400	0.954000
C141	C14	0.317500	0.655000	0.977400
C151	C15	0.335300	0.845400	0.959600
C161	C16	0.286300	0.776600	0.546000
C171	C17	0.449900	0.845000	0.522600
C181	C18	0.640300	0.654600	0.540400
C191	C19	0.062900	0.046000	0.223400
C201	C20	0.294900	0.022600	0.155000
C211	C21	0.294900	0.040400	0.345400
C221	C22	0.832300	0.454000	0.276600
C231	C23	0.972500	0.477400	0.345000
C241	C24	0.180700	0.459600	0.154600
N11	N1	0.703200	0.092200	0.993400
N21	N2	0.925600	0.098800	0.939600
N31	N3	0.017400	0.166200	0.954800
N41	N4	0.853400	0.200100	0.015900
N51	N5	0.288800	0.407800	0.506600
N61	N6	0.464000	0.401200	0.560400
N71	N7	0.638400	0.333800	0.545200
N81	N8	0.569400	0.299900	0.484100
N91	N9	0.696600	0.006600	0.592200
N101	N10	0.865200	0.060400	0.598800
N111	N11	0.972200	0.045200	0.666200
N121	N12	0.869300	0.984100	0.700100
N131	N13	0.795400	0.493400	0.907800
N141	N14	0.024400	0.439600	0.901200
N151	N15	0.183600	0.454800	0.833800
N161	N16	0.053500	0.515900	0.799900
N171	N17	0.296800	0.907800	0.006600
N181	N18	0.074400	0.901200	0.060400
N191	N19	0.982600	0.833800	0.045200
N201	N20	0.146600	0.799900	0.984100
N211	N21	0.711200	0.592200	0.493400
N221	N22	0.536000	0.598800	0.439600
N231	N23	0.361600	0.666200	0.454800
N241	N24	0.430600	0.700100	0.515900
N251	N25	0.303400	0.993400	0.407800
N261	N26	0.134800	0.939600	0.401200
N271	N27	0.027800	0.954800	0.333800
N281	N28	0.130700	0.015900	0.299900
N291	N29	0.204600	0.506600	0.092200
N301	N30	0.975600	0.560400	0.098800
N311	N31	0.816400	0.545200	0.166200
N321	N32	0.946500	0.484100	0.200100
O11	O1	0.518900	0.332500	0.978500
O21	O2	0.701400	0.411600	0.051200
O31	O3	0.329900	0.167500	0.521500
O41	O4	0.664200	0.088400	0.448800
O51	O5	0.497400	0.021500	0.832500
O61	O6	0.752600	0.948800	0.911600
O71	O7	0.851400	0.478500	0.667500
O81	O8	0.113000	0.551200	0.588400
O91	O9	0.481100	0.667500	0.021500
O101	O10	0.298600	0.588400	0.948800
O111	O11	0.670100	0.832500	0.478500
O121	O12	0.335800	0.911600	0.551200
O131	O13	0.502600	0.978500	0.167500
O141	O14	0.247400	0.051200	0.088400
O151	O15	0.148600	0.521500	0.332500
O161	O16	0.887000	0.448800	0.411600
Cl11	Cl1	0.375000	0.250000	0.250000
O171	O17	0.246000	0.263200	0.183200
O181	O18	0.192400	0.236800	0.316800
O191	O19	0.570800	0.183200	0.236800
O201	O20	0.490800	0.316800	0.263200
Cl21	Cl2	0.625000	0.750000	0.750000
O211	O21	0.429200	0.816800	0.763200
O221	O22	0.509200	0.683200	0.736800
O231	O23	0.754000	0.736800	0.816800
O241	O24	0.807600	0.763200	0.683200
