data_OSIXEU_freeONLY_PM
_symmetry_space_group_name_H-M	'P1'
_cell_length_a	11.730200
_cell_length_b	11.902600
_cell_length_c	12.533500
_cell_angle_alpha	106.769000
_cell_angle_beta	106.195000
_cell_angle_gamma	113.462000
_symmetry_Int_Tables_number 1

loop_
_symmetry_equiv_pos_as_xyz
'x,y,z'

loop_
_atom_site_label
_atom_site_type_symbol
_atom_site_fract_x
_atom_site_fract_y
_atom_site_fract_z
Ag11	Ag1	0.408520	0.231690	0.606120
Ag21	Ag2	0.732220	0.279570	0.874680
Ag31	Ag3	0.697600	0.374430	0.606120
Ag41	Ag4	0.642460	0.595110	0.874680
Ag51	Ag5	0.591480	0.768310	0.393880
Ag61	Ag6	0.267780	0.720430	0.125320
Ag71	Ag7	0.302400	0.625570	0.393880
Ag81	Ag8	0.357540	0.404890	0.125320
H11	H1	0.591700	0.326100	0.073200
H21	H2	0.269400	0.356200	0.743200
H31	H3	0.234000	0.365900	0.855800
H41	H4	0.047300	0.180100	0.675600
H51	H5	0.139400	0.118400	0.654400
H61	H6	0.103900	0.128100	0.767200
H71	H7	0.479200	0.707000	0.693200
H81	H8	0.238800	0.328600	0.304000
H91	H9	0.272400	0.234700	0.356000
H101	H10	0.036500	0.145700	0.267400
H111	H11	0.058300	0.282700	0.358400
H121	H12	0.092000	0.188900	0.410600
H131	H13	0.981500	0.747100	0.073200
H141	H14	0.973800	0.387000	0.743200
H151	H15	0.121800	0.489900	0.855800
H161	H16	0.128300	0.495500	0.675600
H171	H17	0.015000	0.536000	0.654400
H181	H18	0.163300	0.639100	0.767200
H191	H19	0.714000	0.986200	0.693200
H201	H20	0.565200	0.975400	0.304000
H211	H21	0.583600	0.121300	0.356000
H221	H22	0.730900	0.121700	0.267400
H231	H23	0.800100	0.075700	0.358400
H241	H24	0.818600	0.221700	0.410600
H251	H25	0.408300	0.673900	0.926800
H261	H26	0.730600	0.643800	0.256800
H271	H27	0.766000	0.634100	0.144200
H281	H28	0.952700	0.819900	0.324400
H291	H29	0.860600	0.881600	0.345600
H301	H30	0.896100	0.871900	0.232800
H311	H31	0.520800	0.293000	0.306800
H321	H32	0.761200	0.671400	0.696000
H331	H33	0.727600	0.765300	0.644000
H341	H34	0.963500	0.854300	0.732600
H351	H35	0.941700	0.717300	0.641600
H361	H36	0.908000	0.811100	0.589400
H371	H37	0.018500	0.252900	0.926800
H381	H38	0.026200	0.613000	0.256800
H391	H39	0.878200	0.510100	0.144200
H401	H40	0.871700	0.504500	0.324400
H411	H41	0.985000	0.464000	0.345600
H421	H42	0.836700	0.360900	0.232800
H431	H43	0.286000	0.013800	0.306800
H441	H44	0.434800	0.024600	0.696000
H451	H45	0.416400	0.878700	0.644000
H461	H46	0.269100	0.878300	0.732600
H471	H47	0.199900	0.924300	0.641600
H481	H48	0.181400	0.778300	0.589400
C11	C1	0.378400	0.312200	0.863400
C21	C2	0.536390	0.318490	0.998780
C31	C3	0.251500	0.311800	0.795400
C41	C4	0.124200	0.172200	0.716200
C51	C5	0.333410	0.417610	0.493020
C61	C6	0.444140	0.614340	0.645080
C71	C7	0.238200	0.297100	0.367200
C81	C8	0.093500	0.222000	0.349400
C91	C9	0.985000	0.551200	0.863400
C101	C10	0.962390	0.680290	0.998780
C111	C11	0.043900	0.483600	0.795400
C121	C12	0.092000	0.544000	0.716200
C131	C13	0.659610	0.075410	0.493020
C141	C14	0.700940	0.030740	0.645080
C151	C15	0.629000	0.070100	0.367200
C161	C16	0.755900	0.127400	0.349400
C171	C17	0.621600	0.687800	0.136600
C181	C18	0.463610	0.681510	0.001220
C191	C19	0.748500	0.688200	0.204600
C201	C20	0.875800	0.827800	0.283800
C211	C21	0.666590	0.582390	0.506980
C221	C22	0.555860	0.385660	0.354920
C231	C23	0.761800	0.702900	0.632800
C241	C24	0.906500	0.778000	0.650600
C251	C25	0.015000	0.448800	0.136600
C261	C26	0.037610	0.319710	0.001220
C271	C27	0.956100	0.516400	0.204600
C281	C28	0.908000	0.456000	0.283800
C291	C29	0.340390	0.924590	0.506980
C301	C30	0.299060	0.969260	0.354920
C311	C31	0.371000	0.929900	0.632800
C321	C32	0.244100	0.872600	0.650600
N11	N1	0.458490	0.292990	0.812180
N21	N2	0.562170	0.297470	0.901940
N31	N3	0.422740	0.328340	0.980880
N41	N4	0.403510	0.409710	0.590220
N51	N5	0.476620	0.538720	0.689840
N61	N6	0.355000	0.544900	0.522200
N71	N7	0.853690	0.519190	0.812180
N81	N8	0.839770	0.604470	0.901940
N91	N9	0.058140	0.652540	0.980880
N101	N10	0.686710	0.180510	0.590220
N111	N11	0.713220	0.151120	0.689840
N121	N12	0.667200	0.977300	0.522200
N131	N13	0.541510	0.707010	0.187820
N141	N14	0.437830	0.702530	0.098060
N151	N15	0.577260	0.671660	0.019120
N161	N16	0.596490	0.590290	0.409780
N171	N17	0.523380	0.461280	0.310160
N181	N18	0.645000	0.455100	0.477800
N191	N19	0.146310	0.480810	0.187820
N201	N20	0.160230	0.395530	0.098060
N211	N21	0.941860	0.347460	0.019120
N221	N22	0.313290	0.819490	0.409780
N231	N23	0.286780	0.848880	0.310160
N241	N24	0.332800	0.022700	0.477800
