data_OTIJAE_freeONLY_PM
_symmetry_space_group_name_H-M	'P1'
_cell_length_a	26.329600
_cell_length_b	26.329600
_cell_length_c	23.314000
_cell_angle_alpha	90.000000
_cell_angle_beta	90.000000
_cell_angle_gamma	120.000000
_symmetry_Int_Tables_number 1

loop_
_symmetry_equiv_pos_as_xyz
'x,y,z'

loop_
_atom_site_label
_atom_site_type_symbol
_atom_site_fract_x
_atom_site_fract_y
_atom_site_fract_z
Cr11	Cr1	0.358190	0.007450	0.337370
Mn11	Mn1	0.598540	0.095570	0.327590
O11	O1	0.674200	0.273340	0.266630
O21	O2	0.615430	0.265600	0.360230
O31	O3	0.651600	0.179930	0.274600
O41	O4	0.591600	0.172600	0.373040
C11	C1	0.649600	0.223200	0.291500
C21	C2	0.616200	0.218600	0.346400
O51	O5	0.519600	0.099600	0.279200
O61	O6	0.517680	0.048050	0.382220
O71	O7	0.422680	0.056600	0.284220
O81	O8	0.423800	0.021060	0.388420
C31	C3	0.472500	0.069100	0.303200
C41	C4	0.473000	0.044100	0.363500
O91	O9	0.299640	0.989000	0.276800
O101	O10	0.354200	0.935330	0.309100
O111	O11	0.317500	0.870800	0.238500
O121	O12	0.261000	0.928500	0.201800
C51	C5	0.323700	0.914200	0.265300
C61	C6	0.291100	0.946200	0.244900
O131	O13	0.353810	0.076480	0.364800
O141	O14	0.297290	0.967000	0.396000
O151	O15	0.303900	0.100060	0.423600
O161	O16	0.242600	0.985100	0.457100
C71	C7	0.315000	0.064600	0.401800
C81	C8	0.281900	0.000400	0.421600
Cr21	Cr2	0.024860	0.340780	0.670700
Mn21	Mn2	0.265210	0.428900	0.660920
O171	O17	0.340870	0.606670	0.599960
O181	O18	0.282100	0.598930	0.693560
O191	O19	0.318270	0.513260	0.607930
O201	O20	0.258270	0.505930	0.706370
C91	C9	0.316270	0.556530	0.624830
C101	C10	0.282870	0.551930	0.679730
O211	O21	0.186270	0.432930	0.612530
O221	O22	0.184350	0.381380	0.715550
O231	O23	0.089350	0.389930	0.617550
O241	O24	0.090470	0.354390	0.721750
C111	C11	0.139170	0.402430	0.636530
C121	C12	0.139670	0.377430	0.696830
O251	O25	0.966310	0.322330	0.610130
O261	O26	0.020870	0.268660	0.642430
O271	O27	0.984170	0.204130	0.571830
O281	O28	0.927670	0.261830	0.535130
C131	C13	0.990370	0.247530	0.598630
C141	C14	0.957770	0.279530	0.578230
O291	O29	0.020480	0.409810	0.698130
O301	O30	0.963960	0.300330	0.729330
O311	O31	0.970570	0.433390	0.756930
O321	O32	0.909270	0.318430	0.790430
C151	C15	0.981670	0.397930	0.735130
C161	C16	0.948570	0.333730	0.754930
Cr31	Cr3	0.691520	0.674120	0.004040
Mn31	Mn3	0.931870	0.762240	0.994260
O331	O33	0.007530	0.940010	0.933300
O341	O34	0.948760	0.932270	0.026900
O351	O35	0.984930	0.846600	0.941270
O361	O36	0.924930	0.839270	0.039710
C171	C17	0.982930	0.889870	0.958170
C181	C18	0.949530	0.885270	0.013070
O371	O37	0.852930	0.766270	0.945870
O381	O38	0.851010	0.714720	0.048890
O391	O39	0.756010	0.723270	0.950890
O401	O40	0.757130	0.687730	0.055090
C191	C19	0.805830	0.735770	0.969870
C201	C20	0.806330	0.710770	0.030170
O411	O41	0.632970	0.655670	0.943470
O421	O42	0.687530	0.602000	0.975770
O431	O43	0.650830	0.537470	0.905170
O441	O44	0.594330	0.595170	0.868470
C211	C21	0.657030	0.580870	0.931970
C221	C22	0.624430	0.612870	0.911570
O451	O45	0.687140	0.743150	0.031470
O461	O46	0.630620	0.633670	0.062670
O471	O47	0.637230	0.766730	0.090270
O481	O48	0.575930	0.651770	0.123770
C231	C23	0.648330	0.731270	0.068470
C241	C24	0.615230	0.667070	0.088270
Cr41	Cr4	0.992550	0.350740	0.337370
Mn41	Mn4	0.904430	0.502970	0.327590
O491	O49	0.726660	0.400860	0.266630
O501	O50	0.734400	0.349830	0.360230
O511	O51	0.820070	0.471670	0.274600
O521	O52	0.827400	0.419000	0.373040
C251	C25	0.776800	0.426400	0.291500
C261	C26	0.781400	0.397600	0.346400
O531	O53	0.900400	0.420000	0.279200
O541	O54	0.951950	0.469630	0.382220
O551	O55	0.943400	0.366080	0.284220
O561	O56	0.978940	0.402740	0.388420
C271	C27	0.930900	0.403400	0.303200
C281	C28	0.955900	0.428900	0.363500
O571	O57	0.011000	0.310640	0.276800
O581	O58	0.064670	0.418870	0.309100
O591	O59	0.129200	0.446700	0.238500
O601	O60	0.071500	0.332500	0.201800
C291	C29	0.085800	0.409500	0.265300
C301	C30	0.053800	0.344900	0.244900
O611	O61	0.923520	0.277330	0.364800
O621	O62	0.033000	0.330290	0.396000
O631	O63	0.899940	0.203840	0.423600
O641	O64	0.014900	0.257500	0.457100
C311	C31	0.935400	0.250400	0.401800
C321	C32	0.999600	0.281500	0.421600
Cr51	Cr5	0.659220	0.684070	0.670700
Mn51	Mn5	0.571100	0.836300	0.660920
O651	O65	0.393330	0.734190	0.599960
O661	O66	0.401070	0.683160	0.693560
O671	O67	0.486740	0.805000	0.607930
O681	O68	0.494070	0.752330	0.706370
C331	C33	0.443470	0.759730	0.624830
C341	C34	0.448070	0.730930	0.679730
O691	O69	0.567070	0.753330	0.612530
O701	O70	0.618620	0.802960	0.715550
O711	O71	0.610070	0.699410	0.617550
O721	O72	0.645610	0.736070	0.721750
C351	C35	0.597570	0.736730	0.636530
C361	C36	0.622570	0.762230	0.696830
O731	O73	0.677670	0.643970	0.610130
O741	O74	0.731340	0.752200	0.642430
O751	O75	0.795870	0.780030	0.571830
O761	O76	0.738170	0.665830	0.535130
C371	C37	0.752470	0.742830	0.598630
C381	C38	0.720470	0.678230	0.578230
O771	O77	0.590190	0.610660	0.698130
O781	O78	0.699670	0.663620	0.729330
O791	O79	0.566610	0.537170	0.756930
O801	O80	0.681570	0.590830	0.790430
C391	C39	0.602070	0.583730	0.735130
C401	C40	0.666270	0.614830	0.754930
Cr61	Cr6	0.325880	0.017410	0.004040
Mn61	Mn6	0.237760	0.169640	0.994260
O811	O81	0.059990	0.067530	0.933300
O821	O82	0.067730	0.016500	0.026900
O831	O83	0.153400	0.138340	0.941270
O841	O84	0.160730	0.085670	0.039710
C411	C41	0.110130	0.093070	0.958170
C421	C42	0.114730	0.064270	0.013070
O851	O85	0.233730	0.086670	0.945870
O861	O86	0.285280	0.136300	0.048890
O871	O87	0.276730	0.032750	0.950890
O881	O88	0.312270	0.069410	0.055090
C431	C43	0.264230	0.070070	0.969870
C441	C44	0.289230	0.095570	0.030170
O891	O89	0.344330	0.977310	0.943470
O901	O90	0.398000	0.085540	0.975770
O911	O91	0.462530	0.113370	0.905170
O921	O92	0.404830	0.999170	0.868470
C451	C45	0.419130	0.076170	0.931970
C461	C46	0.387130	0.011570	0.911570
O931	O93	0.256850	0.944000	0.031470
O941	O94	0.366330	0.996960	0.062670
O951	O95	0.233270	0.870510	0.090270
O961	O96	0.348230	0.924170	0.123770
C471	C47	0.268730	0.917070	0.068470
C481	C48	0.332930	0.948170	0.088270
Cr71	Cr7	0.649260	0.641810	0.337370
Mn71	Mn7	0.497030	0.401460	0.327590
O971	O97	0.599140	0.325800	0.266630
O981	O98	0.650170	0.384570	0.360230
O991	O99	0.528330	0.348400	0.274600
O1001	O100	0.581000	0.408400	0.373040
C491	C49	0.573600	0.350400	0.291500
C501	C50	0.602400	0.383800	0.346400
O1011	O101	0.580000	0.480400	0.279200
O1021	O102	0.530370	0.482320	0.382220
O1031	O103	0.633920	0.577320	0.284220
O1041	O104	0.597260	0.576200	0.388420
C511	C51	0.596600	0.527500	0.303200
C521	C52	0.571100	0.527000	0.363500
O1051	O105	0.689360	0.700360	0.276800
O1061	O106	0.581130	0.645800	0.309100
O1071	O107	0.553300	0.682500	0.238500
O1081	O108	0.667500	0.739000	0.201800
C531	C53	0.590500	0.676300	0.265300
C541	C54	0.655100	0.708900	0.244900
O1091	O109	0.722670	0.646190	0.364800
O1101	O110	0.669710	0.702710	0.396000
O1111	O111	0.796160	0.696100	0.423600
O1121	O112	0.742500	0.757400	0.457100
C551	C55	0.749600	0.685000	0.401800
C561	C56	0.718500	0.718100	0.421600
Cr81	Cr8	0.315930	0.975140	0.670700
Mn81	Mn8	0.163700	0.734790	0.660920
O1131	O113	0.265810	0.659130	0.599960
O1141	O114	0.316840	0.717900	0.693560
O1151	O115	0.195000	0.681730	0.607930
O1161	O116	0.247670	0.741730	0.706370
C571	C57	0.240270	0.683730	0.624830
C581	C58	0.269070	0.717130	0.679730
O1171	O117	0.246670	0.813730	0.612530
O1181	O118	0.197040	0.815650	0.715550
O1191	O119	0.300590	0.910650	0.617550
O1201	O120	0.263930	0.909530	0.721750
C591	C59	0.263270	0.860830	0.636530
C601	C60	0.237770	0.860330	0.696830
O1211	O121	0.356030	0.033690	0.610130
O1221	O122	0.247800	0.979130	0.642430
O1231	O123	0.219970	0.015830	0.571830
O1241	O124	0.334170	0.072330	0.535130
C611	C61	0.257170	0.009630	0.598630
C621	C62	0.321770	0.042230	0.578230
O1251	O125	0.389340	0.979520	0.698130
O1261	O126	0.336380	0.036040	0.729330
O1271	O127	0.462830	0.029430	0.756930
O1281	O128	0.409170	0.090730	0.790430
C631	C63	0.416270	0.018330	0.735130
C641	C64	0.385170	0.051430	0.754930
Cr91	Cr9	0.982590	0.308480	0.004040
Mn91	Mn9	0.830360	0.068130	0.994260
O1291	O129	0.932470	0.992470	0.933300
O1301	O130	0.983500	0.051240	0.026900
O1311	O131	0.861660	0.015070	0.941270
O1321	O132	0.914330	0.075070	0.039710
C651	C65	0.906930	0.017070	0.958170
C661	C66	0.935730	0.050470	0.013070
O1331	O133	0.913330	0.147070	0.945870
O1341	O134	0.863700	0.148990	0.048890
O1351	O135	0.967250	0.243990	0.950890
O1361	O136	0.930590	0.242870	0.055090
C671	C67	0.929930	0.194170	0.969870
C681	C68	0.904430	0.193670	0.030170
O1371	O137	0.022690	0.367030	0.943470
O1381	O138	0.914460	0.312470	0.975770
O1391	O139	0.886630	0.349170	0.905170
O1401	O140	0.000830	0.405670	0.868470
C691	C69	0.923830	0.342970	0.931970
C701	C70	0.988430	0.375570	0.911570
O1411	O141	0.056000	0.312860	0.031470
O1421	O142	0.003040	0.369380	0.062670
O1431	O143	0.129490	0.362770	0.090270
O1441	O144	0.075830	0.424070	0.123770
C711	C71	0.082930	0.351670	0.068470
C721	C72	0.051830	0.384770	0.088270
Cr101	Cr10	0.992550	0.641810	0.837370
Mn101	Mn10	0.904430	0.401460	0.827590
O1451	O145	0.726660	0.325800	0.766630
O1461	O146	0.734400	0.384570	0.860230
O1471	O147	0.820070	0.348400	0.774600
O1481	O148	0.827400	0.408400	0.873040
C731	C73	0.776800	0.350400	0.791500
C741	C74	0.781400	0.383800	0.846400
O1491	O149	0.900400	0.480400	0.779200
O1501	O150	0.951950	0.482320	0.882220
O1511	O151	0.943400	0.577320	0.784220
O1521	O152	0.978940	0.576200	0.888420
C751	C75	0.930900	0.527500	0.803200
C761	C76	0.955900	0.527000	0.863500
O1531	O153	0.011000	0.700360	0.776800
O1541	O154	0.064670	0.645800	0.809100
O1551	O155	0.129200	0.682500	0.738500
O1561	O156	0.071500	0.739000	0.701800
C771	C77	0.085800	0.676300	0.765300
C781	C78	0.053800	0.708900	0.744900
O1571	O157	0.923520	0.646190	0.864800
O1581	O158	0.033000	0.702710	0.896000
O1591	O159	0.899940	0.696100	0.923600
O1601	O160	0.014900	0.757400	0.957100
C791	C79	0.935400	0.685000	0.901800
C801	C80	0.999600	0.718100	0.921600
Cr111	Cr11	0.659220	0.975140	0.170700
Mn111	Mn11	0.571100	0.734790	0.160920
O1611	O161	0.393330	0.659130	0.099960
O1621	O162	0.401070	0.717900	0.193560
O1631	O163	0.486740	0.681730	0.107930
O1641	O164	0.494070	0.741730	0.206370
C811	C81	0.443470	0.683730	0.124830
C821	C82	0.448070	0.717130	0.179730
O1651	O165	0.567070	0.813730	0.112530
O1661	O166	0.618620	0.815650	0.215550
O1671	O167	0.610070	0.910650	0.117550
O1681	O168	0.645610	0.909530	0.221750
C831	C83	0.597570	0.860830	0.136530
C841	C84	0.622570	0.860330	0.196830
O1691	O169	0.677670	0.033690	0.110130
O1701	O170	0.731340	0.979130	0.142430
O1711	O171	0.795870	0.015830	0.071830
O1721	O172	0.738170	0.072330	0.035130
C851	C85	0.752470	0.009630	0.098630
C861	C86	0.720470	0.042230	0.078230
O1731	O173	0.590190	0.979520	0.198130
O1741	O174	0.699670	0.036040	0.229330
O1751	O175	0.566610	0.029430	0.256930
O1761	O176	0.681570	0.090730	0.290430
C871	C87	0.602070	0.018330	0.235130
C881	C88	0.666270	0.051430	0.254930
Cr121	Cr12	0.325880	0.308480	0.504040
Mn121	Mn12	0.237760	0.068130	0.494260
O1771	O177	0.059990	0.992470	0.433300
O1781	O178	0.067730	0.051240	0.526900
O1791	O179	0.153400	0.015070	0.441270
O1801	O180	0.160730	0.075070	0.539710
C891	C89	0.110130	0.017070	0.458170
C901	C90	0.114730	0.050470	0.513070
O1811	O181	0.233730	0.147070	0.445870
O1821	O182	0.285280	0.148990	0.548890
O1831	O183	0.276730	0.243990	0.450890
O1841	O184	0.312270	0.242870	0.555090
C911	C91	0.264230	0.194170	0.469870
C921	C92	0.289230	0.193670	0.530170
O1851	O185	0.344330	0.367030	0.443470
O1861	O186	0.398000	0.312470	0.475770
O1871	O187	0.462530	0.349170	0.405170
O1881	O188	0.404830	0.405670	0.368470
C931	C93	0.419130	0.342970	0.431970
C941	C94	0.387130	0.375570	0.411570
O1891	O189	0.256850	0.312860	0.531470
O1901	O190	0.366330	0.369380	0.562670
O1911	O191	0.233270	0.362770	0.590270
O1921	O192	0.348230	0.424070	0.623770
C951	C95	0.268730	0.351670	0.568470
C961	C96	0.332930	0.384770	0.588270
Cr131	Cr13	0.649260	0.007450	0.837370
Mn131	Mn13	0.497030	0.095570	0.827590
O1931	O193	0.599140	0.273340	0.766630
O1941	O194	0.650170	0.265600	0.860230
O1951	O195	0.528330	0.179930	0.774600
O1961	O196	0.581000	0.172600	0.873040
C971	C97	0.573600	0.223200	0.791500
C981	C98	0.602400	0.218600	0.846400
O1971	O197	0.580000	0.099600	0.779200
O1981	O198	0.530370	0.048050	0.882220
O1991	O199	0.633920	0.056600	0.784220
O2001	O200	0.597260	0.021060	0.888420
C991	C99	0.596600	0.069100	0.803200
C1001	C100	0.571100	0.044100	0.863500
O2011	O201	0.689360	0.989000	0.776800
O2021	O202	0.581130	0.935330	0.809100
O2031	O203	0.553300	0.870800	0.738500
O2041	O204	0.667500	0.928500	0.701800
C1011	C101	0.590500	0.914200	0.765300
C1021	C102	0.655100	0.946200	0.744900
O2051	O205	0.722670	0.076480	0.864800
O2061	O206	0.669710	0.967000	0.896000
O2071	O207	0.796160	0.100060	0.923600
O2081	O208	0.742500	0.985100	0.957100
C1031	C103	0.749600	0.064600	0.901800
C1041	C104	0.718500	0.000400	0.921600
Cr141	Cr14	0.315930	0.340780	0.170700
Mn141	Mn14	0.163700	0.428900	0.160920
O2091	O209	0.265810	0.606670	0.099960
O2101	O210	0.316840	0.598930	0.193560
O2111	O211	0.195000	0.513260	0.107930
O2121	O212	0.247670	0.505930	0.206370
C1051	C105	0.240270	0.556530	0.124830
C1061	C106	0.269070	0.551930	0.179730
O2131	O213	0.246670	0.432930	0.112530
O2141	O214	0.197040	0.381380	0.215550
O2151	O215	0.300590	0.389930	0.117550
O2161	O216	0.263930	0.354390	0.221750
C1071	C107	0.263270	0.402430	0.136530
C1081	C108	0.237770	0.377430	0.196830
O2171	O217	0.356030	0.322330	0.110130
O2181	O218	0.247800	0.268660	0.142430
O2191	O219	0.219970	0.204130	0.071830
O2201	O220	0.334170	0.261830	0.035130
C1091	C109	0.257170	0.247530	0.098630
C1101	C110	0.321770	0.279530	0.078230
O2211	O221	0.389340	0.409810	0.198130
O2221	O222	0.336380	0.300330	0.229330
O2231	O223	0.462830	0.433390	0.256930
O2241	O224	0.409170	0.318430	0.290430
C1111	C111	0.416270	0.397930	0.235130
C1121	C112	0.385170	0.333730	0.254930
Cr151	Cr15	0.982590	0.674120	0.504040
Mn151	Mn15	0.830360	0.762240	0.494260
O2251	O225	0.932470	0.940010	0.433300
O2261	O226	0.983500	0.932270	0.526900
O2271	O227	0.861660	0.846600	0.441270
O2281	O228	0.914330	0.839270	0.539710
C1131	C113	0.906930	0.889870	0.458170
C1141	C114	0.935730	0.885270	0.513070
O2291	O229	0.913330	0.766270	0.445870
O2301	O230	0.863700	0.714720	0.548890
O2311	O231	0.967250	0.723270	0.450890
O2321	O232	0.930590	0.687730	0.555090
C1151	C115	0.929930	0.735770	0.469870
C1161	C116	0.904430	0.710770	0.530170
O2331	O233	0.022690	0.655670	0.443470
O2341	O234	0.914460	0.602000	0.475770
O2351	O235	0.886630	0.537470	0.405170
O2361	O236	0.000830	0.595170	0.368470
C1171	C117	0.923830	0.580870	0.431970
C1181	C118	0.988430	0.612870	0.411570
O2371	O237	0.056000	0.743150	0.531470
O2381	O238	0.003040	0.633670	0.562670
O2391	O239	0.129490	0.766730	0.590270
O2401	O240	0.075830	0.651770	0.623770
C1191	C119	0.082930	0.731270	0.568470
C1201	C120	0.051830	0.667070	0.588270
Cr161	Cr16	0.358190	0.350740	0.837370
Mn161	Mn16	0.598540	0.502970	0.827590
O2411	O241	0.674200	0.400860	0.766630
O2421	O242	0.615430	0.349830	0.860230
O2431	O243	0.651600	0.471670	0.774600
O2441	O244	0.591600	0.419000	0.873040
C1211	C121	0.649600	0.426400	0.791500
C1221	C122	0.616200	0.397600	0.846400
O2451	O245	0.519600	0.420000	0.779200
O2461	O246	0.517680	0.469630	0.882220
O2471	O247	0.422680	0.366080	0.784220
O2481	O248	0.423800	0.402740	0.888420
C1231	C123	0.472500	0.403400	0.803200
C1241	C124	0.473000	0.428900	0.863500
O2491	O249	0.299640	0.310640	0.776800
O2501	O250	0.354200	0.418870	0.809100
O2511	O251	0.317500	0.446700	0.738500
O2521	O252	0.261000	0.332500	0.701800
C1251	C125	0.323700	0.409500	0.765300
C1261	C126	0.291100	0.344900	0.744900
O2531	O253	0.353810	0.277330	0.864800
O2541	O254	0.297290	0.330290	0.896000
O2551	O255	0.303900	0.203840	0.923600
O2561	O256	0.242600	0.257500	0.957100
C1271	C127	0.315000	0.250400	0.901800
C1281	C128	0.281900	0.281500	0.921600
Cr171	Cr17	0.024860	0.684070	0.170700
Mn171	Mn17	0.265210	0.836300	0.160920
O2571	O257	0.340870	0.734190	0.099960
O2581	O258	0.282100	0.683160	0.193560
O2591	O259	0.318270	0.805000	0.107930
O2601	O260	0.258270	0.752330	0.206370
C1291	C129	0.316270	0.759730	0.124830
C1301	C130	0.282870	0.730930	0.179730
O2611	O261	0.186270	0.753330	0.112530
O2621	O262	0.184350	0.802960	0.215550
O2631	O263	0.089350	0.699410	0.117550
O2641	O264	0.090470	0.736070	0.221750
C1311	C131	0.139170	0.736730	0.136530
C1321	C132	0.139670	0.762230	0.196830
O2651	O265	0.966310	0.643970	0.110130
O2661	O266	0.020870	0.752200	0.142430
O2671	O267	0.984170	0.780030	0.071830
O2681	O268	0.927670	0.665830	0.035130
C1331	C133	0.990370	0.742830	0.098630
C1341	C134	0.957770	0.678230	0.078230
O2691	O269	0.020480	0.610660	0.198130
O2701	O270	0.963960	0.663620	0.229330
O2711	O271	0.970570	0.537170	0.256930
O2721	O272	0.909270	0.590830	0.290430
C1351	C135	0.981670	0.583730	0.235130
C1361	C136	0.948570	0.614830	0.254930
Cr181	Cr18	0.691520	0.017410	0.504040
Mn181	Mn18	0.931870	0.169640	0.494260
O2731	O273	0.007530	0.067530	0.433300
O2741	O274	0.948760	0.016500	0.526900
O2751	O275	0.984930	0.138340	0.441270
O2761	O276	0.924930	0.085670	0.539710
C1371	C137	0.982930	0.093070	0.458170
C1381	C138	0.949530	0.064270	0.513070
O2771	O277	0.852930	0.086670	0.445870
O2781	O278	0.851010	0.136300	0.548890
O2791	O279	0.756010	0.032750	0.450890
O2801	O280	0.757130	0.069410	0.555090
C1391	C139	0.805830	0.070070	0.469870
C1401	C140	0.806330	0.095570	0.530170
O2811	O281	0.632970	0.977310	0.443470
O2821	O282	0.687530	0.085540	0.475770
O2831	O283	0.650830	0.113370	0.405170
O2841	O284	0.594330	0.999170	0.368470
C1411	C141	0.657030	0.076170	0.431970
C1421	C142	0.624430	0.011570	0.411570
O2851	O285	0.687140	0.944000	0.531470
O2861	O286	0.630620	0.996960	0.562670
O2871	O287	0.637230	0.870510	0.590270
O2881	O288	0.575930	0.924170	0.623770
C1431	C143	0.648330	0.917070	0.568470
C1441	C144	0.615230	0.948170	0.588270
Cr191	Cr19	0.666670	0.333330	0.311860
Cr201	Cr20	0.333330	0.666670	0.645190
Cr211	Cr21	0.000000	0.000000	0.978530
Cr221	Cr22	0.666670	0.333330	0.811860
Cr231	Cr23	0.333330	0.666670	0.145190
Cr241	Cr24	0.000000	0.000000	0.478530
