data_OTIPAK_freeONLY_PM
_symmetry_space_group_name_H-M	'P1'
_cell_length_a	13.209000
_cell_length_b	13.926000
_cell_length_c	12.243000
_cell_angle_alpha	90.000000
_cell_angle_beta	90.000000
_cell_angle_gamma	90.000000
_symmetry_Int_Tables_number 1

loop_
_symmetry_equiv_pos_as_xyz
'x,y,z'

loop_
_atom_site_label
_atom_site_type_symbol
_atom_site_fract_x
_atom_site_fract_y
_atom_site_fract_z
C11	C1	0.400600	0.073400	0.157300
C21	C2	0.476900	0.124700	0.090000
H11	H1	0.516300	0.089900	0.041000
C31	C3	0.490300	0.217800	0.097800
H21	H2	0.452000	0.249500	0.150300
C41	C4	0.559200	0.277000	0.032600
C51	C5	0.623700	0.241400	0.952900
H31	H3	0.627400	0.175700	0.939900
C61	C6	0.682100	0.304100	0.893200
H41	H4	0.725500	0.278800	0.840700
C71	C7	0.622500	0.433200	0.987700
H51	H5	0.623500	0.498800	0.001800
C81	C8	0.562300	0.375500	0.051100
H61	H6	0.523400	0.402300	0.106600
N11	N1	0.680000	0.399180	0.906600
O11	O1	0.354600	0.119810	0.230000
O21	O2	0.382100	0.987550	0.139100
C91	C9	0.099400	0.926600	0.157300
C101	C10	0.023100	0.875300	0.090000
H71	H7	0.983700	0.910100	0.041000
C111	C11	0.009700	0.782200	0.097800
H81	H8	0.048000	0.750500	0.150300
C121	C12	0.940800	0.723000	0.032600
C131	C13	0.876300	0.758600	0.952900
H91	H9	0.872600	0.824300	0.939900
C141	C14	0.817900	0.695900	0.893200
H101	H10	0.774500	0.721200	0.840700
C151	C15	0.877500	0.566800	0.987700
H111	H11	0.876500	0.501200	0.001800
C161	C16	0.937700	0.624500	0.051100
H121	H12	0.976600	0.597700	0.106600
N21	N2	0.820000	0.600820	0.906600
O31	O3	0.145400	0.880190	0.230000
O41	O4	0.117900	0.012450	0.139100
C171	C17	0.900600	0.426600	0.657300
C181	C18	0.976900	0.375300	0.590000
H131	H13	0.016300	0.410100	0.541000
C191	C19	0.990300	0.282200	0.597800
H141	H14	0.952000	0.250500	0.650300
C201	C20	0.059200	0.223000	0.532600
C211	C21	0.123700	0.258600	0.452900
H151	H15	0.127400	0.324300	0.439900
C221	C22	0.182100	0.195900	0.393200
H161	H16	0.225500	0.221200	0.340700
C231	C23	0.122500	0.066800	0.487700
H171	H17	0.123500	0.001200	0.501800
C241	C24	0.062300	0.124500	0.551100
H181	H18	0.023400	0.097700	0.606600
N31	N3	0.180000	0.100820	0.406600
O51	O5	0.854600	0.380190	0.730000
O61	O6	0.882100	0.512450	0.639100
C251	C25	0.599400	0.573400	0.657300
C261	C26	0.523100	0.624700	0.590000
H191	H19	0.483700	0.589900	0.541000
C271	C27	0.509700	0.717800	0.597800
H201	H20	0.548000	0.749500	0.650300
C281	C28	0.440800	0.777000	0.532600
C291	C29	0.376300	0.741400	0.452900
H211	H21	0.372600	0.675700	0.439900
C301	C30	0.317900	0.804100	0.393200
H221	H22	0.274500	0.778800	0.340700
C311	C31	0.377500	0.933200	0.487700
H231	H23	0.376500	0.998800	0.501800
C321	C32	0.437700	0.875500	0.551100
H241	H24	0.476600	0.902300	0.606600
N41	N4	0.320000	0.899180	0.406600
O71	O7	0.645400	0.619810	0.730000
O81	O8	0.617900	0.487550	0.639100
Cd11	Cd1	0.250000	0.000000	0.279180
Cd21	Cd2	0.750000	0.500000	0.779180
C331	C33	0.099400	0.573400	0.342700
C341	C34	0.023100	0.624700	0.410000
H251	H25	0.983700	0.589900	0.459000
C351	C35	0.009700	0.717800	0.402200
H261	H26	0.048000	0.749500	0.349700
C361	C36	0.940800	0.777000	0.467400
C371	C37	0.876300	0.741400	0.547100
H271	H27	0.872600	0.675700	0.560100
C381	C38	0.817900	0.804100	0.606800
H281	H28	0.774500	0.778800	0.659300
C391	C39	0.877500	0.933200	0.512300
H291	H29	0.876500	0.998800	0.498200
C401	C40	0.937700	0.875500	0.448900
H301	H30	0.976600	0.902300	0.393400
N51	N5	0.820000	0.899180	0.593400
O91	O9	0.145400	0.619810	0.270000
O101	O10	0.117900	0.487550	0.360900
C411	C41	0.400600	0.426600	0.342700
C421	C42	0.476900	0.375300	0.410000
H311	H31	0.516300	0.410100	0.459000
C431	C43	0.490300	0.282200	0.402200
H321	H32	0.452000	0.250500	0.349700
C441	C44	0.559200	0.223000	0.467400
C451	C45	0.623700	0.258600	0.547100
H331	H33	0.627400	0.324300	0.560100
C461	C46	0.682100	0.195900	0.606800
H341	H34	0.725500	0.221200	0.659300
C471	C47	0.622500	0.066800	0.512300
H351	H35	0.623500	0.001200	0.498200
C481	C48	0.562300	0.124500	0.448900
H361	H36	0.523400	0.097700	0.393400
N61	N6	0.680000	0.100820	0.593400
O111	O11	0.354600	0.380190	0.270000
O121	O12	0.382100	0.512450	0.360900
C491	C49	0.599400	0.926600	0.842700
C501	C50	0.523100	0.875300	0.910000
H371	H37	0.483700	0.910100	0.959000
C511	C51	0.509700	0.782200	0.902200
H381	H38	0.548000	0.750500	0.849700
C521	C52	0.440800	0.723000	0.967400
C531	C53	0.376300	0.758600	0.047100
H391	H39	0.372600	0.824300	0.060100
C541	C54	0.317900	0.695900	0.106800
H401	H40	0.274500	0.721200	0.159300
C551	C55	0.377500	0.566800	0.012300
H411	H41	0.376500	0.501200	0.998200
C561	C56	0.437700	0.624500	0.948900
H421	H42	0.476600	0.597700	0.893400
N71	N7	0.320000	0.600820	0.093400
O131	O13	0.645400	0.880190	0.770000
O141	O14	0.617900	0.012450	0.860900
C571	C57	0.900600	0.073400	0.842700
C581	C58	0.976900	0.124700	0.910000
H431	H43	0.016300	0.089900	0.959000
C591	C59	0.990300	0.217800	0.902200
H441	H44	0.952000	0.249500	0.849700
C601	C60	0.059200	0.277000	0.967400
C611	C61	0.123700	0.241400	0.047100
H451	H45	0.127400	0.175700	0.060100
C621	C62	0.182100	0.304100	0.106800
H461	H46	0.225500	0.278800	0.159300
C631	C63	0.122500	0.433200	0.012300
H471	H47	0.123500	0.498800	0.998200
C641	C64	0.062300	0.375500	0.948900
H481	H48	0.023400	0.402300	0.893400
N81	N8	0.180000	0.399180	0.093400
O151	O15	0.854600	0.119810	0.770000
O161	O16	0.882100	0.987550	0.860900
Cd31	Cd3	0.250000	0.500000	0.220820
Cd41	Cd4	0.750000	0.000000	0.720820
