data_OTIQAL_freeONLY_PM
_symmetry_space_group_name_H-M	'P1'
_cell_length_a	10.026900
_cell_length_b	16.439700
_cell_length_c	12.754800
_cell_angle_alpha	90.000000
_cell_angle_beta	90.645000
_cell_angle_gamma	90.000000
_symmetry_Int_Tables_number 1

loop_
_symmetry_equiv_pos_as_xyz
'x,y,z'

loop_
_atom_site_label
_atom_site_type_symbol
_atom_site_fract_x
_atom_site_fract_y
_atom_site_fract_z
Mn11	Mn1	0.751600	0.000130	0.498230
C11	C1	0.760500	0.806000	0.451600
H11	H1	0.727000	0.803000	0.519200
C21	C2	0.588800	0.134100	0.619300
H21	H2	0.519600	0.098800	0.601500
C31	C3	0.560500	0.200500	0.680400
H31	H3	0.474100	0.209000	0.703600
O11	O1	0.379200	0.433020	0.902400
O21	O2	0.591600	0.472150	0.888300
C41	C4	0.783100	0.734300	0.398000
H41	H4	0.764700	0.684700	0.429600
O31	O3	0.913200	0.518310	0.109700
C51	C5	0.864400	0.660200	0.240300
H51	H5	0.815300	0.614000	0.256500
O41	O4	0.119700	0.568810	0.101400
C61	C6	0.956800	0.653500	0.168300
H61	H6	0.999000	0.700600	0.145400
C71	C7	0.520400	0.348900	0.809100
H71	H7	0.448000	0.315100	0.795100
C81	C8	0.787200	0.238700	0.669400
H81	H8	0.857600	0.273900	0.684300
C91	C9	0.808200	0.169900	0.609300
H91	H9	0.893800	0.159700	0.585300
C101	C10	0.855000	0.812700	0.254700
H101	H10	0.886600	0.817600	0.186700
C111	C11	0.833100	0.736200	0.297400
N11	N1	0.784600	0.879590	0.410900
C121	C12	0.829900	0.881200	0.312900
H111	H11	0.845400	0.931600	0.282300
N21	N2	0.711900	0.117520	0.584200
C131	C13	0.660800	0.255100	0.707400
C141	C14	0.637500	0.327700	0.771700
H121	H12	0.710200	0.361000	0.787100
C151	C15	0.997500	0.573600	0.121500
C161	C16	0.496800	0.423800	0.872800
Mn21	Mn2	0.248400	0.500130	0.001770
C171	C17	0.239500	0.306000	0.048400
H131	H13	0.273000	0.303000	0.980800
C181	C18	0.411200	0.634100	0.880700
H141	H14	0.480400	0.598800	0.898500
C191	C19	0.439500	0.700500	0.819600
H151	H15	0.525900	0.709000	0.796400
O51	O5	0.620800	0.933020	0.597600
O61	O6	0.408400	0.972150	0.611700
C201	C20	0.216900	0.234300	0.102000
H161	H16	0.235300	0.184700	0.070400
O71	O7	0.086800	0.018310	0.390300
C211	C21	0.135600	0.160200	0.259700
H171	H17	0.184700	0.114000	0.243500
O81	O8	0.880300	0.068810	0.398600
C221	C22	0.043200	0.153500	0.331700
H181	H18	0.001000	0.200600	0.354600
C231	C23	0.479600	0.848900	0.690900
H191	H19	0.552000	0.815100	0.704900
C241	C24	0.212800	0.738700	0.830600
H201	H20	0.142400	0.773900	0.815700
C251	C25	0.191800	0.669900	0.890700
H211	H21	0.106200	0.659700	0.914700
C261	C26	0.145000	0.312700	0.245300
H221	H22	0.113400	0.317600	0.313300
C271	C27	0.166900	0.236200	0.202600
N31	N3	0.215400	0.379590	0.089100
C281	C28	0.170100	0.381200	0.187100
H231	H23	0.154600	0.431600	0.217700
N41	N4	0.288100	0.617520	0.915800
C291	C29	0.339200	0.755100	0.792600
C301	C30	0.362500	0.827700	0.728300
H241	H24	0.289800	0.861000	0.712900
C311	C31	0.002500	0.073600	0.378500
C321	C32	0.503200	0.923800	0.627200
Mn31	Mn3	0.248400	0.999870	0.501770
C331	C33	0.239500	0.194000	0.548400
H251	H25	0.273000	0.197000	0.480800
C341	C34	0.411200	0.865900	0.380700
H261	H26	0.480400	0.901200	0.398500
C351	C35	0.439500	0.799500	0.319600
H271	H27	0.525900	0.791000	0.296400
O91	O9	0.620800	0.566980	0.097600
O101	O10	0.408400	0.527850	0.111700
C361	C36	0.216900	0.265700	0.602000
H281	H28	0.235300	0.315300	0.570400
O111	O11	0.086800	0.481690	0.890300
C371	C37	0.135600	0.339800	0.759700
H291	H29	0.184700	0.386000	0.743500
O121	O12	0.880300	0.431190	0.898600
C381	C38	0.043200	0.346500	0.831700
H301	H30	0.001000	0.299400	0.854600
C391	C39	0.479600	0.651100	0.190900
H311	H31	0.552000	0.684900	0.204900
C401	C40	0.212800	0.761300	0.330600
H321	H32	0.142400	0.726100	0.315700
C411	C41	0.191800	0.830100	0.390700
H331	H33	0.106200	0.840300	0.414700
C421	C42	0.145000	0.187300	0.745300
H341	H34	0.113400	0.182400	0.813300
C431	C43	0.166900	0.263800	0.702600
N51	N5	0.215400	0.120410	0.589100
C441	C44	0.170100	0.118800	0.687100
H351	H35	0.154600	0.068400	0.717700
N61	N6	0.288100	0.882480	0.415800
C451	C45	0.339200	0.744900	0.292600
C461	C46	0.362500	0.672300	0.228300
H361	H36	0.289800	0.639000	0.212900
C471	C47	0.002500	0.426400	0.878500
C481	C48	0.503200	0.576200	0.127200
Mn41	Mn4	0.751600	0.499870	0.998230
C491	C49	0.760500	0.694000	0.951600
H371	H37	0.727000	0.697000	0.019200
C501	C50	0.588800	0.365900	0.119300
H381	H38	0.519600	0.401200	0.101500
C511	C51	0.560500	0.299500	0.180400
H391	H39	0.474100	0.291000	0.203600
O131	O13	0.379200	0.066980	0.402400
O141	O14	0.591600	0.027850	0.388300
C521	C52	0.783100	0.765700	0.898000
H401	H40	0.764700	0.815300	0.929600
O151	O15	0.913200	0.981690	0.609700
C531	C53	0.864400	0.839800	0.740300
H411	H41	0.815300	0.886000	0.756500
O161	O16	0.119700	0.931190	0.601400
C541	C54	0.956800	0.846500	0.668300
H421	H42	0.999000	0.799400	0.645400
C551	C55	0.520400	0.151100	0.309100
H431	H43	0.448000	0.184900	0.295100
C561	C56	0.787200	0.261300	0.169400
H441	H44	0.857600	0.226100	0.184300
C571	C57	0.808200	0.330100	0.109300
H451	H45	0.893800	0.340300	0.085300
C581	C58	0.855000	0.687300	0.754700
H461	H46	0.886600	0.682400	0.686700
C591	C59	0.833100	0.763800	0.797400
N71	N7	0.784600	0.620410	0.910900
C601	C60	0.829900	0.618800	0.812900
H471	H47	0.845400	0.568400	0.782300
N81	N8	0.711900	0.382480	0.084200
C611	C61	0.660800	0.244900	0.207400
C621	C62	0.637500	0.172300	0.271700
H481	H48	0.710200	0.139000	0.287100
C631	C63	0.997500	0.926400	0.621500
C641	C64	0.496800	0.076200	0.372800
