data_OTODOS_freeONLY_PM
_symmetry_space_group_name_H-M	'P1'
_cell_length_a	12.975000
_cell_length_b	23.050000
_cell_length_c	13.155000
_cell_angle_alpha	90.000000
_cell_angle_beta	91.819000
_cell_angle_gamma	90.000000
_symmetry_Int_Tables_number 1

loop_
_symmetry_equiv_pos_as_xyz
'x,y,z'

loop_
_atom_site_label
_atom_site_type_symbol
_atom_site_fract_x
_atom_site_fract_y
_atom_site_fract_z
N11	N1	0.910100	0.264400	0.481100
C11	C1	0.965300	0.304100	0.536200
H11	H1	0.931900	0.324000	0.589200
C21	C2	0.065100	0.316800	0.519900
H21	H2	0.099700	0.345200	0.560800
C31	C3	0.117800	0.288500	0.442700
C41	C4	0.062700	0.245500	0.389200
H31	H3	0.095800	0.223500	0.338600
C51	C5	0.960800	0.234700	0.409200
H41	H4	0.925000	0.205500	0.371300
C61	C6	0.225300	0.304000	0.416000
H51	H5	0.264000	0.315200	0.479000
H61	H6	0.259000	0.269200	0.388200
N21	N2	0.232900	0.351660	0.341600
C71	C7	0.174800	0.340200	0.248100
H71	H7	0.100400	0.338400	0.262200
H81	H8	0.195600	0.302200	0.220300
C81	C8	0.193400	0.387500	0.169900
H91	H9	0.267100	0.387900	0.152600
H101	H10	0.152000	0.379500	0.107000
N31	N3	0.164200	0.445020	0.211600
C91	C9	0.230100	0.455300	0.305300
H111	H11	0.214800	0.494000	0.333900
H121	H12	0.303800	0.454300	0.288200
C101	C10	0.207900	0.408500	0.382800
H131	H13	0.249600	0.415500	0.445900
H141	H14	0.134200	0.409700	0.399800
C111	C11	0.181300	0.492000	0.135400
H151	H15	0.243700	0.483200	0.096800
H161	H16	0.192300	0.529400	0.171000
C121	C12	0.089300	0.496620	0.063400
C131	C13	0.007700	0.533380	0.087100
H171	H17	0.012800	0.556500	0.146800
C141	C14	0.919900	0.536740	0.025300
H181	H18	0.865300	0.561900	0.043200
N41	N4	0.410100	0.764400	0.481100
C151	C15	0.465300	0.804100	0.536200
H191	H19	0.431900	0.824000	0.589200
C161	C16	0.565100	0.816800	0.519900
H201	H20	0.599700	0.845200	0.560800
C171	C17	0.617800	0.788500	0.442700
C181	C18	0.562700	0.745500	0.389200
H211	H21	0.595800	0.723500	0.338600
C191	C19	0.460800	0.734700	0.409200
H221	H22	0.425000	0.705500	0.371300
C201	C20	0.725300	0.804000	0.416000
H231	H23	0.764000	0.815200	0.479000
H241	H24	0.759000	0.769200	0.388200
N51	N5	0.732900	0.851660	0.341600
C211	C21	0.674800	0.840200	0.248100
H251	H25	0.600400	0.838400	0.262200
H261	H26	0.695600	0.802200	0.220300
C221	C22	0.693400	0.887500	0.169900
H271	H27	0.767100	0.887900	0.152600
H281	H28	0.652000	0.879500	0.107000
N61	N6	0.664200	0.945020	0.211600
C231	C23	0.730100	0.955300	0.305300
H291	H29	0.714800	0.994000	0.333900
H301	H30	0.803800	0.954300	0.288200
C241	C24	0.707900	0.908500	0.382800
H311	H31	0.749600	0.915500	0.445900
H321	H32	0.634200	0.909700	0.399800
C251	C25	0.681300	0.992000	0.135400
H331	H33	0.743700	0.983200	0.096800
H341	H34	0.692300	0.029400	0.171000
C261	C26	0.589300	0.996620	0.063400
C271	C27	0.507700	0.033380	0.087100
H351	H35	0.512800	0.056500	0.146800
C281	C28	0.419900	0.036740	0.025300
H361	H36	0.365300	0.061900	0.043200
N71	N7	0.089900	0.264400	0.018900
C291	C29	0.034700	0.304100	0.963800
H371	H37	0.068100	0.324000	0.910800
C301	C30	0.934900	0.316800	0.980100
H381	H38	0.900300	0.345200	0.939200
C311	C31	0.882200	0.288500	0.057300
C321	C32	0.937300	0.245500	0.110800
H391	H39	0.904200	0.223500	0.161400
C331	C33	0.039200	0.234700	0.090800
H401	H40	0.075000	0.205500	0.128700
C341	C34	0.774700	0.304000	0.084000
H411	H41	0.736000	0.315200	0.021000
H421	H42	0.741000	0.269200	0.111800
N81	N8	0.767100	0.351660	0.158400
C351	C35	0.825200	0.340200	0.251900
H431	H43	0.899600	0.338400	0.237800
H441	H44	0.804400	0.302200	0.279700
C361	C36	0.806600	0.387500	0.330100
H451	H45	0.732900	0.387900	0.347400
H461	H46	0.848000	0.379500	0.393000
N91	N9	0.835800	0.445020	0.288400
C371	C37	0.769900	0.455300	0.194700
H471	H47	0.785200	0.494000	0.166100
H481	H48	0.696200	0.454300	0.211800
C381	C38	0.792100	0.408500	0.117200
H491	H49	0.750400	0.415500	0.054100
H501	H50	0.865800	0.409700	0.100200
C391	C39	0.818700	0.492000	0.364600
H511	H51	0.756300	0.483200	0.403200
H521	H52	0.807700	0.529400	0.329000
C401	C40	0.910700	0.496620	0.436600
C411	C41	0.992300	0.533380	0.412900
H531	H53	0.987200	0.556500	0.353200
C421	C42	0.080100	0.536740	0.474700
H541	H54	0.134700	0.561900	0.456800
N101	N10	0.589900	0.764400	0.018900
C431	C43	0.534700	0.804100	0.963800
H551	H55	0.568100	0.824000	0.910800
C441	C44	0.434900	0.816800	0.980100
H561	H56	0.400300	0.845200	0.939200
C451	C45	0.382200	0.788500	0.057300
C461	C46	0.437300	0.745500	0.110800
H571	H57	0.404200	0.723500	0.161400
C471	C47	0.539200	0.734700	0.090800
H581	H58	0.575000	0.705500	0.128700
C481	C48	0.274700	0.804000	0.084000
H591	H59	0.236000	0.815200	0.021000
H601	H60	0.241000	0.769200	0.111800
N111	N11	0.267100	0.851660	0.158400
C491	C49	0.325200	0.840200	0.251900
H611	H61	0.399600	0.838400	0.237800
H621	H62	0.304400	0.802200	0.279700
C501	C50	0.306600	0.887500	0.330100
H631	H63	0.232900	0.887900	0.347400
H641	H64	0.348000	0.879500	0.393000
N121	N12	0.335800	0.945020	0.288400
C511	C51	0.269900	0.955300	0.194700
H651	H65	0.285200	0.994000	0.166100
H661	H66	0.196200	0.954300	0.211800
C521	C52	0.292100	0.908500	0.117200
H671	H67	0.250400	0.915500	0.054100
H681	H68	0.365800	0.909700	0.100200
C531	C53	0.318700	0.992000	0.364600
H691	H69	0.256300	0.983200	0.403200
H701	H70	0.307700	0.029400	0.329000
C541	C54	0.410700	0.996620	0.436600
C551	C55	0.492300	0.033380	0.412900
H711	H71	0.487200	0.056500	0.353200
C561	C56	0.580100	0.036740	0.474700
H721	H72	0.634700	0.061900	0.456800
N131	N13	0.089900	0.735600	0.518900
C571	C57	0.034700	0.695900	0.463800
H731	H73	0.068100	0.676000	0.410800
C581	C58	0.934900	0.683200	0.480100
H741	H74	0.900300	0.654800	0.439200
C591	C59	0.882200	0.711500	0.557300
C601	C60	0.937300	0.754500	0.610800
H751	H75	0.904200	0.776500	0.661400
C611	C61	0.039200	0.765300	0.590800
H761	H76	0.075000	0.794500	0.628700
C621	C62	0.774700	0.696000	0.584000
H771	H77	0.736000	0.684800	0.521000
H781	H78	0.741000	0.730800	0.611800
N141	N14	0.767100	0.648340	0.658400
C631	C63	0.825200	0.659800	0.751900
H791	H79	0.899600	0.661600	0.737800
H801	H80	0.804400	0.697800	0.779700
C641	C64	0.806600	0.612500	0.830100
H811	H81	0.732900	0.612100	0.847400
H821	H82	0.848000	0.620500	0.893000
N151	N15	0.835800	0.554980	0.788400
C651	C65	0.769900	0.544700	0.694700
H831	H83	0.785200	0.506000	0.666100
H841	H84	0.696200	0.545700	0.711800
C661	C66	0.792100	0.591500	0.617200
H851	H85	0.750400	0.584500	0.554100
H861	H86	0.865800	0.590300	0.600200
C671	C67	0.818700	0.508000	0.864600
H871	H87	0.756300	0.516800	0.903200
H881	H88	0.807700	0.470600	0.829000
C681	C68	0.910700	0.503380	0.936600
C691	C69	0.992300	0.466620	0.912900
H891	H89	0.987200	0.443500	0.853200
C701	C70	0.080100	0.463260	0.974700
H901	H90	0.134700	0.438100	0.956800
N161	N16	0.589900	0.235600	0.518900
C711	C71	0.534700	0.195900	0.463800
H911	H91	0.568100	0.176000	0.410800
C721	C72	0.434900	0.183200	0.480100
H921	H92	0.400300	0.154800	0.439200
C731	C73	0.382200	0.211500	0.557300
C741	C74	0.437300	0.254500	0.610800
H931	H93	0.404200	0.276500	0.661400
C751	C75	0.539200	0.265300	0.590800
H941	H94	0.575000	0.294500	0.628700
C761	C76	0.274700	0.196000	0.584000
H951	H95	0.236000	0.184800	0.521000
H961	H96	0.241000	0.230800	0.611800
N171	N17	0.267100	0.148340	0.658400
C771	C77	0.325200	0.159800	0.751900
H971	H97	0.399600	0.161600	0.737800
H981	H98	0.304400	0.197800	0.779700
C781	C78	0.306600	0.112500	0.830100
H991	H99	0.232900	0.112100	0.847400
H1001	H100	0.348000	0.120500	0.893000
N181	N18	0.335800	0.054980	0.788400
C791	C79	0.269900	0.044700	0.694700
H1011	H101	0.285200	0.006000	0.666100
H1021	H102	0.196200	0.045700	0.711800
C801	C80	0.292100	0.091500	0.617200
H1031	H103	0.250400	0.084500	0.554100
H1041	H104	0.365800	0.090300	0.600200
C811	C81	0.318700	0.008000	0.864600
H1051	H105	0.256300	0.016800	0.903200
H1061	H106	0.307700	0.970600	0.829000
C821	C82	0.410700	0.003380	0.936600
C831	C83	0.492300	0.966620	0.912900
H1071	H107	0.487200	0.943500	0.853200
C841	C84	0.580100	0.963260	0.974700
H1081	H108	0.634700	0.938100	0.956800
N191	N19	0.910100	0.735600	0.981100
C851	C85	0.965300	0.695900	0.036200
H1091	H109	0.931900	0.676000	0.089200
C861	C86	0.065100	0.683200	0.019900
H1101	H110	0.099700	0.654800	0.060800
C871	C87	0.117800	0.711500	0.942700
C881	C88	0.062700	0.754500	0.889200
H1111	H111	0.095800	0.776500	0.838600
C891	C89	0.960800	0.765300	0.909200
H1121	H112	0.925000	0.794500	0.871300
C901	C90	0.225300	0.696000	0.916000
H1131	H113	0.264000	0.684800	0.979000
H1141	H114	0.259000	0.730800	0.888200
N201	N20	0.232900	0.648340	0.841600
C911	C91	0.174800	0.659800	0.748100
H1151	H115	0.100400	0.661600	0.762200
H1161	H116	0.195600	0.697800	0.720300
C921	C92	0.193400	0.612500	0.669900
H1171	H117	0.267100	0.612100	0.652600
H1181	H118	0.152000	0.620500	0.607000
N211	N21	0.164200	0.554980	0.711600
C931	C93	0.230100	0.544700	0.805300
H1191	H119	0.214800	0.506000	0.833900
H1201	H120	0.303800	0.545700	0.788200
C941	C94	0.207900	0.591500	0.882800
H1211	H121	0.249600	0.584500	0.945900
H1221	H122	0.134200	0.590300	0.899800
C951	C95	0.181300	0.508000	0.635400
H1231	H123	0.243700	0.516800	0.596800
H1241	H124	0.192300	0.470600	0.671000
C961	C96	0.089300	0.503380	0.563400
C971	C97	0.007700	0.466620	0.587100
H1251	H125	0.012800	0.443500	0.646800
C981	C98	0.919900	0.463260	0.525300
H1261	H126	0.865300	0.438100	0.543200
N221	N22	0.410100	0.235600	0.981100
C991	C99	0.465300	0.195900	0.036200
H1271	H127	0.431900	0.176000	0.089200
C1001	C100	0.565100	0.183200	0.019900
H1281	H128	0.599700	0.154800	0.060800
C1011	C101	0.617800	0.211500	0.942700
C1021	C102	0.562700	0.254500	0.889200
H1291	H129	0.595800	0.276500	0.838600
C1031	C103	0.460800	0.265300	0.909200
H1301	H130	0.425000	0.294500	0.871300
C1041	C104	0.725300	0.196000	0.916000
H1311	H131	0.764000	0.184800	0.979000
H1321	H132	0.759000	0.230800	0.888200
N231	N23	0.732900	0.148340	0.841600
C1051	C105	0.674800	0.159800	0.748100
H1331	H133	0.600400	0.161600	0.762200
H1341	H134	0.695600	0.197800	0.720300
C1061	C106	0.693400	0.112500	0.669900
H1351	H135	0.767100	0.112100	0.652600
H1361	H136	0.652000	0.120500	0.607000
N241	N24	0.664200	0.054980	0.711600
C1071	C107	0.730100	0.044700	0.805300
H1371	H137	0.714800	0.006000	0.833900
H1381	H138	0.803800	0.045700	0.788200
C1081	C108	0.707900	0.091500	0.882800
H1391	H139	0.749600	0.084500	0.945900
H1401	H140	0.634200	0.090300	0.899800
C1091	C109	0.681300	0.008000	0.635400
H1411	H141	0.743700	0.016800	0.596800
H1421	H142	0.692300	0.970600	0.671000
C1101	C110	0.589300	0.003380	0.563400
C1111	C111	0.507700	0.966620	0.587100
H1431	H143	0.512800	0.943500	0.646800
C1121	C112	0.419900	0.963260	0.525300
H1441	H144	0.365300	0.938100	0.543200
Ag11	Ag1	0.750000	0.250000	0.500000
Ag21	Ag2	0.250000	0.250000	0.000000
Ag31	Ag3	0.250000	0.750000	0.500000
Ag41	Ag4	0.750000	0.750000	0.000000
Ag51	Ag5	0.000000	0.445230	0.250000
Ag61	Ag6	0.500000	0.945230	0.250000
Ag71	Ag7	0.000000	0.554770	0.750000
Ag81	Ag8	0.500000	0.054770	0.750000
