data_OTOVIE_freeONLY_PM
_symmetry_space_group_name_H-M	'P1'
_cell_length_a	9.735300
_cell_length_b	17.743500
_cell_length_c	11.764500
_cell_angle_alpha	90.000000
_cell_angle_beta	104.070000
_cell_angle_gamma	90.000000
_symmetry_Int_Tables_number 1

loop_
_symmetry_equiv_pos_as_xyz
'x,y,z'

loop_
_atom_site_label
_atom_site_type_symbol
_atom_site_fract_x
_atom_site_fract_y
_atom_site_fract_z
C11	C1	0.971600	0.161900	0.096500
H11	H1	0.876100	0.153200	0.063400
C21	C2	0.200400	0.121620	0.137900
H21	H2	0.267700	0.085600	0.132300
C31	C3	0.244500	0.187750	0.197300
C41	C4	0.151200	0.245110	0.206400
C51	C5	0.010800	0.229910	0.151600
C61	C6	0.205900	0.314300	0.268800
H31	H3	0.303400	0.321000	0.283800
C71	C7	0.210700	0.436120	0.368620
C81	C8	0.135400	0.368550	0.306500
H41	H4	0.037600	0.364800	0.294400
F11	F1	0.377500	0.193830	0.255300
N11	N1	0.064530	0.107700	0.088290
O11	O1	0.343090	0.435910	0.390540
O21	O2	0.136070	0.488900	0.392110
C91	C9	0.310800	0.661000	0.226700
C101	C10	0.455100	0.669200	0.449200
H51	H5	0.505100	0.672700	0.527200
C111	C11	0.358900	0.597050	0.289600
H61	H6	0.340700	0.550200	0.253500
C121	C12	0.348000	0.865150	0.215100
H71	H7	0.434900	0.869700	0.269200
C131	C13	0.409700	0.734790	0.389400
H81	H8	0.429500	0.781000	0.427200
C141	C14	0.334700	0.732450	0.273300
C151	C15	0.288500	0.932000	0.142200
C161	C16	0.281300	0.800090	0.205300
H91	H9	0.194200	0.796800	0.151300
F21	F2	0.239000	0.653150	0.113540
N21	N2	0.431200	0.600720	0.401020
O31	O3	0.155830	0.937940	0.115140
O41	O4	0.374760	0.977320	0.117050
F31	F3	0.916400	0.282000	0.144100
C171	C17	0.028400	0.661900	0.403500
H101	H10	0.123900	0.653200	0.436600
C181	C18	0.799600	0.621620	0.362100
H111	H11	0.732300	0.585600	0.367700
C191	C19	0.755500	0.687750	0.302700
C201	C20	0.848800	0.745110	0.293600
C211	C21	0.989200	0.729910	0.348400
C221	C22	0.794100	0.814300	0.231200
H121	H12	0.696600	0.821000	0.216200
C231	C23	0.789300	0.936120	0.131380
C241	C24	0.864600	0.868550	0.193500
H131	H13	0.962400	0.864800	0.205600
F41	F4	0.622500	0.693830	0.244700
N31	N3	0.935470	0.607700	0.411710
O51	O5	0.656910	0.935910	0.109460
O61	O6	0.863930	0.988900	0.107890
C251	C25	0.689200	0.161000	0.273300
C261	C26	0.544900	0.169200	0.050800
H141	H14	0.494900	0.172700	0.972800
C271	C27	0.641100	0.097050	0.210400
H151	H15	0.659300	0.050200	0.246500
C281	C28	0.652000	0.365150	0.284900
H161	H16	0.565100	0.369700	0.230800
C291	C29	0.590300	0.234790	0.110600
H171	H17	0.570500	0.281000	0.072800
C301	C30	0.665300	0.232450	0.226700
C311	C31	0.711500	0.432000	0.357800
C321	C32	0.718700	0.300090	0.294700
H181	H18	0.805800	0.296800	0.348700
F51	F5	0.761000	0.153150	0.386460
N41	N4	0.568800	0.100720	0.098980
O71	O7	0.844170	0.437940	0.384860
O81	O8	0.625240	0.477320	0.382950
F61	F6	0.083600	0.782000	0.355900
C331	C33	0.028400	0.838100	0.903500
H191	H19	0.123900	0.846800	0.936600
C341	C34	0.799600	0.878380	0.862100
H201	H20	0.732300	0.914400	0.867700
C351	C35	0.755500	0.812250	0.802700
C361	C36	0.848800	0.754890	0.793600
C371	C37	0.989200	0.770090	0.848400
C381	C38	0.794100	0.685700	0.731200
H211	H21	0.696600	0.679000	0.716200
C391	C39	0.789300	0.563880	0.631380
C401	C40	0.864600	0.631450	0.693500
H221	H22	0.962400	0.635200	0.705600
F71	F7	0.622500	0.806170	0.744700
N51	N5	0.935470	0.892300	0.911710
O91	O9	0.656910	0.564090	0.609460
O101	O10	0.863930	0.511100	0.607890
C411	C41	0.689200	0.339000	0.773300
C421	C42	0.544900	0.330800	0.550800
H231	H23	0.494900	0.327300	0.472800
C431	C43	0.641100	0.402950	0.710400
H241	H24	0.659300	0.449800	0.746500
C441	C44	0.652000	0.134850	0.784900
H251	H25	0.565100	0.130300	0.730800
C451	C45	0.590300	0.265210	0.610600
H261	H26	0.570500	0.219000	0.572800
C461	C46	0.665300	0.267550	0.726700
C471	C47	0.711500	0.068000	0.857800
C481	C48	0.718700	0.199910	0.794700
H271	H27	0.805800	0.203200	0.848700
F81	F8	0.761000	0.346850	0.886460
N61	N6	0.568800	0.399280	0.598980
O111	O11	0.844170	0.062060	0.884860
O121	O12	0.625240	0.022680	0.882950
F91	F9	0.083600	0.718000	0.855900
C491	C49	0.971600	0.338100	0.596500
H281	H28	0.876100	0.346800	0.563400
C501	C50	0.200400	0.378380	0.637900
H291	H29	0.267700	0.414400	0.632300
C511	C51	0.244500	0.312250	0.697300
C521	C52	0.151200	0.254890	0.706400
C531	C53	0.010800	0.270090	0.651600
C541	C54	0.205900	0.185700	0.768800
H301	H30	0.303400	0.179000	0.783800
C551	C55	0.210700	0.063880	0.868620
C561	C56	0.135400	0.131450	0.806500
H311	H31	0.037600	0.135200	0.794400
F101	F10	0.377500	0.306170	0.755300
N71	N7	0.064530	0.392300	0.588290
O131	O13	0.343090	0.064090	0.890540
O141	O14	0.136070	0.011100	0.892110
C571	C57	0.310800	0.839000	0.726700
C581	C58	0.455100	0.830800	0.949200
H321	H32	0.505100	0.827300	0.027200
C591	C59	0.358900	0.902950	0.789600
H331	H33	0.340700	0.949800	0.753500
C601	C60	0.348000	0.634850	0.715100
H341	H34	0.434900	0.630300	0.769200
C611	C61	0.409700	0.765210	0.889400
H351	H35	0.429500	0.719000	0.927200
C621	C62	0.334700	0.767550	0.773300
C631	C63	0.288500	0.568000	0.642200
C641	C64	0.281300	0.699910	0.705300
H361	H36	0.194200	0.703200	0.651300
F111	F11	0.239000	0.846850	0.613540
N81	N8	0.431200	0.899280	0.901020
O151	O15	0.155830	0.562060	0.615140
O161	O16	0.374760	0.522680	0.617050
F121	F12	0.916400	0.218000	0.644100
Co11	Co1	0.000000	0.000000	0.000000
Co21	Co2	0.000000	0.500000	0.500000
Co31	Co3	0.500000	0.500000	0.500000
Co41	Co4	0.500000	0.000000	0.000000
