data_OVEJIJ_freeONLY_PM
_symmetry_space_group_name_H-M	'P1'
_cell_length_a	14.304900
_cell_length_b	10.153700
_cell_length_c	18.312800
_cell_angle_alpha	90.000000
_cell_angle_beta	90.107000
_cell_angle_gamma	90.000000
_symmetry_Int_Tables_number 1

loop_
_symmetry_equiv_pos_as_xyz
'x,y,z'

loop_
_atom_site_label
_atom_site_type_symbol
_atom_site_fract_x
_atom_site_fract_y
_atom_site_fract_z
V11	V1	0.288210	0.200400	0.196800
V21	V2	0.242350	0.684500	0.103830
V31	V3	0.253220	0.847890	0.803390
V41	V4	0.253260	0.362370	0.892460
P11	P1	0.345950	0.636990	0.697790
P21	P2	0.184140	0.642850	0.930460
P31	P3	0.333200	0.429230	0.313650
P41	P4	0.198330	0.389120	0.066850
O11	O1	0.197000	0.712400	0.003880
O21	O2	0.429800	0.487400	0.294800
O31	O3	0.444400	0.674300	0.724600
O41	O4	0.287300	0.371400	0.245520
O51	O5	0.096100	0.558700	0.928510
O61	O6	0.218000	0.326000	0.993540
O71	O7	0.325900	0.708800	0.626520
O81	O8	0.392600	0.184600	0.169000
O91	O9	0.098100	0.444000	0.070870
O101	O10	0.206500	0.284000	0.125970
O111	O11	0.274600	0.676800	0.756580
O121	O12	0.343400	0.748900	0.108000
O131	O13	0.172500	0.748600	0.871460
O141	O14	0.281700	0.925700	0.706170
O151	O15	0.272300	0.540200	0.341120
O161	O16	0.268000	0.500500	0.081610
O171	O17	0.357700	0.312500	0.884200
O181	O18	0.283800	0.118900	0.295210
O191	O19	0.998100	0.673000	0.047200
O201	O20	0.346600	0.325400	0.372840
O211	O21	0.340900	0.488400	0.684340
O221	O22	0.268000	0.553900	0.914240
O231	O23	0.342900	0.885600	0.849600
V51	V5	0.211790	0.700400	0.303200
V61	V6	0.257650	0.184500	0.396170
V71	V7	0.246780	0.347890	0.696610
V81	V8	0.246740	0.862370	0.607540
P51	P5	0.154050	0.136990	0.802210
P61	P6	0.315860	0.142850	0.569540
P71	P7	0.166800	0.929230	0.186350
P81	P8	0.301670	0.889120	0.433150
O241	O24	0.303000	0.212400	0.496120
O251	O25	0.070200	0.987400	0.205200
O261	O26	0.055600	0.174300	0.775400
O271	O27	0.212700	0.871400	0.254480
O281	O28	0.403900	0.058700	0.571490
O291	O29	0.282000	0.826000	0.506460
O301	O30	0.174100	0.208800	0.873480
O311	O31	0.107400	0.684600	0.331000
O321	O32	0.401900	0.944000	0.429130
O331	O33	0.293500	0.784000	0.374030
O341	O34	0.225400	0.176800	0.743420
O351	O35	0.156600	0.248900	0.392000
O361	O36	0.327500	0.248600	0.628540
O371	O37	0.218300	0.425700	0.793830
O381	O38	0.227700	0.040200	0.158880
O391	O39	0.232000	0.000500	0.418390
O401	O40	0.142300	0.812500	0.615800
O411	O41	0.216200	0.618900	0.204790
O421	O42	0.501900	0.173000	0.452800
O431	O43	0.153400	0.825400	0.127160
O441	O44	0.159100	0.988400	0.815660
O451	O45	0.232000	0.053900	0.585760
O461	O46	0.157100	0.385600	0.650400
V91	V9	0.711790	0.799600	0.803200
V101	V10	0.757650	0.315500	0.896170
V111	V11	0.746780	0.152110	0.196610
V121	V12	0.746740	0.637630	0.107540
P91	P9	0.654050	0.363010	0.302210
P101	P10	0.815860	0.357150	0.069540
P111	P11	0.666800	0.570770	0.686350
P121	P12	0.801670	0.610880	0.933150
O471	O47	0.803000	0.287600	0.996120
O481	O48	0.570200	0.512600	0.705200
O491	O49	0.555600	0.325700	0.275400
O501	O50	0.712700	0.628600	0.754480
O511	O51	0.903900	0.441300	0.071490
O521	O52	0.782000	0.674000	0.006460
O531	O53	0.674100	0.291200	0.373480
O541	O54	0.607400	0.815400	0.831000
O551	O55	0.901900	0.556000	0.929130
O561	O56	0.793500	0.716000	0.874030
O571	O57	0.725400	0.323200	0.243420
O581	O58	0.656600	0.251100	0.892000
O591	O59	0.827500	0.251400	0.128540
O601	O60	0.718300	0.074300	0.293830
O611	O61	0.727700	0.459800	0.658880
O621	O62	0.732000	0.499500	0.918390
O631	O63	0.642300	0.687500	0.115800
O641	O64	0.716200	0.881100	0.704790
O651	O65	0.001900	0.327000	0.952800
O661	O66	0.653400	0.674600	0.627160
O671	O67	0.659100	0.511600	0.315660
O681	O68	0.732000	0.446100	0.085760
O691	O69	0.657100	0.114400	0.150400
V131	V13	0.788210	0.299600	0.696800
V141	V14	0.742350	0.815500	0.603830
V151	V15	0.753220	0.652110	0.303390
V161	V16	0.753260	0.137630	0.392460
P131	P13	0.845950	0.863010	0.197790
P141	P14	0.684140	0.857150	0.430460
P151	P15	0.833200	0.070770	0.813650
P161	P16	0.698330	0.110880	0.566850
O701	O70	0.697000	0.787600	0.503880
O711	O71	0.929800	0.012600	0.794800
O721	O72	0.944400	0.825700	0.224600
O731	O73	0.787300	0.128600	0.745520
O741	O74	0.596100	0.941300	0.428510
O751	O75	0.718000	0.174000	0.493540
O761	O76	0.825900	0.791200	0.126520
O771	O77	0.892600	0.315400	0.669000
O781	O78	0.598100	0.056000	0.570870
O791	O79	0.706500	0.216000	0.625970
O801	O80	0.774600	0.823200	0.256580
O811	O81	0.843400	0.751100	0.608000
O821	O82	0.672500	0.751400	0.371460
O831	O83	0.781700	0.574300	0.206170
O841	O84	0.772300	0.959800	0.841120
O851	O85	0.768000	0.999500	0.581610
O861	O86	0.857700	0.187500	0.384200
O871	O87	0.783800	0.381100	0.795210
O881	O88	0.498100	0.827000	0.547200
O891	O89	0.846600	0.174600	0.872840
O901	O90	0.840900	0.011600	0.184340
O911	O91	0.768000	0.946100	0.414240
O921	O92	0.842900	0.614400	0.349600
V171	V17	0.000000	0.500000	0.000000
V181	V18	0.500000	0.000000	0.500000
