data_OVIZUP_freeONLY_PM
_symmetry_space_group_name_H-M	'P1'
_cell_length_a	17.657400
_cell_length_b	17.657400
_cell_length_c	18.651800
_cell_angle_alpha	90.000000
_cell_angle_beta	90.000000
_cell_angle_gamma	90.000000
_symmetry_Int_Tables_number 1

loop_
_symmetry_equiv_pos_as_xyz
'x,y,z'

loop_
_atom_site_label
_atom_site_type_symbol
_atom_site_fract_x
_atom_site_fract_y
_atom_site_fract_z
Ni11	Ni1	0.617790	0.419940	0.926300
Ni21	Ni2	0.723920	0.532930	0.813450
Ni31	Ni3	0.382210	0.580060	0.426300
Ni41	Ni4	0.276080	0.467070	0.313450
Ni51	Ni5	0.080060	0.117790	0.676300
Ni61	Ni6	0.967070	0.223920	0.563450
Ni71	Ni7	0.919940	0.882210	0.176300
Ni81	Ni8	0.032930	0.776080	0.063450
Ni91	Ni9	0.882210	0.919940	0.823700
Ni101	Ni10	0.776080	0.032930	0.936550
Ni111	Ni11	0.117790	0.080060	0.323700
Ni121	Ni12	0.223920	0.967070	0.436550
Ni131	Ni13	0.419940	0.617790	0.073700
Ni141	Ni14	0.532930	0.723920	0.186550
Ni151	Ni15	0.580060	0.382210	0.573700
Ni161	Ni16	0.467070	0.276080	0.686550
H11	H1	0.668300	0.078100	0.263100
H21	H2	0.583900	0.088200	0.287100
H31	H3	0.684800	0.969100	0.161300
H41	H4	0.656600	0.844500	0.141300
H51	H5	0.507500	0.979900	0.294400
H61	H6	0.484500	0.854500	0.271300
H71	H7	0.657800	0.699100	0.696800
H81	H8	0.738600	0.685200	0.729800
H91	H9	0.724600	0.767700	0.805200
H101	H10	0.574300	0.634900	0.904500
H111	H11	0.540700	0.644000	0.780500
H121	H12	0.576200	0.591800	0.721500
H131	H13	0.644800	0.826900	0.999500
H141	H14	0.718200	0.373000	0.049200
H151	H15	0.718900	0.298200	0.149800
H161	H16	0.507900	0.239800	0.107800
H171	H17	0.510400	0.315500	0.009400
H181	H18	0.661300	0.214100	0.229600
H191	H19	0.573500	0.223400	0.237600
H201	H20	0.637300	0.112900	0.146700
H211	H21	0.551500	0.118500	0.167600
H221	H22	0.331700	0.921900	0.763100
H231	H23	0.416100	0.911800	0.787100
H241	H24	0.315200	0.030900	0.661300
H251	H25	0.343400	0.155500	0.641300
H261	H26	0.492500	0.020100	0.794400
H271	H27	0.515500	0.145500	0.771300
H281	H28	0.342200	0.300900	0.196800
H291	H29	0.261400	0.314800	0.229800
H301	H30	0.275400	0.232300	0.305200
H311	H31	0.425700	0.365100	0.404500
H321	H32	0.459300	0.356000	0.280500
H331	H33	0.423800	0.408200	0.221500
H341	H34	0.355200	0.173100	0.499500
H351	H35	0.281800	0.627000	0.549200
H361	H36	0.281100	0.701800	0.649800
H371	H37	0.492100	0.760200	0.607800
H381	H38	0.489600	0.684500	0.509400
H391	H39	0.338700	0.785900	0.729600
H401	H40	0.426500	0.776600	0.737600
H411	H41	0.362700	0.887100	0.646700
H421	H42	0.448500	0.881500	0.667600
H431	H43	0.421900	0.168300	0.013100
H441	H44	0.411800	0.083900	0.037100
H451	H45	0.530900	0.184800	0.911300
H461	H46	0.655500	0.156600	0.891300
H471	H47	0.520100	0.007500	0.044400
H481	H48	0.645500	0.984500	0.021300
H491	H49	0.800900	0.157800	0.446800
H501	H50	0.814800	0.238600	0.479800
H511	H51	0.732300	0.224600	0.555200
H521	H52	0.865100	0.074300	0.654500
H531	H53	0.856000	0.040700	0.530500
H541	H54	0.908200	0.076200	0.471500
H551	H55	0.673100	0.144800	0.749500
H561	H56	0.127000	0.218200	0.799200
H571	H57	0.201800	0.218900	0.899800
H581	H58	0.260200	0.007900	0.857800
H591	H59	0.184500	0.010400	0.759400
H601	H60	0.285900	0.161300	0.979600
H611	H61	0.276600	0.073500	0.987600
H621	H62	0.387100	0.137300	0.896700
H631	H63	0.381500	0.051500	0.917600
H641	H64	0.578100	0.831700	0.513100
H651	H65	0.588200	0.916100	0.537100
H661	H66	0.469100	0.815200	0.411300
H671	H67	0.344500	0.843400	0.391300
H681	H68	0.479900	0.992500	0.544400
H691	H69	0.354500	0.015500	0.521300
H701	H70	0.199100	0.842200	0.946800
H711	H71	0.185200	0.761400	0.979800
H721	H72	0.267700	0.775400	0.055200
H731	H73	0.134900	0.925700	0.154500
H741	H74	0.144000	0.959300	0.030500
H751	H75	0.091800	0.923800	0.971500
H761	H76	0.326900	0.855200	0.249500
H771	H77	0.873000	0.781800	0.299200
H781	H78	0.798200	0.781100	0.399800
H791	H79	0.739800	0.992100	0.357800
H801	H80	0.815500	0.989600	0.259400
H811	H81	0.714100	0.838700	0.479600
H821	H82	0.723400	0.926500	0.487600
H831	H83	0.612900	0.862700	0.396700
H841	H84	0.618500	0.948500	0.417600
H851	H85	0.831700	0.578100	0.486900
H861	H86	0.916100	0.588200	0.462900
H871	H87	0.815200	0.469100	0.588700
H881	H88	0.843400	0.344500	0.608700
H891	H89	0.992500	0.479900	0.455600
H901	H90	0.015500	0.354500	0.478700
H911	H91	0.842200	0.199100	0.053200
H921	H92	0.761400	0.185200	0.020200
H931	H93	0.775400	0.267700	0.944800
H941	H94	0.925700	0.134900	0.845500
H951	H95	0.959300	0.144000	0.969500
H961	H96	0.923800	0.091800	0.028500
H971	H97	0.855200	0.326900	0.750500
H981	H98	0.781800	0.873000	0.700800
H991	H99	0.781100	0.798200	0.600200
H1001	H100	0.992100	0.739800	0.642200
H1011	H101	0.989600	0.815500	0.740600
H1021	H102	0.838700	0.714100	0.520400
H1031	H103	0.926500	0.723400	0.512400
H1041	H104	0.862700	0.612900	0.603300
H1051	H105	0.948500	0.618500	0.582400
H1061	H106	0.168300	0.421900	0.986900
H1071	H107	0.083900	0.411800	0.962900
H1081	H108	0.184800	0.530900	0.088700
H1091	H109	0.156600	0.655500	0.108700
H1101	H110	0.007500	0.520100	0.955600
H1111	H111	0.984500	0.645500	0.978700
H1121	H112	0.157800	0.800900	0.553200
H1131	H113	0.238600	0.814800	0.520200
H1141	H114	0.224600	0.732300	0.444800
H1151	H115	0.074300	0.865100	0.345500
H1161	H116	0.040700	0.856000	0.469500
H1171	H117	0.076200	0.908200	0.528500
H1181	H118	0.144800	0.673100	0.250500
H1191	H119	0.218200	0.127000	0.200800
H1201	H120	0.218900	0.201800	0.100200
H1211	H121	0.007900	0.260200	0.142200
H1221	H122	0.010400	0.184500	0.240600
H1231	H123	0.161300	0.285900	0.020400
H1241	H124	0.073500	0.276600	0.012400
H1251	H125	0.137300	0.387100	0.103300
H1261	H126	0.051500	0.381500	0.082400
H1271	H127	0.078100	0.668300	0.736900
H1281	H128	0.088200	0.583900	0.712900
H1291	H129	0.969100	0.684800	0.838700
H1301	H130	0.844500	0.656600	0.858700
H1311	H131	0.979900	0.507500	0.705600
H1321	H132	0.854500	0.484500	0.728700
H1331	H133	0.699100	0.657800	0.303200
H1341	H134	0.685200	0.738600	0.270200
H1351	H135	0.767700	0.724600	0.194800
H1361	H136	0.634900	0.574300	0.095500
H1371	H137	0.644000	0.540700	0.219500
H1381	H138	0.591800	0.576200	0.278500
H1391	H139	0.826900	0.644800	0.000500
H1401	H140	0.373000	0.718200	0.950800
H1411	H141	0.298200	0.718900	0.850200
H1421	H142	0.239800	0.507900	0.892200
H1431	H143	0.315500	0.510400	0.990600
H1441	H144	0.214100	0.661300	0.770400
H1451	H145	0.223400	0.573500	0.762400
H1461	H146	0.112900	0.637300	0.853300
H1471	H147	0.118500	0.551500	0.832400
H1481	H148	0.921900	0.331700	0.236900
H1491	H149	0.911800	0.416100	0.212900
H1501	H150	0.030900	0.315200	0.338700
H1511	H151	0.155500	0.343400	0.358700
H1521	H152	0.020100	0.492500	0.205600
H1531	H153	0.145500	0.515500	0.228700
H1541	H154	0.300900	0.342200	0.803200
H1551	H155	0.314800	0.261400	0.770200
H1561	H156	0.232300	0.275400	0.694800
H1571	H157	0.365100	0.425700	0.595500
H1581	H158	0.356000	0.459300	0.719500
H1591	H159	0.408200	0.423800	0.778500
H1601	H160	0.173100	0.355200	0.500500
H1611	H161	0.627000	0.281800	0.450800
H1621	H162	0.701800	0.281100	0.350200
H1631	H163	0.760200	0.492100	0.392200
H1641	H164	0.684500	0.489600	0.490600
H1651	H165	0.785900	0.338700	0.270400
H1661	H166	0.776600	0.426500	0.262400
H1671	H167	0.887100	0.362700	0.353300
H1681	H168	0.881500	0.448500	0.332400
C11	C1	0.616100	0.072900	0.247600
C21	C2	0.600900	0.990000	0.231000
C31	C3	0.643900	0.947200	0.184900
C41	C4	0.626900	0.871900	0.173300
C51	C5	0.539200	0.953300	0.263500
C61	C6	0.525700	0.877800	0.249500
C71	C7	0.700200	0.593800	0.671900
C81	C8	0.689900	0.661900	0.720100
C91	C9	0.693800	0.757200	0.844400
C101	C10	0.651500	0.691070	0.844920
C111	C11	0.604900	0.677800	0.904000
C121	C12	0.578500	0.605200	0.771800
C131	C13	0.559800	0.535700	0.816800
C141	C14	0.691100	0.808300	0.901500
C151	C15	0.646100	0.793400	0.961100
C161	C16	0.602800	0.726900	0.962180
C171	C17	0.552800	0.706200	0.025800
C181	C18	0.737400	0.878800	0.895200
C191	C19	0.674700	0.346100	0.061100
C201	C20	0.675400	0.300900	0.121800
C211	C21	0.612300	0.259700	0.141300
C221	C22	0.551800	0.266700	0.097500
C231	C23	0.553600	0.312500	0.037800
C241	C24	0.613400	0.208400	0.204800
C251	C25	0.602600	0.125700	0.185200
C261	C26	0.383900	0.927100	0.747600
C271	C27	0.399100	0.010000	0.731000
C281	C28	0.356100	0.052800	0.684900
C291	C29	0.373100	0.128100	0.673300
C301	C30	0.460800	0.046700	0.763500
C311	C31	0.474300	0.122200	0.749500
C321	C32	0.299800	0.406200	0.171900
C331	C33	0.310100	0.338100	0.220100
C341	C34	0.306200	0.242800	0.344400
C351	C35	0.348500	0.308930	0.344920
C361	C36	0.395100	0.322200	0.404000
C371	C37	0.421500	0.394800	0.271800
C381	C38	0.440200	0.464300	0.316800
C391	C39	0.308900	0.191700	0.401500
C401	C40	0.353900	0.206600	0.461100
C411	C41	0.397200	0.273100	0.462180
C421	C42	0.447200	0.293800	0.525800
C431	C43	0.262600	0.121200	0.395200
C441	C44	0.325300	0.653900	0.561100
C451	C45	0.324600	0.699100	0.621800
C461	C46	0.387700	0.740300	0.641300
C471	C47	0.448200	0.733300	0.597500
C481	C48	0.446400	0.687500	0.537800
C491	C49	0.386600	0.791600	0.704800
C501	C50	0.397400	0.874300	0.685200
C511	C51	0.427100	0.116100	0.997600
C521	C52	0.510000	0.100900	0.981000
C531	C53	0.552800	0.143900	0.934900
C541	C54	0.628100	0.126900	0.923300
C551	C55	0.546700	0.039200	0.013500
C561	C56	0.622200	0.025700	0.999500
C571	C57	0.906200	0.200200	0.421900
C581	C58	0.838100	0.189900	0.470100
C591	C59	0.742800	0.193800	0.594400
C601	C60	0.808930	0.151500	0.594920
C611	C61	0.822200	0.104900	0.654000
C621	C62	0.894800	0.078500	0.521800
C631	C63	0.964300	0.059800	0.566800
C641	C64	0.691700	0.191100	0.651500
C651	C65	0.706600	0.146100	0.711100
C661	C66	0.773100	0.102800	0.712180
C671	C67	0.793800	0.052800	0.775800
C681	C68	0.621200	0.237400	0.645200
C691	C69	0.153900	0.174700	0.811100
C701	C70	0.199100	0.175400	0.871800
C711	C71	0.240300	0.112300	0.891300
C721	C72	0.233300	0.051800	0.847500
C731	C73	0.187500	0.053600	0.787800
C741	C74	0.291600	0.113400	0.954800
C751	C75	0.374300	0.102600	0.935200
C761	C76	0.572900	0.883900	0.497600
C771	C77	0.490000	0.899100	0.481000
C781	C78	0.447200	0.856100	0.434900
C791	C79	0.371900	0.873100	0.423300
C801	C80	0.453300	0.960800	0.513500
C811	C81	0.377800	0.974300	0.499500
C821	C82	0.093800	0.799800	0.921900
C831	C83	0.161900	0.810100	0.970100
C841	C84	0.257200	0.806200	0.094400
C851	C85	0.191070	0.848500	0.094920
C861	C86	0.177800	0.895100	0.154000
C871	C87	0.105200	0.921500	0.021800
C881	C88	0.035700	0.940200	0.066800
C891	C89	0.308300	0.808900	0.151500
C901	C90	0.293400	0.853900	0.211100
C911	C91	0.226900	0.897200	0.212180
C921	C92	0.206200	0.947200	0.275800
C931	C93	0.378800	0.762600	0.145200
C941	C94	0.846100	0.825300	0.311100
C951	C95	0.800900	0.824600	0.371800
C961	C96	0.759700	0.887700	0.391300
C971	C97	0.766700	0.948200	0.347500
C981	C98	0.812500	0.946400	0.287800
C991	C99	0.708400	0.886600	0.454800
C1001	C100	0.625700	0.897400	0.435200
C1011	C101	0.883900	0.572900	0.502400
C1021	C102	0.899100	0.490000	0.519000
C1031	C103	0.856100	0.447200	0.565100
C1041	C104	0.873100	0.371900	0.576700
C1051	C105	0.960800	0.453300	0.486500
C1061	C106	0.974300	0.377800	0.500500
C1071	C107	0.799800	0.093800	0.078100
C1081	C108	0.810100	0.161900	0.029900
C1091	C109	0.806200	0.257200	0.905600
C1101	C110	0.848500	0.191070	0.905080
C1111	C111	0.895100	0.177800	0.846000
C1121	C112	0.921500	0.105200	0.978200
C1131	C113	0.940200	0.035700	0.933200
C1141	C114	0.808900	0.308300	0.848500
C1151	C115	0.853900	0.293400	0.788900
C1161	C116	0.897200	0.226900	0.787820
C1171	C117	0.947200	0.206200	0.724200
C1181	C118	0.762600	0.378800	0.854800
C1191	C119	0.825300	0.846100	0.688900
C1201	C120	0.824600	0.800900	0.628200
C1211	C121	0.887700	0.759700	0.608700
C1221	C122	0.948200	0.766700	0.652500
C1231	C123	0.946400	0.812500	0.712200
C1241	C124	0.886600	0.708400	0.545200
C1251	C125	0.897400	0.625700	0.564800
C1261	C126	0.116100	0.427100	0.002400
C1271	C127	0.100900	0.510000	0.019000
C1281	C128	0.143900	0.552800	0.065100
C1291	C129	0.126900	0.628100	0.076700
C1301	C130	0.039200	0.546700	0.986500
C1311	C131	0.025700	0.622200	0.000500
C1321	C132	0.200200	0.906200	0.578100
C1331	C133	0.189900	0.838100	0.529900
C1341	C134	0.193800	0.742800	0.405600
C1351	C135	0.151500	0.808930	0.405080
C1361	C136	0.104900	0.822200	0.346000
C1371	C137	0.078500	0.894800	0.478200
C1381	C138	0.059800	0.964300	0.433200
C1391	C139	0.191100	0.691700	0.348500
C1401	C140	0.146100	0.706600	0.288900
C1411	C141	0.102800	0.773100	0.287820
C1421	C142	0.052800	0.793800	0.224200
C1431	C143	0.237400	0.621200	0.354800
C1441	C144	0.174700	0.153900	0.188900
C1451	C145	0.175400	0.199100	0.128200
C1461	C146	0.112300	0.240300	0.108700
C1471	C147	0.051800	0.233300	0.152500
C1481	C148	0.053600	0.187500	0.212200
C1491	C149	0.113400	0.291600	0.045200
C1501	C150	0.102600	0.374300	0.064800
C1511	C151	0.072900	0.616100	0.752400
C1521	C152	0.990000	0.600900	0.769000
C1531	C153	0.947200	0.643900	0.815100
C1541	C154	0.871900	0.626900	0.826700
C1551	C155	0.953300	0.539200	0.736500
C1561	C156	0.877800	0.525700	0.750500
C1571	C157	0.593800	0.700200	0.328100
C1581	C158	0.661900	0.689900	0.279900
C1591	C159	0.757200	0.693800	0.155600
C1601	C160	0.691070	0.651500	0.155080
C1611	C161	0.677800	0.604900	0.096000
C1621	C162	0.605200	0.578500	0.228200
C1631	C163	0.535700	0.559800	0.183200
C1641	C164	0.808300	0.691100	0.098500
C1651	C165	0.793400	0.646100	0.038900
C1661	C166	0.726900	0.602800	0.037820
C1671	C167	0.706200	0.552800	0.974200
C1681	C168	0.878800	0.737400	0.104800
C1691	C169	0.346100	0.674700	0.938900
C1701	C170	0.300900	0.675400	0.878200
C1711	C171	0.259700	0.612300	0.858700
C1721	C172	0.266700	0.551800	0.902500
C1731	C173	0.312500	0.553600	0.962200
C1741	C174	0.208400	0.613400	0.795200
C1751	C175	0.125700	0.602600	0.814800
C1761	C176	0.927100	0.383900	0.252400
C1771	C177	0.010000	0.399100	0.269000
C1781	C178	0.052800	0.356100	0.315100
C1791	C179	0.128100	0.373100	0.326700
C1801	C180	0.046700	0.460800	0.236500
C1811	C181	0.122200	0.474300	0.250500
C1821	C182	0.406200	0.299800	0.828100
C1831	C183	0.338100	0.310100	0.779900
C1841	C184	0.242800	0.306200	0.655600
C1851	C185	0.308930	0.348500	0.655080
C1861	C186	0.322200	0.395100	0.596000
C1871	C187	0.394800	0.421500	0.728200
C1881	C188	0.464300	0.440200	0.683200
C1891	C189	0.191700	0.308900	0.598500
C1901	C190	0.206600	0.353900	0.538900
C1911	C191	0.273100	0.397200	0.537820
C1921	C192	0.293800	0.447200	0.474200
C1931	C193	0.121200	0.262600	0.604800
C1941	C194	0.653900	0.325300	0.438900
C1951	C195	0.699100	0.324600	0.378200
C1961	C196	0.740300	0.387700	0.358700
C1971	C197	0.733300	0.448200	0.402500
C1981	C198	0.687500	0.446400	0.462200
C1991	C199	0.791600	0.386600	0.295200
C2001	C200	0.874300	0.397400	0.314800
N11	N1	0.569300	0.836700	0.206070
N21	N2	0.613900	0.352400	0.018950
N31	N3	0.654690	0.636590	0.787930
N41	N4	0.430700	0.163300	0.706070
N51	N5	0.386100	0.647600	0.518950
N61	N6	0.345310	0.363410	0.287930
N71	N7	0.663300	0.069300	0.956070
N81	N8	0.147600	0.113900	0.768950
N91	N9	0.863410	0.154690	0.537930
N101	N10	0.336700	0.930700	0.456070
N111	N11	0.852400	0.886100	0.268950
N121	N12	0.136590	0.845310	0.037930
N131	N13	0.930700	0.336700	0.543930
N141	N14	0.886100	0.852400	0.731050
N151	N15	0.845310	0.136590	0.962070
N161	N16	0.069300	0.663300	0.043930
N171	N17	0.113900	0.147600	0.231050
N181	N18	0.154690	0.863410	0.462070
N191	N19	0.836700	0.569300	0.793930
N201	N20	0.352400	0.613900	0.981050
N211	N21	0.636590	0.654690	0.212070
N221	N22	0.163300	0.430700	0.293930
N231	N23	0.647600	0.386100	0.481050
N241	N24	0.363410	0.345310	0.712070
O11	O1	0.698500	0.601800	0.606710
O21	O2	0.710520	0.529650	0.703100
O31	O3	0.493430	0.523430	0.831250
O41	O4	0.616110	0.494580	0.836300
O51	O5	0.737800	0.924830	0.946180
O61	O6	0.772630	0.887690	0.837540
O71	O7	0.509100	0.651160	0.015230
O81	O8	0.596300	0.327400	0.857600
O91	O9	0.502010	0.436570	0.938800
O101	O10	0.560590	0.743500	0.082340
O111	O11	0.301500	0.398200	0.106710
O121	O12	0.289480	0.470350	0.203100
O131	O13	0.506570	0.476570	0.331250
O141	O14	0.383890	0.505420	0.336300
O151	O15	0.262200	0.075170	0.446180
O161	O16	0.227370	0.112310	0.337540
O171	O17	0.490900	0.348840	0.515230
O181	O18	0.403700	0.672600	0.357600
O191	O19	0.497990	0.563430	0.438800
O201	O20	0.439410	0.256500	0.582340
O211	O21	0.898200	0.198500	0.356710
O221	O22	0.970350	0.210520	0.453100
O231	O23	0.976570	0.993430	0.581250
O241	O24	0.005420	0.116110	0.586300
O251	O25	0.575170	0.237800	0.696180
O261	O26	0.612310	0.272630	0.587540
O271	O27	0.848840	0.009100	0.765230
O281	O28	0.172600	0.096300	0.607600
O291	O29	0.063430	0.002010	0.688800
O301	O30	0.756500	0.060590	0.832340
O311	O31	0.101800	0.801500	0.856710
O321	O32	0.029650	0.789480	0.953100
O331	O33	0.023430	0.006570	0.081250
O341	O34	0.994580	0.883890	0.086300
O351	O35	0.424830	0.762200	0.196180
O361	O36	0.387690	0.727370	0.087540
O371	O37	0.151160	0.990900	0.265230
O381	O38	0.827400	0.903700	0.107600
O391	O39	0.936570	0.997990	0.188800
O401	O40	0.243500	0.939410	0.332340
O411	O41	0.801500	0.101800	0.143290
O421	O42	0.789480	0.029650	0.046900
O431	O43	0.006570	0.023430	0.918750
O441	O44	0.883890	0.994580	0.913700
O451	O45	0.762200	0.424830	0.803820
O461	O46	0.727370	0.387690	0.912460
O471	O47	0.990900	0.151160	0.734770
O481	O48	0.903700	0.827400	0.892400
O491	O49	0.997990	0.936570	0.811200
O501	O50	0.939410	0.243500	0.667660
O511	O51	0.198500	0.898200	0.643290
O521	O52	0.210520	0.970350	0.546900
O531	O53	0.993430	0.976570	0.418750
O541	O54	0.116110	0.005420	0.413700
O551	O55	0.237800	0.575170	0.303820
O561	O56	0.272630	0.612310	0.412460
O571	O57	0.009100	0.848840	0.234770
O581	O58	0.096300	0.172600	0.392400
O591	O59	0.002010	0.063430	0.311200
O601	O60	0.060590	0.756500	0.167660
O611	O61	0.601800	0.698500	0.393290
O621	O62	0.529650	0.710520	0.296900
O631	O63	0.523430	0.493430	0.168750
O641	O64	0.494580	0.616110	0.163700
O651	O65	0.924830	0.737800	0.053820
O661	O66	0.887690	0.772630	0.162460
O671	O67	0.651160	0.509100	0.984770
O681	O68	0.327400	0.596300	0.142400
O691	O69	0.436570	0.502010	0.061200
O701	O70	0.743500	0.560590	0.917660
O711	O71	0.398200	0.301500	0.893290
O721	O72	0.470350	0.289480	0.796900
O731	O73	0.476570	0.506570	0.668750
O741	O74	0.505420	0.383890	0.663700
O751	O75	0.075170	0.262200	0.553820
O761	O76	0.112310	0.227370	0.662460
O771	O77	0.348840	0.490900	0.484770
O781	O78	0.672600	0.403700	0.642400
O791	O79	0.563430	0.497990	0.561200
O801	O80	0.256500	0.439410	0.417660
