data_OWAVOY_freeONLY_PM
_symmetry_space_group_name_H-M	'P1'
_cell_length_a	14.639000
_cell_length_b	19.379000
_cell_length_c	19.484000
_cell_angle_alpha	116.046000
_cell_angle_beta	90.000000
_cell_angle_gamma	90.000000
_symmetry_Int_Tables_number 1

loop_
_symmetry_equiv_pos_as_xyz
'x,y,z'

loop_
_atom_site_label
_atom_site_type_symbol
_atom_site_fract_x
_atom_site_fract_y
_atom_site_fract_z
Zn11	Zn1	0.231920	0.414060	0.751430
Zn21	Zn2	0.570770	0.510840	0.634250
Zn31	Zn3	0.637290	0.474380	0.781020
Zn41	Zn4	0.086950	0.967830	0.188550
Zn51	Zn5	0.201700	0.134560	0.820080
Zn61	Zn6	0.264200	0.068990	0.641120
Zn71	Zn7	0.731920	0.585940	0.248570
Zn81	Zn8	0.070770	0.489160	0.365750
Zn91	Zn9	0.137290	0.525620	0.218980
Zn101	Zn10	0.586950	0.032170	0.811450
Zn111	Zn11	0.701700	0.865440	0.179920
Zn121	Zn12	0.764200	0.931010	0.358880
H11	H1	0.615400	0.923900	0.964100
H21	H2	0.654800	0.709100	0.937200
H31	H3	0.387400	0.443100	0.865000
H41	H4	0.492600	0.426500	0.854900
H51	H5	0.422600	0.359900	0.812800
H61	H6	0.275300	0.466500	0.631900
H71	H7	0.333200	0.404000	0.566300
H81	H8	0.359100	0.491000	0.597500
H91	H9	0.911200	0.944000	0.078900
H101	H10	0.827000	0.891700	0.073000
H111	H11	0.926500	0.859700	0.067800
H121	H12	0.031700	0.996800	0.362400
H131	H13	0.940500	0.030000	0.407000
H141	H14	0.993800	0.075500	0.370100
H151	H15	0.139700	0.370700	0.882300
H161	H16	0.242400	0.369500	0.904500
H171	H17	0.173400	0.310000	0.909600
H181	H18	0.346400	0.229500	0.606000
H191	H19	0.270100	0.289900	0.615500
H201	H20	0.248200	0.201800	0.573500
H211	H21	0.894000	0.420200	0.704300
H221	H22	0.085100	0.424700	0.558000
H231	H23	0.820500	0.437200	0.513600
H241	H24	0.201700	0.534400	0.001600
H251	H25	0.166900	0.703800	0.936200
H261	H26	0.146500	0.745500	0.156200
H271	H27	0.592300	0.746100	0.758000
H281	H28	0.427800	0.949100	0.229300
H291	H29	0.506500	0.004400	0.442200
H301	H30	0.246700	0.018800	0.396800
H311	H31	0.115400	0.076100	0.035900
H321	H32	0.154800	0.290900	0.062800
H331	H33	0.887400	0.556900	0.135000
H341	H34	0.992600	0.573500	0.145100
H351	H35	0.922600	0.640100	0.187200
H361	H36	0.775300	0.533500	0.368100
H371	H37	0.833200	0.596000	0.433700
H381	H38	0.859100	0.509000	0.402500
H391	H39	0.411200	0.056000	0.921100
H401	H40	0.327000	0.108300	0.927000
H411	H41	0.426500	0.140300	0.932200
H421	H42	0.531700	0.003200	0.637600
H431	H43	0.440500	0.970000	0.593000
H441	H44	0.493800	0.924500	0.629900
H451	H45	0.639700	0.629300	0.117700
H461	H46	0.742400	0.630500	0.095500
H471	H47	0.673400	0.690000	0.090400
H481	H48	0.846400	0.770500	0.394000
H491	H49	0.770100	0.710100	0.384500
H501	H50	0.748200	0.798200	0.426500
H511	H51	0.394000	0.579800	0.295700
H521	H52	0.585100	0.575300	0.442000
H531	H53	0.320500	0.562800	0.486400
H541	H54	0.701700	0.465600	0.998400
H551	H55	0.666900	0.296200	0.063800
H561	H56	0.646500	0.254500	0.843800
H571	H57	0.092300	0.253900	0.242000
H581	H58	0.927800	0.050900	0.770700
H591	H59	0.006500	0.995600	0.557800
H601	H60	0.746700	0.981200	0.603200
C11	C1	0.583200	0.899000	0.819800
C21	C2	0.600600	0.841700	0.856000
C31	C3	0.617400	0.871400	0.932600
C41	C4	0.637100	0.819300	0.959900
C51	C5	0.640600	0.742200	0.915700
C61	C6	0.623400	0.714300	0.840400
C71	C7	0.623100	0.631500	0.791900
C81	C8	0.924400	0.984200	0.292100
C91	C9	0.889900	0.933200	0.178600
C101	C10	0.434300	0.413700	0.829900
C111	C11	0.434700	0.430700	0.766500
C121	C12	0.395400	0.445700	0.667900
C131	C13	0.335600	0.452000	0.611000
C141	C14	0.888500	0.904400	0.091400
C151	C15	0.977300	0.025300	0.364300
C161	C16	0.189700	0.338400	0.881500
C171	C17	0.211400	0.282900	0.799800
C181	C18	0.254900	0.241700	0.687900
C191	C19	0.282300	0.240600	0.614300
C201	C20	0.749100	0.442900	0.644500
C211	C21	0.842100	0.430000	0.614100
C221	C22	0.909600	0.421800	0.658800
C231	C23	0.999400	0.416000	0.637500
C241	C24	0.074300	0.412200	0.691300
C251	C25	0.024100	0.423300	0.570800
C261	C26	0.953100	0.428400	0.524400
C271	C27	0.979200	0.435200	0.451800
C281	C28	0.865900	0.432600	0.544800
C291	C29	0.159900	0.608000	0.147100
C301	C30	0.167700	0.634500	0.085500
C311	C31	0.186300	0.584700	0.012400
C321	C32	0.183500	0.606400	0.950100
C331	C33	0.202400	0.552400	0.872300
C341	C34	0.167100	0.685800	0.973300
C351	C35	0.152000	0.736200	0.046100
C361	C36	0.154200	0.710600	0.105300
C371	C37	0.132300	0.819300	0.070700
C381	C38	0.658800	0.852600	0.046700
C391	C39	0.603600	0.764700	0.810000
C401	C40	0.253800	0.973600	0.250400
C411	C41	0.324600	0.983800	0.303500
C421	C42	0.413500	0.966500	0.280700
C431	C43	0.483500	0.974200	0.332400
C441	C44	0.579000	0.950200	0.304800
C451	C45	0.460900	0.999200	0.407100
C461	C46	0.373500	0.017000	0.431700
C471	C47	0.354600	0.042700	0.514100
C481	C48	0.306800	0.008100	0.379900
C491	C49	0.083200	0.101000	0.180200
C501	C50	0.100600	0.158300	0.144000
C511	C51	0.117400	0.128600	0.067400
C521	C52	0.137100	0.180700	0.040100
C531	C53	0.140600	0.257800	0.084300
C541	C54	0.123400	0.285700	0.159600
C551	C55	0.123100	0.368500	0.208100
C561	C56	0.424400	0.015800	0.707900
C571	C57	0.389900	0.066800	0.821400
C581	C58	0.934300	0.586300	0.170100
C591	C59	0.934700	0.569300	0.233500
C601	C60	0.895400	0.554300	0.332100
C611	C61	0.835600	0.548000	0.389000
C621	C62	0.388500	0.095600	0.908600
C631	C63	0.477300	0.974700	0.635700
C641	C64	0.689700	0.661600	0.118500
C651	C65	0.711400	0.717100	0.200200
C661	C66	0.754900	0.758300	0.312100
C671	C67	0.782300	0.759400	0.385700
C681	C68	0.249100	0.557100	0.355500
C691	C69	0.342100	0.570000	0.385900
C701	C70	0.409600	0.578200	0.341200
C711	C71	0.499400	0.584000	0.362500
C721	C72	0.574300	0.587800	0.308700
C731	C73	0.524100	0.576700	0.429200
C741	C74	0.453100	0.571600	0.475600
C751	C75	0.479200	0.564800	0.548200
C761	C76	0.365900	0.567400	0.455200
C771	C77	0.659900	0.392000	0.852900
C781	C78	0.667700	0.365500	0.914500
C791	C79	0.686300	0.415300	0.987600
C801	C80	0.683500	0.393600	0.049900
C811	C81	0.702400	0.447600	0.127700
C821	C82	0.667100	0.314200	0.026700
C831	C83	0.652000	0.263800	0.953900
C841	C84	0.654200	0.289400	0.894700
C851	C85	0.632300	0.180700	0.929300
C861	C86	0.158800	0.147400	0.953300
C871	C87	0.103600	0.235300	0.190000
C881	C88	0.753800	0.026400	0.749600
C891	C89	0.824600	0.016200	0.696500
C901	C90	0.913500	0.033500	0.719300
C911	C91	0.983500	0.025800	0.667600
C921	C92	0.079000	0.049800	0.695200
C931	C93	0.960900	0.000800	0.592900
C941	C94	0.873500	0.983000	0.568300
C951	C95	0.854600	0.957300	0.485900
C961	C96	0.806800	0.991900	0.620100
N11	N1	0.954500	0.971300	0.225900
N21	N2	0.813800	0.926800	0.216400
N31	N3	0.839300	0.957400	0.290600
N41	N4	0.484100	0.462600	0.678800
N51	N5	0.509500	0.455500	0.741900
N61	N6	0.363900	0.428300	0.722500
N71	N7	0.220200	0.209200	0.773600
N81	N8	0.246500	0.182700	0.701500
N91	N9	0.231700	0.307500	0.747800
N101	N10	0.454500	0.028700	0.774100
N111	N11	0.313800	0.073200	0.783600
N121	N12	0.339300	0.042600	0.709400
N131	N13	0.984100	0.537400	0.321200
N141	N14	0.009500	0.544500	0.258100
N151	N15	0.863900	0.571700	0.277500
N161	N16	0.720200	0.790800	0.226400
N171	N17	0.746500	0.817300	0.298500
N181	N18	0.731700	0.692500	0.252200
O11	O1	0.596400	0.967100	0.864200
O21	O2	0.603800	0.608100	0.718800
O31	O3	0.732700	0.439700	0.704700
O41	O4	0.687700	0.455200	0.603200
O51	O5	0.050100	0.408600	0.748600
O61	O6	0.154800	0.411800	0.667400
O71	O7	0.930300	0.403600	0.395900
O81	O8	0.047200	0.474700	0.455900
O91	O9	0.148600	0.652000	0.212700
O101	O10	0.167500	0.534700	0.124600
O111	O11	0.222300	0.486600	0.859400
O121	O12	0.194300	0.574500	0.823000
O131	O13	0.092500	0.855600	0.131500
O141	O14	0.149100	0.842900	0.020600
O151	O15	0.562800	0.872300	0.753500
O161	O16	0.639400	0.587200	0.820100
O171	O17	0.676700	0.803800	0.071900
O181	O18	0.660200	0.921900	0.084300
O191	O19	0.172800	0.985800	0.272600
O201	O20	0.272000	0.953700	0.181100
O211	O21	0.275200	0.031900	0.532300
O221	O22	0.408300	0.078800	0.564000
O231	O23	0.638500	0.966100	0.356500
O241	O24	0.591400	0.919700	0.236700
O251	O25	0.096400	0.032900	0.135800
O261	O26	0.103800	0.391900	0.281200
O271	O27	0.232700	0.560300	0.295300
O281	O28	0.187700	0.544800	0.396800
O291	O29	0.550100	0.591400	0.251400
O301	O30	0.654800	0.588200	0.332600
O311	O31	0.430300	0.596400	0.604100
O321	O32	0.547200	0.525300	0.544100
O331	O33	0.648600	0.348000	0.787300
O341	O34	0.667500	0.465300	0.875400
O351	O35	0.722300	0.513400	0.140600
O361	O36	0.694300	0.425500	0.177000
O371	O37	0.592500	0.144400	0.868500
O381	O38	0.649100	0.157100	0.979400
O391	O39	0.062800	0.127700	0.246500
O401	O40	0.139400	0.412800	0.179900
O411	O41	0.176700	0.196200	0.928100
O421	O42	0.160200	0.078100	0.915700
O431	O43	0.672800	0.014200	0.727400
O441	O44	0.772000	0.046300	0.818900
O451	O45	0.775200	0.968100	0.467700
O461	O46	0.908300	0.921200	0.436000
O471	O47	0.138500	0.033900	0.643500
O481	O48	0.091400	0.080300	0.763300
