data_OWIJOV_freeONLY_PM
_symmetry_space_group_name_H-M	'P1'
_cell_length_a	15.497900
_cell_length_b	15.497900
_cell_length_c	12.305200
_cell_angle_alpha	90.000000
_cell_angle_beta	90.000000
_cell_angle_gamma	90.000000
_symmetry_Int_Tables_number 1

loop_
_symmetry_equiv_pos_as_xyz
'x,y,z'

loop_
_atom_site_label
_atom_site_type_symbol
_atom_site_fract_x
_atom_site_fract_y
_atom_site_fract_z
O11	O1	0.608200	0.377300	0.616700
O21	O2	0.591800	0.292400	0.755300
C11	C1	0.582800	0.362600	0.709800
C21	C2	0.540000	0.431490	0.768700
C31	C3	0.540000	0.431490	0.884100
H11	H1	0.568100	0.383300	0.924600
O31	O3	0.108200	0.877300	0.116700
O41	O4	0.091800	0.792400	0.255300
C41	C4	0.082800	0.862600	0.209800
C51	C5	0.040000	0.931490	0.268700
C61	C6	0.040000	0.931490	0.384100
H21	H2	0.068100	0.883300	0.424600
O51	O5	0.891800	0.122700	0.116700
O61	O6	0.908200	0.207600	0.255300
C71	C7	0.917200	0.137400	0.209800
C81	C8	0.960000	0.068510	0.268700
C91	C9	0.960000	0.068510	0.384100
H31	H3	0.931900	0.116700	0.424600
O71	O7	0.391800	0.622700	0.616700
O81	O8	0.408200	0.707600	0.755300
C101	C10	0.417200	0.637400	0.709800
C111	C11	0.460000	0.568510	0.768700
C121	C12	0.460000	0.568510	0.884100
H41	H4	0.431900	0.616700	0.924600
O91	O9	0.622700	0.108200	0.866700
O101	O10	0.707600	0.091800	0.005300
C131	C13	0.637400	0.082800	0.959800
C141	C14	0.568510	0.040000	0.018700
C151	C15	0.568510	0.040000	0.134100
H51	H5	0.616700	0.068100	0.174600
O111	O11	0.122700	0.608200	0.366700
O121	O12	0.207600	0.591800	0.505300
C161	C16	0.137400	0.582800	0.459800
C171	C17	0.068510	0.540000	0.518700
C181	C18	0.068510	0.540000	0.634100
H61	H6	0.116700	0.568100	0.674600
O131	O13	0.877300	0.391800	0.366700
O141	O14	0.792400	0.408200	0.505300
C191	C19	0.862600	0.417200	0.459800
C201	C20	0.931490	0.460000	0.518700
C211	C21	0.931490	0.460000	0.634100
H71	H7	0.883300	0.431900	0.674600
O151	O15	0.377300	0.891800	0.866700
O161	O16	0.292400	0.908200	0.005300
C221	C22	0.362600	0.917200	0.959800
C231	C23	0.431490	0.960000	0.018700
C241	C24	0.431490	0.960000	0.134100
H81	H8	0.383300	0.931900	0.174600
O171	O17	0.891800	0.377300	0.133300
O181	O18	0.908200	0.292400	0.994700
C251	C25	0.917200	0.362600	0.040200
C261	C26	0.960000	0.431490	0.981300
C271	C27	0.960000	0.431490	0.865900
H91	H9	0.931900	0.383300	0.825400
O191	O19	0.391800	0.877300	0.633300
O201	O20	0.408200	0.792400	0.494700
C281	C28	0.417200	0.862600	0.540200
C291	C29	0.460000	0.931490	0.481300
C301	C30	0.460000	0.931490	0.365900
H101	H10	0.431900	0.883300	0.325400
O211	O21	0.608200	0.122700	0.633300
O221	O22	0.591800	0.207600	0.494700
C311	C31	0.582800	0.137400	0.540200
C321	C32	0.540000	0.068510	0.481300
C331	C33	0.540000	0.068510	0.365900
H111	H11	0.568100	0.116700	0.325400
O231	O23	0.108200	0.622700	0.133300
O241	O24	0.091800	0.707600	0.994700
C341	C34	0.082800	0.637400	0.040200
C351	C35	0.040000	0.568510	0.981300
C361	C36	0.040000	0.568510	0.865900
H121	H12	0.068100	0.616700	0.825400
O251	O25	0.877300	0.108200	0.883300
O261	O26	0.792400	0.091800	0.744700
C371	C37	0.862600	0.082800	0.790200
C381	C38	0.931490	0.040000	0.731300
C391	C39	0.931490	0.040000	0.615900
H131	H13	0.883300	0.068100	0.575400
O271	O27	0.377300	0.608200	0.383300
O281	O28	0.292400	0.591800	0.244700
C401	C40	0.362600	0.582800	0.290200
C411	C41	0.431490	0.540000	0.231300
C421	C42	0.431490	0.540000	0.115900
H141	H14	0.383300	0.568100	0.075400
O291	O29	0.622700	0.391800	0.383300
O301	O30	0.707600	0.408200	0.244700
C431	C43	0.637400	0.417200	0.290200
C441	C44	0.568510	0.460000	0.231300
C451	C45	0.568510	0.460000	0.115900
H151	H15	0.616700	0.431900	0.075400
O311	O31	0.122700	0.891800	0.883300
O321	O32	0.207600	0.908200	0.744700
C461	C46	0.137400	0.917200	0.790200
C471	C47	0.068510	0.960000	0.731300
C481	C48	0.068510	0.960000	0.615900
H161	H16	0.116700	0.931900	0.575400
In11	In1	0.680500	0.319500	0.500000
In21	In2	0.180500	0.819500	0.000000
In31	In3	0.819500	0.180500	0.000000
In41	In4	0.319500	0.680500	0.500000
In51	In5	0.680500	0.180500	0.750000
In61	In6	0.180500	0.680500	0.250000
In71	In7	0.819500	0.319500	0.250000
In81	In8	0.319500	0.819500	0.750000
O331	O33	0.755700	0.250000	0.625000
H171	H17	0.813800	0.250000	0.625000
O341	O34	0.255700	0.750000	0.125000
H181	H18	0.313800	0.750000	0.125000
O351	O35	0.744300	0.250000	0.125000
H191	H19	0.686200	0.250000	0.125000
O361	O36	0.244300	0.750000	0.625000
H201	H20	0.186200	0.750000	0.625000
O371	O37	0.750000	0.255700	0.875000
H211	H21	0.750000	0.313800	0.875000
O381	O38	0.250000	0.755700	0.375000
H221	H22	0.250000	0.813800	0.375000
O391	O39	0.750000	0.244300	0.375000
H231	H23	0.750000	0.186200	0.375000
O401	O40	0.250000	0.744300	0.875000
H241	H24	0.250000	0.686200	0.875000
C491	C49	0.500000	0.500000	0.711000
C501	C50	0.500000	0.500000	0.941800
H251	H25	0.500000	0.500000	0.629900
C511	C51	0.000000	0.000000	0.211000
C521	C52	0.000000	0.000000	0.441800
H261	H26	0.000000	0.000000	0.129900
C531	C53	0.500000	0.000000	0.961000
C541	C54	0.500000	0.000000	0.191800
H271	H27	0.500000	0.000000	0.879900
C551	C55	0.000000	0.500000	0.461000
C561	C56	0.000000	0.500000	0.691800
H281	H28	0.000000	0.500000	0.379900
C571	C57	0.000000	0.500000	0.039000
C581	C58	0.000000	0.500000	0.808200
H291	H29	0.000000	0.500000	0.120100
C591	C59	0.500000	0.000000	0.539000
C601	C60	0.500000	0.000000	0.308200
H301	H30	0.500000	0.000000	0.620100
C611	C61	0.000000	0.000000	0.789000
C621	C62	0.000000	0.000000	0.558200
H311	H31	0.000000	0.000000	0.870100
C631	C63	0.500000	0.500000	0.289000
C641	C64	0.500000	0.500000	0.058200
H321	H32	0.500000	0.500000	0.370100
