data_OWUWOU_freeONLY_PM
_symmetry_space_group_name_H-M	'P1'
_cell_length_a	24.576000
_cell_length_b	12.416000
_cell_length_c	18.094000
_cell_angle_alpha	90.000000
_cell_angle_beta	102.534000
_cell_angle_gamma	90.000000
_symmetry_Int_Tables_number 1

loop_
_symmetry_equiv_pos_as_xyz
'x,y,z'

loop_
_atom_site_label
_atom_site_type_symbol
_atom_site_fract_x
_atom_site_fract_y
_atom_site_fract_z
Fe11	Fe1	0.139490	0.269310	0.078770
Cd11	Cd1	0.630760	0.327100	0.710560
C11	C1	0.833700	0.654000	0.521300
C21	C2	0.825800	0.583000	0.586800
C31	C3	0.775600	0.537600	0.587800
H11	H1	0.744600	0.552400	0.549400
C41	C4	0.770900	0.467700	0.647600
C51	C5	0.816800	0.451200	0.706400
H21	H2	0.814000	0.404900	0.745800
C61	C6	0.867200	0.503300	0.707000
C71	C7	0.871200	0.568000	0.645800
H31	H3	0.904800	0.601600	0.644600
C81	C8	0.718200	0.418400	0.654500
C91	C9	0.916500	0.490400	0.771500
H41	H4	0.948000	0.463400	0.752700
H51	H5	0.926600	0.559800	0.795000
C101	C10	0.946200	0.395100	0.886700
C111	C11	0.931700	0.326300	0.940600
H61	H6	0.895300	0.300800	0.932800
C121	C12	0.969900	0.294700	0.005300
C131	C13	0.025700	0.329400	0.014500
C141	C14	0.039800	0.399700	0.959400
C151	C15	0.000100	0.432700	0.896200
H71	H7	0.009800	0.479300	0.860900
C161	C16	0.952100	0.217600	0.062700
C171	C17	0.888900	0.199000	0.045300
H81	H8	0.879600	0.150900	0.082200
H91	H9	0.877300	0.168000	0.995700
H101	H10	0.870200	0.266500	0.047000
C181	C18	0.980000	0.108300	0.058000
H111	H11	0.969200	0.059200	0.093200
H121	H12	0.019800	0.117100	0.070200
H131	H13	0.968600	0.080200	0.007600
C191	C19	0.968800	0.261900	0.144100
H141	H14	0.957000	0.212500	0.178400
H151	H15	0.951200	0.330400	0.146700
H161	H16	0.008500	0.270300	0.158000
C201	C20	0.095100	0.443100	0.967300
H171	H17	0.099100	0.503900	0.938900
C211	C21	0.191300	0.461600	0.022000
H181	H18	0.186600	0.531200	0.997100
H191	H19	0.218400	0.420300	0.002200
C221	C22	0.210400	0.475400	0.107500
H201	H20	0.249500	0.495200	0.120600
H211	H21	0.188900	0.531600	0.125200
C231	C23	0.234000	0.345700	0.207000
H221	H22	0.261600	0.395100	0.227400
C241	C24	0.231500	0.249600	0.249700
C251	C25	0.192800	0.165900	0.225800
C261	C26	0.195700	0.070500	0.268700
C271	C27	0.236200	0.065600	0.334400
H231	H23	0.238600	0.003400	0.363600
C281	C28	0.273400	0.148100	0.359500
C291	C29	0.271800	0.241400	0.317800
H241	H24	0.296700	0.297400	0.334200
C301	C30	0.154200	0.976600	0.243000
C311	C31	0.159500	0.939900	0.162700
H251	H25	0.134200	0.881600	0.146100
H261	H26	0.197000	0.916400	0.164400
H271	H27	0.150700	0.999100	0.128000
C321	C32	0.096700	0.014700	0.243600
H281	H28	0.070600	0.957300	0.227700
H291	H29	0.087400	0.074600	0.209700
H301	H30	0.095000	0.036700	0.293900
C331	C33	0.167200	0.881100	0.296800
H311	H31	0.141100	0.824100	0.279500
H321	H32	0.164200	0.902900	0.346700
H331	H33	0.204300	0.856200	0.298100
C341	C34	0.342000	0.220600	0.459700
H341	H34	0.317600	0.277200	0.470300
H351	H35	0.363500	0.248300	0.424800
C351	C35	0.380500	0.183100	0.532400
C361	C36	0.365800	0.108800	0.580100
H361	H36	0.330800	0.077000	0.566900
C371	C37	0.401200	0.079200	0.647200
C381	C38	0.451700	0.131100	0.669200
H371	H37	0.475200	0.114200	0.715300
C391	C39	0.467400	0.207300	0.623500
C401	C40	0.432400	0.233300	0.554700
H381	H38	0.443500	0.284300	0.523400
C411	C41	0.385400	0.991900	0.694700
C421	C42	0.523500	0.256800	0.647900
N11	N1	0.138900	0.405300	0.009800
N21	N2	0.201500	0.370800	0.142800
O11	O1	0.716900	0.350100	0.705100
O21	O2	0.793700	0.694800	0.477500
O31	O3	0.882500	0.667300	0.510300
O41	O4	0.904030	0.418500	0.825300
O51	O5	0.063690	0.300100	0.075800
O61	O6	0.153810	0.177600	0.163000
O71	O7	0.310600	0.130400	0.428300
O81	O8	0.351800	0.920300	0.668000
O91	O9	0.551300	0.239100	0.711700
O101	O10	0.669200	0.165400	0.788800
O111	O11	0.538500	0.316100	0.603700
O121	O12	0.677800	0.442600	0.613000
O131	O13	0.407800	0.981700	0.757500
O141	O14	0.659100	0.144700	0.718000
Fe21	Fe2	0.860510	0.769310	0.421230
Cd21	Cd2	0.369240	0.827100	0.789440
C431	C43	0.166300	0.154000	0.978700
C441	C44	0.174200	0.083000	0.913200
C451	C45	0.224400	0.037600	0.912200
H391	H39	0.255400	0.052400	0.950600
C461	C46	0.229100	0.967700	0.852400
C471	C47	0.183200	0.951200	0.793600
H401	H40	0.186000	0.904900	0.754200
C481	C48	0.132800	0.003300	0.793000
C491	C49	0.128800	0.068000	0.854200
H411	H41	0.095200	0.101600	0.855400
C501	C50	0.281800	0.918400	0.845500
C511	C51	0.083500	0.990400	0.728500
H421	H42	0.052000	0.963400	0.747300
H431	H43	0.073400	0.059800	0.705000
C521	C52	0.053800	0.895100	0.613300
C531	C53	0.068300	0.826300	0.559400
H441	H44	0.104700	0.800800	0.567200
C541	C54	0.030100	0.794700	0.494700
C551	C55	0.974300	0.829400	0.485500
C561	C56	0.960200	0.899700	0.540600
C571	C57	0.999900	0.932700	0.603800
H451	H45	0.990200	0.979300	0.639100
C581	C58	0.047900	0.717600	0.437300
C591	C59	0.111100	0.699000	0.454700
H461	H46	0.120400	0.650900	0.417800
H471	H47	0.122700	0.668000	0.504300
H481	H48	0.129800	0.766500	0.453000
C601	C60	0.020000	0.608300	0.442000
H491	H49	0.030800	0.559200	0.406800
H501	H50	0.980200	0.617100	0.429800
H511	H51	0.031400	0.580200	0.492400
C611	C61	0.031200	0.761900	0.355900
H521	H52	0.043000	0.712500	0.321600
H531	H53	0.048800	0.830400	0.353300
H541	H54	0.991500	0.770300	0.342000
C621	C62	0.904900	0.943100	0.532700
H551	H55	0.900900	0.003900	0.561100
C631	C63	0.808700	0.961600	0.478000
H561	H56	0.813400	0.031200	0.502900
H571	H57	0.781600	0.920300	0.497800
C641	C64	0.789600	0.975400	0.392500
H581	H58	0.750500	0.995200	0.379400
H591	H59	0.811100	0.031600	0.374800
C651	C65	0.766000	0.845700	0.293000
H601	H60	0.738400	0.895100	0.272600
C661	C66	0.768500	0.749600	0.250300
C671	C67	0.807200	0.665900	0.274200
C681	C68	0.804300	0.570500	0.231300
C691	C69	0.763800	0.565600	0.165600
H611	H61	0.761400	0.503400	0.136400
C701	C70	0.726600	0.648100	0.140500
C711	C71	0.728200	0.741400	0.182200
H621	H62	0.703300	0.797400	0.165800
C721	C72	0.845800	0.476600	0.257000
C731	C73	0.840500	0.439900	0.337300
H631	H63	0.865800	0.381600	0.353900
H641	H64	0.803000	0.416400	0.335600
H651	H65	0.849300	0.499100	0.372000
C741	C74	0.903300	0.514700	0.256400
H661	H66	0.929400	0.457300	0.272300
H671	H67	0.912600	0.574600	0.290300
H681	H68	0.905000	0.536700	0.206100
C751	C75	0.832800	0.381100	0.203200
H691	H69	0.858900	0.324100	0.220500
H701	H70	0.835800	0.402900	0.153300
H711	H71	0.795700	0.356200	0.201900
C761	C76	0.658000	0.720600	0.040300
H721	H72	0.682400	0.777200	0.029700
H731	H73	0.636500	0.748300	0.075200
C771	C77	0.619500	0.683100	0.967600
C781	C78	0.634200	0.608800	0.919900
H741	H74	0.669200	0.577000	0.933100
C791	C79	0.598800	0.579200	0.852800
C801	C80	0.548300	0.631100	0.830800
H751	H75	0.524800	0.614200	0.784700
C811	C81	0.532600	0.707300	0.876500
C821	C82	0.567600	0.733300	0.945300
H761	H76	0.556500	0.784300	0.976600
C831	C83	0.614600	0.491900	0.805300
C841	C84	0.476500	0.756800	0.852100
N31	N3	0.861100	0.905300	0.490200
N41	N4	0.798500	0.870800	0.357200
O151	O15	0.283100	0.850100	0.794900
O161	O16	0.206300	0.194800	0.022500
O171	O17	0.117500	0.167300	0.989700
O181	O18	0.095970	0.918500	0.674700
O191	O19	0.936310	0.800100	0.424200
O201	O20	0.846190	0.677600	0.337000
O211	O21	0.689400	0.630400	0.071700
O221	O22	0.648200	0.420300	0.832000
O231	O23	0.448700	0.739100	0.788300
O241	O24	0.330800	0.665400	0.711200
O251	O25	0.461500	0.816100	0.896300
O261	O26	0.322200	0.942600	0.887000
O271	O27	0.592200	0.481700	0.742500
O281	O28	0.340900	0.644700	0.782000
Fe31	Fe3	0.860510	0.730690	0.921230
Cd31	Cd3	0.369240	0.672900	0.289440
C851	C85	0.166300	0.346000	0.478700
C861	C86	0.174200	0.417000	0.413200
C871	C87	0.224400	0.462400	0.412200
H771	H77	0.255400	0.447600	0.450600
C881	C88	0.229100	0.532300	0.352400
C891	C89	0.183200	0.548800	0.293600
H781	H78	0.186000	0.595100	0.254200
C901	C90	0.132800	0.496700	0.293000
C911	C91	0.128800	0.432000	0.354200
H791	H79	0.095200	0.398400	0.355400
C921	C92	0.281800	0.581600	0.345500
C931	C93	0.083500	0.509600	0.228500
H801	H80	0.052000	0.536600	0.247300
H811	H81	0.073400	0.440200	0.205000
C941	C94	0.053800	0.604900	0.113300
C951	C95	0.068300	0.673700	0.059400
H821	H82	0.104700	0.699200	0.067200
C961	C96	0.030100	0.705300	0.994700
C971	C97	0.974300	0.670600	0.985500
C981	C98	0.960200	0.600300	0.040600
C991	C99	0.999900	0.567300	0.103800
H831	H83	0.990200	0.520700	0.139100
C1001	C100	0.047900	0.782400	0.937300
C1011	C101	0.111100	0.801000	0.954700
H841	H84	0.120400	0.849100	0.917800
H851	H85	0.122700	0.832000	0.004300
H861	H86	0.129800	0.733500	0.953000
C1021	C102	0.020000	0.891700	0.942000
H871	H87	0.030800	0.940800	0.906800
H881	H88	0.980200	0.882900	0.929800
H891	H89	0.031400	0.919800	0.992400
C1031	C103	0.031200	0.738100	0.855900
H901	H90	0.043000	0.787500	0.821600
H911	H91	0.048800	0.669600	0.853300
H921	H92	0.991500	0.729700	0.842000
C1041	C104	0.904900	0.556900	0.032700
H931	H93	0.900900	0.496100	0.061100
C1051	C105	0.808700	0.538400	0.978000
H941	H94	0.813400	0.468800	0.002900
H951	H95	0.781600	0.579700	0.997800
C1061	C106	0.789600	0.524600	0.892500
H961	H96	0.750500	0.504800	0.879400
H971	H97	0.811100	0.468400	0.874800
C1071	C107	0.766000	0.654300	0.793000
H981	H98	0.738400	0.604900	0.772600
C1081	C108	0.768500	0.750400	0.750300
C1091	C109	0.807200	0.834100	0.774200
C1101	C110	0.804300	0.929500	0.731300
C1111	C111	0.763800	0.934400	0.665600
H991	H99	0.761400	0.996600	0.636400
C1121	C112	0.726600	0.851900	0.640500
C1131	C113	0.728200	0.758600	0.682200
H1001	H100	0.703300	0.702600	0.665800
C1141	C114	0.845800	0.023400	0.757000
C1151	C115	0.840500	0.060100	0.837300
H1011	H101	0.865800	0.118400	0.853900
H1021	H102	0.803000	0.083600	0.835600
H1031	H103	0.849300	0.000900	0.872000
C1161	C116	0.903300	0.985300	0.756400
H1041	H104	0.929400	0.042700	0.772300
H1051	H105	0.912600	0.925400	0.790300
H1061	H106	0.905000	0.963300	0.706100
C1171	C117	0.832800	0.118900	0.703200
H1071	H107	0.858900	0.175900	0.720500
H1081	H108	0.835800	0.097100	0.653300
H1091	H109	0.795700	0.143800	0.701900
C1181	C118	0.658000	0.779400	0.540300
H1101	H110	0.682400	0.722800	0.529700
H1111	H111	0.636500	0.751700	0.575200
C1191	C119	0.619500	0.816900	0.467600
C1201	C120	0.634200	0.891200	0.419900
H1121	H112	0.669200	0.923000	0.433100
C1211	C121	0.598800	0.920800	0.352800
C1221	C122	0.548300	0.868900	0.330800
H1131	H113	0.524800	0.885800	0.284700
C1231	C123	0.532600	0.792700	0.376500
C1241	C124	0.567600	0.766700	0.445300
H1141	H114	0.556500	0.715700	0.476600
C1251	C125	0.614600	0.008100	0.305300
C1261	C126	0.476500	0.743200	0.352100
N51	N5	0.861100	0.594700	0.990200
N61	N6	0.798500	0.629200	0.857200
O291	O29	0.283100	0.649900	0.294900
O301	O30	0.206300	0.305200	0.522500
O311	O31	0.117500	0.332700	0.489700
O321	O32	0.095970	0.581500	0.174700
O331	O33	0.936310	0.699900	0.924200
O341	O34	0.846190	0.822400	0.837000
O351	O35	0.689400	0.869600	0.571700
O361	O36	0.648200	0.079700	0.332000
O371	O37	0.448700	0.760900	0.288300
O381	O38	0.330800	0.834600	0.211200
O391	O39	0.461500	0.683900	0.396300
O401	O40	0.322200	0.557400	0.387000
O411	O41	0.592200	0.018300	0.242500
O421	O42	0.340900	0.855300	0.282000
Fe41	Fe4	0.139490	0.230690	0.578770
Cd41	Cd4	0.630760	0.172900	0.210560
C1271	C127	0.833700	0.846000	0.021300
C1281	C128	0.825800	0.917000	0.086800
C1291	C129	0.775600	0.962400	0.087800
H1151	H115	0.744600	0.947600	0.049400
C1301	C130	0.770900	0.032300	0.147600
C1311	C131	0.816800	0.048800	0.206400
H1161	H116	0.814000	0.095100	0.245800
C1321	C132	0.867200	0.996700	0.207000
C1331	C133	0.871200	0.932000	0.145800
H1171	H117	0.904800	0.898400	0.144600
C1341	C134	0.718200	0.081600	0.154500
C1351	C135	0.916500	0.009600	0.271500
H1181	H118	0.948000	0.036600	0.252700
H1191	H119	0.926600	0.940200	0.295000
C1361	C136	0.946200	0.104900	0.386700
C1371	C137	0.931700	0.173700	0.440600
H1201	H120	0.895300	0.199200	0.432800
C1381	C138	0.969900	0.205300	0.505300
C1391	C139	0.025700	0.170600	0.514500
C1401	C140	0.039800	0.100300	0.459400
C1411	C141	0.000100	0.067300	0.396200
H1211	H121	0.009800	0.020700	0.360900
C1421	C142	0.952100	0.282400	0.562700
C1431	C143	0.888900	0.301000	0.545300
H1221	H122	0.879600	0.349100	0.582200
H1231	H123	0.877300	0.332000	0.495700
H1241	H124	0.870200	0.233500	0.547000
C1441	C144	0.980000	0.391700	0.558000
H1251	H125	0.969200	0.440800	0.593200
H1261	H126	0.019800	0.382900	0.570200
H1271	H127	0.968600	0.419800	0.507600
C1451	C145	0.968800	0.238100	0.644100
H1281	H128	0.957000	0.287500	0.678400
H1291	H129	0.951200	0.169600	0.646700
H1301	H130	0.008500	0.229700	0.658000
C1461	C146	0.095100	0.056900	0.467300
H1311	H131	0.099100	0.996100	0.438900
C1471	C147	0.191300	0.038400	0.522000
H1321	H132	0.186600	0.968800	0.497100
H1331	H133	0.218400	0.079700	0.502200
C1481	C148	0.210400	0.024600	0.607500
H1341	H134	0.249500	0.004800	0.620600
H1351	H135	0.188900	0.968400	0.625200
C1491	C149	0.234000	0.154300	0.707000
H1361	H136	0.261600	0.104900	0.727400
C1501	C150	0.231500	0.250400	0.749700
C1511	C151	0.192800	0.334100	0.725800
C1521	C152	0.195700	0.429500	0.768700
C1531	C153	0.236200	0.434400	0.834400
H1371	H137	0.238600	0.496600	0.863600
C1541	C154	0.273400	0.351900	0.859500
C1551	C155	0.271800	0.258600	0.817800
H1381	H138	0.296700	0.202600	0.834200
C1561	C156	0.154200	0.523400	0.743000
C1571	C157	0.159500	0.560100	0.662700
H1391	H139	0.134200	0.618400	0.646100
H1401	H140	0.197000	0.583600	0.664400
H1411	H141	0.150700	0.500900	0.628000
C1581	C158	0.096700	0.485300	0.743600
H1421	H142	0.070600	0.542700	0.727700
H1431	H143	0.087400	0.425400	0.709700
H1441	H144	0.095000	0.463300	0.793900
C1591	C159	0.167200	0.618900	0.796800
H1451	H145	0.141100	0.675900	0.779500
H1461	H146	0.164200	0.597100	0.846700
H1471	H147	0.204300	0.643800	0.798100
C1601	C160	0.342000	0.279400	0.959700
H1481	H148	0.317600	0.222800	0.970300
H1491	H149	0.363500	0.251700	0.924800
C1611	C161	0.380500	0.316900	0.032400
C1621	C162	0.365800	0.391200	0.080100
H1501	H150	0.330800	0.423000	0.066900
C1631	C163	0.401200	0.420800	0.147200
C1641	C164	0.451700	0.368900	0.169200
H1511	H151	0.475200	0.385800	0.215300
C1651	C165	0.467400	0.292700	0.123500
C1661	C166	0.432400	0.266700	0.054700
H1521	H152	0.443500	0.215700	0.023400
C1671	C167	0.385400	0.508100	0.194700
C1681	C168	0.523500	0.243200	0.147900
N71	N7	0.138900	0.094700	0.509800
N81	N8	0.201500	0.129200	0.642800
O431	O43	0.716900	0.149900	0.205100
O441	O44	0.793700	0.805200	0.977500
O451	O45	0.882500	0.832700	0.010300
O461	O46	0.904030	0.081500	0.325300
O471	O47	0.063690	0.199900	0.575800
O481	O48	0.153810	0.322400	0.663000
O491	O49	0.310600	0.369600	0.928300
O501	O50	0.351800	0.579700	0.168000
O511	O51	0.551300	0.260900	0.211700
O521	O52	0.669200	0.334600	0.288800
O531	O53	0.538500	0.183900	0.103700
O541	O54	0.677800	0.057400	0.113000
O551	O55	0.407800	0.518300	0.257500
O561	O56	0.659100	0.355300	0.218000
