data_OYEBIE_freeONLY_PM
_symmetry_space_group_name_H-M	'P1'
_cell_length_a	9.479170
_cell_length_b	11.365800
_cell_length_c	22.126500
_cell_angle_alpha	102.434000
_cell_angle_beta	90.000000
_cell_angle_gamma	114.646000
_symmetry_Int_Tables_number 1

loop_
_symmetry_equiv_pos_as_xyz
'x,y,z'

loop_
_atom_site_label
_atom_site_type_symbol
_atom_site_fract_x
_atom_site_fract_y
_atom_site_fract_z
Zn11	Zn1	0.078940	0.666500	0.620110
Zn21	Zn2	0.412440	0.333500	0.879890
Zn31	Zn3	0.921060	0.333500	0.379890
Zn41	Zn4	0.587560	0.666500	0.120110
H11	H1	0.963400	0.395000	0.545900
H21	H2	0.017500	0.214800	0.524200
H31	H3	0.387500	0.411600	0.648000
H41	H4	0.325000	0.588000	0.666500
H51	H5	0.215000	0.125200	0.527900
H61	H6	0.353500	0.198000	0.580800
H71	H7	0.166500	0.989200	0.594600
H81	H8	0.044800	0.050400	0.604800
H91	H9	0.140500	0.266000	0.800700
H101	H10	0.039200	0.171000	0.701400
H111	H11	0.408400	0.097400	0.670500
H121	H12	0.500400	0.192600	0.770500
H131	H13	0.587100	0.723800	0.544700
H141	H14	0.645600	0.388000	0.516700
H151	H15	0.602600	0.038600	0.598200
H161	H16	0.262200	0.823000	0.463400
H171	H17	0.568400	0.605000	0.954100
H181	H18	0.802700	0.785200	0.975800
H191	H19	0.975900	0.588400	0.852000
H201	H20	0.737000	0.412000	0.833500
H211	H21	0.089800	0.874800	0.972100
H221	H22	0.155500	0.802000	0.919200
H231	H23	0.177300	0.010800	0.905400
H241	H24	0.994400	0.949600	0.895200
H251	H25	0.874500	0.734000	0.699300
H261	H26	0.868200	0.829000	0.798600
H271	H27	0.311000	0.902600	0.829500
H281	H28	0.307800	0.807400	0.729500
H291	H29	0.863300	0.276200	0.955300
H301	H30	0.257600	0.612000	0.983300
H311	H31	0.564000	0.961400	0.901800
H321	H32	0.439200	0.177000	0.036600
H331	H33	0.036600	0.605000	0.454100
H341	H34	0.982500	0.785200	0.475800
H351	H35	0.612500	0.588400	0.352000
H361	H36	0.675000	0.412000	0.333500
H371	H37	0.785000	0.874800	0.472100
H381	H38	0.646500	0.802000	0.419200
H391	H39	0.833500	0.010800	0.405400
H401	H40	0.955200	0.949600	0.395200
H411	H41	0.859500	0.734000	0.199300
H421	H42	0.960800	0.829000	0.298600
H431	H43	0.591600	0.902600	0.329500
H441	H44	0.499600	0.807400	0.229500
H451	H45	0.412900	0.276200	0.455300
H461	H46	0.354400	0.612000	0.483300
H471	H47	0.397400	0.961400	0.401800
H481	H48	0.737800	0.177000	0.536600
H491	H49	0.431600	0.395000	0.045900
H501	H50	0.197300	0.214800	0.024200
H511	H51	0.024100	0.411600	0.148000
H521	H52	0.263000	0.588000	0.166500
H531	H53	0.910200	0.125200	0.027900
H541	H54	0.844500	0.198000	0.080800
H551	H55	0.822700	0.989200	0.094600
H561	H56	0.005600	0.050400	0.104800
H571	H57	0.125500	0.266000	0.300700
H581	H58	0.131800	0.171000	0.201400
H591	H59	0.689000	0.097400	0.170500
H601	H60	0.692200	0.192600	0.270500
H611	H61	0.136700	0.723800	0.044700
H621	H62	0.742400	0.388000	0.016700
H631	H63	0.436000	0.038600	0.098200
H641	H64	0.560800	0.823000	0.963400
C11	C1	0.050210	0.399020	0.567380
C21	C2	0.082290	0.289980	0.554210
C31	C3	0.207990	0.289580	0.584370
C41	C4	0.299010	0.404820	0.626530
C51	C5	0.260420	0.510840	0.637470
C61	C6	0.242320	0.169240	0.571700
C71	C7	0.154920	0.071040	0.609580
C81	C8	0.195120	0.230840	0.773240
C91	C9	0.134660	0.175320	0.714630
C101	C10	0.213730	0.125460	0.674570
C111	C11	0.351940	0.132480	0.696990
C121	C12	0.406000	0.188600	0.756040
C131	C13	0.551560	0.633320	0.526560
C141	C14	0.639720	0.567040	0.536920
C151	C15	0.586960	0.433120	0.509980
C161	C16	0.791740	0.641280	0.575960
C171	C17	0.560680	0.023160	0.557700
C181	C18	0.418170	0.917340	0.536470
C191	C19	0.358180	0.894360	0.478690
C201	C20	0.326580	0.830760	0.576370
C211	C21	0.651190	0.600980	0.932620
C221	C22	0.792310	0.710020	0.945790
C231	C23	0.918410	0.710420	0.915630
C241	C24	0.894190	0.595180	0.873470
C251	C25	0.749580	0.489160	0.862530
C261	C26	0.073080	0.830760	0.928300
C271	C27	0.083880	0.928960	0.890420
C281	C28	0.964280	0.769160	0.726760
C291	C29	0.959340	0.824680	0.785370
C301	C30	0.088270	0.874540	0.825430
C311	C31	0.219460	0.867520	0.803010
C321	C32	0.217400	0.811400	0.743960
C331	C33	0.918240	0.366680	0.973440
C341	C34	0.072680	0.432960	0.963080
C351	C35	0.153840	0.566880	0.990020
C361	C36	0.150460	0.358720	0.924040
C371	C37	0.537520	0.976840	0.942300
C381	C38	0.500830	0.082660	0.963530
C391	C39	0.463820	0.105640	0.021310
C401	C40	0.495820	0.169240	0.923630
C411	C41	0.949790	0.600980	0.432620
C421	C42	0.917710	0.710020	0.445790
C431	C43	0.792010	0.710420	0.415630
C441	C44	0.700990	0.595180	0.373470
C451	C45	0.739580	0.489160	0.362530
C461	C46	0.757680	0.830760	0.428300
C471	C47	0.845080	0.928960	0.390420
C481	C48	0.804880	0.769160	0.226760
C491	C49	0.865340	0.824680	0.285370
C501	C50	0.786270	0.874540	0.325430
C511	C51	0.648060	0.867520	0.303010
C521	C52	0.594000	0.811400	0.243960
C531	C53	0.448440	0.366680	0.473440
C541	C54	0.360280	0.432960	0.463080
C551	C55	0.413040	0.566880	0.490020
C561	C56	0.208260	0.358720	0.424040
C571	C57	0.439320	0.976840	0.442300
C581	C58	0.581830	0.082660	0.463530
C591	C59	0.641820	0.105640	0.521310
C601	C60	0.673420	0.169240	0.423630
C611	C61	0.348810	0.399020	0.067380
C621	C62	0.207690	0.289980	0.054210
C631	C63	0.081590	0.289580	0.084370
C641	C64	0.105810	0.404820	0.126530
C651	C65	0.250420	0.510840	0.137470
C661	C66	0.926920	0.169240	0.071700
C671	C67	0.916120	0.071040	0.109580
C681	C68	0.035720	0.230840	0.273240
C691	C69	0.040660	0.175320	0.214630
C701	C70	0.911730	0.125460	0.174570
C711	C71	0.780540	0.132480	0.196990
C721	C72	0.782600	0.188600	0.256040
C731	C73	0.081760	0.633320	0.026560
C741	C74	0.927320	0.567040	0.036920
C751	C75	0.846160	0.433120	0.009980
C761	C76	0.849540	0.641280	0.075960
C771	C77	0.462480	0.023160	0.057700
C781	C78	0.499170	0.917340	0.036470
C791	C79	0.536180	0.894360	0.978690
C801	C80	0.504180	0.830760	0.076370
N11	N1	0.136390	0.509660	0.609050
N21	N2	0.329770	0.238480	0.794380
N31	N3	0.626730	0.490340	0.890950
N41	N4	0.091290	0.761520	0.705620
N51	N5	0.863610	0.490340	0.390950
N61	N6	0.670230	0.761520	0.205620
N71	N7	0.373270	0.509660	0.109050
N81	N8	0.908710	0.238480	0.294380
O11	O1	0.859550	0.569980	0.586500
O21	O2	0.844210	0.762200	0.595410
O31	O3	0.182370	0.761660	0.560030
O41	O4	0.390640	0.831640	0.623290
O51	O5	0.289570	0.430020	0.913500
O61	O6	0.082010	0.237800	0.904590
O71	O7	0.420710	0.238340	0.939970
O81	O8	0.559000	0.168360	0.876710
O91	O9	0.140450	0.430020	0.413500
O101	O10	0.155790	0.237800	0.404590
O111	O11	0.817630	0.238340	0.439970
O121	O12	0.609360	0.168360	0.376710
O131	O13	0.710430	0.569980	0.086500
O141	O14	0.917990	0.762200	0.095410
O151	O15	0.579290	0.761660	0.060030
O161	O16	0.441000	0.831640	0.123290
