data_OZUKOL_freeONLY_PM
_symmetry_space_group_name_H-M	'P1'
_cell_length_a	26.288500
_cell_length_b	26.288500
_cell_length_c	7.060800
_cell_angle_alpha	90.000000
_cell_angle_beta	90.000000
_cell_angle_gamma	120.000000
_symmetry_Int_Tables_number 1

loop_
_symmetry_equiv_pos_as_xyz
'x,y,z'

loop_
_atom_site_label
_atom_site_type_symbol
_atom_site_fract_x
_atom_site_fract_y
_atom_site_fract_z
Mn11	Mn1	0.950900	0.634600	0.022000
C11	C1	0.015600	0.592800	0.759000
C21	C2	0.006900	0.545700	0.890000
C31	C3	0.987900	0.542100	0.087000
C41	C4	0.983300	0.495000	0.190000
H11	H1	0.972570	0.497500	0.337240
O11	O1	0.028600	0.592400	0.586000
O21	O2	0.004500	0.634600	0.801000
O31	O3	0.977300	0.583400	0.139000
Mn21	Mn2	0.617570	0.967930	0.355330
C51	C5	0.682270	0.926130	0.092330
C61	C6	0.673570	0.879030	0.223330
C71	C7	0.654570	0.875430	0.420330
C81	C8	0.649970	0.828330	0.523330
H21	H2	0.639240	0.830830	0.670570
O41	O4	0.695270	0.925730	0.919330
O51	O5	0.671170	0.967930	0.134330
O61	O6	0.643970	0.916730	0.472330
Mn31	Mn3	0.284230	0.301270	0.688670
C91	C9	0.348930	0.259470	0.425670
C101	C10	0.340230	0.212370	0.556670
C111	C11	0.321230	0.208770	0.753670
C121	C12	0.316630	0.161670	0.856670
H31	H3	0.305900	0.164170	0.003910
O71	O7	0.361930	0.259070	0.252670
O81	O8	0.337830	0.301270	0.467670
O91	O9	0.310630	0.250070	0.805670
Mn41	Mn4	0.365400	0.316300	0.022000
C131	C13	0.407200	0.422800	0.759000
C141	C14	0.454300	0.461200	0.890000
C151	C15	0.457900	0.445800	0.087000
C161	C16	0.505000	0.488300	0.190000
H41	H4	0.502500	0.475070	0.337240
O101	O10	0.407600	0.436200	0.586000
O111	O11	0.365400	0.369900	0.801000
O121	O12	0.416600	0.393900	0.139000
Mn51	Mn5	0.032070	0.649630	0.355330
C171	C17	0.073870	0.756130	0.092330
C181	C18	0.120970	0.794530	0.223330
C191	C19	0.124570	0.779130	0.420330
C201	C20	0.171670	0.821630	0.523330
H51	H5	0.169170	0.808400	0.670570
O131	O13	0.074270	0.769530	0.919330
O141	O14	0.032070	0.703230	0.134330
O151	O15	0.083270	0.727230	0.472330
Mn61	Mn6	0.698730	0.982970	0.688670
C211	C21	0.740530	0.089470	0.425670
C221	C22	0.787630	0.127870	0.556670
C231	C23	0.791230	0.112470	0.753670
C241	C24	0.838330	0.154970	0.856670
H61	H6	0.835830	0.141740	0.003910
O161	O16	0.740930	0.102870	0.252670
O171	O17	0.698730	0.036570	0.467670
O181	O18	0.749930	0.060570	0.805670
Mn71	Mn7	0.683700	0.049100	0.022000
C251	C25	0.577200	0.984400	0.759000
C261	C26	0.538800	0.993100	0.890000
C271	C27	0.554200	0.012100	0.087000
C281	C28	0.511700	0.016700	0.190000
H71	H7	0.524930	0.027430	0.337240
O191	O19	0.563800	0.971400	0.586000
O201	O20	0.630100	0.995500	0.801000
O211	O21	0.606100	0.022700	0.139000
Mn81	Mn8	0.350370	0.382430	0.355330
C291	C29	0.243870	0.317730	0.092330
C301	C30	0.205470	0.326430	0.223330
C311	C31	0.220870	0.345430	0.420330
C321	C32	0.178370	0.350030	0.523330
H81	H8	0.191600	0.360760	0.670570
O221	O22	0.230470	0.304730	0.919330
O231	O23	0.296770	0.328830	0.134330
O241	O24	0.272770	0.356030	0.472330
Mn91	Mn9	0.017030	0.715770	0.688670
C331	C33	0.910530	0.651070	0.425670
C341	C34	0.872130	0.659770	0.556670
C351	C35	0.887530	0.678770	0.753670
C361	C36	0.845030	0.683370	0.856670
H91	H9	0.858260	0.694100	0.003910
O251	O25	0.897130	0.638070	0.252670
O261	O26	0.963430	0.662170	0.467670
O271	O27	0.939430	0.689370	0.805670
Mn101	Mn10	0.049100	0.365400	0.978000
C371	C37	0.984400	0.407200	0.241000
C381	C38	0.993100	0.454300	0.110000
C391	C39	0.012100	0.457900	0.913000
C401	C40	0.016700	0.505000	0.810000
H101	H10	0.027430	0.502500	0.662760
O281	O28	0.971400	0.407600	0.414000
O291	O29	0.995500	0.365400	0.199000
O301	O30	0.022700	0.416600	0.861000
Mn111	Mn11	0.715770	0.698730	0.311330
C411	C41	0.651070	0.740530	0.574330
C421	C42	0.659770	0.787630	0.443330
C431	C43	0.678770	0.791230	0.246330
C441	C44	0.683370	0.838330	0.143330
H111	H11	0.694100	0.835830	0.996090
O311	O31	0.638070	0.740930	0.747330
O321	O32	0.662170	0.698730	0.532330
O331	O33	0.689370	0.749930	0.194330
Mn121	Mn12	0.382430	0.032070	0.644670
C451	C45	0.317730	0.073870	0.907670
C461	C46	0.326430	0.120970	0.776670
C471	C47	0.345430	0.124570	0.579670
C481	C48	0.350030	0.171670	0.476670
H121	H12	0.360760	0.169170	0.329430
O341	O34	0.304730	0.074270	0.080670
O351	O35	0.328830	0.032070	0.865670
O361	O36	0.356030	0.083270	0.527670
Mn131	Mn13	0.634600	0.683700	0.978000
C491	C49	0.592800	0.577200	0.241000
C501	C50	0.545700	0.538800	0.110000
C511	C51	0.542100	0.554200	0.913000
C521	C52	0.495000	0.511700	0.810000
H131	H13	0.497500	0.524930	0.662760
O371	O37	0.592400	0.563800	0.414000
O381	O38	0.634600	0.630100	0.199000
O391	O39	0.583400	0.606100	0.861000
Mn141	Mn14	0.301270	0.017030	0.311330
C531	C53	0.259470	0.910530	0.574330
C541	C54	0.212370	0.872130	0.443330
C551	C55	0.208770	0.887530	0.246330
C561	C56	0.161670	0.845030	0.143330
H141	H14	0.164170	0.858260	0.996090
O401	O40	0.259070	0.897130	0.747330
O411	O41	0.301270	0.963430	0.532330
O421	O42	0.250070	0.939430	0.194330
Mn151	Mn15	0.967930	0.350370	0.644670
C571	C57	0.926130	0.243870	0.907670
C581	C58	0.879030	0.205470	0.776670
C591	C59	0.875430	0.220870	0.579670
C601	C60	0.828330	0.178370	0.476670
H151	H15	0.830830	0.191600	0.329430
O431	O43	0.925730	0.230470	0.080670
O441	O44	0.967930	0.296770	0.865670
O451	O45	0.916730	0.272770	0.527670
Mn161	Mn16	0.316300	0.950900	0.978000
C611	C61	0.422800	0.015600	0.241000
C621	C62	0.461200	0.006900	0.110000
C631	C63	0.445800	0.987900	0.913000
C641	C64	0.488300	0.983300	0.810000
H161	H16	0.475070	0.972570	0.662760
O461	O46	0.436200	0.028600	0.414000
O471	O47	0.369900	0.004500	0.199000
O481	O48	0.393900	0.977300	0.861000
Mn171	Mn17	0.982970	0.284230	0.311330
C651	C65	0.089470	0.348930	0.574330
C661	C66	0.127870	0.340230	0.443330
C671	C67	0.112470	0.321230	0.246330
C681	C68	0.154970	0.316630	0.143330
H171	H17	0.141740	0.305900	0.996090
O491	O49	0.102870	0.361930	0.747330
O501	O50	0.036570	0.337830	0.532330
O511	O51	0.060570	0.310630	0.194330
Mn181	Mn18	0.649630	0.617570	0.644670
C691	C69	0.756130	0.682270	0.907670
C701	C70	0.794530	0.673570	0.776670
C711	C71	0.779130	0.654570	0.579670
C721	C72	0.821630	0.649970	0.476670
H181	H18	0.808400	0.639240	0.329430
O521	O52	0.769530	0.695270	0.080670
O531	O53	0.703230	0.671170	0.865670
O541	O54	0.727230	0.643970	0.527670
