data_OZUMAZ01_freeONLY_PM
_symmetry_space_group_name_H-M	'P1'
_cell_length_a	25.876100
_cell_length_b	25.876100
_cell_length_c	6.262600
_cell_angle_alpha	90.000000
_cell_angle_beta	90.000000
_cell_angle_gamma	120.000000
_symmetry_Int_Tables_number 1

loop_
_symmetry_equiv_pos_as_xyz
'x,y,z'

loop_
_atom_site_label
_atom_site_type_symbol
_atom_site_fract_x
_atom_site_fract_y
_atom_site_fract_z
Cu11	Cu1	0.947300	0.629800	0.984000
C11	C1	0.007200	0.589200	0.711000
C21	C2	0.020300	0.501900	0.795000
C31	C3	0.005300	0.544400	0.859000
C41	C4	0.985000	0.543000	0.071000
H11	H1	0.036500	0.505000	0.629000
O11	O1	0.040900	0.599100	0.547000
O21	O2	0.979600	0.615300	0.724000
O31	O3	0.968700	0.582000	0.165000
Cu21	Cu2	0.613970	0.963130	0.317330
C51	C5	0.673870	0.922530	0.044330
C61	C6	0.686970	0.835230	0.128330
C71	C7	0.671970	0.877730	0.192330
C81	C8	0.651670	0.876330	0.404330
H21	H2	0.703170	0.838330	0.962330
O41	O4	0.707570	0.932430	0.880330
O51	O5	0.646270	0.948630	0.057330
O61	O6	0.635370	0.915330	0.498330
Cu31	Cu3	0.280630	0.296470	0.650670
C91	C9	0.340530	0.255870	0.377670
C101	C10	0.353630	0.168570	0.461670
C111	C11	0.338630	0.211070	0.525670
C121	C12	0.318330	0.209670	0.737670
H31	H3	0.369830	0.171670	0.295670
O71	O7	0.374230	0.265770	0.213670
O81	O8	0.312930	0.281970	0.390670
O91	O9	0.302030	0.248670	0.831670
Cu41	Cu4	0.370200	0.317500	0.984000
C131	C13	0.410800	0.418000	0.711000
C141	C14	0.498100	0.518400	0.795000
C151	C15	0.455600	0.460900	0.859000
C161	C16	0.457000	0.442000	0.071000
H41	H4	0.495000	0.531500	0.629000
O101	O10	0.400900	0.441800	0.547000
O111	O11	0.384700	0.364300	0.724000
O121	O12	0.418000	0.386700	0.165000
Cu51	Cu5	0.036870	0.650830	0.317330
C171	C17	0.077470	0.751330	0.044330
C181	C18	0.164770	0.851730	0.128330
C191	C19	0.122270	0.794230	0.192330
C201	C20	0.123670	0.775330	0.404330
H51	H5	0.161670	0.864830	0.962330
O131	O13	0.067570	0.775130	0.880330
O141	O14	0.051370	0.697630	0.057330
O151	O15	0.084670	0.720030	0.498330
Cu61	Cu6	0.703530	0.984170	0.650670
C211	C21	0.744130	0.084670	0.377670
C221	C22	0.831430	0.185070	0.461670
C231	C23	0.788930	0.127570	0.525670
C241	C24	0.790330	0.108670	0.737670
H61	H6	0.828330	0.198170	0.295670
O161	O16	0.734230	0.108470	0.213670
O171	O17	0.718030	0.030970	0.390670
O181	O18	0.751330	0.053370	0.831670
Cu71	Cu7	0.682500	0.052700	0.984000
C251	C25	0.582000	0.992800	0.711000
C261	C26	0.481600	0.979700	0.795000
C271	C27	0.539100	0.994700	0.859000
C281	C28	0.558000	0.015000	0.071000
H71	H7	0.468500	0.963500	0.629000
O191	O19	0.558200	0.959100	0.547000
O201	O20	0.635700	0.020400	0.724000
O211	O21	0.613300	0.031300	0.165000
Cu81	Cu8	0.349170	0.386030	0.317330
C291	C29	0.248670	0.326130	0.044330
C301	C30	0.148270	0.313030	0.128330
C311	C31	0.205770	0.328030	0.192330
C321	C32	0.224670	0.348330	0.404330
H81	H8	0.135170	0.296830	0.962330
O221	O22	0.224870	0.292430	0.880330
O231	O23	0.302370	0.353730	0.057330
O241	O24	0.279970	0.364630	0.498330
Cu91	Cu9	0.015830	0.719370	0.650670
C331	C33	0.915330	0.659470	0.377670
C341	C34	0.814930	0.646370	0.461670
C351	C35	0.872430	0.661370	0.525670
C361	C36	0.891330	0.681670	0.737670
H91	H9	0.801830	0.630170	0.295670
O251	O25	0.891530	0.625770	0.213670
O261	O26	0.969030	0.687070	0.390670
O271	O27	0.946630	0.697970	0.831670
Cu101	Cu10	0.052700	0.370200	0.016000
C371	C37	0.992800	0.410800	0.289000
C381	C38	0.979700	0.498100	0.205000
C391	C39	0.994700	0.455600	0.141000
C401	C40	0.015000	0.457000	0.929000
H101	H10	0.963500	0.495000	0.371000
O281	O28	0.959100	0.400900	0.453000
O291	O29	0.020400	0.384700	0.276000
O301	O30	0.031300	0.418000	0.835000
Cu111	Cu11	0.719370	0.703530	0.349330
C411	C41	0.659470	0.744130	0.622330
C421	C42	0.646370	0.831430	0.538330
C431	C43	0.661370	0.788930	0.474330
C441	C44	0.681670	0.790330	0.262330
H111	H11	0.630170	0.828330	0.704330
O311	O31	0.625770	0.734230	0.786330
O321	O32	0.687070	0.718030	0.609330
O331	O33	0.697970	0.751330	0.168330
Cu121	Cu12	0.386030	0.036870	0.682670
C451	C45	0.326130	0.077470	0.955670
C461	C46	0.313030	0.164770	0.871670
C471	C47	0.328030	0.122270	0.807670
C481	C48	0.348330	0.123670	0.595670
H121	H12	0.296830	0.161670	0.037670
O341	O34	0.292430	0.067570	0.119670
O351	O35	0.353730	0.051370	0.942670
O361	O36	0.364630	0.084670	0.501670
Cu131	Cu13	0.629800	0.682500	0.016000
C491	C49	0.589200	0.582000	0.289000
C501	C50	0.501900	0.481600	0.205000
C511	C51	0.544400	0.539100	0.141000
C521	C52	0.543000	0.558000	0.929000
H131	H13	0.505000	0.468500	0.371000
O371	O37	0.599100	0.558200	0.453000
O381	O38	0.615300	0.635700	0.276000
O391	O39	0.582000	0.613300	0.835000
Cu141	Cu14	0.296470	0.015830	0.349330
C531	C53	0.255870	0.915330	0.622330
C541	C54	0.168570	0.814930	0.538330
C551	C55	0.211070	0.872430	0.474330
C561	C56	0.209670	0.891330	0.262330
H141	H14	0.171670	0.801830	0.704330
O401	O40	0.265770	0.891530	0.786330
O411	O41	0.281970	0.969030	0.609330
O421	O42	0.248670	0.946630	0.168330
Cu151	Cu15	0.963130	0.349170	0.682670
C571	C57	0.922530	0.248670	0.955670
C581	C58	0.835230	0.148270	0.871670
C591	C59	0.877730	0.205770	0.807670
C601	C60	0.876330	0.224670	0.595670
H151	H15	0.838330	0.135170	0.037670
O431	O43	0.932430	0.224870	0.119670
O441	O44	0.948630	0.302370	0.942670
O451	O45	0.915330	0.279970	0.501670
Cu161	Cu16	0.317500	0.947300	0.016000
C611	C61	0.418000	0.007200	0.289000
C621	C62	0.518400	0.020300	0.205000
C631	C63	0.460900	0.005300	0.141000
C641	C64	0.442000	0.985000	0.929000
H161	H16	0.531500	0.036500	0.371000
O461	O46	0.441800	0.040900	0.453000
O471	O47	0.364300	0.979600	0.276000
O481	O48	0.386700	0.968700	0.835000
Cu171	Cu17	0.984170	0.280630	0.349330
C651	C65	0.084670	0.340530	0.622330
C661	C66	0.185070	0.353630	0.538330
C671	C67	0.127570	0.338630	0.474330
C681	C68	0.108670	0.318330	0.262330
H171	H17	0.198170	0.369830	0.704330
O491	O49	0.108470	0.374230	0.786330
O501	O50	0.030970	0.312930	0.609330
O511	O51	0.053370	0.302030	0.168330
Cu181	Cu18	0.650830	0.613970	0.682670
C691	C69	0.751330	0.673870	0.955670
C701	C70	0.851730	0.686970	0.871670
C711	C71	0.794230	0.671970	0.807670
C721	C72	0.775330	0.651670	0.595670
H181	H18	0.864830	0.703170	0.037670
O521	O52	0.775130	0.707570	0.119670
O531	O53	0.697630	0.646270	0.942670
O541	O54	0.720030	0.635370	0.501670
