data_PACGIM_freeONLY_PM
_symmetry_space_group_name_H-M	'P1'
_cell_length_a	24.861200
_cell_length_b	24.861200
_cell_length_c	28.260000
_cell_angle_alpha	90.000000
_cell_angle_beta	90.000000
_cell_angle_gamma	120.000000
_symmetry_Int_Tables_number 1

loop_
_symmetry_equiv_pos_as_xyz
'x,y,z'

loop_
_atom_site_label
_atom_site_type_symbol
_atom_site_fract_x
_atom_site_fract_y
_atom_site_fract_z
O11	O1	0.610500	0.389780	0.949070
C11	C1	0.654850	0.500750	0.949280
C21	C2	0.653480	0.611100	0.928460
C31	C3	0.657030	0.442690	0.958770
C41	C4	0.704270	0.613150	0.952220
H11	H1	0.738300	0.652000	0.961700
C51	C5	0.704690	0.558280	0.961920
H21	H2	0.739600	0.560300	0.977400
C61	C6	0.602600	0.553270	0.917420
H31	H3	0.567300	0.551100	0.902500
C71	C7	0.602930	0.498730	0.927950
H41	H4	0.567600	0.459700	0.920600
C81	C8	0.558990	0.648810	0.956860
H51	H5	0.572100	0.636800	0.984500
O21	O2	0.705570	0.446750	0.976660
C91	C9	0.502580	0.648360	0.957080
H61	H6	0.477300	0.635600	0.984700
O31	O3	0.388120	0.644110	0.952340
O41	O4	0.277170	0.723110	0.282400
C101	C10	0.321520	0.834080	0.282610
C111	C11	0.320150	0.944430	0.261790
C121	C12	0.323700	0.776020	0.292100
C131	C13	0.370940	0.946480	0.285550
H71	H7	0.404970	0.985330	0.295030
C141	C14	0.371360	0.891610	0.295250
H81	H8	0.406270	0.893630	0.310730
C151	C15	0.269270	0.886600	0.250750
H91	H9	0.233970	0.884430	0.235830
C161	C16	0.269600	0.832060	0.261280
H101	H10	0.234270	0.793030	0.253930
C171	C17	0.225660	0.982140	0.290190
H111	H11	0.238770	0.970130	0.317830
O51	O5	0.372240	0.780080	0.309990
C181	C18	0.169250	0.981690	0.290410
H121	H12	0.143970	0.968930	0.318030
O61	O6	0.054790	0.977440	0.285670
O71	O7	0.943830	0.056450	0.615740
C191	C19	0.988180	0.167420	0.615950
C201	C20	0.986810	0.277770	0.595130
C211	C21	0.990360	0.109360	0.625440
C221	C22	0.037600	0.279820	0.618890
H131	H13	0.071630	0.318670	0.628370
C231	C23	0.038020	0.224950	0.628590
H141	H14	0.072930	0.226970	0.644070
C241	C24	0.935930	0.219940	0.584090
H151	H15	0.900630	0.217770	0.569170
C251	C25	0.936260	0.165400	0.594620
H161	H16	0.900930	0.126370	0.587270
C261	C26	0.892320	0.315480	0.623530
H171	H17	0.905430	0.303470	0.651170
O81	O8	0.038900	0.113420	0.643330
C271	C27	0.835910	0.315030	0.623750
H181	H18	0.810630	0.302270	0.651370
O91	O9	0.721450	0.310780	0.619010
O101	O10	0.610220	0.220720	0.949070
C281	C28	0.499250	0.154100	0.949280
C291	C29	0.388900	0.042380	0.928460
C301	C30	0.557310	0.214340	0.958770
C311	C31	0.386850	0.091120	0.952220
H191	H19	0.348000	0.086300	0.961700
C321	C32	0.441720	0.146410	0.961920
H201	H20	0.439700	0.179300	0.977400
C331	C33	0.446730	0.049330	0.917420
H211	H21	0.448900	0.016200	0.902500
C341	C34	0.501270	0.104200	0.927950
H221	H22	0.540300	0.107900	0.920600
C351	C35	0.351190	0.910180	0.956860
H231	H23	0.363200	0.935300	0.984500
O111	O11	0.553250	0.258820	0.976660
C361	C36	0.351640	0.854220	0.957080
H241	H24	0.364400	0.841700	0.984700
O121	O12	0.355890	0.744010	0.952340
O131	O13	0.276890	0.554050	0.282400
C371	C37	0.165920	0.487430	0.282610
C381	C38	0.055570	0.375710	0.261790
C391	C39	0.223980	0.547670	0.292100
C401	C40	0.053520	0.424450	0.285550
H251	H25	0.014670	0.419630	0.295030
C411	C41	0.108390	0.479740	0.295250
H261	H26	0.106370	0.512630	0.310730
C421	C42	0.113400	0.382660	0.250750
H271	H27	0.115570	0.349530	0.235830
C431	C43	0.167940	0.437530	0.261280
H281	H28	0.206970	0.441230	0.253930
C441	C44	0.017860	0.243510	0.290190
H291	H29	0.029870	0.268630	0.317830
O141	O14	0.219920	0.592150	0.309990
C451	C45	0.018310	0.187550	0.290410
H301	H30	0.031070	0.175030	0.318030
O151	O15	0.022560	0.077340	0.285670
O161	O16	0.943550	0.887390	0.615740
C461	C46	0.832580	0.820770	0.615950
C471	C47	0.722230	0.709050	0.595130
C481	C48	0.890640	0.881010	0.625440
C491	C49	0.720180	0.757790	0.618890
H311	H31	0.681330	0.752970	0.628370
C501	C50	0.775050	0.813080	0.628590
H321	H32	0.773030	0.845970	0.644070
C511	C51	0.780060	0.716000	0.584090
H331	H33	0.782230	0.682870	0.569170
C521	C52	0.834600	0.770870	0.594620
H341	H34	0.873630	0.774570	0.587270
C531	C53	0.684520	0.576850	0.623530
H351	H35	0.696530	0.601970	0.651170
O171	O17	0.886580	0.925490	0.643330
C541	C54	0.684970	0.520890	0.623750
H361	H36	0.697730	0.508370	0.651370
O181	O18	0.689220	0.410680	0.619010
O191	O19	0.779280	0.389500	0.949070
C551	C55	0.845900	0.345150	0.949280
C561	C56	0.957620	0.346520	0.928460
C571	C57	0.785660	0.342970	0.958770
C581	C58	0.908880	0.295730	0.952220
H371	H37	0.913700	0.261700	0.961700
C591	C59	0.853590	0.295310	0.961920
H381	H38	0.820700	0.260400	0.977400
C601	C60	0.950670	0.397400	0.917420
H391	H39	0.983800	0.432700	0.902500
C611	C61	0.895800	0.397070	0.927950
H401	H40	0.892100	0.432400	0.920600
C621	C62	0.089820	0.441010	0.956860
H411	H41	0.064700	0.427900	0.984500
O201	O20	0.741180	0.294430	0.976660
C631	C63	0.145780	0.497420	0.957080
H421	H42	0.158300	0.522700	0.984700
O211	O21	0.255990	0.611880	0.952340
O221	O22	0.445950	0.722830	0.282400
C641	C64	0.512570	0.678480	0.282610
C651	C65	0.624290	0.679850	0.261790
C661	C66	0.452330	0.676300	0.292100
C671	C67	0.575550	0.629060	0.285550
H431	H43	0.580370	0.595030	0.295030
C681	C68	0.520260	0.628640	0.295250
H441	H44	0.487370	0.593730	0.310730
C691	C69	0.617340	0.730730	0.250750
H451	H45	0.650470	0.766030	0.235830
C701	C70	0.562470	0.730400	0.261280
H461	H46	0.558770	0.765730	0.253930
C711	C71	0.756490	0.774340	0.290190
H471	H47	0.731370	0.761230	0.317830
O231	O23	0.407850	0.627760	0.309990
C721	C72	0.812450	0.830750	0.290410
H481	H48	0.824970	0.856030	0.318030
O241	O24	0.922660	0.945210	0.285670
O251	O25	0.112610	0.056170	0.615740
C731	C73	0.179230	0.011820	0.615950
C741	C74	0.290950	0.013190	0.595130
C751	C75	0.118990	0.009640	0.625440
C761	C76	0.242210	0.962400	0.618890
H491	H49	0.247030	0.928370	0.628370
C771	C77	0.186920	0.961980	0.628590
H501	H50	0.154030	0.927070	0.644070
C781	C78	0.284000	0.064070	0.584090
H511	H51	0.317130	0.099370	0.569170
C791	C79	0.229130	0.063740	0.594620
H521	H52	0.225430	0.099070	0.587270
C801	C80	0.423150	0.107680	0.623530
H531	H53	0.398030	0.094570	0.651170
O261	O26	0.074510	0.961100	0.643330
C811	C81	0.479110	0.164090	0.623750
H541	H54	0.491630	0.189370	0.651370
O271	O27	0.589320	0.278550	0.619010
O281	O28	0.389780	0.610500	0.550930
C821	C82	0.500750	0.654850	0.550720
C831	C83	0.611100	0.653480	0.571540
C841	C84	0.442690	0.657030	0.541230
C851	C85	0.613150	0.704270	0.547780
H551	H55	0.652000	0.738300	0.538300
C861	C86	0.558280	0.704690	0.538080
H561	H56	0.560300	0.739600	0.522600
C871	C87	0.553270	0.602600	0.582580
H571	H57	0.551100	0.567300	0.597500
C881	C88	0.498730	0.602930	0.572050
H581	H58	0.459700	0.567600	0.579400
C891	C89	0.648810	0.558990	0.543140
H591	H59	0.636800	0.572100	0.515500
O291	O29	0.446750	0.705570	0.523340
C901	C90	0.648360	0.502580	0.542920
H601	H60	0.635600	0.477300	0.515300
O301	O30	0.644110	0.388120	0.547660
O311	O31	0.056450	0.943830	0.884260
C911	C91	0.167420	0.988180	0.884050
C921	C92	0.277770	0.986810	0.904870
C931	C93	0.109360	0.990360	0.874560
C941	C94	0.279820	0.037600	0.881110
H611	H61	0.318670	0.071630	0.871630
C951	C95	0.224950	0.038020	0.871410
H621	H62	0.226970	0.072930	0.855930
C961	C96	0.219940	0.935930	0.915910
H631	H63	0.217770	0.900630	0.930830
C971	C97	0.165400	0.936260	0.905380
H641	H64	0.126370	0.900930	0.912730
C981	C98	0.315480	0.892320	0.876470
H651	H65	0.303470	0.905430	0.848830
O321	O32	0.113420	0.038900	0.856670
C991	C99	0.315030	0.835910	0.876250
H661	H66	0.302270	0.810630	0.848630
O331	O33	0.310780	0.721450	0.880990
O341	O34	0.723110	0.277170	0.217600
C1001	C100	0.834080	0.321520	0.217390
C1011	C101	0.944430	0.320150	0.238210
C1021	C102	0.776020	0.323700	0.207900
C1031	C103	0.946480	0.370940	0.214450
H671	H67	0.985330	0.404970	0.204970
C1041	C104	0.891610	0.371360	0.204750
H681	H68	0.893630	0.406270	0.189270
C1051	C105	0.886600	0.269270	0.249250
H691	H69	0.884430	0.233970	0.264170
C1061	C106	0.832060	0.269600	0.238720
H701	H70	0.793030	0.234270	0.246070
C1071	C107	0.982140	0.225660	0.209810
H711	H71	0.970130	0.238770	0.182170
O351	O35	0.780080	0.372240	0.190010
C1081	C108	0.981690	0.169250	0.209590
H721	H72	0.968930	0.143970	0.181970
O361	O36	0.977440	0.054790	0.214330
O371	O37	0.220720	0.610220	0.550930
C1091	C109	0.154100	0.499250	0.550720
C1101	C110	0.042380	0.388900	0.571540
C1111	C111	0.214340	0.557310	0.541230
C1121	C112	0.091120	0.386850	0.547780
H731	H73	0.086300	0.348000	0.538300
C1131	C113	0.146410	0.441720	0.538080
H741	H74	0.179300	0.439700	0.522600
C1141	C114	0.049330	0.446730	0.582580
H751	H75	0.016200	0.448900	0.597500
C1151	C115	0.104200	0.501270	0.572050
H761	H76	0.107900	0.540300	0.579400
C1161	C116	0.910180	0.351190	0.543140
H771	H77	0.935300	0.363200	0.515500
O381	O38	0.258820	0.553250	0.523340
C1171	C117	0.854220	0.351640	0.542920
H781	H78	0.841700	0.364400	0.515300
O391	O39	0.744010	0.355890	0.547660
O401	O40	0.887390	0.943550	0.884260
C1181	C118	0.820770	0.832580	0.884050
C1191	C119	0.709050	0.722230	0.904870
C1201	C120	0.881010	0.890640	0.874560
C1211	C121	0.757790	0.720180	0.881110
H791	H79	0.752970	0.681330	0.871630
C1221	C122	0.813080	0.775050	0.871410
H801	H80	0.845970	0.773030	0.855930
C1231	C123	0.716000	0.780060	0.915910
H811	H81	0.682870	0.782230	0.930830
C1241	C124	0.770870	0.834600	0.905380
H821	H82	0.774570	0.873630	0.912730
C1251	C125	0.576850	0.684520	0.876470
H831	H83	0.601970	0.696530	0.848830
O411	O41	0.925490	0.886580	0.856670
C1261	C126	0.520890	0.684970	0.876250
H841	H84	0.508370	0.697730	0.848630
O421	O42	0.410680	0.689220	0.880990
O431	O43	0.554050	0.276890	0.217600
C1271	C127	0.487430	0.165920	0.217390
C1281	C128	0.375710	0.055570	0.238210
C1291	C129	0.547670	0.223980	0.207900
C1301	C130	0.424450	0.053520	0.214450
H851	H85	0.419630	0.014670	0.204970
C1311	C131	0.479740	0.108390	0.204750
H861	H86	0.512630	0.106370	0.189270
C1321	C132	0.382660	0.113400	0.249250
H871	H87	0.349530	0.115570	0.264170
C1331	C133	0.437530	0.167940	0.238720
H881	H88	0.441230	0.206970	0.246070
C1341	C134	0.243510	0.017860	0.209810
H891	H89	0.268630	0.029870	0.182170
O441	O44	0.592150	0.219920	0.190010
C1351	C135	0.187550	0.018310	0.209590
H901	H90	0.175030	0.031070	0.181970
O451	O45	0.077340	0.022560	0.214330
O461	O46	0.389500	0.779280	0.550930
C1361	C136	0.345150	0.845900	0.550720
C1371	C137	0.346520	0.957620	0.571540
C1381	C138	0.342970	0.785660	0.541230
C1391	C139	0.295730	0.908880	0.547780
H911	H91	0.261700	0.913700	0.538300
C1401	C140	0.295310	0.853590	0.538080
H921	H92	0.260400	0.820700	0.522600
C1411	C141	0.397400	0.950670	0.582580
H931	H93	0.432700	0.983800	0.597500
C1421	C142	0.397070	0.895800	0.572050
H941	H94	0.432400	0.892100	0.579400
C1431	C143	0.441010	0.089820	0.543140
H951	H95	0.427900	0.064700	0.515500
O471	O47	0.294430	0.741180	0.523340
C1441	C144	0.497420	0.145780	0.542920
H961	H96	0.522700	0.158300	0.515300
O481	O48	0.611880	0.255990	0.547660
O491	O49	0.056170	0.112610	0.884260
C1451	C145	0.011820	0.179230	0.884050
C1461	C146	0.013190	0.290950	0.904870
C1471	C147	0.009640	0.118990	0.874560
C1481	C148	0.962400	0.242210	0.881110
H971	H97	0.928370	0.247030	0.871630
C1491	C149	0.961980	0.186920	0.871410
H981	H98	0.927070	0.154030	0.855930
C1501	C150	0.064070	0.284000	0.915910
H991	H99	0.099370	0.317130	0.930830
C1511	C151	0.063740	0.229130	0.905380
H1001	H100	0.099070	0.225430	0.912730
C1521	C152	0.107680	0.423150	0.876470
H1011	H101	0.094570	0.398030	0.848830
O501	O50	0.961100	0.074510	0.856670
C1531	C153	0.164090	0.479110	0.876250
H1021	H102	0.189370	0.491630	0.848630
O511	O51	0.278550	0.589320	0.880990
O521	O52	0.722830	0.445950	0.217600
C1541	C154	0.678480	0.512570	0.217390
C1551	C155	0.679850	0.624290	0.238210
C1561	C156	0.676300	0.452330	0.207900
C1571	C157	0.629060	0.575550	0.214450
H1031	H103	0.595030	0.580370	0.204970
C1581	C158	0.628640	0.520260	0.204750
H1041	H104	0.593730	0.487370	0.189270
C1591	C159	0.730730	0.617340	0.249250
H1051	H105	0.766030	0.650470	0.264170
C1601	C160	0.730400	0.562470	0.238720
H1061	H106	0.765730	0.558770	0.246070
C1611	C161	0.774340	0.756490	0.209810
H1071	H107	0.761230	0.731370	0.182170
O531	O53	0.627760	0.407850	0.190010
C1621	C162	0.830750	0.812450	0.209590
H1081	H108	0.856030	0.824970	0.181970
O541	O54	0.945210	0.922660	0.214330
O551	O55	0.389500	0.610220	0.050930
C1631	C163	0.345150	0.499250	0.050720
C1641	C164	0.346520	0.388900	0.071540
C1651	C165	0.342970	0.557310	0.041230
C1661	C166	0.295730	0.386850	0.047780
H1091	H109	0.261700	0.348000	0.038300
C1671	C167	0.295310	0.441720	0.038080
H1101	H110	0.260400	0.439700	0.022600
C1681	C168	0.397400	0.446730	0.082580
H1111	H111	0.432700	0.448900	0.097500
C1691	C169	0.397070	0.501270	0.072050
H1121	H112	0.432400	0.540300	0.079400
C1701	C170	0.441010	0.351190	0.043140
H1131	H113	0.427900	0.363200	0.015500
O561	O56	0.294430	0.553250	0.023340
C1711	C171	0.497420	0.351640	0.042920
H1141	H114	0.522700	0.364400	0.015300
O571	O57	0.611880	0.355890	0.047660
O581	O58	0.056170	0.943550	0.384260
C1721	C172	0.011820	0.832580	0.384050
C1731	C173	0.013190	0.722230	0.404870
C1741	C174	0.009640	0.890640	0.374560
C1751	C175	0.962400	0.720180	0.381110
H1151	H115	0.928370	0.681330	0.371630
C1761	C176	0.961980	0.775050	0.371410
H1161	H116	0.927070	0.773030	0.355930
C1771	C177	0.064070	0.780060	0.415910
H1171	H117	0.099370	0.782230	0.430830
C1781	C178	0.063740	0.834600	0.405380
H1181	H118	0.099070	0.873630	0.412730
C1791	C179	0.107680	0.684520	0.376470
H1191	H119	0.094570	0.696530	0.348830
O591	O59	0.961100	0.886580	0.356670
C1801	C180	0.164090	0.684970	0.376250
H1201	H120	0.189370	0.697730	0.348630
O601	O60	0.278550	0.689220	0.380990
O611	O61	0.722830	0.276890	0.717600
C1811	C181	0.678480	0.165920	0.717390
C1821	C182	0.679850	0.055570	0.738210
C1831	C183	0.676300	0.223980	0.707900
C1841	C184	0.629060	0.053520	0.714450
H1211	H121	0.595030	0.014670	0.704970
C1851	C185	0.628640	0.108390	0.704750
H1221	H122	0.593730	0.106370	0.689270
C1861	C186	0.730730	0.113400	0.749250
H1231	H123	0.766030	0.115570	0.764170
C1871	C187	0.730400	0.167940	0.738720
H1241	H124	0.765730	0.206970	0.746070
C1881	C188	0.774340	0.017860	0.709810
H1251	H125	0.761230	0.029870	0.682170
O621	O62	0.627760	0.219920	0.690010
C1891	C189	0.830750	0.018310	0.709590
H1261	H126	0.856030	0.031070	0.681970
O631	O63	0.945210	0.022560	0.714330
O641	O64	0.389780	0.779280	0.050930
C1901	C190	0.500750	0.845900	0.050720
C1911	C191	0.611100	0.957620	0.071540
C1921	C192	0.442690	0.785660	0.041230
C1931	C193	0.613150	0.908880	0.047780
H1271	H127	0.652000	0.913700	0.038300
C1941	C194	0.558280	0.853590	0.038080
H1281	H128	0.560300	0.820700	0.022600
C1951	C195	0.553270	0.950670	0.082580
H1291	H129	0.551100	0.983800	0.097500
C1961	C196	0.498730	0.895800	0.072050
H1301	H130	0.459700	0.892100	0.079400
C1971	C197	0.648810	0.089820	0.043140
H1311	H131	0.636800	0.064700	0.015500
O651	O65	0.446750	0.741180	0.023340
C1981	C198	0.648360	0.145780	0.042920
H1321	H132	0.635600	0.158300	0.015300
O661	O66	0.644110	0.255990	0.047660
O671	O67	0.056450	0.112610	0.384260
C1991	C199	0.167420	0.179230	0.384050
C2001	C200	0.277770	0.290950	0.404870
C2011	C201	0.109360	0.118990	0.374560
C2021	C202	0.279820	0.242210	0.381110
H1331	H133	0.318670	0.247030	0.371630
C2031	C203	0.224950	0.186920	0.371410
H1341	H134	0.226970	0.154030	0.355930
C2041	C204	0.219940	0.284000	0.415910
H1351	H135	0.217770	0.317130	0.430830
C2051	C205	0.165400	0.229130	0.405380
H1361	H136	0.126370	0.225430	0.412730
C2061	C206	0.315480	0.423150	0.376470
H1371	H137	0.303470	0.398030	0.348830
O681	O68	0.113420	0.074510	0.356670
C2071	C207	0.315030	0.479110	0.376250
H1381	H138	0.302270	0.491630	0.348630
O691	O69	0.310780	0.589320	0.380990
O701	O70	0.723110	0.445950	0.717600
C2081	C208	0.834080	0.512570	0.717390
C2091	C209	0.944430	0.624290	0.738210
C2101	C210	0.776020	0.452330	0.707900
C2111	C211	0.946480	0.575550	0.714450
H1391	H139	0.985330	0.580370	0.704970
C2121	C212	0.891610	0.520260	0.704750
H1401	H140	0.893630	0.487370	0.689270
C2131	C213	0.886600	0.617340	0.749250
H1411	H141	0.884430	0.650470	0.764170
C2141	C214	0.832060	0.562470	0.738720
H1421	H142	0.793030	0.558770	0.746070
C2151	C215	0.982140	0.756490	0.709810
H1431	H143	0.970130	0.731370	0.682170
O711	O71	0.780080	0.407850	0.690010
C2161	C216	0.981690	0.812450	0.709590
H1441	H144	0.968930	0.824970	0.681970
O721	O72	0.977440	0.922660	0.714330
O731	O73	0.220720	0.610500	0.050930
C2171	C217	0.154100	0.654850	0.050720
C2181	C218	0.042380	0.653480	0.071540
C2191	C219	0.214340	0.657030	0.041230
C2201	C220	0.091120	0.704270	0.047780
H1451	H145	0.086300	0.738300	0.038300
C2211	C221	0.146410	0.704690	0.038080
H1461	H146	0.179300	0.739600	0.022600
C2221	C222	0.049330	0.602600	0.082580
H1471	H147	0.016200	0.567300	0.097500
C2231	C223	0.104200	0.602930	0.072050
H1481	H148	0.107900	0.567600	0.079400
C2241	C224	0.910180	0.558990	0.043140
H1491	H149	0.935300	0.572100	0.015500
O741	O74	0.258820	0.705570	0.023340
C2251	C225	0.854220	0.502580	0.042920
H1501	H150	0.841700	0.477300	0.015300
O751	O75	0.744010	0.388120	0.047660
O761	O76	0.887390	0.943830	0.384260
C2261	C226	0.820770	0.988180	0.384050
C2271	C227	0.709050	0.986810	0.404870
C2281	C228	0.881010	0.990360	0.374560
C2291	C229	0.757790	0.037600	0.381110
H1511	H151	0.752970	0.071630	0.371630
C2301	C230	0.813080	0.038020	0.371410
H1521	H152	0.845970	0.072930	0.355930
C2311	C231	0.716000	0.935930	0.415910
H1531	H153	0.682870	0.900630	0.430830
C2321	C232	0.770870	0.936260	0.405380
H1541	H154	0.774570	0.900930	0.412730
C2331	C233	0.576850	0.892320	0.376470
H1551	H155	0.601970	0.905430	0.348830
O771	O77	0.925490	0.038900	0.356670
C2341	C234	0.520890	0.835910	0.376250
H1561	H156	0.508370	0.810630	0.348630
O781	O78	0.410680	0.721450	0.380990
O791	O79	0.554050	0.277170	0.717600
C2351	C235	0.487430	0.321520	0.717390
C2361	C236	0.375710	0.320150	0.738210
C2371	C237	0.547670	0.323700	0.707900
C2381	C238	0.424450	0.370940	0.714450
H1571	H157	0.419630	0.404970	0.704970
C2391	C239	0.479740	0.371360	0.704750
H1581	H158	0.512630	0.406270	0.689270
C2401	C240	0.382660	0.269270	0.749250
H1591	H159	0.349530	0.233970	0.764170
C2411	C241	0.437530	0.269600	0.738720
H1601	H160	0.441230	0.234270	0.746070
C2421	C242	0.243510	0.225660	0.709810
H1611	H161	0.268630	0.238770	0.682170
O801	O80	0.592150	0.372240	0.690010
C2431	C243	0.187550	0.169250	0.709590
H1621	H162	0.175030	0.143970	0.681970
O811	O81	0.077340	0.054790	0.714330
O821	O82	0.610220	0.389500	0.449070
C2441	C244	0.499250	0.345150	0.449280
C2451	C245	0.388900	0.346520	0.428460
C2461	C246	0.557310	0.342970	0.458770
C2471	C247	0.386850	0.295730	0.452220
H1631	H163	0.348000	0.261700	0.461700
C2481	C248	0.441720	0.295310	0.461920
H1641	H164	0.439700	0.260400	0.477400
C2491	C249	0.446730	0.397400	0.417420
H1651	H165	0.448900	0.432700	0.402500
C2501	C250	0.501270	0.397070	0.427950
H1661	H166	0.540300	0.432400	0.420600
C2511	C251	0.351190	0.441010	0.456860
H1671	H167	0.363200	0.427900	0.484500
O831	O83	0.553250	0.294430	0.476660
C2521	C252	0.351640	0.497420	0.457080
H1681	H168	0.364400	0.522700	0.484700
O841	O84	0.355890	0.611880	0.452340
O851	O85	0.276890	0.722830	0.782400
C2531	C253	0.165920	0.678480	0.782610
C2541	C254	0.055570	0.679850	0.761790
C2551	C255	0.223980	0.676300	0.792100
C2561	C256	0.053520	0.629060	0.785550
H1691	H169	0.014670	0.595030	0.795030
C2571	C257	0.108390	0.628640	0.795250
H1701	H170	0.106370	0.593730	0.810730
C2581	C258	0.113400	0.730730	0.750750
H1711	H171	0.115570	0.766030	0.735830
C2591	C259	0.167940	0.730400	0.761280
H1721	H172	0.206970	0.765730	0.753930
C2601	C260	0.017860	0.774340	0.790190
H1731	H173	0.029870	0.761230	0.817830
O861	O86	0.219920	0.627760	0.809990
C2611	C261	0.018310	0.830750	0.790410
H1741	H174	0.031070	0.856030	0.818030
O871	O87	0.022560	0.945210	0.785670
O881	O88	0.943550	0.056170	0.115740
C2621	C262	0.832580	0.011820	0.115950
C2631	C263	0.722230	0.013190	0.095130
C2641	C264	0.890640	0.009640	0.125440
C2651	C265	0.720180	0.962400	0.118890
H1751	H175	0.681330	0.928370	0.128370
C2661	C266	0.775050	0.961980	0.128590
H1761	H176	0.773030	0.927070	0.144070
C2671	C267	0.780060	0.064070	0.084090
H1771	H177	0.782230	0.099370	0.069170
C2681	C268	0.834600	0.063740	0.094620
H1781	H178	0.873630	0.099070	0.087270
C2691	C269	0.684520	0.107680	0.123530
H1791	H179	0.696530	0.094570	0.151170
O891	O89	0.886580	0.961100	0.143330
C2701	C270	0.684970	0.164090	0.123750
H1801	H180	0.697730	0.189370	0.151370
O901	O90	0.689220	0.278550	0.119010
O911	O91	0.779280	0.389780	0.449070
C2711	C271	0.845900	0.500750	0.449280
C2721	C272	0.957620	0.611100	0.428460
C2731	C273	0.785660	0.442690	0.458770
C2741	C274	0.908880	0.613150	0.452220
H1811	H181	0.913700	0.652000	0.461700
C2751	C275	0.853590	0.558280	0.461920
H1821	H182	0.820700	0.560300	0.477400
C2761	C276	0.950670	0.553270	0.417420
H1831	H183	0.983800	0.551100	0.402500
C2771	C277	0.895800	0.498730	0.427950
H1841	H184	0.892100	0.459700	0.420600
C2781	C278	0.089820	0.648810	0.456860
H1851	H185	0.064700	0.636800	0.484500
O921	O92	0.741180	0.446750	0.476660
C2791	C279	0.145780	0.648360	0.457080
H1861	H186	0.158300	0.635600	0.484700
O931	O93	0.255990	0.644110	0.452340
O941	O94	0.445950	0.723110	0.782400
C2801	C280	0.512570	0.834080	0.782610
C2811	C281	0.624290	0.944430	0.761790
C2821	C282	0.452330	0.776020	0.792100
C2831	C283	0.575550	0.946480	0.785550
H1871	H187	0.580370	0.985330	0.795030
C2841	C284	0.520260	0.891610	0.795250
H1881	H188	0.487370	0.893630	0.810730
C2851	C285	0.617340	0.886600	0.750750
H1891	H189	0.650470	0.884430	0.735830
C2861	C286	0.562470	0.832060	0.761280
H1901	H190	0.558770	0.793030	0.753930
C2871	C287	0.756490	0.982140	0.790190
H1911	H191	0.731370	0.970130	0.817830
O951	O95	0.407850	0.780080	0.809990
C2881	C288	0.812450	0.981690	0.790410
H1921	H192	0.824970	0.968930	0.818030
O961	O96	0.922660	0.977440	0.785670
O971	O97	0.112610	0.056450	0.115740
C2891	C289	0.179230	0.167420	0.115950
C2901	C290	0.290950	0.277770	0.095130
C2911	C291	0.118990	0.109360	0.125440
C2921	C292	0.242210	0.279820	0.118890
H1931	H193	0.247030	0.318670	0.128370
C2931	C293	0.186920	0.224950	0.128590
H1941	H194	0.154030	0.226970	0.144070
C2941	C294	0.284000	0.219940	0.084090
H1951	H195	0.317130	0.217770	0.069170
C2951	C295	0.229130	0.165400	0.094620
H1961	H196	0.225430	0.126370	0.087270
C2961	C296	0.423150	0.315480	0.123530
H1971	H197	0.398030	0.303470	0.151170
O981	O98	0.074510	0.113420	0.143330
C2971	C297	0.479110	0.315030	0.123750
H1981	H198	0.491630	0.302270	0.151370
O991	O99	0.589320	0.310780	0.119010
O1001	O100	0.610500	0.220720	0.449070
C2981	C298	0.654850	0.154100	0.449280
C2991	C299	0.653480	0.042380	0.428460
C3001	C300	0.657030	0.214340	0.458770
C3011	C301	0.704270	0.091120	0.452220
H1991	H199	0.738300	0.086300	0.461700
C3021	C302	0.704690	0.146410	0.461920
H2001	H200	0.739600	0.179300	0.477400
C3031	C303	0.602600	0.049330	0.417420
H2011	H201	0.567300	0.016200	0.402500
C3041	C304	0.602930	0.104200	0.427950
H2021	H202	0.567600	0.107900	0.420600
C3051	C305	0.558990	0.910180	0.456860
H2031	H203	0.572100	0.935300	0.484500
O1011	O101	0.705570	0.258820	0.476660
C3061	C306	0.502580	0.854220	0.457080
H2041	H204	0.477300	0.841700	0.484700
O1021	O102	0.388120	0.744010	0.452340
O1031	O103	0.277170	0.554050	0.782400
C3071	C307	0.321520	0.487430	0.782610
C3081	C308	0.320150	0.375710	0.761790
C3091	C309	0.323700	0.547670	0.792100
C3101	C310	0.370940	0.424450	0.785550
H2051	H205	0.404970	0.419630	0.795030
C3111	C311	0.371360	0.479740	0.795250
H2061	H206	0.406270	0.512630	0.810730
C3121	C312	0.269270	0.382660	0.750750
H2071	H207	0.233970	0.349530	0.735830
C3131	C313	0.269600	0.437530	0.761280
H2081	H208	0.234270	0.441230	0.753930
C3141	C314	0.225660	0.243510	0.790190
H2091	H209	0.238770	0.268630	0.817830
O1041	O104	0.372240	0.592150	0.809990
C3151	C315	0.169250	0.187550	0.790410
H2101	H210	0.143970	0.175030	0.818030
O1051	O105	0.054790	0.077340	0.785670
O1061	O106	0.943830	0.887390	0.115740
C3161	C316	0.988180	0.820770	0.115950
C3171	C317	0.986810	0.709050	0.095130
C3181	C318	0.990360	0.881010	0.125440
C3191	C319	0.037600	0.757790	0.118890
H2111	H211	0.071630	0.752970	0.128370
C3201	C320	0.038020	0.813080	0.128590
H2121	H212	0.072930	0.845970	0.144070
C3211	C321	0.935930	0.716000	0.084090
H2131	H213	0.900630	0.682870	0.069170
C3221	C322	0.936260	0.770870	0.094620
H2141	H214	0.900930	0.774570	0.087270
C3231	C323	0.892320	0.576850	0.123530
H2151	H215	0.905430	0.601970	0.151170
O1071	O107	0.038900	0.925490	0.143330
C3241	C324	0.835910	0.520890	0.123750
H2161	H216	0.810630	0.508370	0.151370
O1081	O108	0.721450	0.410680	0.119010
Th11	Th1	0.666670	0.333330	0.987770
O1091	O109	0.666670	0.333330	0.896870
Th21	Th2	0.333330	0.666670	0.321100
O1101	O110	0.333330	0.666670	0.230200
Th31	Th3	0.000000	0.000000	0.654440
O1111	O111	0.000000	0.000000	0.563540
Th41	Th4	0.333330	0.666670	0.512230
O1121	O112	0.333330	0.666670	0.603130
Th51	Th5	0.000000	0.000000	0.845560
O1131	O113	0.000000	0.000000	0.936460
Th61	Th6	0.666670	0.333330	0.178900
O1141	O114	0.666670	0.333330	0.269800
Th71	Th7	0.333330	0.666670	0.012230
O1151	O115	0.333330	0.666670	0.103130
Th81	Th8	0.000000	0.000000	0.345560
O1161	O116	0.000000	0.000000	0.436460
Th91	Th9	0.666670	0.333330	0.678900
O1171	O117	0.666670	0.333330	0.769800
Th101	Th10	0.666670	0.333330	0.487770
O1181	O118	0.666670	0.333330	0.396870
Th111	Th11	0.333330	0.666670	0.821100
O1191	O119	0.333330	0.666670	0.730200
Th121	Th12	0.000000	0.000000	0.154440
O1201	O120	0.000000	0.000000	0.063540
N11	N1	0.653860	0.666670	0.916670
C3251	C325	0.596180	0.666670	0.916670
C3261	C326	0.483160	0.666670	0.916670
C3271	C327	0.422860	0.666670	0.916670
N21	N2	0.320530	0.000000	0.250000
C3281	C328	0.262850	0.000000	0.250000
C3291	C329	0.149830	0.000000	0.250000
C3301	C330	0.089530	0.000000	0.250000
N31	N3	0.333330	0.987200	0.916670
C3311	C331	0.333330	0.929520	0.916670
C3321	C332	0.333330	0.816500	0.916670
C3331	C333	0.333330	0.756200	0.916670
N41	N4	0.000000	0.320530	0.250000
C3341	C334	0.000000	0.262850	0.250000
C3351	C335	0.000000	0.149830	0.250000
C3361	C336	0.000000	0.089530	0.250000
N51	N5	0.012800	0.346140	0.916670
C3371	C337	0.070480	0.403820	0.916670
C3381	C338	0.183500	0.516840	0.916670
C3391	C339	0.243800	0.577140	0.916670
N61	N6	0.679470	0.679470	0.250000
C3401	C340	0.737150	0.737150	0.250000
C3411	C341	0.850170	0.850170	0.250000
C3421	C342	0.910470	0.910470	0.250000
N71	N7	0.666670	0.653860	0.583330
C3431	C343	0.666670	0.596180	0.583330
C3441	C344	0.666670	0.483160	0.583330
C3451	C345	0.666670	0.422860	0.583330
N81	N8	0.987200	0.333330	0.583330
C3461	C346	0.929520	0.333330	0.583330
C3471	C347	0.816500	0.333330	0.583330
C3481	C348	0.756200	0.333330	0.583330
N91	N9	0.346140	0.012800	0.583330
C3491	C349	0.403820	0.070480	0.583330
C3501	C350	0.516840	0.183500	0.583330
C3511	C351	0.577140	0.243800	0.583330
N101	N10	0.346140	0.333330	0.083330
C3521	C352	0.403820	0.333330	0.083330
C3531	C353	0.516840	0.333330	0.083330
C3541	C354	0.577140	0.333330	0.083330
N111	N11	0.666670	0.012800	0.083330
C3551	C355	0.666670	0.070480	0.083330
C3561	C356	0.666670	0.183500	0.083330
C3571	C357	0.666670	0.243800	0.083330
N121	N12	0.987200	0.653860	0.083330
C3581	C358	0.929520	0.596180	0.083330
C3591	C359	0.816500	0.483160	0.083330
C3601	C360	0.756200	0.422860	0.083330
N131	N13	0.333330	0.346140	0.416670
C3611	C361	0.333330	0.403820	0.416670
C3621	C362	0.333330	0.516840	0.416670
C3631	C363	0.333330	0.577140	0.416670
N141	N14	0.000000	0.679470	0.750000
C3641	C364	0.000000	0.737150	0.750000
C3651	C365	0.000000	0.850170	0.750000
C3661	C366	0.000000	0.910470	0.750000
N151	N15	0.012800	0.666670	0.416670
C3671	C367	0.070480	0.666670	0.416670
C3681	C368	0.183500	0.666670	0.416670
C3691	C369	0.243800	0.666670	0.416670
N161	N16	0.679470	0.000000	0.750000
C3701	C370	0.737150	0.000000	0.750000
C3711	C371	0.850170	0.000000	0.750000
C3721	C372	0.910470	0.000000	0.750000
N171	N17	0.653860	0.987200	0.416670
C3731	C373	0.596180	0.929520	0.416670
C3741	C374	0.483160	0.816500	0.416670
C3751	C375	0.422860	0.756200	0.416670
N181	N18	0.320530	0.320530	0.750000
C3761	C376	0.262850	0.262850	0.750000
C3771	C377	0.149830	0.149830	0.750000
C3781	C378	0.089530	0.089530	0.750000
