data_PAFNES_freeONLY_PM
_symmetry_space_group_name_H-M	'P1'
_cell_length_a	14.877000
_cell_length_b	16.998000
_cell_length_c	16.095000
_cell_angle_alpha	90.000000
_cell_angle_beta	112.498000
_cell_angle_gamma	90.000000
_symmetry_Int_Tables_number 1

loop_
_symmetry_equiv_pos_as_xyz
'x,y,z'

loop_
_atom_site_label
_atom_site_type_symbol
_atom_site_fract_x
_atom_site_fract_y
_atom_site_fract_z
Cd11	Cd1	0.618090	0.196020	0.301270
Cd21	Cd2	0.333580	0.222950	0.187310
O11	O1	0.739000	0.287200	0.399600
O21	O2	0.761100	0.254000	0.280000
O31	O3	0.806800	0.497800	0.154300
O41	O4	0.837000	0.589200	0.261700
O51	O5	0.192700	0.271600	0.198600
O61	O6	0.232200	0.331600	0.098500
O71	O7	0.173000	0.610800	0.234700
O81	O8	0.032900	0.627140	0.246700
O91	O9	0.674400	0.122900	0.427300
H11	H1	0.600000	0.104000	0.403000
H21	H2	0.678000	0.134000	0.480000
O101	O10	0.274100	0.146600	0.059600
H31	H3	0.265000	0.162000	0.004800
H41	H4	0.330000	0.119000	0.076200
N11	N1	0.518700	0.278900	0.360400
N21	N2	0.419700	0.285400	0.325500
N31	N3	0.475400	0.347700	0.453900
N41	N4	0.542900	0.264100	0.165400
N51	N5	0.442700	0.276200	0.130500
N61	N6	0.503600	0.338600	0.044800
C11	C1	0.513600	0.536900	0.760000
H51	H5	0.461500	0.575100	0.745100
H61	H6	0.574800	0.565300	0.779600
C21	C2	0.502000	0.489200	0.677500
C31	C3	0.414800	0.486600	0.603900
H71	H7	0.362600	0.516800	0.603400
C41	C4	0.404600	0.438800	0.530000
H81	H8	0.345300	0.436000	0.481300
C51	C5	0.482700	0.396200	0.530200
C61	C6	0.569900	0.399000	0.603100
H91	H9	0.622400	0.369200	0.603400
C71	C7	0.579300	0.446200	0.676000
H101	H10	0.638700	0.448900	0.724500
C81	C8	0.511900	0.484700	0.836200
C91	C9	0.431300	0.440700	0.826200
H111	H11	0.377200	0.444000	0.772500
C101	C10	0.427400	0.391300	0.893600
H121	H12	0.372400	0.361300	0.885300
C111	C11	0.508600	0.388100	0.974100
C121	C12	0.590100	0.432100	0.986800
H131	H13	0.643500	0.430400	0.041100
C131	C13	0.591300	0.479300	0.916800
H141	H14	0.647000	0.508200	0.924400
C141	C14	0.550600	0.316700	0.436600
H151	H15	0.615800	0.321700	0.474000
C151	C15	0.395300	0.326400	0.381800
H161	H16	0.331800	0.339400	0.373800
C161	C16	0.577300	0.302600	0.113100
H171	H17	0.642700	0.305000	0.121400
C171	C17	0.421600	0.320600	0.059200
H181	H18	0.359300	0.337400	0.023300
C181	C18	0.788000	0.289600	0.353100
C191	C19	0.882900	0.333700	0.385900
H191	H19	0.935800	0.296600	0.397500
H201	H20	0.891700	0.359600	0.442200
C201	C20	0.888100	0.395700	0.318300
H211	H21	0.950700	0.422100	0.343100
H221	H22	0.883700	0.369500	0.263400
C211	C21	0.808300	0.456500	0.296000
H231	H23	0.810800	0.481600	0.351000
H241	H24	0.745700	0.430800	0.268500
C221	C22	0.818200	0.518900	0.232200
C231	C23	0.177100	0.323200	0.139100
C241	C24	0.092200	0.380300	0.122400
H251	H25	0.061100	0.391700	0.058600
H261	H26	0.044300	0.356600	0.141900
C251	C25	0.129400	0.454800	0.173300
H271	H27	0.174700	0.479200	0.151000
H281	H28	0.164800	0.442100	0.236200
C261	C26	0.051000	0.512800	0.166300
H291	H29	0.005300	0.488100	0.187900
H301	H30	0.016000	0.525900	0.103400
C271	C27	0.087900	0.588500	0.218700
Cd31	Cd3	0.881910	0.696020	0.198730
Cd41	Cd4	0.166420	0.722950	0.312690
O111	O11	0.761000	0.787200	0.100400
O121	O12	0.738900	0.754000	0.220000
O131	O13	0.693200	0.997800	0.345700
O141	O14	0.663000	0.089200	0.238300
O151	O15	0.307300	0.771600	0.301400
O161	O16	0.267800	0.831600	0.401500
O171	O17	0.327000	0.110800	0.265300
O181	O18	0.467100	0.127140	0.253300
O191	O19	0.825600	0.622900	0.072700
H311	H31	0.900000	0.604000	0.097000
H321	H32	0.822000	0.634000	0.020000
O201	O20	0.225900	0.646600	0.440400
H331	H33	0.235000	0.662000	0.495200
H341	H34	0.170000	0.619000	0.423800
N71	N7	0.981300	0.778900	0.139600
N81	N8	0.080300	0.785400	0.174500
N91	N9	0.024600	0.847700	0.046100
N101	N10	0.957100	0.764100	0.334600
N111	N11	0.057300	0.776200	0.369500
N121	N12	0.996400	0.838600	0.455200
C281	C28	0.986400	0.036900	0.740000
H351	H35	0.038500	0.075100	0.754900
H361	H36	0.925200	0.065300	0.720400
C291	C29	0.998000	0.989200	0.822500
C301	C30	0.085200	0.986600	0.896100
H371	H37	0.137400	0.016800	0.896600
C311	C31	0.095400	0.938800	0.970000
H381	H38	0.154700	0.936000	0.018700
C321	C32	0.017300	0.896200	0.969800
C331	C33	0.930100	0.899000	0.896900
H391	H39	0.877600	0.869200	0.896600
C341	C34	0.920700	0.946200	0.824000
H401	H40	0.861300	0.948900	0.775500
C351	C35	0.988100	0.984700	0.663800
C361	C36	0.068700	0.940700	0.673800
H411	H41	0.122800	0.944000	0.727500
C371	C37	0.072600	0.891300	0.606400
H421	H42	0.127600	0.861300	0.614700
C381	C38	0.991400	0.888100	0.525900
C391	C39	0.909900	0.932100	0.513200
H431	H43	0.856500	0.930400	0.458900
C401	C40	0.908700	0.979300	0.583200
H441	H44	0.853000	0.008200	0.575600
C411	C41	0.949400	0.816700	0.063400
H451	H45	0.884200	0.821700	0.026000
C421	C42	0.104700	0.826400	0.118200
H461	H46	0.168200	0.839400	0.126200
C431	C43	0.922700	0.802600	0.386900
H471	H47	0.857300	0.805000	0.378600
C441	C44	0.078400	0.820600	0.440800
H481	H48	0.140700	0.837400	0.476700
C451	C45	0.712000	0.789600	0.146900
C461	C46	0.617100	0.833700	0.114100
H491	H49	0.564200	0.796600	0.102500
H501	H50	0.608300	0.859600	0.057800
C471	C47	0.611900	0.895700	0.181700
H511	H51	0.549300	0.922100	0.156900
H521	H52	0.616300	0.869500	0.236600
C481	C48	0.691700	0.956500	0.204000
H531	H53	0.689200	0.981600	0.149000
H541	H54	0.754300	0.930800	0.231500
C491	C49	0.681800	0.018900	0.267800
C501	C50	0.322900	0.823200	0.360900
C511	C51	0.407800	0.880300	0.377600
H551	H55	0.438900	0.891700	0.441400
H561	H56	0.455700	0.856600	0.358100
C521	C52	0.370600	0.954800	0.326700
H571	H57	0.325300	0.979200	0.349000
H581	H58	0.335200	0.942100	0.263800
C531	C53	0.449000	0.012800	0.333700
H591	H59	0.494700	0.988100	0.312100
H601	H60	0.484000	0.025900	0.396600
C541	C54	0.412100	0.088500	0.281300
Cd51	Cd5	0.381910	0.803980	0.698730
Cd61	Cd6	0.666420	0.777050	0.812690
O211	O21	0.261000	0.712800	0.600400
O221	O22	0.238900	0.746000	0.720000
O231	O23	0.193200	0.502200	0.845700
O241	O24	0.163000	0.410800	0.738300
O251	O25	0.807300	0.728400	0.801400
O261	O26	0.767800	0.668400	0.901500
O271	O27	0.827000	0.389200	0.765300
O281	O28	0.967100	0.372860	0.753300
O291	O29	0.325600	0.877100	0.572700
H611	H61	0.400000	0.896000	0.597000
H621	H62	0.322000	0.866000	0.520000
O301	O30	0.725900	0.853400	0.940400
H631	H63	0.735000	0.838000	0.995200
H641	H64	0.670000	0.881000	0.923800
N131	N13	0.481300	0.721100	0.639600
N141	N14	0.580300	0.714600	0.674500
N151	N15	0.524600	0.652300	0.546100
N161	N16	0.457100	0.735900	0.834600
N171	N17	0.557300	0.723800	0.869500
N181	N18	0.496400	0.661400	0.955200
C551	C55	0.486400	0.463100	0.240000
H651	H65	0.538500	0.424900	0.254900
H661	H66	0.425200	0.434700	0.220400
C561	C56	0.498000	0.510800	0.322500
C571	C57	0.585200	0.513400	0.396100
H671	H67	0.637400	0.483200	0.396600
C581	C58	0.595400	0.561200	0.470000
H681	H68	0.654700	0.564000	0.518700
C591	C59	0.517300	0.603800	0.469800
C601	C60	0.430100	0.601000	0.396900
H691	H69	0.377600	0.630800	0.396600
C611	C61	0.420700	0.553800	0.324000
H701	H70	0.361300	0.551100	0.275500
C621	C62	0.488100	0.515300	0.163800
C631	C63	0.568700	0.559300	0.173800
H711	H71	0.622800	0.556000	0.227500
C641	C64	0.572600	0.608700	0.106400
H721	H72	0.627600	0.638700	0.114700
C651	C65	0.491400	0.611900	0.025900
C661	C66	0.409900	0.567900	0.013200
H731	H73	0.356500	0.569600	0.958900
C671	C67	0.408700	0.520700	0.083200
H741	H74	0.353000	0.491800	0.075600
C681	C68	0.449400	0.683300	0.563400
H751	H75	0.384200	0.678300	0.526000
C691	C69	0.604700	0.673600	0.618200
H761	H76	0.668200	0.660600	0.626200
C701	C70	0.422700	0.697400	0.886900
H771	H77	0.357300	0.695000	0.878600
C711	C71	0.578400	0.679400	0.940800
H781	H78	0.640700	0.662600	0.976700
C721	C72	0.212000	0.710400	0.646900
C731	C73	0.117100	0.666300	0.614100
H791	H79	0.064200	0.703400	0.602500
H801	H80	0.108300	0.640400	0.557800
C741	C74	0.111900	0.604300	0.681700
H811	H81	0.049300	0.577900	0.656900
H821	H82	0.116300	0.630500	0.736600
C751	C75	0.191700	0.543500	0.704000
H831	H83	0.189200	0.518400	0.649000
H841	H84	0.254300	0.569200	0.731500
C761	C76	0.181800	0.481100	0.767800
C771	C77	0.822900	0.676800	0.860900
C781	C78	0.907800	0.619700	0.877600
H851	H85	0.938900	0.608300	0.941400
H861	H86	0.955700	0.643400	0.858100
C791	C79	0.870600	0.545200	0.826700
H871	H87	0.825300	0.520800	0.849000
H881	H88	0.835200	0.557900	0.763800
C801	C80	0.949000	0.487200	0.833700
H891	H89	0.994700	0.511900	0.812100
H901	H90	0.984000	0.474100	0.896600
C811	C81	0.912100	0.411500	0.781300
Cd71	Cd7	0.118090	0.303980	0.801270
Cd81	Cd8	0.833580	0.277050	0.687310
O311	O31	0.239000	0.212800	0.899600
O321	O32	0.261100	0.246000	0.780000
O331	O33	0.306800	0.002200	0.654300
O341	O34	0.337000	0.910800	0.761700
O351	O35	0.692700	0.228400	0.698600
O361	O36	0.732200	0.168400	0.598500
O371	O37	0.673000	0.889200	0.734700
O381	O38	0.532900	0.872860	0.746700
O391	O39	0.174400	0.377100	0.927300
H911	H91	0.100000	0.396000	0.903000
H921	H92	0.178000	0.366000	0.980000
O401	O40	0.774100	0.353400	0.559600
H931	H93	0.765000	0.338000	0.504800
H941	H94	0.830000	0.381000	0.576200
N191	N19	0.018700	0.221100	0.860400
N201	N20	0.919700	0.214600	0.825500
N211	N21	0.975400	0.152300	0.953900
N221	N22	0.042900	0.235900	0.665400
N231	N23	0.942700	0.223800	0.630500
N241	N24	0.003600	0.161400	0.544800
C821	C82	0.013600	0.963100	0.260000
H951	H95	0.961500	0.924900	0.245100
H961	H96	0.074800	0.934700	0.279600
C831	C83	0.002000	0.010800	0.177500
C841	C84	0.914800	0.013400	0.103900
H971	H97	0.862600	0.983200	0.103400
C851	C85	0.904600	0.061200	0.030000
H981	H98	0.845300	0.064000	0.981300
C861	C86	0.982700	0.103800	0.030200
C871	C87	0.069900	0.101000	0.103100
H991	H99	0.122400	0.130800	0.103400
C881	C88	0.079300	0.053800	0.176000
H1001	H100	0.138700	0.051100	0.224500
C891	C89	0.011900	0.015300	0.336200
C901	C90	0.931300	0.059300	0.326200
H1011	H101	0.877200	0.056000	0.272500
C911	C91	0.927400	0.108700	0.393600
H1021	H102	0.872400	0.138700	0.385300
C921	C92	0.008600	0.111900	0.474100
C931	C93	0.090100	0.067900	0.486800
H1031	H103	0.143500	0.069600	0.541100
C941	C94	0.091300	0.020700	0.416800
H1041	H104	0.147000	0.991800	0.424400
C951	C95	0.050600	0.183300	0.936600
H1051	H105	0.115800	0.178300	0.974000
C961	C96	0.895300	0.173600	0.881800
H1061	H106	0.831800	0.160600	0.873800
C971	C97	0.077300	0.197400	0.613100
H1071	H107	0.142700	0.195000	0.621400
C981	C98	0.921600	0.179400	0.559200
H1081	H108	0.859300	0.162600	0.523300
C991	C99	0.288000	0.210400	0.853100
C1001	C100	0.382900	0.166300	0.885900
H1091	H109	0.435800	0.203400	0.897500
H1101	H110	0.391700	0.140400	0.942200
C1011	C101	0.388100	0.104300	0.818300
H1111	H111	0.450700	0.077900	0.843100
H1121	H112	0.383700	0.130500	0.763400
C1021	C102	0.308300	0.043500	0.796000
H1131	H113	0.310800	0.018400	0.851000
H1141	H114	0.245700	0.069200	0.768500
C1031	C103	0.318200	0.981100	0.732200
C1041	C104	0.677100	0.176800	0.639100
C1051	C105	0.592200	0.119700	0.622400
H1151	H115	0.561100	0.108300	0.558600
H1161	H116	0.544300	0.143400	0.641900
C1061	C106	0.629400	0.045200	0.673300
H1171	H117	0.674700	0.020800	0.651000
H1181	H118	0.664800	0.057900	0.736200
C1071	C107	0.551000	0.987200	0.666300
H1191	H119	0.505300	0.011900	0.687900
H1201	H120	0.516000	0.974100	0.603400
C1081	C108	0.587900	0.911500	0.718700
