data_PAHPOG_freeONLY_PM
_symmetry_space_group_name_H-M	'P1'
_cell_length_a	17.326600
_cell_length_b	21.978600
_cell_length_c	23.217200
_cell_angle_alpha	99.590000
_cell_angle_beta	108.832000
_cell_angle_gamma	107.228000
_symmetry_Int_Tables_number 1

loop_
_symmetry_equiv_pos_as_xyz
'x,y,z'

loop_
_atom_site_label
_atom_site_type_symbol
_atom_site_fract_x
_atom_site_fract_y
_atom_site_fract_z
Ag11	Ag1	0.071680	0.876550	0.171790
N11	N1	0.191900	0.884460	0.265210
N21	N2	0.010000	0.764710	0.137710
N31	N3	0.030900	0.964420	0.183170
N41	N4	0.163000	0.910560	0.112760
C11	C1	0.228800	0.838900	0.260200
C21	C2	0.223600	0.927600	0.321800
C31	C3	0.963300	0.728900	0.164300
C41	C4	0.028600	0.731400	0.093400
C51	C5	0.296600	0.836600	0.309800
H11	H1	0.206900	0.806600	0.220200
H21	H2	0.199000	0.960600	0.326200
C61	C6	0.289400	0.928700	0.374800
C71	C7	0.933500	0.660300	0.149200
H31	H3	0.949600	0.751900	0.195600
H41	H4	0.061600	0.756100	0.073600
C81	C8	0.001800	0.662700	0.075200
C91	C9	0.327900	0.881800	0.368840
H51	H5	0.321600	0.804200	0.303600
H61	H6	0.308200	0.960500	0.414500
C101	C10	0.954200	0.626000	0.103600
H71	H7	0.899800	0.636900	0.169300
H81	H8	0.016100	0.641100	0.043400
C111	C11	0.398200	0.880300	0.423600
C121	C12	0.921300	0.553600	0.082000
O11	O1	0.437350	0.836840	0.409720
C131	C13	0.431900	0.912200	0.486600
O21	O2	0.886400	0.520900	0.119010
C141	C14	0.911600	0.508800	0.029300
C151	C15	0.499000	0.842200	0.467260
C161	C16	0.497600	0.887300	0.516200
H91	H9	0.415400	0.944500	0.506900
C171	C17	0.851700	0.454600	0.086900
H101	H10	0.932300	0.519000	0.997500
C181	C18	0.865100	0.444500	0.030500
C191	C19	0.555000	0.808400	0.476160
C201	C20	0.555400	0.896800	0.577860
C211	C21	0.804600	0.404480	0.103800
C221	C22	0.828300	0.379900	0.990700
N51	N5	0.610600	0.818110	0.535130
H111	H11	0.554200	0.778600	0.441000
C231	C23	0.609300	0.860960	0.585610
H121	H12	0.557600	0.927000	0.613300
N61	N6	0.765300	0.341540	0.063300
H131	H13	0.799300	0.413300	0.143600
H141	H14	0.837700	0.369900	0.952600
C241	C24	0.777200	0.330100	0.007900
Fe11	Fe1	0.701330	0.778850	0.560340
C251	C25	0.670000	0.862920	0.647190
Fe21	Fe2	0.675910	0.266490	0.070260
C261	C26	0.725800	0.261300	0.967200
N71	N7	0.791200	0.748900	0.611560
N81	N8	0.714800	0.822880	0.641610
N91	N9	0.608000	0.691920	0.542450
N101	N10	0.691000	0.737970	0.478480
N111	N11	0.786100	0.854600	0.550430
C271	C27	0.684200	0.899900	0.707470
N121	N12	0.761000	0.234710	0.123850
N131	N13	0.685000	0.309960	0.150700
N141	N14	0.589600	0.308900	0.042620
N151	N15	0.672400	0.226410	0.990720
N161	N16	0.579700	0.180900	0.048800
C281	C28	0.727000	0.232000	0.909500
C291	C29	0.820000	0.704110	0.588620
C301	C30	0.815700	0.771900	0.675980
C311	C31	0.774700	0.818100	0.693700
C321	C32	0.567700	0.674700	0.581070
C331	C33	0.580700	0.649600	0.482970
C341	C34	0.632100	0.676190	0.447390
C351	C35	0.741000	0.773200	0.452200
C361	C36	0.793400	0.842220	0.492410
C371	C37	0.823400	0.916700	0.588610
C381	C38	0.743600	0.893900	0.760400
H151	H15	0.653400	0.928600	0.711900
C391	C39	0.792300	0.190600	0.103200
C401	C40	0.781500	0.257180	0.188160
C411	C41	0.741100	0.303580	0.203190
C421	C42	0.640500	0.350000	0.154690
C431	C43	0.585600	0.350480	0.091550
C441	C44	0.540300	0.301700	0.982300
C451	C45	0.615200	0.163700	0.958300
C461	C46	0.558600	0.136900	0.991200
C471	C47	0.531300	0.164000	0.082990
H161	H16	0.765900	0.256300	0.893100
C481	C48	0.671000	0.167400	0.876800
H171	H17	0.805100	0.688600	0.544300
C491	C49	0.871800	0.681000	0.631000
C501	C50	0.868700	0.750900	0.719600
C511	C51	0.790400	0.853300	0.754200
H181	H18	0.587100	0.703000	0.622700
C521	C52	0.497600	0.614900	0.558900
C531	C53	0.510300	0.589600	0.459000
C541	C54	0.622300	0.644400	0.387000
C551	C55	0.735500	0.745000	0.392400
C561	C56	0.839400	0.891000	0.472200
C571	C57	0.866700	0.966870	0.569100
H191	H19	0.820000	0.926200	0.629000
H201	H20	0.752600	0.917800	0.801500
H211	H21	0.780000	0.175500	0.059200
C581	C58	0.842900	0.167500	0.146600
C591	C59	0.834700	0.237210	0.233140
C601	C60	0.753900	0.338400	0.263800
C611	C61	0.649300	0.385000	0.213200
C621	C62	0.534500	0.388700	0.081750
C631	C63	0.487000	0.337600	0.971320
H221	H22	0.542100	0.272700	0.948000
C641	C64	0.613900	0.132600	0.901100
C651	C65	0.489600	0.076500	0.965400
C661	C66	0.463200	0.103700	0.059100
H231	H23	0.544200	0.193300	0.122800
H241	H24	0.671100	0.146500	0.837600
O31	O3	0.900600	0.631460	0.615120
C671	C67	0.897800	0.703000	0.696300
H251	H25	0.885000	0.768300	0.763900
H261	H26	0.832100	0.849800	0.790700
O41	O4	0.448400	0.590880	0.590610
C681	C68	0.465800	0.571600	0.498200
H271	H27	0.492500	0.561500	0.417400
H281	H28	0.580800	0.600300	0.364700
C691	C69	0.675600	0.679600	0.360200
H291	H29	0.771100	0.769200	0.373800
H301	H30	0.845800	0.880400	0.433000
C701	C70	0.875900	0.956000	0.511200
O51	O5	0.898400	0.032440	0.599930
O61	O6	0.876100	0.121000	0.132700
C711	C71	0.865400	0.190200	0.211900
H311	H31	0.849700	0.255100	0.277200
H321	H32	0.793500	0.334400	0.301000
C721	C72	0.707000	0.379000	0.267900
H331	H33	0.616700	0.412500	0.216100
H341	H34	0.533900	0.417900	0.116600
C731	C73	0.484200	0.383200	0.019410
O71	O7	0.432800	0.335520	0.912920
H351	H35	0.574600	0.088000	0.878600
H361	H36	0.476800	0.047800	0.925300
C741	C74	0.438300	0.058900	0.000800
O81	O8	0.408200	0.079350	0.088260
C751	C75	0.945700	0.623100	0.672500
C761	C76	0.945700	0.664200	0.722300
C771	C77	0.382200	0.532400	0.548300
C781	C78	0.390500	0.518400	0.492400
H371	H37	0.671200	0.658800	0.319300
C791	C79	0.917600	0.020500	0.506700
C801	C80	0.928900	0.064200	0.560100
C811	C81	0.919800	0.112700	0.191100
C821	C82	0.916400	0.153100	0.239700
H381	H38	0.714100	0.403100	0.308500
C831	C83	0.424800	0.411400	0.987200
C841	C84	0.396100	0.381900	0.925000
C851	C85	0.362000	0.004300	0.992700
C861	C86	0.346800	0.018600	0.046600
C871	C87	0.978200	0.569000	0.669100
H391	H39	0.972100	0.666900	0.765900
C881	C88	0.319800	0.496200	0.571800
H401	H40	0.353600	0.480700	0.456500
H411	H41	0.934100	0.030700	0.473100
C891	C89	0.964700	0.137200	0.583500
C901	C90	0.961000	0.063600	0.188400
H421	H42	0.942400	0.156700	0.283500
H431	H43	0.408700	0.444800	0.006300
C911	C91	0.330400	0.385360	0.868230
H441	H44	0.328700	0.965900	0.957000
C921	C92	0.283300	0.982700	0.069000
C931	C93	0.975600	0.533800	0.613900
C941	C94	0.013700	0.551600	0.723700
C951	C95	0.339700	0.504000	0.635600
C961	C96	0.236700	0.452100	0.529000
C971	C97	0.961900	0.170200	0.637200
C981	C98	0.002600	0.174400	0.549400
C991	C99	0.974600	0.039100	0.135200
C1001	C100	0.986000	0.038800	0.240200
C1011	C101	0.289700	0.333500	0.812700
C1021	C102	0.308600	0.441500	0.869200
C1031	C103	0.303300	0.994000	0.133600
C1041	C104	0.201500	0.935700	0.026700
H451	H45	0.952100	0.544300	0.575500
C1051	C105	0.007100	0.483200	0.613400
C1061	C106	0.042500	0.499500	0.719500
H461	H46	0.018200	0.575400	0.763500
H471	H47	0.395400	0.534500	0.666400
C1071	C107	0.276900	0.466400	0.654200
C1081	C108	0.178100	0.418200	0.551200
H481	H48	0.220700	0.445600	0.484600
H491	H49	0.936200	0.146200	0.661100
C1091	C109	0.996900	0.239000	0.656800
C1101	C110	0.036100	0.242700	0.572400
H501	H50	0.005100	0.153000	0.511400
H511	H51	0.960000	0.055600	0.099500
C1111	C111	0.009700	0.990200	0.134600
C1121	C112	0.019400	0.989600	0.234600
H521	H52	0.980000	0.055400	0.278300
H531	H53	0.304100	0.294900	0.810200
C1131	C113	0.227600	0.338800	0.760800
C1141	C114	0.247000	0.442400	0.815300
H541	H54	0.335900	0.478300	0.906500
H551	H55	0.357500	0.026700	0.164200
C1151	C115	0.240400	0.955400	0.151700
C1161	C116	0.144400	0.901100	0.050300
H561	H56	0.185300	0.927500	0.982200
N171	N17	0.040300	0.465500	0.665600
H571	H57	0.005000	0.459700	0.574300
H581	H58	0.064900	0.487300	0.757000
N181	N18	0.197500	0.425450	0.613090
H591	H59	0.291700	0.470400	0.698100
H601	H60	0.121400	0.388300	0.521500
N191	N19	0.034000	0.275120	0.625120
H611	H61	0.994400	0.261600	0.694500
H621	H62	0.062100	0.268000	0.549400
H631	H63	0.019200	0.974100	0.097900
H641	H64	0.035400	0.972500	0.269800
N201	N20	0.205500	0.392320	0.760480
H651	H65	0.198800	0.302400	0.723100
H661	H66	0.232400	0.480900	0.816400
H671	H67	0.254900	0.962100	0.196000
H681	H68	0.089000	0.868900	0.020900
Ag21	Ag2	0.098240	0.387450	0.662520
Ag31	Ag3	0.928320	0.123450	0.828210
N211	N21	0.808100	0.115540	0.734790
N221	N22	0.990000	0.235290	0.862290
N231	N23	0.969100	0.035580	0.816830
N241	N24	0.837000	0.089440	0.887240
C1171	C117	0.771200	0.161100	0.739800
C1181	C118	0.776400	0.072400	0.678200
C1191	C119	0.036700	0.271100	0.835700
C1201	C120	0.971400	0.268600	0.906600
C1211	C121	0.703400	0.163400	0.690200
H691	H69	0.793100	0.193400	0.779800
H701	H70	0.801000	0.039400	0.673800
C1221	C122	0.710600	0.071300	0.625200
C1231	C123	0.066500	0.339700	0.850800
H711	H71	0.050400	0.248100	0.804400
H721	H72	0.938400	0.243900	0.926400
C1241	C124	0.998200	0.337300	0.924800
C1251	C125	0.672100	0.118200	0.631160
H731	H73	0.678400	0.195800	0.696400
H741	H74	0.691800	0.039500	0.585500
C1261	C126	0.045800	0.374000	0.896400
H751	H75	0.100200	0.363100	0.830700
H761	H76	0.983900	0.358900	0.956600
C1271	C127	0.601800	0.119700	0.576400
C1281	C128	0.078700	0.446400	0.918000
O91	O9	0.562650	0.163160	0.590280
C1291	C129	0.568100	0.087800	0.513400
O101	O10	0.113600	0.479100	0.880990
C1301	C130	0.088400	0.491200	0.970700
C1311	C131	0.501000	0.157800	0.532740
C1321	C132	0.502400	0.112700	0.483800
H771	H77	0.584600	0.055500	0.493100
C1331	C133	0.148300	0.545400	0.913100
H781	H78	0.067700	0.481000	0.002500
C1341	C134	0.134900	0.555500	0.969500
C1351	C135	0.445000	0.191600	0.523840
C1361	C136	0.444600	0.103200	0.422140
C1371	C137	0.195400	0.595520	0.896200
C1381	C138	0.171700	0.620100	0.009300
N251	N25	0.389400	0.181890	0.464870
H791	H79	0.445800	0.221400	0.559000
C1391	C139	0.390700	0.139040	0.414390
H801	H80	0.442400	0.073000	0.386700
N261	N26	0.234700	0.658460	0.936700
H811	H81	0.200700	0.586700	0.856400
H821	H82	0.162300	0.630100	0.047400
C1401	C140	0.222800	0.669900	0.992100
Fe31	Fe3	0.298670	0.221150	0.439660
C1411	C141	0.330000	0.137080	0.352810
Fe41	Fe4	0.324090	0.733510	0.929740
C1421	C142	0.274200	0.738700	0.032800
N271	N27	0.208800	0.251100	0.388440
N281	N28	0.285200	0.177120	0.358390
N291	N29	0.392000	0.308080	0.457550
N301	N30	0.309000	0.262030	0.521520
N311	N31	0.213900	0.145400	0.449570
C1431	C143	0.315800	0.100100	0.292530
N321	N32	0.239000	0.765290	0.876150
N331	N33	0.315000	0.690040	0.849300
N341	N34	0.410400	0.691100	0.957380
N351	N35	0.327600	0.773590	0.009280
N361	N36	0.420300	0.819100	0.951200
C1441	C144	0.273000	0.768000	0.090500
C1451	C145	0.180000	0.295890	0.411380
C1461	C146	0.184300	0.228100	0.324020
C1471	C147	0.225300	0.181900	0.306300
C1481	C148	0.432300	0.325300	0.418930
C1491	C149	0.419300	0.350400	0.517030
C1501	C150	0.367900	0.323810	0.552610
C1511	C151	0.259000	0.226800	0.547800
C1521	C152	0.206600	0.157780	0.507590
C1531	C153	0.176600	0.083300	0.411390
C1541	C154	0.256400	0.106100	0.239600
H831	H83	0.346600	0.071400	0.288100
C1551	C155	0.207700	0.809400	0.896800
C1561	C156	0.218500	0.742820	0.811840
C1571	C157	0.258900	0.696420	0.796810
C1581	C158	0.359500	0.650000	0.845310
C1591	C159	0.414400	0.649520	0.908450
C1601	C160	0.459700	0.698300	0.017700
C1611	C161	0.384800	0.836300	0.041700
C1621	C162	0.441400	0.863100	0.008800
C1631	C163	0.468700	0.836000	0.917010
H841	H84	0.234100	0.743700	0.106900
C1641	C164	0.329000	0.832600	0.123200
H851	H85	0.194900	0.311400	0.455700
C1651	C165	0.128200	0.319000	0.369000
C1661	C166	0.131300	0.249100	0.280400
C1671	C167	0.209600	0.146700	0.245800
H861	H86	0.412900	0.297000	0.377300
C1681	C168	0.502400	0.385100	0.441100
C1691	C169	0.489700	0.410400	0.541000
C1701	C170	0.377700	0.355600	0.613000
C1711	C171	0.264500	0.255000	0.607600
C1721	C172	0.160600	0.109000	0.527800
C1731	C173	0.133300	0.033130	0.430900
H871	H87	0.180000	0.073800	0.371000
H881	H88	0.247400	0.082200	0.198500
H891	H89	0.220000	0.824500	0.940800
C1741	C174	0.157100	0.832500	0.853400
C1751	C175	0.165300	0.762790	0.766860
C1761	C176	0.246100	0.661600	0.736200
C1771	C177	0.350700	0.615000	0.786800
C1781	C178	0.465500	0.611300	0.918250
C1791	C179	0.513000	0.662400	0.028680
H901	H90	0.457900	0.727300	0.052000
C1801	C180	0.386100	0.867400	0.098900
C1811	C181	0.510400	0.923500	0.034600
C1821	C182	0.536800	0.896300	0.940900
H911	H91	0.455800	0.806700	0.877200
H921	H92	0.328900	0.853500	0.162400
O111	O11	0.099400	0.368540	0.384880
C1831	C183	0.102200	0.297000	0.303700
H931	H93	0.115000	0.231700	0.236100
H941	H94	0.167900	0.150200	0.209300
O121	O12	0.551600	0.409120	0.409390
C1841	C184	0.534200	0.428400	0.501800
H951	H95	0.507500	0.438500	0.582600
H961	H96	0.419200	0.399700	0.635300
C1851	C185	0.324400	0.320400	0.639800
H971	H97	0.228900	0.230800	0.626200
H981	H98	0.154200	0.119600	0.567000
C1861	C186	0.124100	0.044000	0.488800
O131	O13	0.101600	0.967560	0.400070
O141	O14	0.123900	0.879000	0.867300
C1871	C187	0.134600	0.809800	0.788100
H991	H99	0.150300	0.744900	0.722800
H1001	H100	0.206500	0.665600	0.699000
C1881	C188	0.293000	0.621000	0.732100
H1011	H101	0.383300	0.587500	0.783900
H1021	H102	0.466100	0.582100	0.883400
C1891	C189	0.515800	0.616800	0.980590
O151	O15	0.567200	0.664480	0.087080
H1031	H103	0.425400	0.912000	0.121400
H1041	H104	0.523200	0.952200	0.074700
C1901	C190	0.561700	0.941100	0.999200
O161	O16	0.591800	0.920650	0.911740
C1911	C191	0.054300	0.376900	0.327500
C1921	C192	0.054300	0.335800	0.277700
C1931	C193	0.617800	0.467600	0.451700
C1941	C194	0.609500	0.481600	0.507600
H1051	H105	0.328800	0.341200	0.680700
C1951	C195	0.082400	0.979500	0.493300
C1961	C196	0.071100	0.935800	0.439900
C1971	C197	0.080200	0.887300	0.808900
C1981	C198	0.083600	0.846900	0.760300
H1061	H106	0.285900	0.596900	0.691500
C1991	C199	0.575200	0.588600	0.012800
C2001	C200	0.603900	0.618100	0.075000
C2011	C201	0.638000	0.995700	0.007300
C2021	C202	0.653200	0.981400	0.953400
C2031	C203	0.021800	0.431000	0.330900
H1071	H107	0.027900	0.333100	0.234100
C2041	C204	0.680200	0.503800	0.428200
H1081	H108	0.646400	0.519300	0.543500
H1091	H109	0.065900	0.969300	0.526900
C2051	C205	0.035300	0.862800	0.416500
C2061	C206	0.039000	0.936400	0.811600
H1101	H110	0.057600	0.843300	0.716500
H1111	H111	0.591300	0.555200	0.993700
C2071	C207	0.669600	0.614640	0.131770
H1121	H112	0.671300	0.034100	0.043000
C2081	C208	0.716700	0.017300	0.931000
C2091	C209	0.024400	0.466200	0.386100
C2101	C210	0.986300	0.448400	0.276300
C2111	C211	0.660300	0.496000	0.364400
C2121	C212	0.763300	0.547900	0.471000
C2131	C213	0.038100	0.829800	0.362800
C2141	C214	0.997400	0.825600	0.450600
C2151	C215	0.025400	0.960900	0.864800
C2161	C216	0.014000	0.961200	0.759800
C2171	C217	0.710300	0.666500	0.187300
C2181	C218	0.691400	0.558500	0.130800
C2191	C219	0.696700	0.006000	0.866400
C2201	C220	0.798500	0.064300	0.973300
H1131	H113	0.047900	0.455700	0.424500
C2211	C221	0.992900	0.516800	0.386600
C2221	C222	0.957500	0.500500	0.280500
H1141	H114	0.981800	0.424600	0.236500
H1151	H115	0.604600	0.465500	0.333600
C2231	C223	0.723100	0.533600	0.345800
C2241	C224	0.821900	0.581800	0.448800
H1161	H116	0.779300	0.554400	0.515400
H1171	H117	0.063800	0.853800	0.338900
C2251	C225	0.003100	0.761000	0.343200
C2261	C226	0.963900	0.757300	0.427600
H1181	H118	0.994900	0.847000	0.488600
H1191	H119	0.040000	0.944400	0.900500
C2271	C227	0.990300	0.009800	0.865400
C2281	C228	0.980600	0.010400	0.765400
H1201	H120	0.020000	0.944600	0.721700
H1211	H121	0.695900	0.705100	0.189800
C2291	C229	0.772400	0.661200	0.239200
C2301	C230	0.753000	0.557600	0.184700
H1221	H122	0.664100	0.521700	0.093500
H1231	H123	0.642500	0.973300	0.835800
C2311	C231	0.759600	0.044600	0.848300
C2321	C232	0.855600	0.098900	0.949700
H1241	H124	0.814700	0.072500	0.017800
N371	N37	0.959700	0.534500	0.334400
H1251	H125	0.995000	0.540300	0.425700
H1261	H126	0.935100	0.512700	0.243000
N381	N38	0.802500	0.574550	0.386910
H1271	H127	0.708300	0.529600	0.301900
H1281	H128	0.878600	0.611700	0.478500
N391	N39	0.966000	0.724880	0.374880
H1291	H129	0.005600	0.738400	0.305500
H1301	H130	0.937900	0.732000	0.450600
H1311	H131	0.980800	0.025900	0.902100
H1321	H132	0.964600	0.027500	0.730200
N401	N40	0.794500	0.607680	0.239520
H1331	H133	0.801200	0.697600	0.276900
H1341	H134	0.767600	0.519100	0.183600
H1351	H135	0.745100	0.037900	0.804000
H1361	H136	0.911000	0.131100	0.979100
Ag41	Ag4	0.901760	0.612550	0.337480
