data_PAMTOO_freeONLY_PM
_symmetry_space_group_name_H-M	'P1'
_cell_length_a	18.958400
_cell_length_b	18.958400
_cell_length_c	18.958400
_cell_angle_alpha	62.931200
_cell_angle_beta	62.931200
_cell_angle_gamma	62.931200
_symmetry_Int_Tables_number 1

loop_
_symmetry_equiv_pos_as_xyz
'x,y,z'

loop_
_atom_site_label
_atom_site_type_symbol
_atom_site_fract_x
_atom_site_fract_y
_atom_site_fract_z
Dy11	Dy1	0.995680	0.566380	0.559460
Dy21	Dy2	0.559460	0.995680	0.566380
Dy31	Dy3	0.566380	0.559460	0.995680
Dy41	Dy4	0.004320	0.433620	0.440540
Dy51	Dy5	0.440540	0.004320	0.433620
Dy61	Dy6	0.433620	0.440540	0.004320
H11	H1	0.772600	0.762600	0.483900
H21	H2	0.606200	0.839500	0.369700
H31	H3	0.802900	0.632900	0.348400
H41	H4	0.321200	0.579200	0.633200
H51	H5	0.248700	0.559000	0.579500
H61	H6	0.053700	0.582700	0.776900
H71	H7	0.130500	0.607000	0.828200
H81	H8	0.221600	0.642800	0.821900
H91	H9	0.301300	0.562800	0.813800
H101	H10	0.483900	0.772600	0.762600
H111	H11	0.369700	0.606200	0.839500
H121	H12	0.348400	0.802900	0.632900
H131	H13	0.633200	0.321200	0.579200
H141	H14	0.579500	0.248700	0.559000
H151	H15	0.776900	0.053700	0.582700
H161	H16	0.828200	0.130500	0.607000
H171	H17	0.821900	0.221600	0.642800
H181	H18	0.813800	0.301300	0.562800
H191	H19	0.762600	0.483900	0.772600
H201	H20	0.839500	0.369700	0.606200
H211	H21	0.632900	0.348400	0.802900
H221	H22	0.579200	0.633200	0.321200
H231	H23	0.559000	0.579500	0.248700
H241	H24	0.582700	0.776900	0.053700
H251	H25	0.607000	0.828200	0.130500
H261	H26	0.642800	0.821900	0.221600
H271	H27	0.562800	0.813800	0.301300
H281	H28	0.227400	0.237400	0.516100
H291	H29	0.393800	0.160500	0.630300
H301	H30	0.197100	0.367100	0.651600
H311	H31	0.678800	0.420800	0.366800
H321	H32	0.751300	0.441000	0.420500
H331	H33	0.946300	0.417300	0.223100
H341	H34	0.869500	0.393000	0.171800
H351	H35	0.778400	0.357200	0.178100
H361	H36	0.698700	0.437200	0.186200
H371	H37	0.516100	0.227400	0.237400
H381	H38	0.630300	0.393800	0.160500
H391	H39	0.651600	0.197100	0.367100
H401	H40	0.366800	0.678800	0.420800
H411	H41	0.420500	0.751300	0.441000
H421	H42	0.223100	0.946300	0.417300
H431	H43	0.171800	0.869500	0.393000
H441	H44	0.178100	0.778400	0.357200
H451	H45	0.186200	0.698700	0.437200
H461	H46	0.237400	0.516100	0.227400
H471	H47	0.160500	0.630300	0.393800
H481	H48	0.367100	0.651600	0.197100
H491	H49	0.420800	0.366800	0.678800
H501	H50	0.441000	0.420500	0.751300
H511	H51	0.417300	0.223100	0.946300
H521	H52	0.393000	0.171800	0.869500
H531	H53	0.357200	0.178100	0.778400
H541	H54	0.437200	0.186200	0.698700
C11	C1	0.879200	0.624200	0.440100
C21	C2	0.801600	0.688800	0.417400
C31	C3	0.755290	0.755990	0.449290
C41	C4	0.684620	0.811720	0.429520
C51	C5	0.636540	0.882640	0.464940
C61	C6	0.655900	0.802400	0.380500
C71	C7	0.702400	0.737200	0.347300
C81	C8	0.774000	0.678600	0.367900
C91	C9	0.234200	0.594200	0.735200
C101	C10	0.265900	0.581200	0.663400
C111	C11	0.222200	0.570400	0.630000
C121	C12	0.141200	0.576300	0.669700
C131	C13	0.089600	0.571400	0.631100
C141	C14	0.107700	0.584800	0.745100
C151	C15	0.155400	0.597000	0.777000
C161	C16	0.266400	0.613100	0.783700
C171	C17	0.440100	0.879200	0.624200
C181	C18	0.417400	0.801600	0.688800
C191	C19	0.449290	0.755290	0.755990
C201	C20	0.429520	0.684620	0.811720
C211	C21	0.464940	0.636540	0.882640
C221	C22	0.380500	0.655900	0.802400
C231	C23	0.347300	0.702400	0.737200
C241	C24	0.367900	0.774000	0.678600
C251	C25	0.735200	0.234200	0.594200
C261	C26	0.663400	0.265900	0.581200
C271	C27	0.630000	0.222200	0.570400
C281	C28	0.669700	0.141200	0.576300
C291	C29	0.631100	0.089600	0.571400
C301	C30	0.745100	0.107700	0.584800
C311	C31	0.777000	0.155400	0.597000
C321	C32	0.783700	0.266400	0.613100
C331	C33	0.624200	0.440100	0.879200
C341	C34	0.688800	0.417400	0.801600
C351	C35	0.755990	0.449290	0.755290
C361	C36	0.811720	0.429520	0.684620
C371	C37	0.882640	0.464940	0.636540
C381	C38	0.802400	0.380500	0.655900
C391	C39	0.737200	0.347300	0.702400
C401	C40	0.678600	0.367900	0.774000
C411	C41	0.594200	0.735200	0.234200
C421	C42	0.581200	0.663400	0.265900
C431	C43	0.570400	0.630000	0.222200
C441	C44	0.576300	0.669700	0.141200
C451	C45	0.571400	0.631100	0.089600
C461	C46	0.584800	0.745100	0.107700
C471	C47	0.597000	0.777000	0.155400
C481	C48	0.613100	0.783700	0.266400
C491	C49	0.120800	0.375800	0.559900
C501	C50	0.198400	0.311200	0.582600
C511	C51	0.244710	0.244010	0.550710
C521	C52	0.315380	0.188280	0.570480
C531	C53	0.363460	0.117360	0.535060
C541	C54	0.344100	0.197600	0.619500
C551	C55	0.297600	0.262800	0.652700
C561	C56	0.226000	0.321400	0.632100
C571	C57	0.765800	0.405800	0.264800
C581	C58	0.734100	0.418800	0.336600
C591	C59	0.777800	0.429600	0.370000
C601	C60	0.858800	0.423700	0.330300
C611	C61	0.910400	0.428600	0.368900
C621	C62	0.892300	0.415200	0.254900
C631	C63	0.844600	0.403000	0.223000
C641	C64	0.733600	0.386900	0.216300
C651	C65	0.559900	0.120800	0.375800
C661	C66	0.582600	0.198400	0.311200
C671	C67	0.550710	0.244710	0.244010
C681	C68	0.570480	0.315380	0.188280
C691	C69	0.535060	0.363460	0.117360
C701	C70	0.619500	0.344100	0.197600
C711	C71	0.652700	0.297600	0.262800
C721	C72	0.632100	0.226000	0.321400
C731	C73	0.264800	0.765800	0.405800
C741	C74	0.336600	0.734100	0.418800
C751	C75	0.370000	0.777800	0.429600
C761	C76	0.330300	0.858800	0.423700
C771	C77	0.368900	0.910400	0.428600
C781	C78	0.254900	0.892300	0.415200
C791	C79	0.223000	0.844600	0.403000
C801	C80	0.216300	0.733600	0.386900
C811	C81	0.375800	0.559900	0.120800
C821	C82	0.311200	0.582600	0.198400
C831	C83	0.244010	0.550710	0.244710
C841	C84	0.188280	0.570480	0.315380
C851	C85	0.117360	0.535060	0.363460
C861	C86	0.197600	0.619500	0.344100
C871	C87	0.262800	0.652700	0.297600
C881	C88	0.321400	0.632100	0.226000
C891	C89	0.405800	0.264800	0.765800
C901	C90	0.418800	0.336600	0.734100
C911	C91	0.429600	0.370000	0.777800
C921	C92	0.423700	0.330300	0.858800
C931	C93	0.428600	0.368900	0.910400
C941	C94	0.415200	0.254900	0.892300
C951	C95	0.403000	0.223000	0.844600
C961	C96	0.386900	0.216300	0.733600
O11	O1	0.895170	0.631870	0.493770
O21	O2	0.919850	0.569250	0.405950
O31	O3	0.003600	0.709100	0.473200
O41	O4	0.118250	0.578250	0.554950
O51	O5	0.884700	0.674200	0.624300
O61	O6	0.019930	0.561030	0.674630
O71	O7	0.567180	0.928580	0.453980
O81	O8	0.664600	0.892400	0.507400
O91	O9	0.668700	0.707500	0.317400
O101	O10	0.493770	0.895170	0.631870
O111	O11	0.405950	0.919850	0.569250
O121	O12	0.473200	0.003600	0.709100
O131	O13	0.554950	0.118250	0.578250
O141	O14	0.624300	0.884700	0.674200
O151	O15	0.674630	0.019930	0.561030
O161	O16	0.453980	0.567180	0.928580
O171	O17	0.507400	0.664600	0.892400
O181	O18	0.317400	0.668700	0.707500
O191	O19	0.631870	0.493770	0.895170
O201	O20	0.569250	0.405950	0.919850
O211	O21	0.709100	0.473200	0.003600
O221	O22	0.578250	0.554950	0.118250
O231	O23	0.674200	0.624300	0.884700
O241	O24	0.561030	0.674630	0.019930
O251	O25	0.928580	0.453980	0.567180
O261	O26	0.892400	0.507400	0.664600
O271	O27	0.707500	0.317400	0.668700
O281	O28	0.104830	0.368130	0.506230
O291	O29	0.080150	0.430750	0.594050
O301	O30	0.996400	0.290900	0.526800
O311	O31	0.881750	0.421750	0.445050
O321	O32	0.115300	0.325800	0.375700
O331	O33	0.980070	0.438970	0.325370
O341	O34	0.432820	0.071420	0.546020
O351	O35	0.335400	0.107600	0.492600
O361	O36	0.331300	0.292500	0.682600
O371	O37	0.506230	0.104830	0.368130
O381	O38	0.594050	0.080150	0.430750
O391	O39	0.526800	0.996400	0.290900
O401	O40	0.445050	0.881750	0.421750
O411	O41	0.375700	0.115300	0.325800
O421	O42	0.325370	0.980070	0.438970
O431	O43	0.546020	0.432820	0.071420
O441	O44	0.492600	0.335400	0.107600
O451	O45	0.682600	0.331300	0.292500
O461	O46	0.368130	0.506230	0.104830
O471	O47	0.430750	0.594050	0.080150
O481	O48	0.290900	0.526800	0.996400
O491	O49	0.421750	0.445050	0.881750
O501	O50	0.325800	0.375700	0.115300
O511	O51	0.438970	0.325370	0.980070
O521	O52	0.071420	0.546020	0.432820
O531	O53	0.107600	0.492600	0.335400
O541	O54	0.292500	0.682600	0.331300
