data_PANRUS01_freeONLY_PM
_symmetry_space_group_name_H-M	'P1'
_cell_length_a	13.800000
_cell_length_b	13.800000
_cell_length_c	14.825000
_cell_angle_alpha	90.000000
_cell_angle_beta	90.000000
_cell_angle_gamma	120.000000
_symmetry_Int_Tables_number 1

loop_
_symmetry_equiv_pos_as_xyz
'x,y,z'

loop_
_atom_site_label
_atom_site_type_symbol
_atom_site_fract_x
_atom_site_fract_y
_atom_site_fract_z
Al11	Al1	0.995900	0.225000	0.102400
P11	P1	0.995000	0.223000	0.889000
O11	O1	0.994700	0.253600	0.987100
O21	O2	0.883800	0.123000	0.863000
O31	O3	0.086200	0.194000	0.871700
O41	O4	0.012700	0.320100	0.829700
Al21	Al2	0.662570	0.558330	0.435730
P21	P2	0.661670	0.556330	0.222330
O51	O5	0.661370	0.586930	0.320430
O61	O6	0.550470	0.456330	0.196330
O71	O7	0.752870	0.527330	0.205030
O81	O8	0.679370	0.653430	0.163030
Al31	Al3	0.329230	0.891670	0.769070
P31	P3	0.328330	0.889670	0.555670
O91	O9	0.328030	0.920270	0.653770
O101	O10	0.217130	0.789670	0.529670
O111	O11	0.419530	0.860670	0.538370
O121	O12	0.346030	0.986770	0.496370
Al41	Al4	0.775000	0.770900	0.102400
P41	P4	0.777000	0.772000	0.889000
O131	O13	0.746400	0.741100	0.987100
O141	O14	0.877000	0.760800	0.863000
O151	O15	0.806000	0.892200	0.871700
O161	O16	0.679900	0.692600	0.829700
Al51	Al5	0.441670	0.104230	0.435730
P51	P5	0.443670	0.105330	0.222330
O171	O17	0.413070	0.074430	0.320430
O181	O18	0.543670	0.094130	0.196330
O191	O19	0.472670	0.225530	0.205030
O201	O20	0.346570	0.025930	0.163030
Al61	Al6	0.108330	0.437570	0.769070
P61	P6	0.110330	0.438670	0.555670
O211	O21	0.079730	0.407770	0.653770
O221	O22	0.210330	0.427470	0.529670
O231	O23	0.139330	0.558870	0.538370
O241	O24	0.013230	0.359270	0.496370
Al71	Al7	0.229100	0.004100	0.102400
P71	P7	0.228000	0.005000	0.889000
O251	O25	0.258900	0.005300	0.987100
O261	O26	0.239200	0.116200	0.863000
O271	O27	0.107800	0.913800	0.871700
O281	O28	0.307400	0.987300	0.829700
Al81	Al8	0.895770	0.337430	0.435730
P81	P8	0.894670	0.338330	0.222330
O291	O29	0.925570	0.338630	0.320430
O301	O30	0.905870	0.449530	0.196330
O311	O31	0.774470	0.247130	0.205030
O321	O32	0.974070	0.320630	0.163030
Al91	Al9	0.562430	0.670770	0.769070
P91	P9	0.561330	0.671670	0.555670
O331	O33	0.592230	0.671970	0.653770
O341	O34	0.572530	0.782870	0.529670
O351	O35	0.441130	0.580470	0.538370
O361	O36	0.640730	0.653970	0.496370
Al101	Al10	0.004100	0.775000	0.897600
P101	P10	0.005000	0.777000	0.111000
O371	O37	0.005300	0.746400	0.012900
O381	O38	0.116200	0.877000	0.137000
O391	O39	0.913800	0.806000	0.128300
O401	O40	0.987300	0.679900	0.170300
Al111	Al11	0.670770	0.108330	0.230930
P111	P11	0.671670	0.110330	0.444330
O411	O41	0.671970	0.079730	0.346230
O421	O42	0.782870	0.210330	0.470330
O431	O43	0.580470	0.139330	0.461630
O441	O44	0.653970	0.013230	0.503630
Al121	Al12	0.337430	0.441670	0.564270
P121	P12	0.338330	0.443670	0.777670
O451	O45	0.338630	0.413070	0.679570
O461	O46	0.449530	0.543670	0.803670
O471	O47	0.247130	0.472670	0.794970
O481	O48	0.320630	0.346570	0.836970
Al131	Al13	0.225000	0.229100	0.897600
P131	P13	0.223000	0.228000	0.111000
O491	O49	0.253600	0.258900	0.012900
O501	O50	0.123000	0.239200	0.137000
O511	O51	0.194000	0.107800	0.128300
O521	O52	0.320100	0.307400	0.170300
Al141	Al14	0.891670	0.562430	0.230930
P141	P14	0.889670	0.561330	0.444330
O531	O53	0.920270	0.592230	0.346230
O541	O54	0.789670	0.572530	0.470330
O551	O55	0.860670	0.441130	0.461630
O561	O56	0.986770	0.640730	0.503630
Al151	Al15	0.558330	0.895770	0.564270
P151	P15	0.556330	0.894670	0.777670
O571	O57	0.586930	0.925570	0.679570
O581	O58	0.456330	0.905870	0.803670
O591	O59	0.527330	0.774470	0.794970
O601	O60	0.653430	0.974070	0.836970
Al161	Al16	0.770900	0.995900	0.897600
P161	P16	0.772000	0.995000	0.111000
O611	O61	0.741100	0.994700	0.012900
O621	O62	0.760800	0.883800	0.137000
O631	O63	0.892200	0.086200	0.128300
O641	O64	0.692600	0.012700	0.170300
Al171	Al17	0.437570	0.329230	0.230930
P171	P17	0.438670	0.328330	0.444330
O651	O65	0.407770	0.328030	0.346230
O661	O66	0.427470	0.217130	0.470330
O671	O67	0.558870	0.419530	0.461630
O681	O68	0.359270	0.346030	0.503630
Al181	Al18	0.104230	0.662570	0.564270
P181	P18	0.105330	0.661670	0.777670
O691	O69	0.074430	0.661370	0.679570
O701	O70	0.094130	0.550470	0.803670
O711	O71	0.225530	0.752870	0.794970
O721	O72	0.025930	0.679370	0.836970
