data_PANYOU_charged_PM
_symmetry_space_group_name_H-M	'P1'
_cell_length_a	4.885500
_cell_length_b	24.086600
_cell_length_c	22.202500
_cell_angle_alpha	90.000000
_cell_angle_beta	90.000000
_cell_angle_gamma	90.000000
_symmetry_Int_Tables_number 1

loop_
_symmetry_equiv_pos_as_xyz
'x,y,z'

loop_
_atom_site_label
_atom_site_type_symbol
_atom_site_fract_x
_atom_site_fract_y
_atom_site_fract_z
Zn11	Zn1	0.506900	0.371720	0.627040
Zn21	Zn2	0.493100	0.628280	0.127040
Zn31	Zn3	0.493100	0.871720	0.627040
Zn41	Zn4	0.506900	0.128280	0.127040
H11	H1	0.410800	0.350000	0.823300
H21	H2	0.157200	0.390800	0.811500
H31	H3	0.698000	0.429700	0.841500
H41	H4	0.437100	0.469200	0.832600
H51	H5	0.637600	0.342500	0.078700
H61	H6	0.798700	0.323800	0.019200
H71	H7	0.457100	0.264400	0.991900
H81	H8	0.253600	0.289400	0.041400
H91	H9	0.862500	0.466100	0.055900
H101	H10	0.852100	0.504200	0.996700
H111	H11	0.265100	0.512200	0.087800
H121	H12	0.260700	0.549500	0.028400
H131	H13	0.589200	0.650000	0.323300
H141	H14	0.842800	0.609200	0.311500
H151	H15	0.302000	0.570300	0.341500
H161	H16	0.562900	0.530800	0.332600
H171	H17	0.362400	0.657500	0.578700
H181	H18	0.201300	0.676200	0.519200
H191	H19	0.542900	0.735600	0.491900
H201	H20	0.746400	0.710600	0.541400
H211	H21	0.137500	0.533900	0.555900
H221	H22	0.147900	0.495800	0.496700
H231	H23	0.734900	0.487800	0.587800
H241	H24	0.739300	0.450500	0.528400
H251	H25	0.589200	0.850000	0.823300
H261	H26	0.842800	0.890800	0.811500
H271	H27	0.302000	0.929700	0.841500
H281	H28	0.562900	0.969200	0.832600
H291	H29	0.362400	0.842500	0.078700
H301	H30	0.201300	0.823800	0.019200
H311	H31	0.542900	0.764400	0.991900
H321	H32	0.746400	0.789400	0.041400
H331	H33	0.137500	0.966100	0.055900
H341	H34	0.147900	0.004200	0.996700
H351	H35	0.734900	0.012200	0.087800
H361	H36	0.739300	0.049500	0.028400
H371	H37	0.410800	0.150000	0.323300
H381	H38	0.157200	0.109200	0.311500
H391	H39	0.698000	0.070300	0.341500
H401	H40	0.437100	0.030800	0.332600
H411	H41	0.637600	0.157500	0.578700
H421	H42	0.798700	0.176200	0.519200
H431	H43	0.457100	0.235600	0.491900
H441	H44	0.253600	0.210600	0.541400
H451	H45	0.862500	0.033900	0.555900
H461	H46	0.852100	0.995800	0.496700
H471	H47	0.265100	0.987800	0.587800
H481	H48	0.260700	0.950500	0.528400
C11	C1	0.443100	0.392730	0.742850
C21	C2	0.358500	0.387200	0.808170
C31	C3	0.496900	0.432050	0.846420
C41	C4	0.614800	0.331230	0.036100
C51	C5	0.447100	0.279750	0.033300
C61	C6	0.536800	0.234960	0.077700
C71	C7	0.975700	0.486610	0.026420
C81	C8	0.143200	0.530650	0.058400
C91	C9	0.975400	0.574020	0.091070
C101	C10	0.290000	0.406880	0.029640
C111	C11	0.220200	0.456860	0.934590
C121	C12	0.572200	0.384820	0.942100
C131	C13	0.556900	0.607270	0.242850
C141	C14	0.641500	0.612800	0.308170
C151	C15	0.503100	0.567950	0.346420
C161	C16	0.385200	0.668770	0.536100
C171	C17	0.552900	0.720250	0.533300
C181	C18	0.463200	0.765040	0.577700
C191	C19	0.024300	0.513390	0.526420
C201	C20	0.856800	0.469350	0.558400
C211	C21	0.024600	0.425980	0.591070
C221	C22	0.710000	0.593120	0.529640
C231	C23	0.779800	0.543140	0.434590
C241	C24	0.427800	0.615180	0.442100
C251	C25	0.556900	0.892730	0.742850
C261	C26	0.641500	0.887200	0.808170
C271	C27	0.503100	0.932050	0.846420
C281	C28	0.385200	0.831230	0.036100
C291	C29	0.552900	0.779750	0.033300
C301	C30	0.463200	0.734960	0.077700
C311	C31	0.024300	0.986610	0.026420
C321	C32	0.856800	0.030650	0.058400
C331	C33	0.024600	0.074020	0.091070
C341	C34	0.710000	0.906880	0.029640
C351	C35	0.779800	0.956860	0.934590
C361	C36	0.427800	0.884820	0.942100
C371	C37	0.443100	0.107270	0.242850
C381	C38	0.358500	0.112800	0.308170
C391	C39	0.496900	0.067950	0.346420
C401	C40	0.614800	0.168770	0.536100
C411	C41	0.447100	0.220250	0.533300
C421	C42	0.536800	0.265040	0.577700
C431	C43	0.975700	0.013390	0.526420
C441	C44	0.143200	0.969350	0.558400
C451	C45	0.975400	0.925980	0.591070
C461	C46	0.290000	0.093120	0.529640
C471	C47	0.220200	0.043140	0.434590
C481	C48	0.572200	0.115180	0.442100
N11	N1	0.425100	0.424720	0.910470
N21	N2	0.486000	0.376380	0.002410
N31	N3	0.166300	0.447560	0.995180
N41	N4	0.574900	0.575280	0.410470
N51	N5	0.514000	0.623620	0.502410
N61	N6	0.833700	0.552440	0.495180
N71	N7	0.574900	0.924720	0.910470
N81	N8	0.514000	0.876380	0.002410
N91	N9	0.833700	0.947560	0.995180
N101	N10	0.425100	0.075280	0.410470
N111	N11	0.486000	0.123620	0.502410
N121	N12	0.166300	0.052440	0.495180
O11	O1	0.408300	0.349110	0.709480
O21	O2	0.530300	0.436210	0.722640
O31	O3	0.435400	0.188360	0.070460
O41	O4	0.698100	0.247760	0.118230
O51	O5	0.718900	0.568790	0.089800
O61	O6	0.095900	0.612440	0.117940
O71	O7	0.757700	0.359040	0.919760
O81	O8	0.225600	0.398990	0.081700
O91	O9	0.101100	0.491870	0.906120
O101	O10	0.591700	0.650890	0.209480
O111	O11	0.469700	0.563790	0.222640
O121	O12	0.564600	0.811640	0.570460
O131	O13	0.301900	0.752240	0.618230
O141	O14	0.281100	0.431210	0.589800
O151	O15	0.904100	0.387560	0.617940
O161	O16	0.242300	0.640960	0.419760
O171	O17	0.774400	0.601010	0.581700
O181	O18	0.898900	0.508130	0.406120
O191	O19	0.591700	0.849110	0.709480
O201	O20	0.469700	0.936210	0.722640
O211	O21	0.564600	0.688360	0.070460
O221	O22	0.301900	0.747760	0.118230
O231	O23	0.281100	0.068790	0.089800
O241	O24	0.904100	0.112440	0.117940
O251	O25	0.242300	0.859040	0.919760
O261	O26	0.774400	0.898990	0.081700
O271	O27	0.898900	0.991870	0.906120
O281	O28	0.408300	0.150890	0.209480
O291	O29	0.530300	0.063790	0.222640
O301	O30	0.435400	0.311640	0.570460
O311	O31	0.698100	0.252240	0.618230
O321	O32	0.718900	0.931210	0.589800
O331	O33	0.095900	0.887560	0.617940
O341	O34	0.757700	0.140960	0.419760
O351	O35	0.225600	0.101010	0.581700
O361	O36	0.101100	0.008130	0.406120
H491	H49	0.746300	0.706300	0.670000
H501	H50	0.720100	0.700200	0.741600
H511	H51	0.990900	0.679300	0.708000
H521	H52	0.195500	0.803900	0.774600
H531	H53	0.263000	0.738900	0.773300
H541	H54	0.991300	0.760700	0.805900
H551	H55	0.830200	0.787600	0.714500
H561	H56	0.083300	0.767900	0.684100
C491	C49	0.846500	0.707600	0.708200
C501	C50	0.116200	0.766600	0.772000
N131	N13	0.966200	0.761190	0.715700
H571	H57	0.253700	0.293700	0.170000
H581	H58	0.279900	0.299800	0.241600
H591	H59	0.009100	0.320700	0.208000
H601	H60	0.804500	0.196100	0.274600
H611	H61	0.737000	0.261100	0.273300
H621	H62	0.008700	0.239300	0.305900
H631	H63	0.169800	0.212400	0.214500
H641	H64	0.916700	0.232100	0.184100
C511	C51	0.153500	0.292400	0.208200
C521	C52	0.883800	0.233400	0.272000
N141	N14	0.033800	0.238810	0.215700
H651	H65	0.253700	0.206300	0.670000
H661	H66	0.279900	0.200200	0.741600
H671	H67	0.009100	0.179300	0.708000
H681	H68	0.804500	0.303900	0.774600
H691	H69	0.737000	0.238900	0.773300
H701	H70	0.008700	0.260700	0.805900
H711	H71	0.169800	0.287600	0.714500
H721	H72	0.916700	0.267900	0.684100
C531	C53	0.153500	0.207600	0.708200
C541	C54	0.883800	0.266600	0.772000
N151	N15	0.033800	0.261190	0.715700
H731	H73	0.746300	0.793700	0.170000
H741	H74	0.720100	0.799800	0.241600
H751	H75	0.990900	0.820700	0.208000
H761	H76	0.195500	0.696100	0.274600
H771	H77	0.263000	0.761100	0.273300
H781	H78	0.991300	0.739300	0.305900
H791	H79	0.830200	0.712400	0.214500
H801	H80	0.083300	0.732100	0.184100
C551	C55	0.846500	0.792400	0.208200
C561	C56	0.116200	0.733400	0.272000
N161	N16	0.966200	0.738810	0.215700
