data_PAPPAZ_freeONLY_PM
_symmetry_space_group_name_H-M	'P1'
_cell_length_a	13.084200
_cell_length_b	13.084200
_cell_length_c	19.878000
_cell_angle_alpha	90.000000
_cell_angle_beta	90.000000
_cell_angle_gamma	120.000000
_symmetry_Int_Tables_number 1

loop_
_symmetry_equiv_pos_as_xyz
'x,y,z'

loop_
_atom_site_label
_atom_site_type_symbol
_atom_site_fract_x
_atom_site_fract_y
_atom_site_fract_z
N11	N1	0.288900	0.029100	0.593700
C11	C1	0.178800	0.957300	0.584800
C21	C2	0.119200	0.960700	0.527300
C31	C3	0.186500	0.050200	0.476300
C41	C4	0.305300	0.125500	0.490100
C51	C5	0.353600	0.116200	0.550600
N21	N2	0.383500	0.219600	0.447700
C61	C6	0.358500	0.273200	0.397700
O11	O1	0.257100	0.238100	0.377300
C71	C7	0.467400	0.377000	0.366300
C81	C8	0.502200	0.477000	0.411700
C91	C9	0.614200	0.580400	0.399200
C101	C10	0.722000	0.583000	0.392400
C111	C11	0.838000	0.696000	0.386700
C121	C12	0.843000	0.799000	0.385800
C131	C13	0.735000	0.795000	0.397500
C141	C14	0.626000	0.690000	0.400500
N31	N3	0.435300	0.403500	0.299600
C151	C15	0.496200	0.407000	0.243900
O21	O2	0.576600	0.388100	0.243400
C161	C16	0.447500	0.429000	0.179400
C171	C17	0.331100	0.394300	0.171200
C181	C18	0.297500	0.426000	0.109700
C191	C19	0.385000	0.488500	0.062900
N41	N4	0.500100	0.520300	0.071000
C201	C20	0.529300	0.490700	0.127700
N51	N5	0.970900	0.259800	0.260370
C211	C21	0.042700	0.221500	0.251470
C221	C22	0.039300	0.158500	0.193970
C231	C23	0.949800	0.136300	0.142970
C241	C24	0.874500	0.179800	0.156770
C251	C25	0.883800	0.237400	0.217270
N61	N6	0.780400	0.163900	0.114370
C261	C26	0.726800	0.085300	0.064370
O31	O3	0.761900	0.019000	0.043970
C271	C27	0.623000	0.090400	0.032970
C281	C28	0.523000	0.025200	0.078370
C291	C29	0.419600	0.033800	0.065870
C301	C30	0.417000	0.139000	0.059070
C311	C31	0.304000	0.142000	0.053370
C321	C32	0.201000	0.044000	0.052470
C331	C33	0.205000	0.940000	0.064170
C341	C34	0.310000	0.936000	0.067170
N71	N7	0.596500	0.031800	0.966270
C351	C35	0.593000	0.089200	0.910570
O41	O4	0.611900	0.188500	0.910070
C361	C36	0.571000	0.018500	0.846070
C371	C37	0.605700	0.936800	0.837870
C381	C38	0.574000	0.871500	0.776370
C391	C39	0.511500	0.896500	0.729570
N81	N8	0.479700	0.979800	0.737670
C401	C40	0.509300	0.038600	0.794370
N91	N9	0.740200	0.711100	0.927030
C411	C41	0.778500	0.821200	0.918130
C421	C42	0.841500	0.880800	0.860630
C431	C43	0.863700	0.813500	0.809630
C441	C44	0.820200	0.694700	0.823430
C451	C45	0.762600	0.646400	0.883930
N101	N10	0.836100	0.616500	0.781030
C461	C46	0.914700	0.641500	0.731030
O51	O5	0.981000	0.742900	0.710630
C471	C47	0.909600	0.532600	0.699630
C481	C48	0.974800	0.497800	0.745030
C491	C49	0.966200	0.385800	0.732530
C501	C50	0.861000	0.278000	0.725730
C511	C51	0.858000	0.162000	0.720030
C521	C52	0.956000	0.157000	0.719130
C531	C53	0.060000	0.265000	0.730830
C541	C54	0.064000	0.374000	0.733830
N111	N11	0.968200	0.564700	0.632930
C551	C55	0.910800	0.503800	0.577230
O61	O6	0.811500	0.423400	0.576730
C561	C56	0.981500	0.552500	0.512730
C571	C57	0.063200	0.668900	0.504530
C581	C58	0.128500	0.702500	0.443030
C591	C59	0.103500	0.615000	0.396230
N121	N12	0.020200	0.499900	0.404330
C601	C60	0.961400	0.470700	0.461030
N131	N13	0.029100	0.288900	0.406300
C611	C61	0.957300	0.178800	0.415200
C621	C62	0.960700	0.119200	0.472700
C631	C63	0.050200	0.186500	0.523700
C641	C64	0.125500	0.305300	0.509900
C651	C65	0.116200	0.353600	0.449400
N141	N14	0.219600	0.383500	0.552300
C661	C66	0.273200	0.358500	0.602300
O71	O7	0.238100	0.257100	0.622700
C671	C67	0.377000	0.467400	0.633700
C681	C68	0.477000	0.502200	0.588300
C691	C69	0.580400	0.614200	0.600800
C701	C70	0.583000	0.722000	0.607600
C711	C71	0.696000	0.838000	0.613300
C721	C72	0.799000	0.843000	0.614200
C731	C73	0.795000	0.735000	0.602500
C741	C74	0.690000	0.626000	0.599500
N151	N15	0.403500	0.435300	0.700400
C751	C75	0.407000	0.496200	0.756100
O81	O8	0.388100	0.576600	0.756600
C761	C76	0.429000	0.447500	0.820600
C771	C77	0.394300	0.331100	0.828800
C781	C78	0.426000	0.297500	0.890300
C791	C79	0.488500	0.385000	0.937100
N161	N16	0.520300	0.500100	0.929000
C801	C80	0.490700	0.529300	0.872300
N171	N17	0.259800	0.970900	0.739630
C811	C81	0.221500	0.042700	0.748530
C821	C82	0.158500	0.039300	0.806030
C831	C83	0.136300	0.949800	0.857030
C841	C84	0.179800	0.874500	0.843230
C851	C85	0.237400	0.883800	0.782730
N181	N18	0.163900	0.780400	0.885630
C861	C86	0.085300	0.726800	0.935630
O91	O9	0.019000	0.761900	0.956030
C871	C87	0.090400	0.623000	0.967030
C881	C88	0.025200	0.523000	0.921630
C891	C89	0.033800	0.419600	0.934130
C901	C90	0.139000	0.417000	0.940930
C911	C91	0.142000	0.304000	0.946630
C921	C92	0.044000	0.201000	0.947530
C931	C93	0.940000	0.205000	0.935830
C941	C94	0.936000	0.310000	0.932830
N191	N19	0.031800	0.596500	0.033730
C951	C95	0.089200	0.593000	0.089430
O101	O10	0.188500	0.611900	0.089930
C961	C96	0.018500	0.571000	0.153930
C971	C97	0.936800	0.605700	0.162130
C981	C98	0.871500	0.574000	0.223630
C991	C99	0.896500	0.511500	0.270430
N201	N20	0.979800	0.479700	0.262330
C1001	C100	0.038600	0.509300	0.205630
N211	N21	0.711100	0.740200	0.072970
C1011	C101	0.821200	0.778500	0.081870
C1021	C102	0.880800	0.841500	0.139370
C1031	C103	0.813500	0.863700	0.190370
C1041	C104	0.694700	0.820200	0.176570
C1051	C105	0.646400	0.762600	0.116070
N221	N22	0.616500	0.836100	0.218970
C1061	C106	0.641500	0.914700	0.268970
O111	O11	0.742900	0.981000	0.289370
C1071	C107	0.532600	0.909600	0.300370
C1081	C108	0.497800	0.974800	0.254970
C1091	C109	0.385800	0.966200	0.267470
C1101	C110	0.278000	0.861000	0.274270
C1111	C111	0.162000	0.858000	0.279970
C1121	C112	0.157000	0.956000	0.280870
C1131	C113	0.265000	0.060000	0.269170
C1141	C114	0.374000	0.064000	0.266170
N231	N23	0.564700	0.968200	0.367070
C1151	C115	0.503800	0.910800	0.422770
O121	O12	0.423400	0.811500	0.423270
C1161	C116	0.552500	0.981500	0.487270
C1171	C117	0.668900	0.063200	0.495470
C1181	C118	0.702500	0.128500	0.556970
C1191	C119	0.615000	0.103500	0.603770
N241	N24	0.499900	0.020200	0.595670
C1201	C120	0.470700	0.961400	0.538970
Cu11	Cu1	0.618400	0.618400	0.000000
Cu21	Cu2	0.381600	0.000000	0.666670
Cu31	Cu3	0.000000	0.381600	0.333330
