data_PAQDAP_freeONLY_PM
_symmetry_space_group_name_H-M	'P1'
_cell_length_a	17.585900
_cell_length_b	11.447000
_cell_length_c	21.683100
_cell_angle_alpha	90.000000
_cell_angle_beta	114.472000
_cell_angle_gamma	90.000000
_symmetry_Int_Tables_number 1

loop_
_symmetry_equiv_pos_as_xyz
'x,y,z'

loop_
_atom_site_label
_atom_site_type_symbol
_atom_site_fract_x
_atom_site_fract_y
_atom_site_fract_z
Cu11	Cu1	0.505190	0.897350	0.557370
Cu21	Cu2	0.508350	0.674680	0.754660
N11	N1	0.254400	0.860400	0.514100
N21	N2	0.384400	0.875400	0.522400
N31	N3	0.760600	0.913900	0.622600
N41	N4	0.628900	0.912400	0.605000
N51	N5	0.251900	0.669700	0.691500
N61	N6	0.385300	0.657700	0.709400
N71	N7	0.762300	0.722300	0.806600
N81	N8	0.632300	0.702000	0.797900
O11	O1	0.507900	0.747100	0.651700
O21	O2	0.518100	0.724000	0.553700
O31	O3	0.510900	0.581200	0.851100
O41	O4	0.506100	0.570900	0.951500
O51	O5	0.526200	0.519300	0.720200
O61	O6	0.511600	0.327300	0.710600
C11	C1	0.512300	0.687700	0.607100
H11	H1	0.511400	0.607200	0.612400
C21	C2	0.511200	0.626800	0.902300
H21	H2	0.515500	0.707800	0.905600
C31	C3	0.502700	0.421300	0.735400
H31	H3	0.478200	0.420800	0.766000
C41	C4	0.333700	0.900800	0.549000
H41	H4	0.349600	0.943400	0.589000
C51	C5	0.335600	0.815300	0.463600
H51	H5	0.353800	0.786400	0.431900
C61	C6	0.259100	0.805700	0.460100
H61	H6	0.215100	0.767400	0.426000
C71	C7	0.187300	0.868100	0.531800
C81	C8	0.121400	0.792400	0.504700
H71	H7	0.122100	0.736400	0.473800
C91	C9	0.055600	0.796500	0.521400
H81	H8	0.014300	0.739700	0.504000
C101	C10	0.046800	0.883200	0.564200
C111	C11	0.113000	0.960500	0.588500
H91	H9	0.111200	0.021400	0.616200
C121	C12	0.180900	0.951400	0.573500
H101	H10	0.224400	0.004600	0.592800
C131	C13	0.680900	0.892900	0.578700
H111	H11	0.665500	0.867200	0.534400
C141	C14	0.675300	0.949600	0.671600
H121	H12	0.654900	0.968200	0.703700
C151	C15	0.755200	0.952800	0.679900
H131	H13	0.800000	0.977800	0.718900
C161	C16	0.829900	0.904600	0.608000
C171	C17	0.835300	0.821300	0.564700
H141	H14	0.791900	0.768200	0.544700
C181	C18	0.904500	0.815600	0.550600
H151	H15	0.905700	0.758700	0.520400
C191	C19	0.973900	0.891400	0.579500
C201	C20	0.966900	0.972400	0.624800
H161	H16	0.010900	0.023900	0.646400
C211	C21	0.897700	0.979800	0.639100
H171	H17	0.896200	0.035500	0.669800
C221	C22	0.333100	0.695600	0.732200
H181	H18	0.349100	0.736800	0.772600
C231	C23	0.257800	0.607000	0.638900
H191	H19	0.213700	0.573100	0.602600
C241	C24	0.338600	0.604100	0.649800
H201	H20	0.359500	0.570600	0.620900
C251	C25	0.182600	0.690100	0.705100
C261	C26	0.108800	0.619800	0.670300
H211	H21	0.106900	0.566200	0.637500
C271	C27	0.040700	0.633300	0.686600
H221	H22	0.993600	0.587900	0.663200
C281	C28	0.038000	0.711300	0.736100
C291	C29	0.111200	0.782400	0.766900
H231	H23	0.112800	0.838900	0.798300
C301	C30	0.178300	0.769800	0.751700
H241	H24	0.224300	0.817700	0.774000
C311	C31	0.684800	0.680700	0.771800
H251	H25	0.669900	0.639400	0.731500
C321	C32	0.675800	0.763100	0.855000
H261	H26	0.654800	0.791800	0.885000
C331	C33	0.753700	0.775000	0.861000
H271	H27	0.796300	0.813000	0.896500
C341	C34	0.828700	0.715800	0.788900
C351	C35	0.827700	0.652600	0.735500
H281	H28	0.780400	0.609300	0.709700
C361	C36	0.893600	0.651500	0.719100
H291	H29	0.890200	0.604500	0.683100
C371	C37	0.967700	0.716600	0.752900
C381	C38	0.968400	0.779300	0.807600
H301	H30	0.015900	0.822500	0.833000
C391	C39	0.903000	0.781300	0.826500
H311	H31	0.906900	0.825200	0.863800
Cu31	Cu3	0.494810	0.397350	0.942630
Cu41	Cu4	0.491650	0.174680	0.745340
N91	N9	0.745600	0.360400	0.985900
N101	N10	0.615600	0.375400	0.977600
N111	N11	0.239400	0.413900	0.877400
N121	N12	0.371100	0.412400	0.895000
N131	N13	0.748100	0.169700	0.808500
N141	N14	0.614700	0.157700	0.790600
N151	N15	0.237700	0.222300	0.693400
N161	N16	0.367700	0.202000	0.702100
O71	O7	0.492100	0.247100	0.848300
O81	O8	0.481900	0.224000	0.946300
O91	O9	0.489100	0.081200	0.648900
O101	O10	0.493900	0.070900	0.548500
O111	O11	0.473800	0.019300	0.779800
O121	O12	0.488400	0.827300	0.789400
C401	C40	0.487700	0.187700	0.892900
H321	H32	0.488600	0.107200	0.887600
C411	C41	0.488800	0.126800	0.597700
H331	H33	0.484500	0.207800	0.594400
C421	C42	0.497300	0.921300	0.764600
H341	H34	0.521800	0.920800	0.734000
C431	C43	0.666300	0.400800	0.951000
H351	H35	0.650400	0.443400	0.911000
C441	C44	0.664400	0.315300	0.036400
H361	H36	0.646200	0.286400	0.068100
C451	C45	0.740900	0.305700	0.039900
H371	H37	0.784900	0.267400	0.074000
C461	C46	0.812700	0.368100	0.968200
C471	C47	0.878600	0.292400	0.995300
H381	H38	0.877900	0.236400	0.026200
C481	C48	0.944400	0.296500	0.978600
H391	H39	0.985700	0.239700	0.996000
C491	C49	0.953200	0.383200	0.935800
C501	C50	0.887000	0.460500	0.911500
H401	H40	0.888800	0.521400	0.883800
C511	C51	0.819100	0.451400	0.926500
H411	H41	0.775600	0.504600	0.907200
C521	C52	0.319100	0.392900	0.921300
H421	H42	0.334500	0.367200	0.965600
C531	C53	0.324700	0.449600	0.828400
H431	H43	0.345100	0.468200	0.796300
C541	C54	0.244800	0.452800	0.820100
H441	H44	0.200000	0.477800	0.781100
C551	C55	0.170100	0.404600	0.892000
C561	C56	0.164700	0.321300	0.935300
H451	H45	0.208100	0.268200	0.955300
C571	C57	0.095500	0.315600	0.949400
H461	H46	0.094300	0.258700	0.979600
C581	C58	0.026100	0.391400	0.920500
C591	C59	0.033100	0.472400	0.875200
H471	H47	0.989100	0.523900	0.853600
C601	C60	0.102300	0.479800	0.860900
H481	H48	0.103800	0.535500	0.830200
C611	C61	0.666900	0.195600	0.767800
H491	H49	0.650900	0.236800	0.727400
C621	C62	0.742200	0.107000	0.861100
H501	H50	0.786300	0.073100	0.897400
C631	C63	0.661400	0.104100	0.850200
H511	H51	0.640500	0.070600	0.879100
C641	C64	0.817400	0.190100	0.794900
C651	C65	0.891200	0.119800	0.829700
H521	H52	0.893100	0.066200	0.862500
C661	C66	0.959300	0.133300	0.813400
H531	H53	0.006400	0.087900	0.836800
C671	C67	0.962000	0.211300	0.763900
C681	C68	0.888800	0.282400	0.733100
H541	H54	0.887200	0.338900	0.701700
C691	C69	0.821700	0.269800	0.748300
H551	H55	0.775700	0.317700	0.726000
C701	C70	0.315200	0.180700	0.728200
H561	H56	0.330100	0.139400	0.768500
C711	C71	0.324200	0.263100	0.645000
H571	H57	0.345200	0.291800	0.615000
C721	C72	0.246300	0.275000	0.639000
H581	H58	0.203700	0.313000	0.603500
C731	C73	0.171300	0.215800	0.711100
C741	C74	0.172300	0.152600	0.764500
H591	H59	0.219600	0.109300	0.790300
C751	C75	0.106400	0.151500	0.780900
H601	H60	0.109800	0.104500	0.816900
C761	C76	0.032300	0.216600	0.747100
C771	C77	0.031600	0.279300	0.692400
H611	H61	0.984100	0.322500	0.667000
C781	C78	0.097000	0.281300	0.673500
H621	H62	0.093100	0.325200	0.636200
Cu51	Cu5	0.494810	0.102650	0.442630
Cu61	Cu6	0.491650	0.325320	0.245340
N171	N17	0.745600	0.139600	0.485900
N181	N18	0.615600	0.124600	0.477600
N191	N19	0.239400	0.086100	0.377400
N201	N20	0.371100	0.087600	0.395000
N211	N21	0.748100	0.330300	0.308500
N221	N22	0.614700	0.342300	0.290600
N231	N23	0.237700	0.277700	0.193400
N241	N24	0.367700	0.298000	0.202100
O131	O13	0.492100	0.252900	0.348300
O141	O14	0.481900	0.276000	0.446300
O151	O15	0.489100	0.418800	0.148900
O161	O16	0.493900	0.429100	0.048500
O171	O17	0.473800	0.480700	0.279800
O181	O18	0.488400	0.672700	0.289400
C791	C79	0.487700	0.312300	0.392900
H631	H63	0.488600	0.392800	0.387600
C801	C80	0.488800	0.373200	0.097700
H641	H64	0.484500	0.292200	0.094400
C811	C81	0.497300	0.578700	0.264600
H651	H65	0.521800	0.579200	0.234000
C821	C82	0.666300	0.099200	0.451000
H661	H66	0.650400	0.056600	0.411000
C831	C83	0.664400	0.184700	0.536400
H671	H67	0.646200	0.213600	0.568100
C841	C84	0.740900	0.194300	0.539900
H681	H68	0.784900	0.232600	0.574000
C851	C85	0.812700	0.131900	0.468200
C861	C86	0.878600	0.207600	0.495300
H691	H69	0.877900	0.263600	0.526200
C871	C87	0.944400	0.203500	0.478600
H701	H70	0.985700	0.260300	0.496000
C881	C88	0.953200	0.116800	0.435800
C891	C89	0.887000	0.039500	0.411500
H711	H71	0.888800	0.978600	0.383800
C901	C90	0.819100	0.048600	0.426500
H721	H72	0.775600	0.995400	0.407200
C911	C91	0.319100	0.107100	0.421300
H731	H73	0.334500	0.132800	0.465600
C921	C92	0.324700	0.050400	0.328400
H741	H74	0.345100	0.031800	0.296300
C931	C93	0.244800	0.047200	0.320100
H751	H75	0.200000	0.022200	0.281100
C941	C94	0.170100	0.095400	0.392000
C951	C95	0.164700	0.178700	0.435300
H761	H76	0.208100	0.231800	0.455300
C961	C96	0.095500	0.184400	0.449400
H771	H77	0.094300	0.241300	0.479600
C971	C97	0.026100	0.108600	0.420500
C981	C98	0.033100	0.027600	0.375200
H781	H78	0.989100	0.976100	0.353600
C991	C99	0.102300	0.020200	0.360900
H791	H79	0.103800	0.964500	0.330200
C1001	C100	0.666900	0.304400	0.267800
H801	H80	0.650900	0.263200	0.227400
C1011	C101	0.742200	0.393000	0.361100
H811	H81	0.786300	0.426900	0.397400
C1021	C102	0.661400	0.395900	0.350200
H821	H82	0.640500	0.429400	0.379100
C1031	C103	0.817400	0.309900	0.294900
C1041	C104	0.891200	0.380200	0.329700
H831	H83	0.893100	0.433800	0.362500
C1051	C105	0.959300	0.366700	0.313400
H841	H84	0.006400	0.412100	0.336800
C1061	C106	0.962000	0.288700	0.263900
C1071	C107	0.888800	0.217600	0.233100
H851	H85	0.887200	0.161100	0.201700
C1081	C108	0.821700	0.230200	0.248300
H861	H86	0.775700	0.182300	0.226000
C1091	C109	0.315200	0.319300	0.228200
H871	H87	0.330100	0.360600	0.268500
C1101	C110	0.324200	0.236900	0.145000
H881	H88	0.345200	0.208200	0.115000
C1111	C111	0.246300	0.225000	0.139000
H891	H89	0.203700	0.187000	0.103500
C1121	C112	0.171300	0.284200	0.211100
C1131	C113	0.172300	0.347400	0.264500
H901	H90	0.219600	0.390700	0.290300
C1141	C114	0.106400	0.348500	0.280900
H911	H91	0.109800	0.395500	0.316900
C1151	C115	0.032300	0.283400	0.247100
C1161	C116	0.031600	0.220700	0.192400
H921	H92	0.984100	0.177500	0.167000
C1171	C117	0.097000	0.218700	0.173500
H931	H93	0.093100	0.174800	0.136200
Cu71	Cu7	0.505190	0.602650	0.057370
Cu81	Cu8	0.508350	0.825320	0.254660
N251	N25	0.254400	0.639600	0.014100
N261	N26	0.384400	0.624600	0.022400
N271	N27	0.760600	0.586100	0.122600
N281	N28	0.628900	0.587600	0.105000
N291	N29	0.251900	0.830300	0.191500
N301	N30	0.385300	0.842300	0.209400
N311	N31	0.762300	0.777700	0.306600
N321	N32	0.632300	0.798000	0.297900
O191	O19	0.507900	0.752900	0.151700
O201	O20	0.518100	0.776000	0.053700
O211	O21	0.510900	0.918800	0.351100
O221	O22	0.506100	0.929100	0.451500
O231	O23	0.526200	0.980700	0.220200
O241	O24	0.511600	0.172700	0.210600
C1181	C118	0.512300	0.812300	0.107100
H941	H94	0.511400	0.892800	0.112400
C1191	C119	0.511200	0.873200	0.402300
H951	H95	0.515500	0.792200	0.405600
C1201	C120	0.502700	0.078700	0.235400
H961	H96	0.478200	0.079200	0.266000
C1211	C121	0.333700	0.599200	0.049000
H971	H97	0.349600	0.556600	0.089000
C1221	C122	0.335600	0.684700	0.963600
H981	H98	0.353800	0.713600	0.931900
C1231	C123	0.259100	0.694300	0.960100
H991	H99	0.215100	0.732600	0.926000
C1241	C124	0.187300	0.631900	0.031800
C1251	C125	0.121400	0.707600	0.004700
H1001	H100	0.122100	0.763600	0.973800
C1261	C126	0.055600	0.703500	0.021400
H1011	H101	0.014300	0.760300	0.004000
C1271	C127	0.046800	0.616800	0.064200
C1281	C128	0.113000	0.539500	0.088500
H1021	H102	0.111200	0.478600	0.116200
C1291	C129	0.180900	0.548600	0.073500
H1031	H103	0.224400	0.495400	0.092800
C1301	C130	0.680900	0.607100	0.078700
H1041	H104	0.665500	0.632800	0.034400
C1311	C131	0.675300	0.550400	0.171600
H1051	H105	0.654900	0.531800	0.203700
C1321	C132	0.755200	0.547200	0.179900
H1061	H106	0.800000	0.522200	0.218900
C1331	C133	0.829900	0.595400	0.108000
C1341	C134	0.835300	0.678700	0.064700
H1071	H107	0.791900	0.731800	0.044700
C1351	C135	0.904500	0.684400	0.050600
H1081	H108	0.905700	0.741300	0.020400
C1361	C136	0.973900	0.608600	0.079500
C1371	C137	0.966900	0.527600	0.124800
H1091	H109	0.010900	0.476100	0.146400
C1381	C138	0.897700	0.520200	0.139100
H1101	H110	0.896200	0.464500	0.169800
C1391	C139	0.333100	0.804400	0.232200
H1111	H111	0.349100	0.763200	0.272600
C1401	C140	0.257800	0.893000	0.138900
H1121	H112	0.213700	0.926900	0.102600
C1411	C141	0.338600	0.895900	0.149800
H1131	H113	0.359500	0.929400	0.120900
C1421	C142	0.182600	0.809900	0.205100
C1431	C143	0.108800	0.880200	0.170300
H1141	H114	0.106900	0.933800	0.137500
C1441	C144	0.040700	0.866700	0.186600
H1151	H115	0.993600	0.912100	0.163200
C1451	C145	0.038000	0.788700	0.236100
C1461	C146	0.111200	0.717600	0.266900
H1161	H116	0.112800	0.661100	0.298300
C1471	C147	0.178300	0.730200	0.251700
H1171	H117	0.224300	0.682300	0.274000
C1481	C148	0.684800	0.819300	0.271800
H1181	H118	0.669900	0.860600	0.231500
C1491	C149	0.675800	0.736900	0.355000
H1191	H119	0.654800	0.708200	0.385000
C1501	C150	0.753700	0.725000	0.361000
H1201	H120	0.796300	0.687000	0.396500
C1511	C151	0.828700	0.784200	0.288900
C1521	C152	0.827700	0.847400	0.235500
H1211	H121	0.780400	0.890700	0.209700
C1531	C153	0.893600	0.848500	0.219100
H1221	H122	0.890200	0.895500	0.183100
C1541	C154	0.967700	0.783400	0.252900
C1551	C155	0.968400	0.720700	0.307600
H1231	H123	0.015900	0.677500	0.333000
C1561	C156	0.903000	0.718700	0.326500
H1241	H124	0.906900	0.674800	0.363800
