data_PAQJUM_freeONLY_PM
_symmetry_space_group_name_H-M	'P1'
_cell_length_a	12.726000
_cell_length_b	12.726000
_cell_length_c	30.939000
_cell_angle_alpha	90.000000
_cell_angle_beta	90.000000
_cell_angle_gamma	120.000000
_symmetry_Int_Tables_number 1

loop_
_symmetry_equiv_pos_as_xyz
'x,y,z'

loop_
_atom_site_label
_atom_site_type_symbol
_atom_site_fract_x
_atom_site_fract_y
_atom_site_fract_z
Al11	Al1	0.753300	0.757220	0.295400
Al21	Al2	0.576160	0.902300	0.216460
P11	P1	0.577830	0.904320	0.114440
P21	P2	0.756820	0.001270	0.291400
O11	O1	0.613760	0.939300	0.161680
O21	O2	0.534140	0.753250	0.225060
O31	O3	0.792830	0.907170	0.293950
O41	O4	0.461250	0.927990	0.231030
O51	O5	0.701430	0.995880	0.247200
O61	O6	0.877600	0.742020	0.296790
O71	O7	0.664410	0.683550	0.339930
O81	O8	0.675900	0.686270	0.247780
Al31	Al3	0.419970	0.090550	0.628730
Al41	Al4	0.242830	0.235630	0.549790
P31	P3	0.244500	0.237650	0.447770
P41	P4	0.423490	0.334600	0.624730
O91	O9	0.280430	0.272630	0.495010
O101	O10	0.200810	0.086580	0.558390
O111	O11	0.459500	0.240500	0.627280
O121	O12	0.127920	0.261320	0.564360
O131	O13	0.368100	0.329210	0.580530
O141	O14	0.544270	0.075350	0.630120
O151	O15	0.331080	0.016880	0.673260
O161	O16	0.342570	0.019600	0.581110
Al51	Al5	0.086630	0.423890	0.962070
Al61	Al6	0.909490	0.568970	0.883130
P51	P5	0.911160	0.570990	0.781110
P61	P6	0.090150	0.667940	0.958070
O171	O17	0.947090	0.605970	0.828350
O181	O18	0.867470	0.419920	0.891730
O191	O19	0.126160	0.573840	0.960620
O201	O20	0.794580	0.594660	0.897700
O211	O21	0.034760	0.662550	0.913870
O221	O22	0.210930	0.408690	0.963460
O231	O23	0.997740	0.350220	0.006600
O241	O24	0.009230	0.352940	0.914450
Al71	Al7	0.242780	0.996080	0.295400
Al81	Al8	0.097700	0.673860	0.216460
P71	P7	0.095680	0.673510	0.114440
P81	P8	0.998730	0.755550	0.291400
O251	O25	0.060700	0.674460	0.161680
O261	O26	0.246750	0.780890	0.225060
O271	O27	0.092830	0.885660	0.293950
O281	O28	0.072010	0.533260	0.231030
O291	O29	0.004120	0.705550	0.247200
O301	O30	0.257980	0.135580	0.296790
O311	O31	0.316450	0.980860	0.339930
O321	O32	0.313730	0.989630	0.247780
Al91	Al9	0.909450	0.329410	0.628730
Al101	Al10	0.764370	0.007190	0.549790
P91	P9	0.762350	0.006840	0.447770
P101	P10	0.665400	0.088880	0.624730
O331	O33	0.727370	0.007790	0.495010
O341	O34	0.913420	0.114220	0.558390
O351	O35	0.759500	0.218990	0.627280
O361	O36	0.738680	0.866590	0.564360
O371	O37	0.670790	0.038880	0.580530
O381	O38	0.924650	0.468910	0.630120
O391	O39	0.983120	0.314190	0.673260
O401	O40	0.980400	0.322960	0.581110
Al111	Al11	0.576110	0.662750	0.962070
Al121	Al12	0.431030	0.340530	0.883130
P111	P11	0.429010	0.340180	0.781110
P121	P12	0.332060	0.422220	0.958070
O411	O41	0.394030	0.341130	0.828350
O421	O42	0.580080	0.447560	0.891730
O431	O43	0.426160	0.552330	0.960620
O441	O44	0.405340	0.199930	0.897700
O451	O45	0.337450	0.372220	0.913870
O461	O46	0.591310	0.802250	0.963460
O471	O47	0.649780	0.647530	0.006600
O481	O48	0.647060	0.656300	0.914450
Al131	Al13	0.003920	0.246700	0.295400
Al141	Al14	0.326140	0.423840	0.216460
P131	P13	0.326490	0.422170	0.114440
P141	P14	0.244450	0.243180	0.291400
O491	O49	0.325540	0.386240	0.161680
O501	O50	0.219110	0.465860	0.225060
O511	O51	0.114340	0.207170	0.293950
O521	O52	0.466740	0.538750	0.231030
O531	O53	0.294450	0.298570	0.247200
O541	O54	0.864420	0.122400	0.296790
O551	O55	0.019140	0.335590	0.339930
O561	O56	0.010370	0.324100	0.247780
Al151	Al15	0.670590	0.580030	0.628730
Al161	Al16	0.992810	0.757170	0.549790
P151	P15	0.993160	0.755500	0.447770
P161	P16	0.911120	0.576510	0.624730
O571	O57	0.992210	0.719570	0.495010
O581	O58	0.885780	0.799190	0.558390
O591	O59	0.781010	0.540500	0.627280
O601	O60	0.133410	0.872080	0.564360
O611	O61	0.961120	0.631900	0.580530
O621	O62	0.531090	0.455730	0.630120
O631	O63	0.685810	0.668920	0.673260
O641	O64	0.677040	0.657430	0.581110
Al171	Al17	0.337250	0.913370	0.962070
Al181	Al18	0.659470	0.090510	0.883130
P171	P17	0.659820	0.088840	0.781110
P181	P18	0.577780	0.909850	0.958070
O651	O65	0.658870	0.052910	0.828350
O661	O66	0.552440	0.132530	0.891730
O671	O67	0.447670	0.873840	0.960620
O681	O68	0.800070	0.205420	0.897700
O691	O69	0.627780	0.965240	0.913870
O701	O70	0.197750	0.789070	0.963460
O711	O71	0.352470	0.002260	0.006600
O721	O72	0.343700	0.990770	0.914450
Al191	Al19	0.246700	0.242780	0.704600
Al201	Al20	0.423840	0.097700	0.783540
P191	P19	0.422170	0.095680	0.885560
P201	P20	0.243180	0.998730	0.708600
O731	O73	0.386240	0.060700	0.838320
O741	O74	0.465860	0.246750	0.774940
O751	O75	0.207170	0.092830	0.706050
O761	O76	0.538750	0.072010	0.768970
O771	O77	0.298570	0.004120	0.752800
O781	O78	0.122400	0.257980	0.703210
O791	O79	0.335590	0.316450	0.660070
O801	O80	0.324100	0.313730	0.752220
Al211	Al21	0.913370	0.576110	0.037930
Al221	Al22	0.090510	0.431030	0.116870
P211	P21	0.088840	0.429010	0.218890
P221	P22	0.909850	0.332060	0.041930
O811	O81	0.052910	0.394030	0.171650
O821	O82	0.132530	0.580080	0.108270
O831	O83	0.873840	0.426160	0.039380
O841	O84	0.205420	0.405340	0.102300
O851	O85	0.965240	0.337450	0.086130
O861	O86	0.789070	0.591310	0.036540
O871	O87	0.002260	0.649780	0.993400
O881	O88	0.990770	0.647060	0.085550
Al231	Al23	0.580030	0.909450	0.371270
Al241	Al24	0.757170	0.764370	0.450210
P231	P23	0.755500	0.762350	0.552230
P241	P24	0.576510	0.665400	0.375270
O891	O89	0.719570	0.727370	0.504990
O901	O90	0.799190	0.913420	0.441610
O911	O91	0.540500	0.759500	0.372720
O921	O92	0.872080	0.738680	0.435640
O931	O93	0.631900	0.670790	0.419470
O941	O94	0.455730	0.924650	0.369880
O951	O95	0.668920	0.983120	0.326740
O961	O96	0.657430	0.980400	0.418890
Al251	Al25	0.757220	0.003920	0.704600
Al261	Al26	0.902300	0.326140	0.783540
P251	P25	0.904320	0.326490	0.885560
P261	P26	0.001270	0.244450	0.708600
O971	O97	0.939300	0.325540	0.838320
O981	O98	0.753250	0.219110	0.774940
O991	O99	0.907170	0.114340	0.706050
O1001	O100	0.927990	0.466740	0.768970
O1011	O101	0.995880	0.294450	0.752800
O1021	O102	0.742020	0.864420	0.703210
O1031	O103	0.683550	0.019140	0.660070
O1041	O104	0.686270	0.010370	0.752220
Al271	Al27	0.423890	0.337250	0.037930
Al281	Al28	0.568970	0.659470	0.116870
P271	P27	0.570990	0.659820	0.218890
P281	P28	0.667940	0.577780	0.041930
O1051	O105	0.605970	0.658870	0.171650
O1061	O106	0.419920	0.552440	0.108270
O1071	O107	0.573840	0.447670	0.039380
O1081	O108	0.594660	0.800070	0.102300
O1091	O109	0.662550	0.627780	0.086130
O1101	O110	0.408690	0.197750	0.036540
O1111	O111	0.350220	0.352470	0.993400
O1121	O112	0.352940	0.343700	0.085550
Al291	Al29	0.090550	0.670590	0.371270
Al301	Al30	0.235630	0.992810	0.450210
P291	P29	0.237650	0.993160	0.552230
P301	P30	0.334600	0.911120	0.375270
O1131	O113	0.272630	0.992210	0.504990
O1141	O114	0.086580	0.885780	0.441610
O1151	O115	0.240500	0.781010	0.372720
O1161	O116	0.261320	0.133410	0.435640
O1171	O117	0.329210	0.961120	0.419470
O1181	O118	0.075350	0.531090	0.369880
O1191	O119	0.016880	0.685810	0.326740
O1201	O120	0.019600	0.677040	0.418890
Al311	Al31	0.996080	0.753300	0.704600
Al321	Al32	0.673860	0.576160	0.783540
P311	P31	0.673510	0.577830	0.885560
P321	P32	0.755550	0.756820	0.708600
O1211	O121	0.674460	0.613760	0.838320
O1221	O122	0.780890	0.534140	0.774940
O1231	O123	0.885660	0.792830	0.706050
O1241	O124	0.533260	0.461250	0.768970
O1251	O125	0.705550	0.701430	0.752800
O1261	O126	0.135580	0.877600	0.703210
O1271	O127	0.980860	0.664410	0.660070
O1281	O128	0.989630	0.675900	0.752220
Al331	Al33	0.662750	0.086630	0.037930
Al341	Al34	0.340530	0.909490	0.116870
P331	P33	0.340180	0.911160	0.218890
P341	P34	0.422220	0.090150	0.041930
O1291	O129	0.341130	0.947090	0.171650
O1301	O130	0.447560	0.867470	0.108270
O1311	O131	0.552330	0.126160	0.039380
O1321	O132	0.199930	0.794580	0.102300
O1331	O133	0.372220	0.034760	0.086130
O1341	O134	0.802250	0.210930	0.036540
O1351	O135	0.647530	0.997740	0.993400
O1361	O136	0.656300	0.009230	0.085550
Al351	Al35	0.329410	0.419970	0.371270
Al361	Al36	0.007190	0.242830	0.450210
P351	P35	0.006840	0.244500	0.552230
P361	P36	0.088880	0.423490	0.375270
O1371	O137	0.007790	0.280430	0.504990
O1381	O138	0.114220	0.200810	0.441610
O1391	O139	0.218990	0.459500	0.372720
O1401	O140	0.866590	0.127920	0.435640
O1411	O141	0.038880	0.368100	0.419470
O1421	O142	0.468910	0.544270	0.369880
O1431	O143	0.314190	0.331080	0.326740
O1441	O144	0.322960	0.342570	0.418890
