data_PARHEW_freeONLY_PM
_symmetry_space_group_name_H-M	'P1'
_cell_length_a	7.753600
_cell_length_b	15.073600
_cell_length_c	16.800800
_cell_angle_alpha	90.000000
_cell_angle_beta	99.799000
_cell_angle_gamma	90.000000
_symmetry_Int_Tables_number 1

loop_
_symmetry_equiv_pos_as_xyz
'x,y,z'

loop_
_atom_site_label
_atom_site_type_symbol
_atom_site_fract_x
_atom_site_fract_y
_atom_site_fract_z
Ca11	Ca1	0.504770	0.219110	0.249500
Ca21	Ca2	0.995230	0.719110	0.750500
Ca31	Ca3	0.495230	0.780890	0.750500
Ca41	Ca4	0.004770	0.280890	0.249500
H11	H1	0.616200	0.492800	0.134500
H21	H2	0.736000	0.440100	0.087000
H31	H3	0.629500	0.543400	0.964500
H41	H4	0.512900	0.592300	0.014400
H51	H5	0.379300	0.493700	0.363100
H61	H6	0.271400	0.438100	0.413500
H71	H7	0.634700	0.473100	0.457800
H81	H8	0.543200	0.409800	0.508400
H91	H9	0.691800	0.869600	0.647200
H101	H10	0.536900	0.864200	0.598500
H111	H11	0.300200	0.869300	0.855300
H121	H12	0.458900	0.869800	0.901200
H131	H13	0.883800	0.992800	0.865500
H141	H14	0.764000	0.940100	0.913000
H151	H15	0.870500	0.043400	0.035500
H161	H16	0.987100	0.092300	0.985600
H171	H17	0.120700	0.993700	0.636900
H181	H18	0.228600	0.938100	0.586500
H191	H19	0.865300	0.973100	0.542200
H201	H20	0.956800	0.909800	0.491600
H211	H21	0.808200	0.369600	0.352800
H221	H22	0.963100	0.364200	0.401500
H231	H23	0.199800	0.369300	0.144700
H241	H24	0.041100	0.369800	0.098800
H251	H25	0.383800	0.507200	0.865500
H261	H26	0.264000	0.559900	0.913000
H271	H27	0.370500	0.456600	0.035500
H281	H28	0.487100	0.407700	0.985600
H291	H29	0.620700	0.506300	0.636900
H301	H30	0.728600	0.561900	0.586500
H311	H31	0.365300	0.526900	0.542200
H321	H32	0.456800	0.590200	0.491600
H331	H33	0.308200	0.130400	0.352800
H341	H34	0.463100	0.135800	0.401500
H351	H35	0.699800	0.130700	0.144700
H361	H36	0.541100	0.130200	0.098800
H371	H37	0.116200	0.007200	0.134500
H381	H38	0.236000	0.059900	0.087000
H391	H39	0.129500	0.956600	0.964500
H401	H40	0.012900	0.907700	0.014400
H411	H41	0.879300	0.006300	0.363100
H421	H42	0.771400	0.061900	0.413500
H431	H43	0.134700	0.026900	0.457800
H441	H44	0.043200	0.090200	0.508400
H451	H45	0.191800	0.630400	0.647200
H461	H46	0.036900	0.635800	0.598500
H471	H47	0.800200	0.630700	0.855300
H481	H48	0.958900	0.630200	0.901200
C11	C1	0.589840	0.361970	0.147540
C21	C2	0.619020	0.443530	0.098510
C31	C3	0.485710	0.456940	0.021750
C41	C4	0.418100	0.363260	0.350590
C51	C5	0.386090	0.444550	0.399900
C61	C6	0.524490	0.461470	0.474550
C71	C7	0.910160	0.861970	0.852460
C81	C8	0.880980	0.943530	0.901490
C91	C9	0.014290	0.956940	0.978250
C101	C10	0.081900	0.863260	0.649410
C111	C11	0.113910	0.944550	0.600100
C121	C12	0.975510	0.961470	0.525450
C131	C13	0.410160	0.638030	0.852460
C141	C14	0.380980	0.556470	0.901490
C151	C15	0.514290	0.543060	0.978250
C161	C16	0.581900	0.636740	0.649410
C171	C17	0.613910	0.555450	0.600100
C181	C18	0.475510	0.538530	0.525450
C191	C19	0.089840	0.138030	0.147540
C201	C20	0.119020	0.056470	0.098510
C211	C21	0.985710	0.043060	0.021750
C221	C22	0.918100	0.136740	0.350590
C231	C23	0.886090	0.055450	0.399900
C241	C24	0.024490	0.038530	0.474550
O11	O1	0.437010	0.332370	0.144280
O21	O2	0.719190	0.326740	0.191690
O31	O3	0.289840	0.327180	0.306620
O41	O4	0.571930	0.334610	0.354210
O51	O5	0.582500	0.872150	0.647700
O61	O6	0.408000	0.874930	0.852410
O71	O7	0.062990	0.832370	0.855720
O81	O8	0.780810	0.826740	0.808310
O91	O9	0.210160	0.827180	0.693380
O101	O10	0.928070	0.834610	0.645790
O111	O11	0.917500	0.372150	0.352300
O121	O12	0.092000	0.374930	0.147590
O131	O13	0.562990	0.667630	0.855720
O141	O14	0.280810	0.673260	0.808310
O151	O15	0.710160	0.672820	0.693380
O161	O16	0.428070	0.665390	0.645790
O171	O17	0.417500	0.127850	0.352300
O181	O18	0.592000	0.125070	0.147590
O191	O19	0.937010	0.167630	0.144280
O201	O20	0.219190	0.173260	0.191690
O211	O21	0.789840	0.172820	0.306620
O221	O22	0.071930	0.165390	0.354210
O231	O23	0.082500	0.627850	0.647700
O241	O24	0.908000	0.625070	0.852410
