data_PARKUQ_charged_PM
_symmetry_space_group_name_H-M	'P1'
_cell_length_a	10.095700
_cell_length_b	12.960600
_cell_length_c	14.351800
_cell_angle_alpha	90.000000
_cell_angle_beta	90.000000
_cell_angle_gamma	105.770000
_symmetry_Int_Tables_number 1

loop_
_symmetry_equiv_pos_as_xyz
'x,y,z'

loop_
_atom_site_label
_atom_site_type_symbol
_atom_site_fract_x
_atom_site_fract_y
_atom_site_fract_z
Cd11	Cd1	0.908770	0.060470	0.933770
Cd21	Cd2	0.591230	0.439530	0.433770
Cd31	Cd3	0.091230	0.939530	0.066230
Cd41	Cd4	0.408770	0.560470	0.566230
H11	H1	0.655800	0.243500	0.688100
H21	H2	0.268100	0.247300	0.743200
H31	H3	0.453300	0.073400	0.901700
H41	H4	0.844200	0.256500	0.188100
H51	H5	0.231900	0.252700	0.243200
H61	H6	0.046700	0.426600	0.401700
H71	H7	0.344200	0.756500	0.311900
H81	H8	0.731900	0.752700	0.256800
H91	H9	0.546700	0.926600	0.098300
H101	H10	0.155800	0.743500	0.811900
H111	H11	0.768100	0.747300	0.756800
H121	H12	0.953300	0.573400	0.598300
C11	C1	0.704300	0.126000	0.830000
C21	C2	0.469900	0.337300	0.625800
C31	C3	0.210700	0.112900	0.887900
C41	C4	0.575400	0.155300	0.800500
C51	C5	0.577200	0.222200	0.724800
C61	C6	0.462600	0.257700	0.703200
C71	C7	0.344600	0.223000	0.756900
C81	C8	0.339000	0.152900	0.830540
C91	C9	0.455800	0.119900	0.852010
C101	C10	0.795700	0.374000	0.330000
C111	C11	0.030100	0.162700	0.125800
C121	C12	0.289300	0.387100	0.387900
C131	C13	0.924600	0.344700	0.300500
C141	C14	0.922800	0.277800	0.224800
C151	C15	0.037400	0.242300	0.203200
C161	C16	0.155400	0.277000	0.256900
C171	C17	0.161000	0.347100	0.330540
C181	C18	0.044200	0.380100	0.352010
C191	C19	0.295700	0.874000	0.170000
C201	C20	0.530100	0.662700	0.374200
C211	C21	0.789300	0.887100	0.112100
C221	C22	0.424600	0.844700	0.199500
C231	C23	0.422800	0.777800	0.275200
C241	C24	0.537400	0.742300	0.296800
C251	C25	0.655400	0.777000	0.243100
C261	C26	0.661000	0.847100	0.169460
C271	C27	0.544200	0.880100	0.147990
C281	C28	0.204300	0.626000	0.670000
C291	C29	0.969900	0.837300	0.874200
C301	C30	0.710700	0.612900	0.612100
C311	C31	0.075400	0.655300	0.699500
C321	C32	0.077200	0.722200	0.775200
C331	C33	0.962600	0.757700	0.796800
C341	C34	0.844600	0.723000	0.743100
C351	C35	0.839000	0.652900	0.669460
C361	C36	0.955800	0.619900	0.647990
O11	O1	0.696100	0.068600	0.901480
O21	O2	0.810500	0.158500	0.786800
O31	O3	0.547000	0.332500	0.558320
O41	O4	0.399400	0.402840	0.636650
O51	O5	0.104300	0.137970	0.861830
O61	O6	0.218900	0.057000	0.956890
O71	O7	0.803900	0.431400	0.401480
O81	O8	0.689500	0.341500	0.286800
O91	O9	0.953000	0.167500	0.058320
O101	O10	0.100600	0.097160	0.136650
O111	O11	0.395700	0.362030	0.361830
O121	O12	0.281100	0.443000	0.456890
O131	O13	0.303900	0.931400	0.098520
O141	O14	0.189500	0.841500	0.213200
O151	O15	0.453000	0.667500	0.441680
O161	O16	0.600600	0.597160	0.363350
O171	O17	0.895700	0.862030	0.138170
O181	O18	0.781100	0.943000	0.043110
O191	O19	0.196100	0.568600	0.598520
O201	O20	0.310500	0.658500	0.713200
O211	O21	0.047000	0.832500	0.941680
O221	O22	0.899400	0.902840	0.863350
O231	O23	0.604300	0.637970	0.638170
O241	O24	0.718900	0.557000	0.543110
H131	H13	0.100800	0.293700	0.595800
H141	H14	0.104700	0.406400	0.593200
H151	H15	0.014100	0.404900	0.736700
H161	H16	0.162500	0.388800	0.735700
H171	H17	0.034000	0.289900	0.748900
H181	H18	0.866600	0.244300	0.611800
H191	H19	0.915300	0.300400	0.516200
H201	H20	0.871600	0.365200	0.597400
C371	C37	0.068200	0.357800	0.718300
C381	C38	0.915600	0.310200	0.582500
N11	N1	0.058800	0.342200	0.616600
H211	H21	0.399200	0.206300	0.095800
H221	H22	0.395300	0.093600	0.093200
H231	H23	0.485900	0.095100	0.236700
H241	H24	0.337500	0.111200	0.235700
H251	H25	0.466000	0.210100	0.248900
H261	H26	0.633400	0.255700	0.111800
H271	H27	0.584700	0.199600	0.016200
H281	H28	0.628400	0.134800	0.097400
C391	C39	0.431800	0.142200	0.218300
C401	C40	0.584400	0.189800	0.082500
N21	N2	0.441200	0.157800	0.116600
H291	H29	0.899200	0.706300	0.404200
H301	H30	0.895300	0.593600	0.406800
H311	H31	0.985900	0.595100	0.263300
H321	H32	0.837500	0.611200	0.264300
H331	H33	0.966000	0.710100	0.251100
H341	H34	0.133400	0.755700	0.388200
H351	H35	0.084700	0.699600	0.483800
H361	H36	0.128400	0.634800	0.402600
C411	C41	0.931800	0.642200	0.281700
C421	C42	0.084400	0.689800	0.417500
N31	N3	0.941200	0.657800	0.383400
H371	H37	0.600800	0.793700	0.904200
H381	H38	0.604700	0.906400	0.906800
H391	H39	0.514100	0.904900	0.763300
H401	H40	0.662500	0.888800	0.764300
H411	H41	0.534000	0.789900	0.751100
H421	H42	0.366600	0.744300	0.888200
H431	H43	0.415300	0.800400	0.983800
H441	H44	0.371600	0.865200	0.902600
C431	C43	0.568200	0.857800	0.781700
C441	C44	0.415600	0.810200	0.917500
N41	N4	0.558800	0.842200	0.883400
