data_PARNON_freeONLY_PM
_symmetry_space_group_name_H-M	'P1'
_cell_length_a	15.386200
_cell_length_b	15.386200
_cell_length_c	20.808000
_cell_angle_alpha	85.351600
_cell_angle_beta	85.351600
_cell_angle_gamma	62.862500
_symmetry_Int_Tables_number 1

loop_
_symmetry_equiv_pos_as_xyz
'x,y,z'

loop_
_atom_site_label
_atom_site_type_symbol
_atom_site_fract_x
_atom_site_fract_y
_atom_site_fract_z
Cu11	Cu1	0.989670	0.992150	0.313690
Cu21	Cu2	0.041210	0.558650	0.496950
Cu31	Cu3	0.007850	0.010330	0.186310
Cu41	Cu4	0.441350	0.958790	0.003050
Cu51	Cu5	0.010330	0.007850	0.686310
Cu61	Cu6	0.958790	0.441350	0.503050
Cu71	Cu7	0.992150	0.989670	0.813690
Cu81	Cu8	0.558650	0.041210	0.996950
H11	H1	0.307300	0.970900	0.178900
H21	H2	0.465500	0.948700	0.190700
H31	H3	0.277200	0.920600	0.369000
H41	H4	0.435300	0.897500	0.382500
H51	H5	0.573500	0.744900	0.345300
H61	H6	0.757300	0.908700	0.469800
H71	H7	0.821400	0.823400	0.517800
H81	H8	0.757400	0.928800	0.542500
H91	H9	0.844400	0.795800	0.367900
H101	H10	0.276200	0.133600	0.295400
H111	H11	0.542900	0.105300	0.149600
H121	H12	0.147500	0.238900	0.360700
H131	H13	0.681400	0.113800	0.336700
H141	H14	0.708100	0.058500	0.149000
H151	H15	0.711800	0.913600	0.315200
H161	H16	0.848700	0.958300	0.402000
H171	H17	0.390600	0.322200	0.281200
H181	H18	0.707600	0.627400	0.397800
H191	H19	0.265700	0.424500	0.348100
H201	H20	0.516600	0.159600	0.338100
H211	H21	0.993700	0.911700	0.529000
H221	H22	0.906500	0.931700	0.579900
H231	H23	0.970500	0.825900	0.556000
H241	H24	0.111900	0.701100	0.432000
H251	H25	0.255500	0.767500	0.556000
H261	H26	0.263900	0.661700	0.561900
H271	H27	0.165700	0.751100	0.582800
H281	H28	0.171800	0.809600	0.407100
H291	H29	0.266900	0.791100	0.440600
H301	H30	0.164800	0.871200	0.465400
H311	H31	0.029100	0.692700	0.321100
H321	H32	0.051300	0.534500	0.309300
H331	H33	0.079400	0.722800	0.131000
H341	H34	0.102500	0.564700	0.117500
H351	H35	0.255100	0.426500	0.154700
H361	H36	0.091300	0.242700	0.030200
H371	H37	0.176600	0.178600	0.982200
H381	H38	0.071200	0.242600	0.957500
H391	H39	0.204200	0.155600	0.132100
H401	H40	0.866400	0.723800	0.204600
H411	H41	0.894700	0.457100	0.350400
H421	H42	0.761100	0.852500	0.139300
H431	H43	0.886200	0.318600	0.163300
H441	H44	0.941500	0.291900	0.351000
H451	H45	0.086400	0.288200	0.184800
H461	H46	0.041700	0.151300	0.098000
H471	H47	0.677800	0.609400	0.218800
H481	H48	0.372600	0.292400	0.102200
H491	H49	0.575500	0.734300	0.151900
H501	H50	0.840400	0.483400	0.161900
H511	H51	0.088300	0.006300	0.971000
H521	H52	0.068300	0.093500	0.920100
H531	H53	0.174100	0.029500	0.944000
H541	H54	0.298900	0.888100	0.068000
H551	H55	0.232500	0.744500	0.944000
H561	H56	0.338300	0.736100	0.938100
H571	H57	0.248900	0.834300	0.917200
H581	H58	0.190400	0.828200	0.092900
H591	H59	0.208900	0.733100	0.059400
H601	H60	0.128800	0.835200	0.034600
H611	H61	0.692700	0.029100	0.821100
H621	H62	0.534500	0.051300	0.809300
H631	H63	0.722800	0.079400	0.631000
H641	H64	0.564700	0.102500	0.617500
H651	H65	0.426500	0.255100	0.654700
H661	H66	0.242700	0.091300	0.530200
H671	H67	0.178600	0.176600	0.482200
H681	H68	0.242600	0.071200	0.457500
H691	H69	0.155600	0.204200	0.632100
H701	H70	0.723800	0.866400	0.704600
H711	H71	0.457100	0.894700	0.850400
H721	H72	0.852500	0.761100	0.639300
H731	H73	0.318600	0.886200	0.663300
H741	H74	0.291900	0.941500	0.851000
H751	H75	0.288200	0.086400	0.684800
H761	H76	0.151300	0.041700	0.598000
H771	H77	0.609400	0.677800	0.718800
H781	H78	0.292400	0.372600	0.602200
H791	H79	0.734300	0.575500	0.651900
H801	H80	0.483400	0.840400	0.661900
H811	H81	0.006300	0.088300	0.471000
H821	H82	0.093500	0.068300	0.420100
H831	H83	0.029500	0.174100	0.444000
H841	H84	0.888100	0.298900	0.568000
H851	H85	0.744500	0.232500	0.444000
H861	H86	0.736100	0.338300	0.438100
H871	H87	0.834300	0.248900	0.417200
H881	H88	0.828200	0.190400	0.592900
H891	H89	0.733100	0.208900	0.559400
H901	H90	0.835200	0.128800	0.534600
H911	H91	0.970900	0.307300	0.678900
H921	H92	0.948700	0.465500	0.690700
H931	H93	0.920600	0.277200	0.869000
H941	H94	0.897500	0.435300	0.882500
H951	H95	0.744900	0.573500	0.845300
H961	H96	0.908700	0.757300	0.969800
H971	H97	0.823400	0.821400	0.017800
H981	H98	0.928800	0.757400	0.042500
H991	H99	0.795800	0.844400	0.867900
H1001	H100	0.133600	0.276200	0.795400
H1011	H101	0.105300	0.542900	0.649600
H1021	H102	0.238900	0.147500	0.860700
H1031	H103	0.113800	0.681400	0.836700
H1041	H104	0.058500	0.708100	0.649000
H1051	H105	0.913600	0.711800	0.815200
H1061	H106	0.958300	0.848700	0.902000
H1071	H107	0.322200	0.390600	0.781200
H1081	H108	0.627400	0.707600	0.897800
H1091	H109	0.424500	0.265700	0.848100
H1101	H110	0.159600	0.516600	0.838100
H1111	H111	0.911700	0.993700	0.029000
H1121	H112	0.931700	0.906500	0.079900
H1131	H113	0.825900	0.970500	0.056000
H1141	H114	0.701100	0.111900	0.932000
H1151	H115	0.767500	0.255500	0.056000
H1161	H116	0.661700	0.263900	0.061900
H1171	H117	0.751100	0.165700	0.082800
H1181	H118	0.809600	0.171800	0.907100
H1191	H119	0.791100	0.266900	0.940600
H1201	H120	0.871200	0.164800	0.965400
C11	C1	0.174400	0.962200	0.265200
C21	C2	0.276300	0.946700	0.273500
C31	C3	0.333100	0.955900	0.219600
C41	C4	0.427900	0.942500	0.226500
C51	C5	0.315100	0.925700	0.333200
C61	C6	0.409800	0.911800	0.341700
C71	C7	0.465300	0.920100	0.287100
C81	C8	0.629400	0.841000	0.325900
C91	C9	0.627600	0.755400	0.350100
C101	C10	0.796500	0.892100	0.506700
C111	C11	0.819100	0.049300	0.243400
C121	C12	0.790100	0.785700	0.363800
C131	C13	0.873400	0.625200	0.425800
C141	C14	0.117000	0.405200	0.410300
C151	C15	0.712000	0.081000	0.242800
C161	C16	0.273800	0.192200	0.306200
C171	C17	0.571300	0.106100	0.187200
C181	C18	0.346400	0.217400	0.283200
C191	C19	0.197200	0.255000	0.345700
C201	C20	0.194500	0.341300	0.362800
C211	C21	0.789400	0.699400	0.389600
C221	C22	0.653300	0.111700	0.299300
C231	C23	0.669700	0.078700	0.186900
C241	C24	0.710800	0.856200	0.332200
C251	C25	0.893800	0.947000	0.432800
C261	C26	0.342500	0.304700	0.298100
C271	C27	0.708100	0.685300	0.381600
C281	C28	0.267700	0.365900	0.337800
C291	C29	0.514300	0.135100	0.244400
C301	C30	0.555200	0.138800	0.300300
C311	C31	0.942500	0.894300	0.543500
C321	C32	0.134000	0.691000	0.473600
C331	C33	0.221000	0.729600	0.552600
C341	C34	0.198600	0.808000	0.447500
C351	C35	0.037800	0.825600	0.234800
C361	C36	0.053300	0.723700	0.226500
C371	C37	0.044100	0.666900	0.280400
C381	C38	0.057500	0.572100	0.273500
C391	C39	0.074300	0.684900	0.166800
C401	C40	0.088200	0.590200	0.158300
C411	C41	0.079900	0.534700	0.212900
C421	C42	0.159000	0.370600	0.174100
C431	C43	0.244600	0.372400	0.149900
C441	C44	0.107900	0.203500	0.993300
C451	C45	0.950700	0.180900	0.256600
C461	C46	0.214300	0.209900	0.136200
C471	C47	0.374800	0.126600	0.074200
C481	C48	0.594800	0.883000	0.089700
C491	C49	0.919000	0.288000	0.257200
C501	C50	0.807800	0.726200	0.193800
C511	C51	0.893900	0.428700	0.312800
C521	C52	0.782600	0.653600	0.216800
C531	C53	0.745000	0.802800	0.154300
C541	C54	0.658700	0.805500	0.137200
C551	C55	0.300600	0.210600	0.110400
C561	C56	0.888300	0.346700	0.200700
C571	C57	0.921300	0.330300	0.313100
C581	C58	0.143800	0.289200	0.167800
C591	C59	0.053000	0.106200	0.067200
C601	C60	0.695300	0.657500	0.201900
C611	C61	0.314700	0.291900	0.118400
C621	C62	0.634100	0.732300	0.162200
C631	C63	0.864900	0.485700	0.255600
C641	C64	0.861200	0.444800	0.199700
C651	C65	0.105700	0.057500	0.956500
C661	C66	0.309000	0.866000	0.026400
C671	C67	0.270400	0.779000	0.947400
C681	C68	0.192000	0.801400	0.052500
C691	C69	0.825600	0.037800	0.734800
C701	C70	0.723700	0.053300	0.726500
C711	C71	0.666900	0.044100	0.780400
C721	C72	0.572100	0.057500	0.773500
C731	C73	0.684900	0.074300	0.666800
C741	C74	0.590200	0.088200	0.658300
C751	C75	0.534700	0.079900	0.712900
C761	C76	0.370600	0.159000	0.674100
C771	C77	0.372400	0.244600	0.649900
C781	C78	0.203500	0.107900	0.493300
C791	C79	0.180900	0.950700	0.756600
C801	C80	0.209900	0.214300	0.636200
C811	C81	0.126600	0.374800	0.574200
C821	C82	0.883000	0.594800	0.589700
C831	C83	0.288000	0.919000	0.757200
C841	C84	0.726200	0.807800	0.693800
C851	C85	0.428700	0.893900	0.812800
C861	C86	0.653600	0.782600	0.716800
C871	C87	0.802800	0.745000	0.654300
C881	C88	0.805500	0.658700	0.637200
C891	C89	0.210600	0.300600	0.610400
C901	C90	0.346700	0.888300	0.700700
C911	C91	0.330300	0.921300	0.813100
C921	C92	0.289200	0.143800	0.667800
C931	C93	0.106200	0.053000	0.567200
C941	C94	0.657500	0.695300	0.701900
C951	C95	0.291900	0.314700	0.618400
C961	C96	0.732300	0.634100	0.662200
C971	C97	0.485700	0.864900	0.755600
C981	C98	0.444800	0.861200	0.699700
C991	C99	0.057500	0.105700	0.456500
C1001	C100	0.866000	0.309000	0.526400
C1011	C101	0.779000	0.270400	0.447400
C1021	C102	0.801400	0.192000	0.552500
C1031	C103	0.962200	0.174400	0.765200
C1041	C104	0.946700	0.276300	0.773500
C1051	C105	0.955900	0.333100	0.719600
C1061	C106	0.942500	0.427900	0.726500
C1071	C107	0.925700	0.315100	0.833200
C1081	C108	0.911800	0.409800	0.841700
C1091	C109	0.920100	0.465300	0.787100
C1101	C110	0.841000	0.629400	0.825900
C1111	C111	0.755400	0.627600	0.850100
C1121	C112	0.892100	0.796500	0.006700
C1131	C113	0.049300	0.819100	0.743400
C1141	C114	0.785700	0.790100	0.863800
C1151	C115	0.625200	0.873400	0.925800
C1161	C116	0.405200	0.117000	0.910300
C1171	C117	0.081000	0.712000	0.742800
C1181	C118	0.192200	0.273800	0.806200
C1191	C119	0.106100	0.571300	0.687200
C1201	C120	0.217400	0.346400	0.783200
C1211	C121	0.255000	0.197200	0.845700
C1221	C122	0.341300	0.194500	0.862800
C1231	C123	0.699400	0.789400	0.889600
C1241	C124	0.111700	0.653300	0.799300
C1251	C125	0.078700	0.669700	0.686900
C1261	C126	0.856200	0.710800	0.832200
C1271	C127	0.947000	0.893800	0.932800
C1281	C128	0.304700	0.342500	0.798100
C1291	C129	0.685300	0.708100	0.881600
C1301	C130	0.365900	0.267700	0.837800
C1311	C131	0.135100	0.514300	0.744400
C1321	C132	0.138800	0.555200	0.800300
C1331	C133	0.894300	0.942500	0.043500
C1341	C134	0.691000	0.134000	0.973600
C1351	C135	0.729600	0.221000	0.052600
C1361	C136	0.808000	0.198600	0.947500
N11	N1	0.877000	0.915200	0.491700
N21	N2	0.188200	0.742200	0.488000
N31	N3	0.084800	0.123000	0.008300
N41	N4	0.257800	0.811800	0.012000
N51	N5	0.123000	0.084800	0.508300
N61	N6	0.811800	0.257800	0.512000
N71	N7	0.915200	0.877000	0.991700
N81	N8	0.742200	0.188200	0.988000
O11	O1	0.127730	0.952730	0.316130
O21	O2	0.142000	0.983600	0.209440
O31	O3	0.556410	0.915610	0.290800
O41	O4	0.122220	0.480220	0.425400
O51	O5	0.869830	0.546230	0.444530
O61	O6	0.852920	0.038920	0.298710
O71	O7	0.963900	0.962700	0.415830
O81	O8	0.868830	0.034030	0.190630
O91	O9	0.941430	0.645830	0.436670
O101	O10	0.053640	0.377840	0.431860
O111	O11	0.116530	0.642730	0.505800
O121	O12	0.417990	0.153190	0.241900
O131	O13	0.047270	0.872270	0.183870
O141	O14	0.016400	0.858000	0.290560
O151	O15	0.084390	0.443590	0.209200
O161	O16	0.519780	0.877780	0.074600
O171	O17	0.453770	0.130170	0.055470
O181	O18	0.961080	0.147080	0.201290
O191	O19	0.037300	0.036100	0.084170
O201	O20	0.965970	0.131170	0.309370
O211	O21	0.354170	0.058570	0.063330
O221	O22	0.622160	0.946360	0.068140
O231	O23	0.357270	0.883470	0.994200
O241	O24	0.846810	0.582010	0.258100
O251	O25	0.872270	0.047270	0.683870
O261	O26	0.858000	0.016400	0.790560
O271	O27	0.443590	0.084390	0.709200
O281	O28	0.877780	0.519780	0.574600
O291	O29	0.130170	0.453770	0.555470
O301	O30	0.147080	0.961080	0.701290
O311	O31	0.036100	0.037300	0.584170
O321	O32	0.131170	0.965970	0.809370
O331	O33	0.058570	0.354170	0.563330
O341	O34	0.946360	0.622160	0.568140
O351	O35	0.883470	0.357270	0.494200
O361	O36	0.582010	0.846810	0.758100
O371	O37	0.952730	0.127730	0.816130
O381	O38	0.983600	0.142000	0.709440
O391	O39	0.915610	0.556410	0.790800
O401	O40	0.480220	0.122220	0.925400
O411	O41	0.546230	0.869830	0.944530
O421	O42	0.038920	0.852920	0.798710
O431	O43	0.962700	0.963900	0.915830
O441	O44	0.034030	0.868830	0.690630
O451	O45	0.645830	0.941430	0.936670
O461	O46	0.377840	0.053640	0.931860
O471	O47	0.642730	0.116530	0.005800
O481	O48	0.153190	0.417990	0.741900
