data_PARPII_freeONLY_PM
_symmetry_space_group_name_H-M	'P1'
_cell_length_a	24.598000
_cell_length_b	7.530500
_cell_length_c	6.547200
_cell_angle_alpha	90.000000
_cell_angle_beta	106.863000
_cell_angle_gamma	90.000000
_symmetry_Int_Tables_number 1

loop_
_symmetry_equiv_pos_as_xyz
'x,y,z'

loop_
_atom_site_label
_atom_site_type_symbol
_atom_site_fract_x
_atom_site_fract_y
_atom_site_fract_z
O11	O1	0.953500	0.175000	0.846000
O21	O2	0.932200	0.138200	0.516000
C11	C1	0.855800	0.231000	0.643000
C21	C2	0.816500	0.188000	0.432000
C31	C3	0.719700	0.182000	0.210000
C41	C4	0.913000	0.176000	0.672000
C51	C5	0.758000	0.203000	0.420000
C61	C6	0.839000	0.294000	0.807000
O31	O3	0.453500	0.675000	0.846000
O41	O4	0.432200	0.638200	0.516000
C71	C7	0.355800	0.731000	0.643000
C81	C8	0.316500	0.688000	0.432000
C91	C9	0.219700	0.682000	0.210000
C101	C10	0.413000	0.676000	0.672000
C111	C11	0.258000	0.703000	0.420000
C121	C12	0.339000	0.794000	0.807000
O51	O5	0.046500	0.175000	0.654000
O61	O6	0.067800	0.138200	0.984000
C131	C13	0.144200	0.231000	0.857000
C141	C14	0.183500	0.188000	0.068000
C151	C15	0.280300	0.182000	0.290000
C161	C16	0.087000	0.176000	0.828000
C171	C17	0.242000	0.203000	0.080000
C181	C18	0.161000	0.294000	0.693000
O71	O7	0.546500	0.675000	0.654000
O81	O8	0.567800	0.638200	0.984000
C191	C19	0.644200	0.731000	0.857000
C201	C20	0.683500	0.688000	0.068000
C211	C21	0.780300	0.682000	0.290000
C221	C22	0.587000	0.676000	0.828000
C231	C23	0.742000	0.703000	0.080000
C241	C24	0.661000	0.794000	0.693000
O91	O9	0.046500	0.825000	0.154000
O101	O10	0.067800	0.861800	0.484000
C251	C25	0.144200	0.769000	0.357000
C261	C26	0.183500	0.812000	0.568000
C271	C27	0.280300	0.818000	0.790000
C281	C28	0.087000	0.824000	0.328000
C291	C29	0.242000	0.797000	0.580000
C301	C30	0.161000	0.706000	0.193000
O111	O11	0.546500	0.325000	0.154000
O121	O12	0.567800	0.361800	0.484000
C311	C31	0.644200	0.269000	0.357000
C321	C32	0.683500	0.312000	0.568000
C331	C33	0.780300	0.318000	0.790000
C341	C34	0.587000	0.324000	0.328000
C351	C35	0.742000	0.297000	0.580000
C361	C36	0.661000	0.206000	0.193000
O131	O13	0.953500	0.825000	0.346000
O141	O14	0.932200	0.861800	0.016000
C371	C37	0.855800	0.769000	0.143000
C381	C38	0.816500	0.812000	0.932000
C391	C39	0.719700	0.818000	0.710000
C401	C40	0.913000	0.824000	0.172000
C411	C41	0.758000	0.797000	0.920000
C421	C42	0.839000	0.706000	0.307000
O151	O15	0.453500	0.325000	0.346000
O161	O16	0.432200	0.361800	0.016000
C431	C43	0.355800	0.269000	0.143000
C441	C44	0.316500	0.312000	0.932000
C451	C45	0.219700	0.318000	0.710000
C461	C46	0.413000	0.324000	0.172000
C471	C47	0.258000	0.297000	0.920000
C481	C48	0.339000	0.206000	0.307000
Al11	Al1	0.000000	0.000000	0.000000
Al21	Al2	0.500000	0.500000	0.000000
Al31	Al3	0.000000	0.000000	0.500000
Al41	Al4	0.500000	0.500000	0.500000
O171	O17	0.000000	0.901000	0.750000
O181	O18	0.500000	0.401000	0.750000
O191	O19	0.000000	0.099000	0.250000
O201	O20	0.500000	0.599000	0.250000
