data_PAVMAB_freeONLY_PM
_symmetry_space_group_name_H-M	'P1'
_cell_length_a	10.870600
_cell_length_b	10.870600
_cell_length_c	13.959000
_cell_angle_alpha	90.000000
_cell_angle_beta	90.000000
_cell_angle_gamma	90.000000
_symmetry_Int_Tables_number 1

loop_
_symmetry_equiv_pos_as_xyz
'x,y,z'

loop_
_atom_site_label
_atom_site_type_symbol
_atom_site_fract_x
_atom_site_fract_y
_atom_site_fract_z
Ag11	Ag1	0.500000	0.500000	0.185130
Ag21	Ag2	0.000000	0.000000	0.685130
Ag31	Ag3	0.000000	0.000000	0.314870
Ag41	Ag4	0.500000	0.500000	0.814870
N11	N1	0.608400	0.391600	0.049800
N21	N2	0.850000	0.150000	0.275300
N31	N3	0.669200	0.330800	0.243500
C11	C1	0.689400	0.310600	0.075300
C21	C2	0.726500	0.273500	0.171900
C31	C3	0.814400	0.185600	0.187400
H11	H1	0.851300	0.148700	0.134600
C41	C4	0.792600	0.207400	0.345500
H21	H2	0.812900	0.187100	0.408200
C51	C5	0.704100	0.295900	0.330300
H31	H3	0.667300	0.332700	0.383200
N41	N4	0.391600	0.608400	0.049800
N51	N5	0.150000	0.850000	0.275300
N61	N6	0.330800	0.669200	0.243500
C61	C6	0.310600	0.689400	0.075300
C71	C7	0.273500	0.726500	0.171900
C81	C8	0.185600	0.814400	0.187400
H41	H4	0.148700	0.851300	0.134600
C91	C9	0.207400	0.792600	0.345500
H51	H5	0.187100	0.812900	0.408200
C101	C10	0.295900	0.704100	0.330300
H61	H6	0.332700	0.667300	0.383200
N71	N7	0.108400	0.108400	0.549800
N81	N8	0.350000	0.350000	0.775300
N91	N9	0.169200	0.169200	0.743500
C111	C11	0.189400	0.189400	0.575300
C121	C12	0.226500	0.226500	0.671900
C131	C13	0.314400	0.314400	0.687400
H71	H7	0.351300	0.351300	0.634600
C141	C14	0.292600	0.292600	0.845500
H81	H8	0.312900	0.312900	0.908200
C151	C15	0.204100	0.204100	0.830300
H91	H9	0.167300	0.167300	0.883200
N101	N10	0.891600	0.891600	0.549800
N111	N11	0.650000	0.650000	0.775300
N121	N12	0.830800	0.830800	0.743500
C161	C16	0.810600	0.810600	0.575300
C171	C17	0.773500	0.773500	0.671900
C181	C18	0.685600	0.685600	0.687400
H101	H10	0.648700	0.648700	0.634600
C191	C19	0.707400	0.707400	0.845500
H111	H11	0.687100	0.687100	0.908200
C201	C20	0.795900	0.795900	0.830300
H121	H12	0.832700	0.832700	0.883200
N131	N13	0.891600	0.891600	0.450200
N141	N14	0.650000	0.650000	0.224700
N151	N15	0.830800	0.830800	0.256500
C211	C21	0.810600	0.810600	0.424700
C221	C22	0.773500	0.773500	0.328100
C231	C23	0.685600	0.685600	0.312600
H131	H13	0.648700	0.648700	0.365400
C241	C24	0.707400	0.707400	0.154500
H141	H14	0.687100	0.687100	0.091800
C251	C25	0.795900	0.795900	0.169700
H151	H15	0.832700	0.832700	0.116800
N161	N16	0.108400	0.108400	0.450200
N171	N17	0.350000	0.350000	0.224700
N181	N18	0.169200	0.169200	0.256500
C261	C26	0.189400	0.189400	0.424700
C271	C27	0.226500	0.226500	0.328100
C281	C28	0.314400	0.314400	0.312600
H161	H16	0.351300	0.351300	0.365400
C291	C29	0.292600	0.292600	0.154500
H171	H17	0.312900	0.312900	0.091800
C301	C30	0.204100	0.204100	0.169700
H181	H18	0.167300	0.167300	0.116800
N191	N19	0.391600	0.608400	0.950200
N201	N20	0.150000	0.850000	0.724700
N211	N21	0.330800	0.669200	0.756500
C311	C31	0.310600	0.689400	0.924700
C321	C32	0.273500	0.726500	0.828100
C331	C33	0.185600	0.814400	0.812600
H191	H19	0.148700	0.851300	0.865400
C341	C34	0.207400	0.792600	0.654500
H201	H20	0.187100	0.812900	0.591800
C351	C35	0.295900	0.704100	0.669700
H211	H21	0.332700	0.667300	0.616800
N221	N22	0.608400	0.391600	0.950200
N231	N23	0.850000	0.150000	0.724700
N241	N24	0.669200	0.330800	0.756500
C361	C36	0.689400	0.310600	0.924700
C371	C37	0.726500	0.273500	0.828100
C381	C38	0.814400	0.185600	0.812600
H221	H22	0.851300	0.148700	0.865400
C391	C39	0.792600	0.207400	0.654500
H231	H23	0.812900	0.187100	0.591800
C401	C40	0.704100	0.295900	0.669700
H241	H24	0.667300	0.332700	0.616800
O11	O1	0.743800	0.256200	0.000000
O21	O2	0.256200	0.743800	0.000000
O31	O3	0.243800	0.243800	0.500000
O41	O4	0.756200	0.756200	0.500000
