data_PEDMOB_freeONLY_PM
_symmetry_space_group_name_H-M	'P1'
_cell_length_a	7.917200
_cell_length_b	20.385400
_cell_length_c	17.776800
_cell_angle_alpha	90.000000
_cell_angle_beta	90.000000
_cell_angle_gamma	90.000000
_symmetry_Int_Tables_number 1

loop_
_symmetry_equiv_pos_as_xyz
'x,y,z'

loop_
_atom_site_label
_atom_site_type_symbol
_atom_site_fract_x
_atom_site_fract_y
_atom_site_fract_z
Cu11	Cu1	0.330310	0.951390	0.893780
Cu21	Cu2	0.669690	0.048610	0.893780
Cu31	Cu3	0.830310	0.548610	0.106220
Cu41	Cu4	0.169690	0.451390	0.106220
Cu51	Cu5	0.669690	0.048610	0.106220
Cu61	Cu6	0.330310	0.951390	0.106220
Cu71	Cu7	0.169690	0.451390	0.893780
Cu81	Cu8	0.830310	0.548610	0.893780
P11	P1	0.271120	0.800650	0.844860
P21	P2	0.728880	0.199350	0.844860
P31	P3	0.771120	0.699350	0.155140
P41	P4	0.228880	0.300650	0.155140
P51	P5	0.728880	0.199350	0.155140
P61	P6	0.271120	0.800650	0.155140
P71	P7	0.228880	0.300650	0.844860
P81	P8	0.771120	0.699350	0.844860
P91	P9	0.119700	0.571550	0.000000
P101	P10	0.880300	0.428450	0.000000
P111	P11	0.619700	0.928450	0.000000
P121	P12	0.380300	0.071550	0.000000
H11	H1	0.029100	0.789700	0.812400
H21	H2	0.999100	0.963600	0.917400
H31	H3	0.030000	0.899000	0.898000
H41	H4	0.196100	0.665800	0.885600
H51	H5	0.261700	0.933300	0.612500
H61	H6	0.075900	0.100100	0.703800
H71	H7	0.107900	0.092000	0.567300
H81	H8	0.966100	0.039700	0.569700
H91	H9	0.304500	0.897000	0.731000
H101	H10	0.201000	0.068000	0.818000
H111	H11	0.970900	0.210300	0.812400
H121	H12	0.000900	0.036400	0.917400
H131	H13	0.970000	0.101000	0.898000
H141	H14	0.803900	0.334200	0.885600
H151	H15	0.738300	0.066700	0.612500
H161	H16	0.924100	0.899900	0.703800
H171	H17	0.892100	0.908000	0.567300
H181	H18	0.033900	0.960300	0.569700
H191	H19	0.695500	0.103000	0.731000
H201	H20	0.799000	0.932000	0.818000
H211	H21	0.529100	0.710300	0.187600
H221	H22	0.499100	0.536400	0.082600
H231	H23	0.530000	0.601000	0.102000
H241	H24	0.696100	0.834200	0.114400
H251	H25	0.761700	0.566700	0.387500
H261	H26	0.575900	0.399900	0.296200
H271	H27	0.607900	0.408000	0.432700
H281	H28	0.466100	0.460300	0.430300
H291	H29	0.804500	0.603000	0.269000
H301	H30	0.701000	0.432000	0.182000
H311	H31	0.470900	0.289700	0.187600
H321	H32	0.500900	0.463600	0.082600
H331	H33	0.470000	0.399000	0.102000
H341	H34	0.303900	0.165800	0.114400
H351	H35	0.238300	0.433300	0.387500
H361	H36	0.424100	0.600100	0.296200
H371	H37	0.392100	0.592000	0.432700
H381	H38	0.533900	0.539700	0.430300
H391	H39	0.195500	0.397000	0.269000
H401	H40	0.299000	0.568000	0.182000
H411	H41	0.970900	0.210300	0.187600
H421	H42	0.000900	0.036400	0.082600
H431	H43	0.970000	0.101000	0.102000
H441	H44	0.803900	0.334200	0.114400
H451	H45	0.738300	0.066700	0.387500
H461	H46	0.924100	0.899900	0.296200
H471	H47	0.892100	0.908000	0.432700
H481	H48	0.033900	0.960300	0.430300
H491	H49	0.695500	0.103000	0.269000
H501	H50	0.799000	0.932000	0.182000
H511	H51	0.029100	0.789700	0.187600
H521	H52	0.999100	0.963600	0.082600
H531	H53	0.030000	0.899000	0.102000
H541	H54	0.196100	0.665800	0.114400
H551	H55	0.261700	0.933300	0.387500
H561	H56	0.075900	0.100100	0.296200
H571	H57	0.107900	0.092000	0.432700
H581	H58	0.966100	0.039700	0.430300
H591	H59	0.304500	0.897000	0.269000
H601	H60	0.201000	0.068000	0.182000
H611	H61	0.470900	0.289700	0.812400
H621	H62	0.500900	0.463600	0.917400
H631	H63	0.470000	0.399000	0.898000
H641	H64	0.303900	0.165800	0.885600
H651	H65	0.238300	0.433300	0.612500
H661	H66	0.424100	0.600100	0.703800
H671	H67	0.392100	0.592000	0.567300
H681	H68	0.533900	0.539700	0.569700
H691	H69	0.195500	0.397000	0.731000
H701	H70	0.299000	0.568000	0.818000
H711	H71	0.529100	0.710300	0.812400
H721	H72	0.499100	0.536400	0.917400
H731	H73	0.530000	0.601000	0.898000
H741	H74	0.696100	0.834200	0.885600
H751	H75	0.761700	0.566700	0.612500
H761	H76	0.575900	0.399900	0.703800
H771	H77	0.607900	0.408000	0.567300
H781	H78	0.466100	0.460300	0.569700
H791	H79	0.804500	0.603000	0.731000
H801	H80	0.701000	0.432000	0.818000
H811	H81	0.309000	0.826000	0.000000
H821	H82	0.691000	0.174000	0.000000
H831	H83	0.809000	0.674000	0.000000
H841	H84	0.191000	0.326000	0.000000
C11	C1	0.248400	0.755900	0.931900
C21	C2	0.208300	0.689000	0.932300
C31	C3	0.235000	0.960900	0.654600
C41	C4	0.156600	0.020300	0.644100
C51	C5	0.140000	0.060200	0.706700
C61	C6	0.086000	0.045700	0.570200
C71	C7	0.283000	0.942700	0.722600
C81	C8	0.220500	0.042600	0.776000
C91	C9	0.751600	0.244100	0.931900
C101	C10	0.791700	0.311000	0.932300
C111	C11	0.765000	0.039100	0.654600
C121	C12	0.843400	0.979700	0.644100
C131	C13	0.860000	0.939800	0.706700
C141	C14	0.914000	0.954300	0.570200
C151	C15	0.717000	0.057300	0.722600
C161	C16	0.779500	0.957400	0.776000
C171	C17	0.748400	0.744100	0.068100
C181	C18	0.708300	0.811000	0.067700
C191	C19	0.735000	0.539100	0.345400
C201	C20	0.656600	0.479700	0.355900
C211	C21	0.640000	0.439800	0.293300
C221	C22	0.586000	0.454300	0.429800
C231	C23	0.783000	0.557300	0.277400
C241	C24	0.720500	0.457400	0.224000
C251	C25	0.251600	0.255900	0.068100
C261	C26	0.291700	0.189000	0.067700
C271	C27	0.265000	0.460900	0.345400
C281	C28	0.343400	0.520300	0.355900
C291	C29	0.360000	0.560200	0.293300
C301	C30	0.414000	0.545700	0.429800
C311	C31	0.217000	0.442700	0.277400
C321	C32	0.279500	0.542600	0.224000
C331	C33	0.751600	0.244100	0.068100
C341	C34	0.791700	0.311000	0.067700
C351	C35	0.765000	0.039100	0.345400
C361	C36	0.843400	0.979700	0.355900
C371	C37	0.860000	0.939800	0.293300
C381	C38	0.914000	0.954300	0.429800
C391	C39	0.717000	0.057300	0.277400
C401	C40	0.779500	0.957400	0.224000
C411	C41	0.248400	0.755900	0.068100
C421	C42	0.208300	0.689000	0.067700
C431	C43	0.235000	0.960900	0.345400
C441	C44	0.156600	0.020300	0.355900
C451	C45	0.140000	0.060200	0.293300
C461	C46	0.086000	0.045700	0.429800
C471	C47	0.283000	0.942700	0.277400
C481	C48	0.220500	0.042600	0.224000
C491	C49	0.251600	0.255900	0.931900
C501	C50	0.291700	0.189000	0.932300
C511	C51	0.265000	0.460900	0.654600
C521	C52	0.343400	0.520300	0.644100
C531	C53	0.360000	0.560200	0.706700
C541	C54	0.414000	0.545700	0.570200
C551	C55	0.217000	0.442700	0.722600
C561	C56	0.279500	0.542600	0.776000
C571	C57	0.748400	0.744100	0.931900
C581	C58	0.708300	0.811000	0.932300
C591	C59	0.735000	0.539100	0.654600
C601	C60	0.656600	0.479700	0.644100
C611	C61	0.640000	0.439800	0.706700
C621	C62	0.586000	0.454300	0.570200
C631	C63	0.783000	0.557300	0.722600
C641	C64	0.720500	0.457400	0.776000
C651	C65	0.268000	0.788500	0.000000
C661	C66	0.186700	0.656100	0.000000
C671	C67	0.732000	0.211500	0.000000
C681	C68	0.813300	0.343900	0.000000
C691	C69	0.768000	0.711500	0.000000
C701	C70	0.686700	0.843900	0.000000
C711	C71	0.232000	0.288500	0.000000
C721	C72	0.313300	0.156100	0.000000
C731	C73	0.161000	0.012100	0.500000
C741	C74	0.839000	0.987900	0.500000
C751	C75	0.661000	0.487900	0.500000
C761	C76	0.339000	0.512100	0.500000
N11	N1	0.289600	0.983000	0.787500
N21	N2	0.710400	0.017000	0.787500
N31	N3	0.789600	0.517000	0.212500
N41	N4	0.210400	0.483000	0.212500
N51	N5	0.710400	0.017000	0.212500
N61	N6	0.289600	0.983000	0.212500
N71	N7	0.210400	0.483000	0.787500
N81	N8	0.789600	0.517000	0.787500
O11	O1	0.369200	0.862860	0.860970
O21	O2	0.088400	0.822900	0.821650
O31	O3	0.349500	0.756350	0.786600
O41	O4	0.183000	0.541290	0.072300
O51	O5	0.060300	0.929840	0.924000
O61	O6	0.630800	0.137140	0.860970
O71	O7	0.911600	0.177100	0.821650
O81	O8	0.650500	0.243650	0.786600
O91	O9	0.817000	0.458710	0.072300
O101	O10	0.939700	0.070160	0.924000
O111	O11	0.869200	0.637140	0.139030
O121	O12	0.588400	0.677100	0.178350
O131	O13	0.849500	0.743650	0.213400
O141	O14	0.683000	0.958710	0.927700
O151	O15	0.560300	0.570160	0.076000
O161	O16	0.130800	0.362860	0.139030
O171	O17	0.411600	0.322900	0.178350
O181	O18	0.150500	0.256350	0.213400
O191	O19	0.317000	0.041290	0.927700
O201	O20	0.439700	0.429840	0.076000
O211	O21	0.630800	0.137140	0.139030
O221	O22	0.911600	0.177100	0.178350
O231	O23	0.650500	0.243650	0.213400
O241	O24	0.817000	0.458710	0.927700
O251	O25	0.939700	0.070160	0.076000
O261	O26	0.369200	0.862860	0.139030
O271	O27	0.088400	0.822900	0.178350
O281	O28	0.349500	0.756350	0.213400
O291	O29	0.183000	0.541290	0.927700
O301	O30	0.060300	0.929840	0.076000
O311	O31	0.130800	0.362860	0.860970
O321	O32	0.411600	0.322900	0.821650
O331	O33	0.150500	0.256350	0.786600
O341	O34	0.317000	0.041290	0.072300
O351	O35	0.439700	0.429840	0.924000
O361	O36	0.869200	0.637140	0.860970
O371	O37	0.588400	0.677100	0.821650
O381	O38	0.849500	0.743650	0.786600
O391	O39	0.683000	0.958710	0.072300
O401	O40	0.560300	0.570160	0.924000
O411	O41	0.924400	0.570070	0.000000
O421	O42	0.075600	0.429930	0.000000
O431	O43	0.424400	0.929930	0.000000
O441	O44	0.575600	0.070070	0.000000
