data_PEDRIA_freeONLY_PM
_symmetry_space_group_name_H-M	'P1'
_cell_length_a	25.882100
_cell_length_b	25.882100
_cell_length_c	25.882100
_cell_angle_alpha	90.000000
_cell_angle_beta	90.000000
_cell_angle_gamma	90.000000
_symmetry_Int_Tables_number 1

loop_
_symmetry_equiv_pos_as_xyz
'x,y,z'

loop_
_atom_site_label
_atom_site_type_symbol
_atom_site_fract_x
_atom_site_fract_y
_atom_site_fract_z
Zn11	Zn1	0.293400	0.293400	0.206600
Zn21	Zn2	0.706600	0.706600	0.206600
Zn31	Zn3	0.206600	0.206600	0.206600
Zn41	Zn4	0.706600	0.293400	0.793400
Zn51	Zn5	0.206600	0.293400	0.293400
Zn61	Zn6	0.293400	0.706600	0.793400
Zn71	Zn7	0.293400	0.206600	0.293400
Zn81	Zn8	0.206600	0.793400	0.793400
Zn91	Zn9	0.206600	0.706600	0.706600
Zn101	Zn10	0.793400	0.706600	0.293400
Zn111	Zn11	0.793400	0.206600	0.793400
Zn121	Zn12	0.793400	0.293400	0.706600
Zn131	Zn13	0.793400	0.793400	0.206600
Zn141	Zn14	0.706600	0.206600	0.706600
Zn151	Zn15	0.293400	0.793400	0.706600
Zn161	Zn16	0.706600	0.793400	0.293400
Zn171	Zn17	0.293400	0.293400	0.793400
Zn181	Zn18	0.706600	0.706600	0.793400
Zn191	Zn19	0.706600	0.206600	0.293400
Zn201	Zn20	0.206600	0.706600	0.293400
Zn211	Zn21	0.293400	0.706600	0.206600
Zn221	Zn22	0.706600	0.293400	0.206600
Zn231	Zn23	0.206600	0.793400	0.206600
Zn241	Zn24	0.293400	0.206600	0.706600
Zn251	Zn25	0.206600	0.206600	0.793400
Zn261	Zn26	0.706600	0.793400	0.706600
Zn271	Zn27	0.206600	0.293400	0.706600
Zn281	Zn28	0.293400	0.793400	0.293400
Zn291	Zn29	0.793400	0.293400	0.293400
Zn301	Zn30	0.793400	0.793400	0.793400
Zn311	Zn31	0.793400	0.706600	0.706600
Zn321	Zn32	0.793400	0.206600	0.206600
O11	O1	0.250000	0.250000	0.250000
O21	O2	0.750000	0.750000	0.250000
O31	O3	0.750000	0.250000	0.750000
O41	O4	0.250000	0.750000	0.750000
O51	O5	0.250000	0.250000	0.750000
O61	O6	0.750000	0.750000	0.750000
O71	O7	0.750000	0.250000	0.250000
O81	O8	0.250000	0.750000	0.250000
O91	O9	0.280700	0.366100	0.219300
C11	C1	0.283100	0.473600	0.216900
H11	H1	0.307700	0.452200	0.192300
O101	O10	0.280700	0.866100	0.719300
C21	C2	0.283100	0.973600	0.716900
H21	H2	0.307700	0.952200	0.692300
O111	O11	0.719300	0.633900	0.219300
C31	C3	0.716900	0.526400	0.216900
H31	H3	0.692300	0.547800	0.192300
O121	O12	0.719300	0.133900	0.719300
C41	C4	0.716900	0.026400	0.716900
H41	H4	0.692300	0.047800	0.692300
O131	O13	0.219300	0.133900	0.219300
C51	C5	0.216900	0.026400	0.216900
H51	H5	0.192300	0.047800	0.192300
O141	O14	0.719300	0.366100	0.780700
C61	C6	0.716900	0.473600	0.783100
H61	H6	0.692300	0.452200	0.807700
O151	O15	0.719300	0.866100	0.280700
C71	C7	0.716900	0.973600	0.283100
H71	H7	0.692300	0.952200	0.307700
O161	O16	0.219300	0.366100	0.280700
C81	C8	0.216900	0.473600	0.283100
H81	H8	0.192300	0.452200	0.307700
O171	O17	0.280700	0.633900	0.780700
C91	C9	0.283100	0.526400	0.783100
H91	H9	0.307700	0.547800	0.807700
O181	O18	0.280700	0.133900	0.280700
C101	C10	0.283100	0.026400	0.283100
H101	H10	0.307700	0.047800	0.307700
O191	O19	0.219300	0.280700	0.366100
C111	C11	0.216900	0.283100	0.473600
H111	H11	0.192300	0.307700	0.452200
O201	O20	0.219300	0.780700	0.866100
C121	C12	0.216900	0.783100	0.973600
H121	H12	0.192300	0.807700	0.952200
O211	O21	0.219300	0.719300	0.633900
C131	C13	0.216900	0.716900	0.526400
H131	H13	0.192300	0.692300	0.547800
O221	O22	0.219300	0.219300	0.133900
C141	C14	0.216900	0.216900	0.026400
H141	H14	0.192300	0.192300	0.047800
O231	O23	0.780700	0.719300	0.366100
C151	C15	0.783100	0.716900	0.473600
H151	H15	0.807700	0.692300	0.452200
O241	O24	0.780700	0.219300	0.866100
C161	C16	0.783100	0.216900	0.973600
H161	H16	0.807700	0.192300	0.952200
O251	O25	0.280700	0.219300	0.366100
C171	C17	0.283100	0.216900	0.473600
H171	H17	0.307700	0.192300	0.452200
O261	O26	0.780700	0.280700	0.633900
C181	C18	0.783100	0.283100	0.526400
H181	H18	0.807700	0.307700	0.547800
O271	O27	0.780700	0.780700	0.133900
C191	C19	0.783100	0.783100	0.026400
H191	H19	0.807700	0.807700	0.047800
O281	O28	0.280700	0.280700	0.133900
C201	C20	0.283100	0.283100	0.026400
H201	H20	0.307700	0.307700	0.047800
O291	O29	0.366100	0.219300	0.280700
C211	C21	0.473600	0.216900	0.283100
H211	H21	0.452200	0.192300	0.307700
O301	O30	0.866100	0.219300	0.780700
C221	C22	0.973600	0.216900	0.783100
H221	H22	0.952200	0.192300	0.807700
O311	O31	0.633900	0.219300	0.719300
C231	C23	0.526400	0.216900	0.716900
H231	H23	0.547800	0.192300	0.692300
O321	O32	0.133900	0.219300	0.219300
C241	C24	0.026400	0.216900	0.216900
H241	H24	0.047800	0.192300	0.192300
O331	O33	0.366100	0.780700	0.719300
C251	C25	0.473600	0.783100	0.716900
H251	H25	0.452200	0.807700	0.692300
O341	O34	0.366100	0.280700	0.219300
C261	C26	0.473600	0.283100	0.216900
H261	H26	0.452200	0.307700	0.192300
O351	O35	0.866100	0.780700	0.219300
C271	C27	0.973600	0.783100	0.216900
H271	H27	0.952200	0.807700	0.192300
O361	O36	0.633900	0.780700	0.280700
C281	C28	0.526400	0.783100	0.283100
H281	H28	0.547800	0.807700	0.307700
O371	O37	0.133900	0.780700	0.780700
C291	C29	0.026400	0.783100	0.783100
H291	H29	0.047800	0.807700	0.807700
O381	O38	0.133900	0.280700	0.280700
C301	C30	0.026400	0.283100	0.283100
H301	H30	0.047800	0.307700	0.307700
O391	O39	0.366100	0.280700	0.780700
C311	C31	0.473600	0.283100	0.783100
H311	H31	0.452200	0.307700	0.807700
O401	O40	0.866100	0.280700	0.280700
C321	C32	0.973600	0.283100	0.283100
H321	H32	0.952200	0.307700	0.307700
O411	O41	0.633900	0.719300	0.780700
C331	C33	0.526400	0.716900	0.783100
H331	H33	0.547800	0.692300	0.807700
O421	O42	0.633900	0.219300	0.280700
C341	C34	0.526400	0.216900	0.283100
H341	H34	0.547800	0.192300	0.307700
O431	O43	0.133900	0.719300	0.280700
C351	C35	0.026400	0.716900	0.283100
H351	H35	0.047800	0.692300	0.307700
O441	O44	0.366100	0.719300	0.219300
C361	C36	0.473600	0.716900	0.216900
H361	H36	0.452200	0.692300	0.192300
O451	O45	0.866100	0.719300	0.719300
C371	C37	0.973600	0.716900	0.716900
H371	H37	0.952200	0.692300	0.692300
O461	O46	0.866100	0.219300	0.219300
C381	C38	0.973600	0.216900	0.216900
H381	H38	0.952200	0.192300	0.192300
O471	O47	0.633900	0.280700	0.219300
C391	C39	0.526400	0.283100	0.216900
H391	H39	0.547800	0.307700	0.192300
O481	O48	0.133900	0.280700	0.719300
C401	C40	0.026400	0.283100	0.716900
H401	H40	0.047800	0.307700	0.692300
O491	O49	0.280700	0.219300	0.633900
C411	C41	0.283100	0.216900	0.526400
H411	H41	0.307700	0.192300	0.547800
O501	O50	0.280700	0.719300	0.133900
C421	C42	0.283100	0.716900	0.026400
H421	H42	0.307700	0.692300	0.047800
O511	O51	0.719300	0.219300	0.366100
C431	C43	0.716900	0.216900	0.473600
H431	H43	0.692300	0.192300	0.452200
O521	O52	0.719300	0.719300	0.866100
C441	C44	0.716900	0.716900	0.973600
H441	H44	0.692300	0.692300	0.952200
O531	O53	0.219300	0.219300	0.866100
C451	C45	0.216900	0.216900	0.973600
H451	H45	0.192300	0.192300	0.952200
O541	O54	0.719300	0.780700	0.633900
C461	C46	0.716900	0.783100	0.526400
H461	H46	0.692300	0.807700	0.547800
O551	O55	0.719300	0.280700	0.133900
C471	C47	0.716900	0.283100	0.026400
H471	H47	0.692300	0.307700	0.047800
O561	O56	0.219300	0.280700	0.633900
C481	C48	0.216900	0.283100	0.526400
H481	H48	0.192300	0.307700	0.547800
O571	O57	0.280700	0.780700	0.366100
C491	C49	0.283100	0.783100	0.473600
H491	H49	0.307700	0.807700	0.452200
O581	O58	0.280700	0.280700	0.866100
C501	C50	0.283100	0.283100	0.973600
H501	H50	0.307700	0.307700	0.952200
O591	O59	0.219300	0.366100	0.719300
C511	C51	0.216900	0.473600	0.716900
H511	H51	0.192300	0.452200	0.692300
O601	O60	0.219300	0.866100	0.219300
C521	C52	0.216900	0.973600	0.216900
H521	H52	0.192300	0.952200	0.192300
O611	O61	0.219300	0.633900	0.280700
C531	C53	0.216900	0.526400	0.283100
H531	H53	0.192300	0.547800	0.307700
O621	O62	0.219300	0.133900	0.780700
C541	C54	0.216900	0.026400	0.783100
H541	H54	0.192300	0.047800	0.807700
O631	O63	0.780700	0.366100	0.280700
C551	C55	0.783100	0.473600	0.283100
H551	H55	0.807700	0.452200	0.307700
O641	O64	0.780700	0.866100	0.780700
C561	C56	0.783100	0.973600	0.783100
H561	H56	0.807700	0.952200	0.807700
O651	O65	0.280700	0.866100	0.280700
C571	C57	0.283100	0.973600	0.283100
H571	H57	0.307700	0.952200	0.307700
O661	O66	0.780700	0.633900	0.719300
C581	C58	0.783100	0.526400	0.716900
H581	H58	0.807700	0.547800	0.692300
O671	O67	0.780700	0.133900	0.219300
C591	C59	0.783100	0.026400	0.216900
H591	H59	0.807700	0.047800	0.192300
O681	O68	0.280700	0.633900	0.219300
C601	C60	0.283100	0.526400	0.216900
H601	H60	0.307700	0.547800	0.192300
O691	O69	0.719300	0.633900	0.780700
C611	C61	0.716900	0.526400	0.783100
H611	H61	0.692300	0.547800	0.807700
O701	O70	0.719300	0.133900	0.280700
C621	C62	0.716900	0.026400	0.283100
H621	H62	0.692300	0.047800	0.307700
O711	O71	0.280700	0.366100	0.780700
C631	C63	0.283100	0.473600	0.783100
H631	H63	0.307700	0.452200	0.807700
O721	O72	0.280700	0.133900	0.719300
C641	C64	0.283100	0.026400	0.716900
H641	H64	0.307700	0.047800	0.692300
O731	O73	0.719300	0.366100	0.219300
C651	C65	0.716900	0.473600	0.216900
H651	H65	0.692300	0.452200	0.192300
O741	O74	0.719300	0.866100	0.719300
C661	C66	0.716900	0.973600	0.716900
H661	H66	0.692300	0.952200	0.692300
O751	O75	0.780700	0.719300	0.633900
C671	C67	0.783100	0.716900	0.526400
H671	H67	0.807700	0.692300	0.547800
O761	O76	0.780700	0.219300	0.133900
C681	C68	0.783100	0.216900	0.026400
H681	H68	0.807700	0.192300	0.047800
O771	O77	0.780700	0.280700	0.366100
C691	C69	0.783100	0.283100	0.473600
H691	H69	0.807700	0.307700	0.452200
O781	O78	0.780700	0.780700	0.866100
C701	C70	0.783100	0.783100	0.973600
H701	H70	0.807700	0.807700	0.952200
O791	O79	0.219300	0.780700	0.133900
C711	C71	0.216900	0.783100	0.026400
H711	H71	0.192300	0.807700	0.047800
O801	O80	0.219300	0.719300	0.366100
C721	C72	0.216900	0.716900	0.473600
H721	H72	0.192300	0.692300	0.452200
O811	O81	0.633900	0.780700	0.719300
C731	C73	0.526400	0.783100	0.716900
H731	H73	0.547800	0.807700	0.692300
O821	O82	0.133900	0.780700	0.219300
C741	C74	0.026400	0.783100	0.216900
H741	H74	0.047800	0.807700	0.192300
O831	O83	0.366100	0.780700	0.280700
C751	C75	0.473600	0.783100	0.283100
H751	H75	0.452200	0.807700	0.307700
O841	O84	0.866100	0.780700	0.780700
C761	C76	0.973600	0.783100	0.783100
H761	H76	0.952200	0.807700	0.807700
O851	O85	0.133900	0.219300	0.780700
C771	C77	0.026400	0.216900	0.783100
H771	H77	0.047800	0.192300	0.807700
O861	O86	0.366100	0.219300	0.719300
C781	C78	0.473600	0.216900	0.716900
H781	H78	0.452200	0.192300	0.692300
O871	O87	0.633900	0.719300	0.219300
C791	C79	0.526400	0.716900	0.216900
H791	H79	0.547800	0.692300	0.192300
O881	O88	0.133900	0.719300	0.719300
C801	C80	0.026400	0.716900	0.716900
H801	H80	0.047800	0.692300	0.692300
O891	O89	0.866100	0.280700	0.719300
C811	C81	0.973600	0.283100	0.716900
H811	H81	0.952200	0.307700	0.692300
O901	O90	0.633900	0.280700	0.780700
C821	C82	0.526400	0.283100	0.783100
H821	H82	0.547800	0.307700	0.807700
O911	O91	0.366100	0.719300	0.780700
C831	C83	0.473600	0.716900	0.783100
H831	H83	0.452200	0.692300	0.807700
O921	O92	0.866100	0.719300	0.280700
C841	C84	0.973600	0.716900	0.283100
H841	H84	0.952200	0.692300	0.307700
O931	O93	0.719300	0.780700	0.366100
C851	C85	0.716900	0.783100	0.473600
H851	H85	0.692300	0.807700	0.452200
O941	O94	0.719300	0.280700	0.866100
C861	C86	0.716900	0.283100	0.973600
H861	H86	0.692300	0.307700	0.952200
O951	O95	0.280700	0.780700	0.633900
C871	C87	0.283100	0.783100	0.526400
H871	H87	0.307700	0.807700	0.547800
O961	O96	0.280700	0.719300	0.866100
C881	C88	0.283100	0.716900	0.973600
H881	H88	0.307700	0.692300	0.952200
O971	O97	0.719300	0.219300	0.633900
C891	C89	0.716900	0.216900	0.526400
H891	H89	0.692300	0.192300	0.547800
O981	O98	0.719300	0.719300	0.133900
C901	C90	0.716900	0.716900	0.026400
H901	H90	0.692300	0.692300	0.047800
O991	O99	0.780700	0.633900	0.280700
C911	C91	0.783100	0.526400	0.283100
H911	H91	0.807700	0.547800	0.307700
O1001	O100	0.780700	0.133900	0.780700
C921	C92	0.783100	0.026400	0.783100
H921	H92	0.807700	0.047800	0.807700
O1011	O101	0.780700	0.366100	0.719300
C931	C93	0.783100	0.473600	0.716900
H931	H93	0.807700	0.452200	0.692300
O1021	O102	0.780700	0.866100	0.219300
C941	C94	0.783100	0.973600	0.216900
H941	H94	0.807700	0.952200	0.192300
O1031	O103	0.219300	0.633900	0.719300
C951	C95	0.216900	0.526400	0.716900
H951	H95	0.192300	0.547800	0.692300
O1041	O104	0.219300	0.866100	0.780700
C961	C96	0.216900	0.973600	0.783100
H961	H96	0.192300	0.952200	0.807700
C971	C97	0.250000	0.389500	0.250000
C981	C98	0.250000	0.445200	0.250000
C991	C99	0.250000	0.889500	0.750000
C1001	C100	0.250000	0.945200	0.750000
C1011	C101	0.750000	0.610500	0.250000
C1021	C102	0.750000	0.554800	0.250000
C1031	C103	0.750000	0.110500	0.750000
C1041	C104	0.750000	0.054800	0.750000
C1051	C105	0.250000	0.110500	0.250000
C1061	C106	0.250000	0.054800	0.250000
C1071	C107	0.750000	0.389500	0.750000
C1081	C108	0.750000	0.445200	0.750000
C1091	C109	0.750000	0.889500	0.250000
C1101	C110	0.750000	0.945200	0.250000
C1111	C111	0.250000	0.610500	0.750000
C1121	C112	0.250000	0.554800	0.750000
C1131	C113	0.250000	0.250000	0.389500
C1141	C114	0.250000	0.250000	0.445200
C1151	C115	0.250000	0.750000	0.889500
C1161	C116	0.250000	0.750000	0.945200
C1171	C117	0.250000	0.750000	0.610500
C1181	C118	0.250000	0.750000	0.554800
C1191	C119	0.250000	0.250000	0.110500
C1201	C120	0.250000	0.250000	0.054800
C1211	C121	0.750000	0.750000	0.389500
C1221	C122	0.750000	0.750000	0.445200
C1231	C123	0.750000	0.250000	0.889500
C1241	C124	0.750000	0.250000	0.945200
C1251	C125	0.750000	0.250000	0.610500
C1261	C126	0.750000	0.250000	0.554800
C1271	C127	0.750000	0.750000	0.110500
C1281	C128	0.750000	0.750000	0.054800
C1291	C129	0.389500	0.250000	0.250000
C1301	C130	0.445200	0.250000	0.250000
C1311	C131	0.889500	0.250000	0.750000
C1321	C132	0.945200	0.250000	0.750000
C1331	C133	0.610500	0.250000	0.750000
C1341	C134	0.554800	0.250000	0.750000
C1351	C135	0.110500	0.250000	0.250000
C1361	C136	0.054800	0.250000	0.250000
C1371	C137	0.389500	0.750000	0.750000
C1381	C138	0.445200	0.750000	0.750000
C1391	C139	0.889500	0.750000	0.250000
C1401	C140	0.945200	0.750000	0.250000
C1411	C141	0.610500	0.750000	0.250000
C1421	C142	0.554800	0.750000	0.250000
C1431	C143	0.110500	0.750000	0.750000
C1441	C144	0.054800	0.750000	0.750000
C1451	C145	0.389500	0.250000	0.750000
C1461	C146	0.445200	0.250000	0.750000
C1471	C147	0.889500	0.250000	0.250000
C1481	C148	0.945200	0.250000	0.250000
C1491	C149	0.610500	0.750000	0.750000
C1501	C150	0.554800	0.750000	0.750000
C1511	C151	0.610500	0.250000	0.250000
C1521	C152	0.554800	0.250000	0.250000
C1531	C153	0.110500	0.750000	0.250000
C1541	C154	0.054800	0.750000	0.250000
C1551	C155	0.389500	0.750000	0.250000
C1561	C156	0.445200	0.750000	0.250000
C1571	C157	0.889500	0.750000	0.750000
C1581	C158	0.945200	0.750000	0.750000
C1591	C159	0.110500	0.250000	0.750000
C1601	C160	0.054800	0.250000	0.750000
C1611	C161	0.250000	0.250000	0.610500
C1621	C162	0.250000	0.250000	0.554800
C1631	C163	0.250000	0.750000	0.110500
C1641	C164	0.250000	0.750000	0.054800
C1651	C165	0.750000	0.250000	0.389500
C1661	C166	0.750000	0.250000	0.445200
C1671	C167	0.750000	0.750000	0.889500
C1681	C168	0.750000	0.750000	0.945200
C1691	C169	0.250000	0.250000	0.889500
C1701	C170	0.250000	0.250000	0.945200
C1711	C171	0.750000	0.750000	0.610500
C1721	C172	0.750000	0.750000	0.554800
C1731	C173	0.750000	0.250000	0.110500
C1741	C174	0.750000	0.250000	0.054800
C1751	C175	0.250000	0.750000	0.389500
C1761	C176	0.250000	0.750000	0.445200
C1771	C177	0.250000	0.389500	0.750000
C1781	C178	0.250000	0.445200	0.750000
C1791	C179	0.250000	0.889500	0.250000
C1801	C180	0.250000	0.945200	0.250000
C1811	C181	0.250000	0.610500	0.250000
C1821	C182	0.250000	0.554800	0.250000
C1831	C183	0.250000	0.110500	0.750000
C1841	C184	0.250000	0.054800	0.750000
C1851	C185	0.750000	0.389500	0.250000
C1861	C186	0.750000	0.445200	0.250000
C1871	C187	0.750000	0.889500	0.750000
C1881	C188	0.750000	0.945200	0.750000
C1891	C189	0.750000	0.610500	0.750000
C1901	C190	0.750000	0.554800	0.750000
C1911	C191	0.750000	0.110500	0.250000
C1921	C192	0.750000	0.054800	0.250000
