data_PEFJUF_freeONLY_PM
_symmetry_space_group_name_H-M	'P1'
_cell_length_a	32.035000
_cell_length_b	14.308000
_cell_length_c	8.852000
_cell_angle_alpha	90.000000
_cell_angle_beta	104.650000
_cell_angle_gamma	90.000000
_symmetry_Int_Tables_number 1

loop_
_symmetry_equiv_pos_as_xyz
'x,y,z'

loop_
_atom_site_label
_atom_site_type_symbol
_atom_site_fract_x
_atom_site_fract_y
_atom_site_fract_z
P11	P1	0.957000	0.619400	0.907300
P21	P2	0.811300	0.464900	0.983100
P31	P3	0.819200	0.783100	0.994900
Al11	Al1	0.771400	0.627800	0.145400
Al21	Al2	0.854500	0.618900	0.823300
O11	O1	0.964300	0.529200	0.821000
O21	O2	0.980100	0.701400	0.853000
O31	O3	0.909600	0.640000	0.868000
O41	O4	0.971300	0.609000	0.087000
O51	O5	0.779600	0.529000	0.034000
O61	O6	0.786400	0.403200	0.849000
O71	O7	0.845000	0.522000	0.930000
O81	O8	0.834100	0.402400	0.118000
O91	O9	0.781700	0.846200	0.909000
O101	O10	0.803100	0.720000	0.114000
O111	O11	0.828900	0.720000	0.864000
O121	O12	0.858200	0.835000	0.079000
P41	P4	0.457000	0.119400	0.907300
P51	P5	0.311300	0.964900	0.983100
P61	P6	0.319200	0.283100	0.994900
Al31	Al3	0.271400	0.127800	0.145400
Al41	Al4	0.354500	0.118900	0.823300
O131	O13	0.464300	0.029200	0.821000
O141	O14	0.480100	0.201400	0.853000
O151	O15	0.409600	0.140000	0.868000
O161	O16	0.471300	0.109000	0.087000
O171	O17	0.279600	0.029000	0.034000
O181	O18	0.286400	0.903200	0.849000
O191	O19	0.345000	0.022000	0.930000
O201	O20	0.334100	0.902400	0.118000
O211	O21	0.281700	0.346200	0.909000
O221	O22	0.303100	0.220000	0.114000
O231	O23	0.328900	0.220000	0.864000
O241	O24	0.358200	0.335000	0.079000
P71	P7	0.043000	0.619400	0.592700
P81	P8	0.188700	0.464900	0.516900
P91	P9	0.180800	0.783100	0.505100
Al51	Al5	0.228600	0.627800	0.354600
Al61	Al6	0.145500	0.618900	0.676700
O251	O25	0.035700	0.529200	0.679000
O261	O26	0.019900	0.701400	0.647000
O271	O27	0.090400	0.640000	0.632000
O281	O28	0.028700	0.609000	0.413000
O291	O29	0.220400	0.529000	0.466000
O301	O30	0.213600	0.403200	0.651000
O311	O31	0.155000	0.522000	0.570000
O321	O32	0.165900	0.402400	0.382000
O331	O33	0.218300	0.846200	0.591000
O341	O34	0.196900	0.720000	0.386000
O351	O35	0.171100	0.720000	0.636000
O361	O36	0.141800	0.835000	0.421000
P101	P10	0.543000	0.119400	0.592700
P111	P11	0.688700	0.964900	0.516900
P121	P12	0.680800	0.283100	0.505100
Al71	Al7	0.728600	0.127800	0.354600
Al81	Al8	0.645500	0.118900	0.676700
O371	O37	0.535700	0.029200	0.679000
O381	O38	0.519900	0.201400	0.647000
O391	O39	0.590400	0.140000	0.632000
O401	O40	0.528700	0.109000	0.413000
O411	O41	0.720400	0.029000	0.466000
O421	O42	0.713600	0.903200	0.651000
O431	O43	0.655000	0.022000	0.570000
O441	O44	0.665900	0.902400	0.382000
O451	O45	0.718300	0.346200	0.591000
O461	O46	0.696900	0.220000	0.386000
O471	O47	0.671100	0.220000	0.636000
O481	O48	0.641800	0.335000	0.421000
P131	P13	0.043000	0.380600	0.092700
P141	P14	0.188700	0.535100	0.016900
P151	P15	0.180800	0.216900	0.005100
Al91	Al9	0.228600	0.372200	0.854600
Al101	Al10	0.145500	0.381100	0.176700
O491	O49	0.035700	0.470800	0.179000
O501	O50	0.019900	0.298600	0.147000
O511	O51	0.090400	0.360000	0.132000
O521	O52	0.028700	0.391000	0.913000
O531	O53	0.220400	0.471000	0.966000
O541	O54	0.213600	0.596800	0.151000
O551	O55	0.155000	0.478000	0.070000
O561	O56	0.165900	0.597600	0.882000
O571	O57	0.218300	0.153800	0.091000
O581	O58	0.196900	0.280000	0.886000
O591	O59	0.171100	0.280000	0.136000
O601	O60	0.141800	0.165000	0.921000
P161	P16	0.543000	0.880600	0.092700
P171	P17	0.688700	0.035100	0.016900
P181	P18	0.680800	0.716900	0.005100
Al111	Al11	0.728600	0.872200	0.854600
Al121	Al12	0.645500	0.881100	0.176700
O611	O61	0.535700	0.970800	0.179000
O621	O62	0.519900	0.798600	0.147000
O631	O63	0.590400	0.860000	0.132000
O641	O64	0.528700	0.891000	0.913000
O651	O65	0.720400	0.971000	0.966000
O661	O66	0.713600	0.096800	0.151000
O671	O67	0.655000	0.978000	0.070000
O681	O68	0.665900	0.097600	0.882000
O691	O69	0.718300	0.653800	0.091000
O701	O70	0.696900	0.780000	0.886000
O711	O71	0.671100	0.780000	0.136000
O721	O72	0.641800	0.665000	0.921000
P191	P19	0.957000	0.380600	0.407300
P201	P20	0.811300	0.535100	0.483100
P211	P21	0.819200	0.216900	0.494900
Al131	Al13	0.771400	0.372200	0.645400
Al141	Al14	0.854500	0.381100	0.323300
O731	O73	0.964300	0.470800	0.321000
O741	O74	0.980100	0.298600	0.353000
O751	O75	0.909600	0.360000	0.368000
O761	O76	0.971300	0.391000	0.587000
O771	O77	0.779600	0.471000	0.534000
O781	O78	0.786400	0.596800	0.349000
O791	O79	0.845000	0.478000	0.430000
O801	O80	0.834100	0.597600	0.618000
O811	O81	0.781700	0.153800	0.409000
O821	O82	0.803100	0.280000	0.614000
O831	O83	0.828900	0.280000	0.364000
O841	O84	0.858200	0.165000	0.579000
P221	P22	0.457000	0.880600	0.407300
P231	P23	0.311300	0.035100	0.483100
P241	P24	0.319200	0.716900	0.494900
Al151	Al15	0.271400	0.872200	0.645400
Al161	Al16	0.354500	0.881100	0.323300
O851	O85	0.464300	0.970800	0.321000
O861	O86	0.480100	0.798600	0.353000
O871	O87	0.409600	0.860000	0.368000
O881	O88	0.471300	0.891000	0.587000
O891	O89	0.279600	0.971000	0.534000
O901	O90	0.286400	0.096800	0.349000
O911	O91	0.345000	0.978000	0.430000
O921	O92	0.334100	0.097600	0.618000
O931	O93	0.281700	0.653800	0.409000
O941	O94	0.303100	0.780000	0.614000
O951	O95	0.328900	0.780000	0.364000
O961	O96	0.358200	0.665000	0.579000
Al171	Al17	0.000000	0.460300	0.750000
Al181	Al18	0.500000	0.960300	0.750000
Al191	Al19	0.000000	0.539700	0.250000
Al201	Al20	0.500000	0.039700	0.250000
