data_PEJPAX_charged_PM
_symmetry_space_group_name_H-M	'P1'
_cell_length_a	14.224700
_cell_length_b	15.595400
_cell_length_c	17.729600
_cell_angle_alpha	90.000000
_cell_angle_beta	113.650000
_cell_angle_gamma	90.000000
_symmetry_Int_Tables_number 1

loop_
_symmetry_equiv_pos_as_xyz
'x,y,z'

loop_
_atom_site_label
_atom_site_type_symbol
_atom_site_fract_x
_atom_site_fract_y
_atom_site_fract_z
Zn11	Zn1	0.630130	0.797260	0.500000
Zn21	Zn2	0.869870	0.797260	0.500000
Zn31	Zn3	0.369870	0.202740	0.500000
Zn41	Zn4	0.130130	0.202740	0.500000
Zn51	Zn5	0.750000	0.500000	0.000000
Zn61	Zn6	0.250000	0.500000	0.000000
H11	H1	0.723600	0.683700	0.727200
H21	H2	0.776400	0.683700	0.272800
H31	H3	0.503600	0.316300	0.727200
H41	H4	0.996400	0.316300	0.272800
H51	H5	0.276400	0.316300	0.272800
H61	H6	0.223600	0.316300	0.727200
H71	H7	0.496400	0.683700	0.272800
H81	H8	0.003600	0.683700	0.727200
H91	H9	0.390700	0.936400	0.500000
H101	H10	0.109300	0.936400	0.500000
H111	H11	0.609300	0.063600	0.500000
H121	H12	0.890700	0.063600	0.500000
H131	H13	0.958300	0.581500	0.916600
H141	H14	0.541700	0.581500	0.083400
H151	H15	0.458300	0.418500	0.916600
H161	H16	0.041700	0.418500	0.083400
H171	H17	0.250000	0.716500	0.500000
H181	H18	0.750000	0.283500	0.500000
C11	C1	0.827100	0.628300	0.827000
C21	C2	0.792700	0.669300	0.753200
C31	C3	0.758800	0.602300	0.869200
C41	C4	0.672900	0.628300	0.173000
C51	C5	0.707300	0.669300	0.246800
C61	C6	0.741200	0.602300	0.130800
C71	C7	0.499900	0.371700	0.827000
C81	C8	0.460500	0.330700	0.753200
C91	C9	0.610400	0.397700	0.869200
C101	C10	0.000100	0.371700	0.173000
C111	C11	0.039500	0.330700	0.246800
C121	C12	0.889600	0.397700	0.130800
C131	C13	0.172900	0.371700	0.173000
C141	C14	0.207300	0.330700	0.246800
C151	C15	0.241200	0.397700	0.130800
C161	C16	0.327100	0.371700	0.827000
C171	C17	0.292700	0.330700	0.753200
C181	C18	0.258800	0.397700	0.869200
C191	C19	0.500100	0.628300	0.173000
C201	C20	0.539500	0.669300	0.246800
C211	C21	0.389600	0.602300	0.130800
C221	C22	0.999900	0.628300	0.827000
C231	C23	0.960500	0.669300	0.753200
C241	C24	0.110400	0.602300	0.869200
C251	C25	0.333900	0.906800	0.500000
C261	C26	0.334300	0.821300	0.500000
C271	C27	0.428000	0.774800	0.500000
C281	C28	0.166100	0.906800	0.500000
C291	C29	0.165700	0.821300	0.500000
C301	C30	0.072000	0.774800	0.500000
C311	C31	0.666100	0.093200	0.500000
C321	C32	0.665700	0.178700	0.500000
C331	C33	0.572000	0.225200	0.500000
C341	C34	0.833900	0.093200	0.500000
C351	C35	0.834300	0.178700	0.500000
C361	C36	0.928000	0.225200	0.500000
C371	C37	0.932700	0.608300	0.865400
C381	C38	0.858000	0.690000	0.716000
C391	C39	0.816800	0.729700	0.633600
C401	C40	0.567300	0.608300	0.134600
C411	C41	0.642000	0.690000	0.284000
C421	C42	0.683200	0.729700	0.366400
C431	C43	0.432700	0.391700	0.865400
C441	C44	0.358000	0.310000	0.716000
C451	C45	0.316800	0.270300	0.633600
C461	C46	0.067300	0.391700	0.134600
C471	C47	0.142000	0.310000	0.284000
C481	C48	0.183200	0.270300	0.366400
C491	C49	0.250000	0.776100	0.500000
C501	C50	0.250000	0.952100	0.500000
C511	C51	0.250000	0.047900	0.500000
C521	C52	0.750000	0.223900	0.500000
C531	C53	0.750000	0.047900	0.500000
C541	C54	0.750000	0.952100	0.500000
O11	O1	0.722640	0.745200	0.600480
O21	O2	0.805500	0.567600	0.938400
O31	O3	0.666900	0.615800	0.835600
O41	O4	0.777360	0.745200	0.399520
O51	O5	0.694500	0.567600	0.061600
O61	O6	0.833100	0.615800	0.164400
O71	O7	0.377840	0.254800	0.600480
O81	O8	0.632900	0.432400	0.938400
O91	O9	0.668700	0.384200	0.835600
O101	O10	0.122160	0.254800	0.399520
O111	O11	0.867100	0.432400	0.061600
O121	O12	0.831300	0.384200	0.164400
O131	O13	0.277360	0.254800	0.399520
O141	O14	0.194500	0.432400	0.061600
O151	O15	0.333100	0.384200	0.164400
O161	O16	0.222640	0.254800	0.600480
O171	O17	0.305500	0.432400	0.938400
O181	O18	0.166900	0.384200	0.835600
O191	O19	0.622160	0.745200	0.399520
O201	O20	0.367100	0.567600	0.061600
O211	O21	0.331300	0.615800	0.164400
O221	O22	0.877840	0.745200	0.600480
O231	O23	0.132900	0.567600	0.938400
O241	O24	0.168700	0.615800	0.835600
O251	O25	0.498200	0.820700	0.500000
O261	O26	0.429600	0.696400	0.500000
O271	O27	0.172300	0.083800	0.500000
O281	O28	0.001800	0.820700	0.500000
O291	O29	0.070400	0.696400	0.500000
O301	O30	0.327700	0.083800	0.500000
O311	O31	0.501800	0.179300	0.500000
O321	O32	0.570400	0.303600	0.500000
O331	O33	0.827700	0.916200	0.500000
O341	O34	0.998200	0.179300	0.500000
O351	O35	0.929600	0.303600	0.500000
O361	O36	0.672300	0.916200	0.500000
H191	H19	0.053800	0.262600	0.967400
H201	H20	0.080700	0.274600	0.890400
H211	H21	0.034300	0.351100	0.921600
H221	H22	0.962800	0.410700	0.819600
H231	H23	0.957600	0.208700	0.732200
H241	H24	0.934300	0.294900	0.682400
H251	H25	0.026900	0.289400	0.768400
H261	H26	0.913600	0.262600	0.967400
H271	H27	0.809700	0.274600	0.890400
H281	H28	0.887300	0.351100	0.921600
H291	H29	0.856800	0.410700	0.819600
H301	H30	0.774600	0.208700	0.732200
H311	H31	0.748100	0.294900	0.682400
H321	H32	0.741500	0.289400	0.768400
C551	C55	0.033600	0.290000	0.914600
C561	C56	0.958200	0.270100	0.736400
C571	C57	0.881000	0.290000	0.914600
C581	C58	0.778200	0.270100	0.736400
C591	C59	0.893500	0.393500	0.787000
C601	C60	0.888900	0.297500	0.777800
N11	N1	0.930500	0.262400	0.861000
H331	H33	0.446200	0.262600	0.032600
H341	H34	0.419300	0.274600	0.109600
H351	H35	0.465700	0.351100	0.078400
H361	H36	0.537200	0.410700	0.180400
H371	H37	0.542400	0.208700	0.267800
H381	H38	0.565700	0.294900	0.317600
H391	H39	0.473100	0.289400	0.231600
H401	H40	0.586400	0.262600	0.032600
H411	H41	0.690300	0.274600	0.109600
H421	H42	0.612700	0.351100	0.078400
H431	H43	0.643200	0.410700	0.180400
H441	H44	0.725400	0.208700	0.267800
H451	H45	0.751900	0.294900	0.317600
H461	H46	0.758500	0.289400	0.231600
C611	C61	0.466400	0.290000	0.085400
C621	C62	0.541800	0.270100	0.263600
C631	C63	0.619000	0.290000	0.085400
C641	C64	0.721800	0.270100	0.263600
C651	C65	0.606500	0.393500	0.213000
C661	C66	0.611100	0.297500	0.222200
N21	N2	0.569500	0.262400	0.139000
H471	H47	0.413600	0.737400	0.967400
H481	H48	0.309700	0.725400	0.890400
H491	H49	0.387300	0.648900	0.921600
H501	H50	0.356800	0.589300	0.819600
H511	H51	0.274600	0.791300	0.732200
H521	H52	0.248100	0.705100	0.682400
H531	H53	0.241500	0.710600	0.768400
H541	H54	0.553800	0.737400	0.967400
H551	H55	0.580700	0.725400	0.890400
H561	H56	0.534300	0.648900	0.921600
H571	H57	0.462800	0.589300	0.819600
H581	H58	0.457600	0.791300	0.732200
H591	H59	0.434300	0.705100	0.682400
H601	H60	0.526900	0.710600	0.768400
C671	C67	0.381000	0.710000	0.914600
C681	C68	0.278200	0.729900	0.736400
C691	C69	0.533600	0.710000	0.914600
C701	C70	0.458200	0.729900	0.736400
C711	C71	0.393500	0.606500	0.787000
C721	C72	0.388900	0.702500	0.777800
N31	N3	0.430500	0.737600	0.861000
H611	H61	0.086400	0.737400	0.032600
H621	H62	0.190300	0.725400	0.109600
H631	H63	0.112700	0.648900	0.078400
H641	H64	0.143200	0.589300	0.180400
H651	H65	0.225400	0.791300	0.267800
H661	H66	0.251900	0.705100	0.317600
H671	H67	0.258500	0.710600	0.231600
H681	H68	0.946200	0.737400	0.032600
H691	H69	0.919300	0.725400	0.109600
H701	H70	0.965700	0.648900	0.078400
H711	H71	0.037200	0.589300	0.180400
H721	H72	0.042400	0.791300	0.267800
H731	H73	0.065700	0.705100	0.317600
H741	H74	0.973100	0.710600	0.231600
C731	C73	0.119000	0.710000	0.085400
C741	C74	0.221800	0.729900	0.263600
C751	C75	0.966400	0.710000	0.085400
C761	C76	0.041800	0.729900	0.263600
C771	C77	0.106500	0.606500	0.213000
C781	C78	0.111100	0.702500	0.222200
N41	N4	0.069500	0.737600	0.139000
