data_PEKDAM_freeONLY_PM
_symmetry_space_group_name_H-M	'P1'
_cell_length_a	10.373300
_cell_length_b	14.190800
_cell_length_c	34.215200
_cell_angle_alpha	78.300700
_cell_angle_beta	81.281000
_cell_angle_gamma	68.562000
_symmetry_Int_Tables_number 1

loop_
_symmetry_equiv_pos_as_xyz
'x,y,z'

loop_
_atom_site_label
_atom_site_type_symbol
_atom_site_fract_x
_atom_site_fract_y
_atom_site_fract_z
Mn11	Mn1	0.399620	0.826830	0.837930
Mn21	Mn2	0.025230	0.941140	0.855260
Mn31	Mn3	0.774820	0.713200	0.818380
Mn41	Mn4	0.935620	0.326830	0.337930
Mn51	Mn5	0.178370	0.441140	0.355260
Mn61	Mn6	0.693600	0.213200	0.318380
H11	H1	0.739100	0.801300	0.117300
H21	H2	0.658500	0.817800	0.159600
H31	H3	0.469900	0.808600	0.082600
H41	H4	0.421800	0.925400	0.063600
H51	H5	0.590400	0.005800	0.126800
H61	H6	0.655500	0.976000	0.084600
H71	H7	0.321900	0.969200	0.129200
H81	H8	0.375000	0.854000	0.150200
H91	H9	0.785400	0.677900	0.194700
H101	H10	0.816600	0.544800	0.248800
H111	H11	0.551000	0.449900	0.209100
H121	H12	0.521200	0.579400	0.154200
H131	H13	0.421500	0.823700	0.016100
H141	H14	0.436400	0.789200	0.951200
H151	H15	0.817600	0.808400	0.929600
H161	H16	0.807200	0.834700	0.994300
H171	H17	0.442700	0.040900	0.227100
H181	H18	0.270000	0.125600	0.272400
H191	H19	0.991100	0.050800	0.227800
H201	H20	0.162300	0.968300	0.181700
H211	H21	0.182800	0.275800	0.031400
H221	H22	0.244900	0.161100	0.052700
H231	H23	0.439600	0.324900	0.014100
H241	H24	0.446400	0.359500	0.054500
H251	H25	0.244500	0.217800	0.116400
H261	H26	0.176500	0.331700	0.095500
H271	H27	0.532700	0.178800	0.091800
H281	H28	0.549200	0.151900	0.048500
H291	H29	0.115100	0.170100	0.997700
H301	H30	0.070400	0.094400	0.949600
H311	H31	0.463000	0.030400	0.902000
H321	H32	0.505200	0.112800	0.947000
H331	H33	0.447900	0.475000	0.981000
H341	H34	0.407500	0.608900	0.926700
H351	H35	0.000900	0.693800	0.960400
H361	H36	0.040600	0.555800	0.012000
H371	H37	0.095200	0.324100	0.165500
H381	H38	0.031000	0.359600	0.229600
H391	H39	0.416900	0.352700	0.238500
H401	H40	0.477300	0.328100	0.172500
H411	H41	0.872300	0.590500	0.900500
H421	H42	0.973300	0.478600	0.955400
H431	H43	0.964100	0.369200	0.959400
H441	H44	0.101500	0.389000	0.940800
H451	H45	0.948300	0.386100	0.856700
H461	H46	0.084000	0.328100	0.878900
H471	H47	0.944200	0.311900	0.897300
H481	H48	0.885700	0.058500	0.777100
H491	H49	0.768500	0.156600	0.727200
H501	H50	0.669700	0.263400	0.737800
H511	H51	0.806000	0.255200	0.709600
H521	H52	0.899800	0.269100	0.802900
H531	H53	0.888900	0.328500	0.758900
H541	H54	0.753600	0.334800	0.787400
H551	H55	0.342300	0.301300	0.617300
H561	H56	0.364100	0.317800	0.659600
H571	H57	0.638900	0.308600	0.582600
H581	H58	0.589200	0.425400	0.563600
H591	H59	0.277000	0.505800	0.626800
H601	H60	0.283900	0.476000	0.584600
H611	H61	0.579700	0.469200	0.629200
H621	H62	0.620800	0.354000	0.650200
H631	H63	0.342000	0.177900	0.694700
H641	H64	0.389800	0.044800	0.748800
H651	H65	0.790000	0.949900	0.709100
H661	H66	0.745200	0.079400	0.654200
H671	H67	0.738700	0.323700	0.516100
H681	H68	0.823200	0.289200	0.451200
H691	H69	0.444400	0.308400	0.429600
H701	H70	0.363800	0.334700	0.494300
H711	H71	0.289300	0.540900	0.727100
H721	H72	0.332000	0.625600	0.772400
H731	H73	0.730300	0.550800	0.727800
H741	H74	0.687700	0.468300	0.681700
H751	H75	0.510000	0.775800	0.531400
H761	H76	0.541300	0.661100	0.552700
H771	H77	0.221400	0.824900	0.514100
H781	H78	0.139600	0.859500	0.554500
H791	H79	0.421300	0.717800	0.616400
H801	H80	0.396300	0.831700	0.595500
H811	H81	0.196700	0.678800	0.591800
H821	H82	0.250400	0.651900	0.548500
H831	H83	0.717100	0.670100	0.497700
H841	H84	0.885600	0.594400	0.449600
H851	H85	0.604600	0.530400	0.402000
H861	H86	0.435000	0.612800	0.447000
H871	H87	0.096100	0.975000	0.481000
H881	H88	0.056900	0.108900	0.426700
H891	H89	0.344900	0.193800	0.460400
H901	H90	0.391600	0.055800	0.512000
H911	H91	0.415200	0.824100	0.665500
H921	H92	0.379800	0.859600	0.729600
H931	H93	0.991900	0.852700	0.738500
H941	H94	0.022100	0.828100	0.672500
H951	H95	0.636700	0.090500	0.400500
H961	H96	0.592700	0.978600	0.455400
H971	H97	0.707300	0.869200	0.459400
H981	H98	0.568700	0.889000	0.440800
H991	H99	0.808900	0.886100	0.356700
H1001	H100	0.709000	0.828100	0.378900
H1011	H101	0.846600	0.811900	0.397300
H1021	H102	0.278700	0.558500	0.277100
H1031	H103	0.347700	0.656600	0.227200
H1041	H104	0.329100	0.763400	0.237800
H1051	H105	0.229200	0.755200	0.209600
H1061	H106	0.028200	0.769100	0.302900
H1071	H107	0.023700	0.828500	0.258900
H1081	H108	0.124200	0.834800	0.287400
C11	C1	0.531000	0.894610	0.112990
C21	C2	0.651800	0.806010	0.133190
C31	C3	0.497500	0.868650	0.075750
C41	C4	0.572800	0.989340	0.102660
C51	C5	0.399100	0.915450	0.141950
C61	C6	0.648700	0.642590	0.169610
C71	C7	0.737800	0.632280	0.197520
C81	C8	0.755800	0.552510	0.230090
C91	C9	0.684800	0.485630	0.234770
C101	C10	0.598000	0.495950	0.206250
C111	C11	0.579300	0.573590	0.173410
C121	C12	0.700100	0.400460	0.270540
C131	C13	0.612700	0.831920	0.011280
C141	C14	0.501400	0.819290	0.998910
C151	C15	0.510300	0.799690	0.959710
C161	C16	0.627000	0.795760	0.933840
C171	C17	0.738800	0.810090	0.946910
C181	C18	0.731900	0.826780	0.985420
C191	C19	0.638700	0.774740	0.892060
C201	C20	0.318600	0.995050	0.200550
C211	C21	0.351900	0.042940	0.227260
C221	C22	0.248250	0.094050	0.254250
C231	C23	0.112910	0.098080	0.254300
C241	C24	0.081500	0.049550	0.227450
C251	C25	0.184100	0.999120	0.200080
C261	C26	0.999950	0.155170	0.283330
C271	C27	0.350300	0.251170	0.063030
C281	C28	0.268300	0.219560	0.038040
C291	C29	0.388900	0.341530	0.039470
C301	C30	0.264100	0.277320	0.101280
C311	C31	0.487000	0.162750	0.072650
C321	C32	0.315700	0.149000	0.977000
C331	C33	0.184400	0.143370	0.978230
C341	C34	0.159000	0.096510	0.949490
C351	C35	0.260300	0.053750	0.921050
C361	C36	0.392200	0.059620	0.920780
C371	C37	0.417800	0.107810	0.947990
C381	C38	0.233100	0.999530	0.891270
C391	C39	0.248800	0.502860	0.000740
C401	C40	0.357500	0.518280	0.976320
C411	C41	0.333400	0.599370	0.944030
C421	C42	0.198000	0.665950	0.937850
C431	C43	0.091400	0.648940	0.963860
C441	C44	0.114500	0.567060	0.995140
C451	C45	0.169500	0.750610	0.903190
C461	C46	0.292200	0.324490	0.162510
C471	C47	0.158500	0.332010	0.179990
C481	C48	0.121200	0.351430	0.218570
C491	C49	0.215740	0.359080	0.241440
C501	C50	0.351700	0.348810	0.223590
C511	C51	0.388700	0.332980	0.184220
C521	C52	0.178970	0.378150	0.283110
C531	C53	0.886400	0.537500	0.886500
C541	C54	0.001900	0.418300	0.943100
C551	C55	0.984900	0.360800	0.882400
C561	C56	0.894500	0.112580	0.786620
C571	C57	0.764700	0.221500	0.732500
C581	C58	0.846100	0.291300	0.780100
C591	C59	0.461400	0.394610	0.612990
C601	C60	0.409000	0.306010	0.633190
C611	C61	0.558100	0.368650	0.575750
C621	C62	0.335200	0.489340	0.602660
C631	C63	0.543500	0.415450	0.641950
C641	C64	0.539100	0.142590	0.669610
C651	C65	0.432400	0.132280	0.697520
C661	C66	0.461600	0.052510	0.730090
C671	C67	0.594800	0.985630	0.734770
C681	C68	0.699800	0.995950	0.706250
C691	C69	0.673700	0.073590	0.673410
C701	C70	0.628900	0.900460	0.770540
C711	C71	0.544100	0.331920	0.511280
C721	C72	0.680400	0.319290	0.498910
C731	C73	0.730300	0.299690	0.459710
C741	C74	0.643400	0.295760	0.433840
C751	C75	0.504200	0.310090	0.446910
C761	C76	0.455900	0.326780	0.485420
C771	C77	0.694500	0.274740	0.392060
C781	C78	0.485800	0.495050	0.700550
C791	C79	0.377900	0.542940	0.727260
C801	C80	0.403450	0.594050	0.754250
C811	C81	0.534710	0.598080	0.754300
C821	C82	0.641500	0.549550	0.727450
C831	C83	0.616700	0.499120	0.700080
C841	C84	0.561550	0.655170	0.783330
C851	C85	0.335500	0.751170	0.563030
C861	C86	0.474100	0.719560	0.538040
C871	C87	0.230100	0.841530	0.539470
C881	C88	0.357300	0.777320	0.601280
C891	C89	0.277600	0.662750	0.572650
C901	C90	0.558300	0.649000	0.477000
C911	C91	0.694000	0.643370	0.478230
C921	C92	0.795000	0.596510	0.449490
C931	C93	0.764900	0.553750	0.421050
C941	C94	0.627400	0.559620	0.420780
C951	C95	0.526400	0.607810	0.447990
C961	C96	0.876100	0.499530	0.391270
C971	C97	0.247600	0.002860	0.500740
C981	C98	0.147900	0.018280	0.476320
C991	C99	0.123200	0.099370	0.444030
C1001	C100	0.198200	0.165950	0.437850
C1011	C101	0.295800	0.148940	0.463860
C1021	C102	0.323300	0.067060	0.495140
C1031	C103	0.176700	0.250610	0.403190
C1041	C104	0.220800	0.824490	0.662510
C1051	C105	0.329500	0.832010	0.679990
C1061	C106	0.308800	0.851430	0.718570
C1071	C107	0.183740	0.859080	0.741440
C1081	C108	0.075900	0.848810	0.723590
C1091	C109	0.094100	0.832980	0.684220
C1101	C110	0.159770	0.878150	0.783110
C1111	C111	0.689600	0.037500	0.386500
C1121	C112	0.636700	0.918300	0.443100
C1131	C113	0.771900	0.860800	0.382400
C1141	C114	0.206300	0.612580	0.286620
C1151	C115	0.281300	0.721500	0.232500
C1161	C116	0.082500	0.791300	0.280100
N11	N1	0.952400	0.444670	0.904130
N21	N2	0.840400	0.205060	0.766940
N31	N3	0.698800	0.944670	0.404130
N41	N4	0.187600	0.705060	0.266940
O11	O1	0.803770	0.963950	0.863910
O21	O2	0.454340	0.073720	0.088800
O31	O3	0.997070	0.687320	0.809140
O41	O4	0.623590	0.715010	0.136010
O51	O5	0.620610	0.849070	0.048510
O61	O6	0.428760	0.946060	0.175620
O71	O7	0.775250	0.394890	0.296810
O81	O8	0.634230	0.341370	0.271970
O91	O9	0.551850	0.744390	0.881510
O101	O10	0.741210	0.787480	0.868700
O111	O11	0.880130	0.150950	0.283390
O121	O12	0.032860	0.202240	0.304840
O131	O13	0.355810	0.193650	0.002330
O141	O14	0.258780	0.425590	0.033050
O151	O15	0.340680	0.309540	0.123700
O161	O16	0.336130	0.953440	0.869500
O171	O17	0.109430	0.006180	0.890360
O181	O18	0.267390	0.755980	0.877440
O191	O19	0.046180	0.813360	0.901680
O201	O20	0.053630	0.411510	0.296830
O211	O21	0.276330	0.365590	0.304550
O221	O22	0.842500	0.561190	0.854210
O231	O23	0.956570	0.092120	0.817140
O241	O24	0.368370	0.463950	0.363910
O251	O25	0.383140	0.573720	0.588800
O261	O26	0.506470	0.187320	0.309140
O271	O27	0.525390	0.215010	0.636010
O281	O28	0.481810	0.349070	0.548510
O291	O29	0.449560	0.446060	0.675620
O301	O30	0.533050	0.894890	0.796810
O311	O31	0.752430	0.841370	0.771970
O321	O32	0.822250	0.244390	0.381510
O331	O33	0.602610	0.287480	0.368700
O341	O34	0.685530	0.650950	0.783390
O351	O35	0.460060	0.702240	0.804840
O361	O36	0.448210	0.693650	0.502330
O371	O37	0.282580	0.925590	0.533050
O381	O38	0.226080	0.809540	0.623700
O391	O39	0.840930	0.453440	0.369500
O401	O40	0.994030	0.506180	0.390360
O411	O41	0.099190	0.255980	0.377440
O421	O42	0.238780	0.313360	0.401680
O431	O43	0.238030	0.911510	0.796830
O441	O44	0.053530	0.865590	0.804550
O451	O45	0.742100	0.061190	0.354210
O461	O46	0.134170	0.592120	0.317140
