data_PEKKAS_freeONLY_PM
_symmetry_space_group_name_H-M	'P1'
_cell_length_a	9.014800
_cell_length_b	9.014800
_cell_length_c	11.464500
_cell_angle_alpha	90.000000
_cell_angle_beta	90.000000
_cell_angle_gamma	120.000000
_symmetry_Int_Tables_number 1

loop_
_symmetry_equiv_pos_as_xyz
'x,y,z'

loop_
_atom_site_label
_atom_site_type_symbol
_atom_site_fract_x
_atom_site_fract_y
_atom_site_fract_z
In11	In1	0.500000	0.000000	0.666670
In21	In2	0.500000	0.500000	0.000000
In31	In3	0.000000	0.500000	0.333330
C11	C1	0.791000	0.209000	0.500000
C21	C2	0.691550	0.308450	0.500000
C31	C3	0.418000	0.209000	0.833330
C41	C4	0.616900	0.308450	0.833330
C51	C5	0.791000	0.582000	0.166670
C61	C6	0.691550	0.383100	0.166670
C71	C7	0.209000	0.791000	0.500000
C81	C8	0.308450	0.691550	0.500000
C91	C9	0.582000	0.791000	0.833330
C101	C10	0.383100	0.691550	0.833330
C111	C11	0.209000	0.418000	0.166670
C121	C12	0.308450	0.616900	0.166670
O11	O1	0.734500	0.075200	0.562900
O21	O2	0.556700	0.243500	0.556900
O31	O3	0.340700	0.265500	0.896230
O41	O4	0.686800	0.443300	0.890230
O51	O5	0.924800	0.659300	0.229570
O61	O6	0.756500	0.313200	0.223570
O71	O7	0.265500	0.924800	0.562900
O81	O8	0.443300	0.756500	0.556900
O91	O9	0.659300	0.734500	0.896230
O101	O10	0.313200	0.556700	0.890230
O111	O11	0.075200	0.340700	0.229570
O121	O12	0.243500	0.686800	0.223570
O131	O13	0.659300	0.924800	0.770430
O141	O14	0.313200	0.756500	0.776430
O151	O15	0.075200	0.734500	0.437100
O161	O16	0.243500	0.556700	0.443100
O171	O17	0.265500	0.340700	0.103770
O181	O18	0.443300	0.686800	0.109770
O191	O19	0.340700	0.075200	0.770430
O201	O20	0.686800	0.243500	0.776430
O211	O21	0.924800	0.265500	0.437100
O221	O22	0.756500	0.443300	0.443100
O231	O23	0.734500	0.659300	0.103770
O241	O24	0.556700	0.313200	0.109770
