data_PENZUE_freeONLY_PM
_symmetry_space_group_name_H-M	'P1'
_cell_length_a	8.459000
_cell_length_b	9.622000
_cell_length_c	24.389000
_cell_angle_alpha	90.000000
_cell_angle_beta	90.000000
_cell_angle_gamma	90.000000
_symmetry_Int_Tables_number 1

loop_
_symmetry_equiv_pos_as_xyz
'x,y,z'

loop_
_atom_site_label
_atom_site_type_symbol
_atom_site_fract_x
_atom_site_fract_y
_atom_site_fract_z
Zn11	Zn1	0.773410	0.595520	0.535070
Zn21	Zn2	0.773410	0.904480	0.964930
Zn31	Zn3	0.726590	0.404480	0.035070
Zn41	Zn4	0.726590	0.095520	0.464930
Zn51	Zn5	0.226590	0.404480	0.464930
Zn61	Zn6	0.226590	0.095520	0.035070
Zn71	Zn7	0.273410	0.595520	0.964930
Zn81	Zn8	0.273410	0.904480	0.535070
P11	P1	0.865540	0.397950	0.437630
P21	P2	0.865540	0.102050	0.062370
P31	P3	0.634460	0.602050	0.937630
P41	P4	0.634460	0.897950	0.562370
P51	P5	0.134460	0.602050	0.562370
P61	P6	0.134460	0.897950	0.937630
P71	P7	0.365540	0.397950	0.062370
P81	P8	0.365540	0.102050	0.437630
H11	H1	0.779300	0.386700	0.393700
H21	H2	0.417900	0.208800	0.602500
H31	H3	0.587900	0.315500	0.541600
H41	H4	0.622400	0.643900	0.637800
H51	H5	0.453000	0.545000	0.700700
H61	H6	0.229200	0.369800	0.713700
H71	H7	0.250000	0.221300	0.684800
H81	H8	0.474000	0.173200	0.737600
H91	H9	0.779300	0.113300	0.106300
H101	H10	0.417900	0.291200	0.897500
H111	H11	0.587900	0.184500	0.958400
H121	H12	0.622400	0.856100	0.862200
H131	H13	0.453000	0.955000	0.799300
H141	H14	0.229200	0.130200	0.786300
H151	H15	0.250000	0.278700	0.815200
H161	H16	0.474000	0.326800	0.762400
H171	H17	0.720700	0.613300	0.893700
H181	H18	0.082100	0.791200	0.102500
H191	H19	0.912100	0.684500	0.041600
H201	H20	0.877600	0.356100	0.137800
H211	H21	0.047000	0.455000	0.200700
H221	H22	0.270800	0.630200	0.213700
H231	H23	0.250000	0.778700	0.184800
H241	H24	0.026000	0.826800	0.237600
H251	H25	0.720700	0.886700	0.606300
H261	H26	0.082100	0.708800	0.397500
H271	H27	0.912100	0.815500	0.458400
H281	H28	0.877600	0.143900	0.362200
H291	H29	0.047000	0.045000	0.299300
H301	H30	0.270800	0.869800	0.286300
H311	H31	0.250000	0.721300	0.315200
H321	H32	0.026000	0.673200	0.262400
H331	H33	0.220700	0.613300	0.606300
H341	H34	0.582100	0.791200	0.397500
H351	H35	0.412100	0.684500	0.458400
H361	H36	0.377600	0.356100	0.362200
H371	H37	0.547000	0.455000	0.299300
H381	H38	0.770800	0.630200	0.286300
H391	H39	0.750000	0.778700	0.315200
H401	H40	0.526000	0.826800	0.262400
H411	H41	0.220700	0.886700	0.893700
H421	H42	0.582100	0.708800	0.102500
H431	H43	0.412100	0.815500	0.041600
H441	H44	0.377600	0.143900	0.137800
H451	H45	0.547000	0.045000	0.200700
H461	H46	0.770800	0.869800	0.213700
H471	H47	0.750000	0.721300	0.184800
H481	H48	0.526000	0.673200	0.237600
H491	H49	0.279300	0.386700	0.106300
H501	H50	0.917900	0.208800	0.897500
H511	H51	0.087900	0.315500	0.958400
H521	H52	0.122400	0.643900	0.862200
H531	H53	0.953000	0.545000	0.799300
H541	H54	0.729200	0.369800	0.786300
H551	H55	0.750000	0.221300	0.815200
H561	H56	0.974000	0.173200	0.762400
H571	H57	0.279300	0.113300	0.393700
H581	H58	0.917900	0.291200	0.602500
H591	H59	0.087900	0.184500	0.541600
H601	H60	0.122400	0.856100	0.637800
H611	H61	0.953000	0.955000	0.700700
H621	H62	0.729200	0.130200	0.713700
H631	H63	0.750000	0.278700	0.684800
H641	H64	0.974000	0.326800	0.737600
C11	C1	0.458100	0.298700	0.610580
C21	C2	0.559900	0.362600	0.574450
C31	C3	0.580100	0.554300	0.630530
C41	C4	0.478800	0.495800	0.668110
C51	C5	0.413700	0.364900	0.658780
C61	C6	0.307800	0.300500	0.701140
C71	C7	0.458100	0.201300	0.889420
C81	C8	0.559900	0.137400	0.925550
C91	C9	0.580100	0.945700	0.869470
C101	C10	0.478800	0.004200	0.831890
C111	C11	0.413700	0.135100	0.841220
C121	C12	0.307800	0.199500	0.798860
C131	C13	0.041900	0.701300	0.110580
C141	C14	0.940100	0.637400	0.074450
C151	C15	0.919900	0.445700	0.130530
C161	C16	0.021200	0.504200	0.168110
C171	C17	0.086300	0.635100	0.158780
C181	C18	0.192200	0.699500	0.201140
C191	C19	0.041900	0.798700	0.389420
C201	C20	0.940100	0.862600	0.425550
C211	C21	0.919900	0.054300	0.369470
C221	C22	0.021200	0.995800	0.331890
C231	C23	0.086300	0.864900	0.341220
C241	C24	0.192200	0.800500	0.298860
C251	C25	0.541900	0.701300	0.389420
C261	C26	0.440100	0.637400	0.425550
C271	C27	0.419900	0.445700	0.369470
C281	C28	0.521200	0.504200	0.331890
C291	C29	0.586300	0.635100	0.341220
C301	C30	0.692200	0.699500	0.298860
C311	C31	0.541900	0.798700	0.110580
C321	C32	0.440100	0.862600	0.074450
C331	C33	0.419900	0.054300	0.130530
C341	C34	0.521200	0.995800	0.168110
C351	C35	0.586300	0.864900	0.158780
C361	C36	0.692200	0.800500	0.201140
C371	C37	0.958100	0.298700	0.889420
C381	C38	0.059900	0.362600	0.925550
C391	C39	0.080100	0.554300	0.869470
C401	C40	0.978800	0.495800	0.831890
C411	C41	0.913700	0.364900	0.841220
C421	C42	0.807800	0.300500	0.798860
C431	C43	0.958100	0.201300	0.610580
C441	C44	0.059900	0.137400	0.574450
C451	C45	0.080100	0.945700	0.630530
C461	C46	0.978800	0.004200	0.668110
C471	C47	0.913700	0.135100	0.658780
C481	C48	0.807800	0.199500	0.701140
C491	C49	0.404800	0.250000	0.750000
C501	C50	0.095200	0.750000	0.250000
C511	C51	0.595200	0.750000	0.250000
C521	C52	0.904800	0.250000	0.750000
N11	N1	0.621300	0.489200	0.583910
N21	N2	0.621300	0.010800	0.916090
N31	N3	0.878700	0.510800	0.083910
N41	N4	0.878700	0.989200	0.416090
N51	N5	0.378700	0.510800	0.416090
N61	N6	0.378700	0.989200	0.083910
N71	N7	0.121300	0.489200	0.916090
N81	N8	0.121300	0.010800	0.583910
O11	O1	0.823900	0.536740	0.462770
O21	O2	0.820100	0.277450	0.474050
O31	O3	0.037900	0.391370	0.418360
O41	O4	0.823900	0.963260	0.037230
O51	O5	0.820100	0.222550	0.025950
O61	O6	0.037900	0.108630	0.081640
O71	O7	0.676100	0.463260	0.962770
O81	O8	0.679900	0.722550	0.974050
O91	O9	0.462100	0.608630	0.918360
O101	O10	0.676100	0.036740	0.537230
O111	O11	0.679900	0.777450	0.525950
O121	O12	0.462100	0.891370	0.581640
O131	O13	0.176100	0.463260	0.537230
O141	O14	0.179900	0.722550	0.525950
O151	O15	0.962100	0.608630	0.581640
O161	O16	0.176100	0.036740	0.962770
O171	O17	0.179900	0.777450	0.974050
O181	O18	0.962100	0.891370	0.918360
O191	O19	0.323900	0.536740	0.037230
O201	O20	0.320100	0.277450	0.025950
O211	O21	0.537900	0.391370	0.081640
O221	O22	0.323900	0.963260	0.462770
O231	O23	0.320100	0.222550	0.474050
O241	O24	0.537900	0.108630	0.418360
