data_PEPLEC_freeONLY_PM
_symmetry_space_group_name_H-M	'P1'
_cell_length_a	6.784900
_cell_length_b	13.030900
_cell_length_c	16.851000
_cell_angle_alpha	90.000000
_cell_angle_beta	90.000000
_cell_angle_gamma	90.000000
_symmetry_Int_Tables_number 1

loop_
_symmetry_equiv_pos_as_xyz
'x,y,z'

loop_
_atom_site_label
_atom_site_type_symbol
_atom_site_fract_x
_atom_site_fract_y
_atom_site_fract_z
V11	V1	0.940780	0.235360	0.500340
V21	V2	0.559220	0.764640	0.000340
V31	V3	0.059220	0.735360	0.999660
V41	V4	0.440780	0.264640	0.499660
H11	H1	0.030400	0.417200	0.296100
H21	H2	0.051400	0.520700	0.185000
H31	H3	0.465800	0.570400	0.197500
H41	H4	0.450400	0.470700	0.311100
H51	H5	0.469600	0.582800	0.796100
H61	H6	0.448600	0.479300	0.685000
H71	H7	0.034200	0.429600	0.697500
H81	H8	0.049600	0.529300	0.811100
H91	H9	0.969600	0.917200	0.203900
H101	H10	0.948600	0.020700	0.315000
H111	H11	0.534200	0.070400	0.302500
H121	H12	0.549600	0.970700	0.188900
H131	H13	0.530400	0.082800	0.703900
H141	H14	0.551400	0.979300	0.815000
H151	H15	0.965800	0.929600	0.802500
H161	H16	0.950400	0.029300	0.688900
C11	C1	0.729600	0.367700	0.386990
C21	C2	0.739300	0.434800	0.314630
C31	C3	0.917800	0.449200	0.276570
C41	C4	0.930700	0.510600	0.209940
C51	C5	0.579800	0.540900	0.217870
C61	C6	0.570300	0.480500	0.285430
C71	C7	0.772000	0.624700	0.109490
C81	C8	0.760400	0.557400	0.180450
C91	C9	0.770400	0.632300	0.886990
C101	C10	0.760700	0.565200	0.814630
C111	C11	0.582200	0.550800	0.776570
C121	C12	0.569300	0.489400	0.709940
C131	C13	0.920200	0.459100	0.717870
C141	C14	0.929700	0.519500	0.785430
C151	C15	0.728000	0.375300	0.609490
C161	C16	0.739600	0.442600	0.680450
C171	C17	0.270400	0.867700	0.113010
C181	C18	0.260700	0.934800	0.185370
C191	C19	0.082200	0.949200	0.223430
C201	C20	0.069300	0.010600	0.290060
C211	C21	0.420200	0.040900	0.282130
C221	C22	0.429700	0.980500	0.214570
C231	C23	0.228000	0.124700	0.390510
C241	C24	0.239600	0.057400	0.319550
C251	C25	0.229600	0.132300	0.613010
C261	C26	0.239300	0.065200	0.685370
C271	C27	0.417800	0.050800	0.723430
C281	C28	0.430700	0.989400	0.790060
C291	C29	0.079800	0.959100	0.782130
C301	C30	0.070300	0.019500	0.714570
C311	C31	0.272000	0.875300	0.890510
C321	C32	0.260400	0.942600	0.819550
O11	O1	0.721160	0.187100	0.501190
O21	O2	0.890100	0.334890	0.414070
O31	O3	0.939600	0.643970	0.081280
O41	O4	0.559600	0.348970	0.413960
O51	O5	0.611000	0.659770	0.083090
O61	O6	0.778840	0.812900	0.001190
O71	O7	0.609900	0.665110	0.914070
O81	O8	0.560400	0.356030	0.581280
O91	O9	0.940400	0.651030	0.913960
O101	O10	0.889000	0.340230	0.583090
O111	O11	0.278840	0.687100	0.998810
O121	O12	0.109900	0.834890	0.085930
O131	O13	0.060400	0.143970	0.418720
O141	O14	0.440400	0.848970	0.086040
O151	O15	0.389000	0.159770	0.416910
O161	O16	0.221160	0.312900	0.498810
O171	O17	0.390100	0.165110	0.585930
O181	O18	0.439600	0.856030	0.918720
O191	O19	0.059600	0.151030	0.586040
O201	O20	0.111000	0.840230	0.916910
