data_PEPLOM_freeONLY_PM
_symmetry_space_group_name_H-M	'P1'
_cell_length_a	6.796000
_cell_length_b	10.214000
_cell_length_c	18.410000
_cell_angle_alpha	90.000000
_cell_angle_beta	90.000000
_cell_angle_gamma	90.000000
_symmetry_Int_Tables_number 1

loop_
_symmetry_equiv_pos_as_xyz
'x,y,z'

loop_
_atom_site_label
_atom_site_type_symbol
_atom_site_fract_x
_atom_site_fract_y
_atom_site_fract_z
V11	V1	0.800700	0.267700	0.250000
V21	V2	0.699300	0.767700	0.750000
V31	V3	0.199300	0.732300	0.750000
V41	V4	0.300700	0.232300	0.250000
H11	H1	0.297400	0.024000	0.442100
H21	H2	0.714100	0.059900	0.441600
H31	H3	0.202600	0.524000	0.557900
H41	H4	0.785900	0.559900	0.558400
H51	H5	0.702600	0.976000	0.942100
H61	H6	0.285900	0.940100	0.941600
H71	H7	0.797400	0.476000	0.057900
H81	H8	0.214100	0.440100	0.058400
H91	H9	0.702600	0.976000	0.557900
H101	H10	0.285900	0.940100	0.558400
H111	H11	0.797400	0.476000	0.442100
H121	H12	0.214100	0.440100	0.441600
H131	H13	0.297400	0.024000	0.057900
H141	H14	0.714100	0.059900	0.058400
H151	H15	0.202600	0.524000	0.942100
H161	H16	0.785900	0.559900	0.941600
C11	C1	0.013800	0.108400	0.356300
C21	C2	0.007200	0.047700	0.430300
C31	C3	0.177000	0.013900	0.465400
C41	C4	0.830000	0.035200	0.465000
C51	C5	0.486200	0.608400	0.643700
C61	C6	0.492800	0.547700	0.569700
C71	C7	0.323000	0.513900	0.534600
C81	C8	0.670000	0.535200	0.535000
C91	C9	0.986200	0.891600	0.856300
C101	C10	0.992800	0.952300	0.930300
C111	C11	0.823000	0.986100	0.965400
C121	C12	0.170000	0.964800	0.965000
C131	C13	0.513800	0.391600	0.143700
C141	C14	0.507200	0.452300	0.069700
C151	C15	0.677000	0.486100	0.034600
C161	C16	0.330000	0.464800	0.035000
C171	C17	0.986200	0.891600	0.643700
C181	C18	0.992800	0.952300	0.569700
C191	C19	0.823000	0.986100	0.534600
C201	C20	0.170000	0.964800	0.535000
C211	C21	0.513800	0.391600	0.356300
C221	C22	0.507200	0.452300	0.430300
C231	C23	0.677000	0.486100	0.465400
C241	C24	0.330000	0.464800	0.465000
C251	C25	0.013800	0.108400	0.143700
C261	C26	0.007200	0.047700	0.069700
C271	C27	0.177000	0.013900	0.034600
C281	C28	0.830000	0.035200	0.035000
C291	C29	0.486200	0.608400	0.856300
C301	C30	0.492800	0.547700	0.930300
C311	C31	0.323000	0.513900	0.965400
C321	C32	0.670000	0.535200	0.965000
O11	O1	0.851700	0.139700	0.327500
O21	O2	0.180700	0.124200	0.328300
O31	O3	0.648300	0.639700	0.672500
O41	O4	0.319300	0.624200	0.671700
O51	O5	0.148300	0.860300	0.827500
O61	O6	0.819300	0.875800	0.828300
O71	O7	0.351700	0.360300	0.172500
O81	O8	0.680700	0.375800	0.171700
O91	O9	0.148300	0.860300	0.672500
O101	O10	0.819300	0.875800	0.671700
O111	O11	0.351700	0.360300	0.327500
O121	O12	0.680700	0.375800	0.328300
O131	O13	0.851700	0.139700	0.172500
O141	O14	0.180700	0.124200	0.171700
O151	O15	0.648300	0.639700	0.827500
O161	O16	0.319300	0.624200	0.828300
O171	O17	0.016000	0.328400	0.250000
O181	O18	0.484000	0.828400	0.750000
O191	O19	0.984000	0.671600	0.750000
O201	O20	0.516000	0.171600	0.250000
