data_PEQTIQ_freeONLY_PM
_symmetry_space_group_name_H-M	'P1'
_cell_length_a	12.490300
_cell_length_b	12.490300
_cell_length_c	22.485500
_cell_angle_alpha	82.417900
_cell_angle_beta	81.509000
_cell_angle_gamma	119.779000
_symmetry_Int_Tables_number 1

loop_
_symmetry_equiv_pos_as_xyz
'x,y,z'

loop_
_atom_site_label
_atom_site_type_symbol
_atom_site_fract_x
_atom_site_fract_y
_atom_site_fract_z
Dy11	Dy1	0.906010	0.428450	0.139990
Dy21	Dy2	0.931560	0.954000	0.639990
Cu11	Cu1	0.422010	0.208610	0.921060
Cu21	Cu2	0.370330	0.656930	0.421060
H11	H1	0.304000	0.525300	0.988500
H21	H2	0.431200	0.467500	0.934900
H31	H3	0.055500	0.155500	0.069400
H41	H4	0.015700	0.958700	0.076800
H51	H5	0.158700	0.753600	0.023500
H61	H6	0.332800	0.935000	0.961600
H71	H7	0.383000	0.347600	0.715800
H81	H8	0.189200	0.996600	0.877400
H91	H9	0.101500	0.986900	0.794200
H101	H10	0.552400	0.512900	0.726700
H111	H11	0.805500	0.638700	0.830600
H121	H12	0.683600	0.445700	0.900100
H131	H13	0.767100	0.459700	0.238400
H141	H14	0.796600	0.556900	0.186700
H151	H15	0.837200	0.405800	0.029800
H161	H16	0.778900	0.281200	0.064100
H171	H17	0.986200	0.707500	0.488500
H181	H18	0.097600	0.633900	0.434900
H191	H19	0.275100	0.875100	0.569400
H201	H20	0.464500	0.907500	0.576800
H211	H21	0.722900	0.817800	0.523500
H221	H22	0.603400	0.705600	0.461600
H231	H23	0.436600	0.901200	0.215800
H241	H24	0.626000	0.933400	0.377400
H251	H25	0.718900	0.104300	0.294200
H261	H26	0.260400	0.720900	0.226700
H271	H27	0.030700	0.363900	0.330600
H281	H28	0.154200	0.416300	0.400100
H291	H29	0.801900	0.994500	0.738400
H301	H30	0.756400	0.016700	0.686700
H311	H31	0.064400	0.133000	0.529800
H321	H32	0.154700	0.157000	0.564100
C11	C1	0.075300	0.377100	0.069800
C21	C2	0.163900	0.346000	0.034500
C31	C3	0.278500	0.440200	0.994100
C41	C4	0.354300	0.404500	0.962200
C51	C5	0.131300	0.220200	0.042100
C61	C6	0.212400	0.192500	0.008900
C71	C7	0.187200	0.061200	0.014600
C81	C8	0.079300	0.952700	0.053000
C91	C9	0.163800	0.830900	0.021500
C101	C10	0.067200	0.836200	0.055600
C111	C11	0.267400	0.939700	0.984500
C121	C12	0.949800	0.714400	0.095800
C131	C13	0.178700	0.161400	0.688300
C141	C14	0.232100	0.165900	0.745600
C151	C15	0.342300	0.275300	0.748200
C161	C16	0.390000	0.274300	0.799700
C171	C17	0.228500	0.067800	0.844500
C181	C18	0.175100	0.061200	0.794700
C191	C19	0.509600	0.386200	0.805400
C201	C20	0.579900	0.500500	0.761800
C211	C21	0.691500	0.596200	0.770700
C221	C22	0.730700	0.575500	0.823600
C231	C23	0.656800	0.460100	0.865100
C241	C24	0.772400	0.722200	0.723800
C251	C25	0.053100	0.854900	0.569800
C261	C26	0.119500	0.801600	0.534500
C271	C27	0.065700	0.727400	0.494100
C281	C28	0.133300	0.683500	0.462200
C291	C29	0.237700	0.826600	0.542100
C301	C30	0.298600	0.778700	0.508900
C311	C31	0.424200	0.798200	0.514600
C321	C32	0.494300	0.867700	0.553000
C331	C33	0.647600	0.814700	0.521500
C341	C34	0.608200	0.877200	0.555600
C351	C35	0.575800	0.748100	0.484500
C361	C36	0.689800	0.954400	0.595800
C371	C37	0.650300	0.133000	0.188300
C381	C38	0.588500	0.022300	0.245600
C391	C39	0.476500	0.909500	0.248200
C401	C40	0.426000	0.810300	0.299700
C411	C41	0.587700	0.927000	0.344500
C421	C42	0.644100	0.030200	0.294700
C431	C43	0.308400	0.685000	0.305400
C441	C44	0.237700	0.658300	0.261800
C451	C45	0.133100	0.537800	0.270700
C461	C46	0.100900	0.445700	0.323600
C471	C47	0.174800	0.478100	0.365100
C481	C48	0.054000	0.503800	0.223800
N11	N1	0.322600	0.283700	0.968700
N21	N2	0.279050	0.052800	0.979750
N31	N3	0.335130	0.173100	0.847770
N41	N4	0.547170	0.366800	0.857230
N51	N5	0.247600	0.708700	0.468700
N61	N6	0.467450	0.741200	0.479750
N71	N7	0.479130	0.817100	0.347770
N81	N8	0.275970	0.595600	0.357230
Cl11	Cl1	0.564560	0.206950	0.974190
Cl21	Cl2	0.318860	0.461250	0.474190
O11	O1	0.094400	0.487860	0.055740
O21	O2	0.984100	0.292300	0.113200
O31	O3	0.872400	0.720600	0.133000
O41	O4	0.942970	0.613850	0.086180
O51	O5	0.769600	0.475900	0.198700
O61	O6	0.793240	0.355150	0.065210
O71	O7	0.070700	0.067200	0.694300
O81	O8	0.244300	0.247900	0.641200
O91	O9	0.737500	0.741900	0.677200
O101	O10	0.874400	0.803400	0.733200
O111	O11	0.956400	0.849860	0.555740
O121	O12	0.094500	0.902700	0.613200
O131	O13	0.646400	0.994600	0.633000
O141	O14	0.799970	0.970850	0.586180
O151	O15	0.825400	0.031700	0.698700
O161	O16	0.079640	0.141550	0.565210
O171	O17	0.738500	0.235000	0.194300
O181	O18	0.610900	0.114500	0.141200
O191	O19	0.080900	0.585300	0.177200
O201	O20	0.963400	0.392400	0.233200
Dy31	Dy3	0.068440	0.046000	0.360010
Dy41	Dy4	0.093990	0.571550	0.860010
Cu31	Cu3	0.629670	0.343070	0.578940
Cu41	Cu4	0.577990	0.791390	0.078940
H331	H33	0.013800	0.292500	0.511500
H341	H34	0.902400	0.366100	0.565100
H351	H35	0.724900	0.124900	0.430600
H361	H36	0.535500	0.092500	0.423200
H371	H37	0.277100	0.182200	0.476500
H381	H38	0.396600	0.294400	0.538400
H391	H39	0.563400	0.098800	0.784200
H401	H40	0.374000	0.066600	0.622600
H411	H41	0.281100	0.895700	0.705800
H421	H42	0.739600	0.279100	0.773300
H431	H43	0.969300	0.636100	0.669400
H441	H44	0.845800	0.583700	0.599900
H451	H45	0.198100	0.005500	0.261600
H461	H46	0.243600	0.983300	0.313300
H471	H47	0.935600	0.867000	0.470200
H481	H48	0.845300	0.843000	0.435900
H491	H49	0.696000	0.474700	0.011500
H501	H50	0.568800	0.532500	0.065100
H511	H51	0.944500	0.844500	0.930600
H521	H52	0.984300	0.041300	0.923200
H531	H53	0.841300	0.246400	0.976500
H541	H54	0.667200	0.065000	0.038400
H551	H55	0.617000	0.652400	0.284200
H561	H56	0.810800	0.003400	0.122600
H571	H57	0.898500	0.013100	0.205800
H581	H58	0.447600	0.487100	0.273300
H591	H59	0.194500	0.361300	0.169400
H601	H60	0.316400	0.554300	0.099900
H611	H61	0.232900	0.540300	0.761600
H621	H62	0.203400	0.443100	0.813300
H631	H63	0.162800	0.594200	0.970200
H641	H64	0.221100	0.718800	0.935900
C491	C49	0.946900	0.145100	0.430200
C501	C50	0.880500	0.198400	0.465500
C511	C51	0.934300	0.272600	0.505900
C521	C52	0.866700	0.316500	0.537800
C531	C53	0.762300	0.173400	0.457900
C541	C54	0.701400	0.221300	0.491100
C551	C55	0.575800	0.201800	0.485400
C561	C56	0.505700	0.132300	0.447000
C571	C57	0.352400	0.185300	0.478500
C581	C58	0.391800	0.122800	0.444400
C591	C59	0.424200	0.251900	0.515500
C601	C60	0.310200	0.045600	0.404200
C611	C61	0.349700	0.867000	0.811700
C621	C62	0.411500	0.977700	0.754400
C631	C63	0.523500	0.090500	0.751800
C641	C64	0.574000	0.189700	0.700300
C651	C65	0.412300	0.073000	0.655500
C661	C66	0.355900	0.969800	0.705300
C671	C67	0.691600	0.315000	0.694600
C681	C68	0.762300	0.341700	0.738200
C691	C69	0.866900	0.462200	0.729300
C701	C70	0.899100	0.554300	0.676400
C711	C71	0.825200	0.521900	0.634900
C721	C72	0.946000	0.496200	0.776200
C731	C73	0.924700	0.622900	0.930200
C741	C74	0.836100	0.654000	0.965500
C751	C75	0.721500	0.559800	0.005900
C761	C76	0.645700	0.595500	0.037800
C771	C77	0.868700	0.779800	0.957900
C781	C78	0.787600	0.807500	0.991100
C791	C79	0.812800	0.938800	0.985400
C801	C80	0.920700	0.047300	0.947000
C811	C81	0.836200	0.169100	0.978500
C821	C82	0.932800	0.163800	0.944400
C831	C83	0.732600	0.060300	0.015500
C841	C84	0.050200	0.285600	0.904200
C851	C85	0.821300	0.838600	0.311700
C861	C86	0.767900	0.834100	0.254400
C871	C87	0.657700	0.724700	0.251800
C881	C88	0.610000	0.725700	0.200300
C891	C89	0.771500	0.932200	0.155500
C901	C90	0.824900	0.938800	0.205300
C911	C91	0.490400	0.613800	0.194600
C921	C92	0.420100	0.499500	0.238200
C931	C93	0.308500	0.403800	0.229300
C941	C94	0.269300	0.424500	0.176400
C951	C95	0.343200	0.539900	0.134900
C961	C96	0.227600	0.277800	0.276200
N91	N9	0.752400	0.291300	0.531300
N101	N10	0.532550	0.258800	0.520250
N111	N11	0.520870	0.182900	0.652230
N121	N12	0.724030	0.404400	0.642770
N131	N13	0.677400	0.716300	0.031300
N141	N14	0.720950	0.947200	0.020250
N151	N15	0.664870	0.826900	0.152230
N161	N16	0.452830	0.633200	0.142770
Cl31	Cl3	0.681140	0.538750	0.525810
Cl41	Cl4	0.435440	0.793050	0.025810
O211	O21	0.043600	0.150140	0.444260
O221	O22	0.905500	0.097300	0.386800
O231	O23	0.353600	0.005400	0.367000
O241	O24	0.200030	0.029150	0.413820
O251	O25	0.174600	0.968300	0.301300
O261	O26	0.920360	0.858450	0.434790
O271	O27	0.261500	0.765000	0.805700
O281	O28	0.389100	0.885500	0.858800
O291	O29	0.919100	0.414700	0.822800
O301	O30	0.036600	0.607600	0.766800
O311	O31	0.905600	0.512140	0.944260
O321	O32	0.015900	0.707700	0.886800
O331	O33	0.127600	0.279400	0.867000
O341	O34	0.057030	0.386150	0.913820
O351	O35	0.230400	0.524100	0.801300
O361	O36	0.206760	0.644850	0.934790
O371	O37	0.929300	0.932800	0.305700
O381	O38	0.755700	0.752100	0.358800
O391	O39	0.262500	0.258100	0.322800
O401	O40	0.125600	0.196600	0.266800
