data_PESTUD_freeONLY_PM
_symmetry_space_group_name_H-M	'P1'
_cell_length_a	6.790700
_cell_length_b	22.245000
_cell_length_c	7.738700
_cell_angle_alpha	90.000000
_cell_angle_beta	90.000000
_cell_angle_gamma	90.000000
_symmetry_Int_Tables_number 1

loop_
_symmetry_equiv_pos_as_xyz
'x,y,z'

loop_
_atom_site_label
_atom_site_type_symbol
_atom_site_fract_x
_atom_site_fract_y
_atom_site_fract_z
Ni11	Ni1	0.949650	0.787230	0.741550
Ni21	Ni2	0.050350	0.212770	0.741550
Ni31	Ni3	0.449650	0.712770	0.258450
Ni41	Ni4	0.550350	0.287230	0.258450
H11	H1	0.161400	0.699000	0.656600
H21	H2	0.096200	0.688200	0.834200
H31	H3	0.831700	0.615300	0.879500
H41	H4	0.645000	0.626700	0.766400
H51	H5	0.943700	0.628200	0.606600
H61	H6	0.529200	0.829400	0.775900
H71	H7	0.342700	0.914000	0.782300
H81	H8	0.810700	0.004500	0.612400
H91	H9	0.979600	0.916500	0.609800
H101	H10	0.838600	0.301000	0.656600
H111	H11	0.903800	0.311800	0.834200
H121	H12	0.168300	0.384700	0.879500
H131	H13	0.355000	0.373300	0.766400
H141	H14	0.056300	0.371800	0.606600
H151	H15	0.470800	0.170600	0.775900
H161	H16	0.657300	0.086000	0.782300
H171	H17	0.189300	0.995500	0.612400
H181	H18	0.020400	0.083500	0.609800
H191	H19	0.661400	0.801000	0.343400
H201	H20	0.596200	0.811800	0.165800
H211	H21	0.331700	0.884700	0.120500
H221	H22	0.145000	0.873300	0.233600
H231	H23	0.443700	0.871800	0.393400
H241	H24	0.029200	0.670600	0.224100
H251	H25	0.842700	0.586000	0.217700
H261	H26	0.310700	0.495500	0.387600
H271	H27	0.479600	0.583500	0.390200
H281	H28	0.338600	0.199000	0.343400
H291	H29	0.403800	0.188200	0.165800
H301	H30	0.668300	0.115300	0.120500
H311	H31	0.855000	0.126700	0.233600
H321	H32	0.556300	0.128200	0.393400
H331	H33	0.970800	0.329400	0.224100
H341	H34	0.157300	0.414000	0.217700
H351	H35	0.689300	0.504500	0.387600
H361	H36	0.520400	0.416500	0.390200
C11	C1	0.695600	0.695110	0.938900
C21	C2	0.761900	0.645660	0.813400
C31	C3	0.891800	0.664200	0.663600
C41	C4	0.770800	0.700950	0.533300
C51	C5	0.591000	0.866190	0.757900
C61	C6	0.476800	0.916910	0.759200
C71	C7	0.558900	0.971540	0.726700
C81	C8	0.753900	0.969900	0.658000
C91	C9	0.855200	0.917600	0.660000
C101	C10	0.304400	0.304890	0.938900
C111	C11	0.238100	0.354340	0.813400
C121	C12	0.108200	0.335800	0.663600
C131	C13	0.229200	0.299050	0.533300
C141	C14	0.409000	0.133810	0.757900
C151	C15	0.523200	0.083090	0.759200
C161	C16	0.441100	0.028460	0.726700
C171	C17	0.246100	0.030100	0.658000
C181	C18	0.144800	0.082400	0.660000
C191	C19	0.195600	0.804890	0.061100
C201	C20	0.261900	0.854340	0.186600
C211	C21	0.391800	0.835800	0.336400
C221	C22	0.270800	0.799050	0.466700
C231	C23	0.091000	0.633810	0.242100
C241	C24	0.976800	0.583090	0.240800
C251	C25	0.058900	0.528460	0.273300
C261	C26	0.253900	0.530100	0.342000
C271	C27	0.355200	0.582400	0.340000
C281	C28	0.804400	0.195110	0.061100
C291	C29	0.738100	0.145660	0.186600
C301	C30	0.608200	0.164200	0.336400
C311	C31	0.729200	0.200950	0.466700
C321	C32	0.909000	0.366190	0.242100
C331	C33	0.023200	0.416910	0.240800
C341	C34	0.941100	0.471540	0.273300
C351	C35	0.746100	0.469900	0.342000
C361	C36	0.644800	0.417600	0.340000
N11	N1	0.058000	0.700980	0.729000
N21	N2	0.781900	0.866180	0.733000
N31	N3	0.942000	0.299020	0.729000
N41	N4	0.218100	0.133820	0.733000
N51	N5	0.558000	0.799020	0.271000
N61	N6	0.281900	0.633820	0.267000
N71	N7	0.442000	0.200980	0.271000
N81	N8	0.718100	0.366180	0.267000
O11	O1	0.794900	0.756890	0.536200
O21	O2	0.658700	0.673010	0.434000
O31	O3	0.735800	0.749390	0.912700
O41	O4	0.599600	0.674680	0.064500
O51	O5	0.205100	0.243110	0.536200
O61	O6	0.341300	0.326990	0.434000
O71	O7	0.264200	0.250610	0.912700
O81	O8	0.400400	0.325320	0.064500
O91	O9	0.294900	0.743110	0.463800
O101	O10	0.158700	0.826990	0.566000
O111	O11	0.235800	0.750610	0.087300
O121	O12	0.099600	0.825320	0.935500
O131	O13	0.705100	0.256890	0.463800
O141	O14	0.841300	0.173010	0.566000
O151	O15	0.764200	0.249390	0.087300
O161	O16	0.900400	0.174680	0.935500
