data_PEVJOQ_freeONLY_PM
_symmetry_space_group_name_H-M	'P1'
_cell_length_a	9.213300
_cell_length_b	14.518700
_cell_length_c	20.648600
_cell_angle_alpha	110.583000
_cell_angle_beta	97.674200
_cell_angle_gamma	90.000000
_symmetry_Int_Tables_number 1

loop_
_symmetry_equiv_pos_as_xyz
'x,y,z'

loop_
_atom_site_label
_atom_site_type_symbol
_atom_site_fract_x
_atom_site_fract_y
_atom_site_fract_z
Cd11	Cd1	0.601190	0.162380	0.792540
Cd21	Cd2	0.898810	0.369840	0.207460
Cd31	Cd3	0.398810	0.837620	0.207460
Cd41	Cd4	0.101190	0.630160	0.792540
H11	H1	0.535600	0.167700	0.556800
H21	H2	0.508100	0.897700	0.564800
H31	H3	0.143500	0.257400	0.884600
H41	H4	0.501900	0.328200	0.028200
H51	H5	0.887800	0.160300	0.713000
H61	H6	0.816000	0.378400	0.880000
H71	H7	0.015000	0.432000	0.832800
H81	H8	0.136300	0.357500	0.719400
H91	H9	0.192800	0.262300	0.731600
H101	H10	0.862900	0.283100	0.626200
H111	H11	0.811100	0.204100	0.507200
H121	H12	0.197600	0.079100	0.506600
H131	H13	0.250400	0.159100	0.625000
H141	H14	0.752900	0.068900	0.404800
H151	H15	0.711200	0.004100	0.284800
H161	H16	0.138500	0.028900	0.278200
H171	H17	0.181700	0.094400	0.397800
H181	H18	0.806300	0.926500	0.173400
H191	H19	0.974500	0.938800	0.170400
H201	H20	0.924200	0.175400	0.246600
H211	H21	0.715800	0.156400	0.063200
H221	H22	0.712500	0.989000	0.072000
H231	H23	0.964400	0.610900	0.443200
H241	H24	0.991900	0.332900	0.435200
H251	H25	0.356500	0.372800	0.115400
H261	H26	0.998100	0.300000	0.971800
H271	H27	0.612200	0.447300	0.287000
H281	H28	0.684000	0.498400	0.120000
H291	H29	0.485000	0.599200	0.167200
H301	H30	0.363700	0.638100	0.280600
H311	H31	0.307200	0.530700	0.268400
H321	H32	0.637100	0.656900	0.373800
H331	H33	0.688900	0.696900	0.492800
H341	H34	0.302400	0.572500	0.493400
H351	H35	0.249600	0.534100	0.375000
H361	H36	0.747100	0.664100	0.595200
H371	H37	0.788800	0.719300	0.715200
H381	H38	0.361500	0.750700	0.721800
H391	H39	0.318300	0.696600	0.602200
H401	H40	0.693700	0.753100	0.826600
H411	H41	0.525500	0.768400	0.829600
H421	H42	0.575800	0.928800	0.753400
H431	H43	0.784200	0.093200	0.936800
H441	H44	0.787500	0.917000	0.928000
H451	H45	0.464400	0.832300	0.443200
H461	H46	0.491900	0.102300	0.435200
H471	H47	0.856500	0.742600	0.115400
H481	H48	0.498100	0.671800	0.971800
H491	H49	0.112200	0.839700	0.287000
H501	H50	0.184000	0.621600	0.120000
H511	H51	0.985000	0.568000	0.167200
H521	H52	0.863700	0.642500	0.280600
H531	H53	0.807200	0.737700	0.268400
H541	H54	0.137100	0.716900	0.373800
H551	H55	0.188900	0.795900	0.492800
H561	H56	0.802400	0.920900	0.493400
H571	H57	0.749600	0.840900	0.375000
H581	H58	0.247100	0.931100	0.595200
H591	H59	0.288800	0.995900	0.715200
H601	H60	0.861500	0.971100	0.721800
H611	H61	0.818300	0.905600	0.602200
H621	H62	0.193700	0.073500	0.826600
H631	H63	0.025500	0.061200	0.829600
H641	H64	0.075800	0.824600	0.753400
H651	H65	0.284200	0.843600	0.936800
H661	H66	0.287500	0.011000	0.928000
H671	H67	0.035600	0.389100	0.556800
H681	H68	0.008100	0.667100	0.564800
H691	H69	0.643500	0.627200	0.884600
H701	H70	0.001900	0.700000	0.028200
H711	H71	0.387800	0.552700	0.713000
H721	H72	0.316000	0.501600	0.880000
H731	H73	0.515000	0.400800	0.832800
H741	H74	0.636300	0.361900	0.719400
H751	H75	0.692800	0.469300	0.731600
H761	H76	0.362900	0.343100	0.626200
H771	H77	0.311100	0.303100	0.507200
H781	H78	0.697600	0.427500	0.506600
H791	H79	0.750400	0.465900	0.625000
H801	H80	0.252900	0.335900	0.404800
H811	H81	0.211200	0.280700	0.284800
H821	H82	0.638500	0.249300	0.278200
H831	H83	0.681700	0.303400	0.397800
H841	H84	0.306300	0.246900	0.173400
H851	H85	0.474500	0.231600	0.170400
H861	H86	0.424200	0.071200	0.246600
H871	H87	0.215800	0.906800	0.063200
H881	H88	0.212500	0.083000	0.072000
C11	C1	0.546700	0.083720	0.651240
C21	C2	0.523500	0.039530	0.572260
C31	C3	0.520700	0.100000	0.534000
C41	C4	0.504400	0.939070	0.538940
C51	C5	0.432200	0.253930	0.890660
C61	C6	0.337100	0.287710	0.946820
C71	C7	0.186800	0.280110	0.931020
C81	C8	0.400300	0.322680	0.016760
C91	C9	0.895400	0.221140	0.749280
C101	C10	0.855700	0.340730	0.840460
C111	C11	0.965900	0.370450	0.814700
C121	C12	0.107700	0.290740	0.714280
C131	C13	0.063800	0.232670	0.638540
C141	C14	0.931800	0.243320	0.602240
C151	C15	0.900700	0.195740	0.530680
C161	C16	0.001700	0.134990	0.492780
C171	C17	0.130600	0.121460	0.530120
C181	C18	0.162200	0.169270	0.601340
C191	C19	0.973000	0.090520	0.416040
C201	C20	0.831700	0.061590	0.379780
C211	C21	0.806500	0.022340	0.307680
C221	C22	0.920700	0.009840	0.269080
C231	C23	0.060200	0.037100	0.303600
C241	C24	0.085900	0.076580	0.375560
C251	C25	0.890700	0.972820	0.189640
C261	C26	0.886600	0.149570	0.199340
C271	C27	0.762400	0.138900	0.101400
C281	C28	0.767400	0.047200	0.103600
C291	C29	0.953300	0.432480	0.348760
C301	C30	0.976500	0.467270	0.427740
C311	C31	0.979300	0.566000	0.466000
C321	C32	0.995600	0.400130	0.461060
C331	C33	0.067800	0.363270	0.109340
C341	C34	0.162900	0.340890	0.053180
C351	C35	0.313200	0.349090	0.068980
C361	C36	0.099700	0.305920	0.983240
C371	C37	0.604600	0.471860	0.250720
C381	C38	0.644300	0.500270	0.159540
C391	C39	0.534100	0.555750	0.185300
C401	C40	0.392300	0.576460	0.285720
C411	C41	0.436200	0.594130	0.361460
C421	C42	0.568200	0.641080	0.397760
C431	C43	0.599300	0.665060	0.469320
C441	C44	0.498300	0.642210	0.507220
C451	C45	0.369400	0.591340	0.469880
C461	C46	0.337800	0.567930	0.398660
C471	C47	0.527000	0.674480	0.583960
C481	C48	0.668300	0.681810	0.620220
C491	C49	0.693500	0.714660	0.692320
C501	C50	0.579300	0.740760	0.730920
C511	C51	0.439800	0.733500	0.696400
C521	C52	0.414100	0.701020	0.624440
C531	C53	0.609300	0.783180	0.810360
C541	C54	0.613400	0.950230	0.800660
C551	C55	0.737600	0.037500	0.898600
C561	C56	0.732600	0.943600	0.896400
C571	C57	0.453300	0.916280	0.348760
C581	C58	0.476500	0.960470	0.427740
C591	C59	0.479300	0.900000	0.466000
C601	C60	0.495600	0.060930	0.461060
C611	C61	0.567800	0.746070	0.109340
C621	C62	0.662900	0.712290	0.053180
C631	C63	0.813200	0.719890	0.068980
C641	C64	0.599700	0.677320	0.983240
C651	C65	0.104600	0.778860	0.250720
C661	C66	0.144300	0.659270	0.159540
C671	C67	0.034100	0.629550	0.185300
C681	C68	0.892300	0.709260	0.285720
C691	C69	0.936200	0.767330	0.361460
C701	C70	0.068200	0.756680	0.397760
C711	C71	0.099300	0.804260	0.469320
C721	C72	0.998300	0.865010	0.507220
C731	C73	0.869400	0.878540	0.469880
C741	C74	0.837800	0.830730	0.398660
C751	C75	0.027000	0.909480	0.583960
C761	C76	0.168300	0.938410	0.620220
C771	C77	0.193500	0.977660	0.692320
C781	C78	0.079300	0.990160	0.730920
C791	C79	0.939800	0.962900	0.696400
C801	C80	0.914100	0.923420	0.624440
C811	C81	0.109300	0.027180	0.810360
C821	C82	0.113400	0.850430	0.800660
C831	C83	0.237600	0.861100	0.898600
C841	C84	0.232600	0.952800	0.896400
C851	C85	0.046700	0.567520	0.651240
C861	C86	0.023500	0.532730	0.572260
C871	C87	0.020700	0.434000	0.534000
C881	C88	0.004400	0.599870	0.538940
C891	C89	0.932200	0.636730	0.890660
C901	C90	0.837100	0.659110	0.946820
C911	C91	0.686800	0.650910	0.931020
C921	C92	0.900300	0.694080	0.016760
C931	C93	0.395400	0.528140	0.749280
C941	C94	0.355700	0.499730	0.840460
C951	C95	0.465900	0.444250	0.814700
C961	C96	0.607700	0.423540	0.714280
C971	C97	0.563800	0.405870	0.638540
C981	C98	0.431800	0.358920	0.602240
C991	C99	0.400700	0.334940	0.530680
C1001	C100	0.501700	0.357790	0.492780
C1011	C101	0.630600	0.408660	0.530120
C1021	C102	0.662200	0.432070	0.601340
C1031	C103	0.473000	0.325520	0.416040
C1041	C104	0.331700	0.318190	0.379780
C1051	C105	0.306500	0.285340	0.307680
C1061	C106	0.420700	0.259240	0.269080
C1071	C107	0.560200	0.266500	0.303600
C1081	C108	0.585900	0.298980	0.375560
C1091	C109	0.390700	0.216820	0.189640
C1101	C110	0.386600	0.049770	0.199340
C1111	C111	0.262400	0.962500	0.101400
C1121	C112	0.267400	0.056400	0.103600
N11	N1	0.811700	0.246310	0.799220
N21	N2	0.992600	0.294090	0.757180
N31	N3	0.855000	0.205160	0.163120
N41	N4	0.862800	0.054820	0.165840
N51	N5	0.688300	0.447090	0.200780
N61	N6	0.507400	0.536910	0.242820
N71	N7	0.645000	0.042040	0.836880
N81	N8	0.637200	0.888980	0.834160
N91	N9	0.188300	0.753690	0.200780
N101	N10	0.007400	0.705910	0.242820
N111	N11	0.145000	0.794840	0.836880
N121	N12	0.137200	0.945180	0.834160
N131	N13	0.311700	0.552910	0.799220
N141	N14	0.492600	0.463090	0.757180
N151	N15	0.355000	0.957960	0.163120
N161	N16	0.362800	0.111020	0.165840
O11	O1	0.577200	0.028400	0.685000
O21	O2	0.533900	0.174230	0.680460
O31	O3	0.565400	0.277460	0.903520
O41	O4	0.374000	0.200920	0.829440
O51	O5	0.922800	0.343400	0.315000
O61	O6	0.966100	0.493770	0.319540
O71	O7	0.934600	0.373940	0.096480
O81	O8	0.126000	0.371480	0.170560
O91	O9	0.422800	0.971600	0.315000
O101	O10	0.466100	0.825770	0.319540
O111	O11	0.434600	0.722540	0.096480
O121	O12	0.626000	0.799080	0.170560
O131	O13	0.077200	0.656600	0.685000
O141	O14	0.033900	0.506230	0.680460
O151	O15	0.065400	0.626060	0.903520
O161	O16	0.874000	0.628520	0.829440
