data_PEVLEJ_freeONLY_PM
_symmetry_space_group_name_H-M	'P1'
_cell_length_a	6.662700
_cell_length_b	9.674020
_cell_length_c	10.711800
_cell_angle_alpha	116.844000
_cell_angle_beta	104.874000
_cell_angle_gamma	90.000000
_symmetry_Int_Tables_number 1

loop_
_symmetry_equiv_pos_as_xyz
'x,y,z'

loop_
_atom_site_label
_atom_site_type_symbol
_atom_site_fract_x
_atom_site_fract_y
_atom_site_fract_z
Pr11	Pr1	0.975600	0.291160	0.103260
Pr21	Pr2	0.475600	0.812100	0.103260
H11	H1	0.963200	0.522500	0.717000
H21	H2	0.784200	0.346700	0.488000
H31	H3	0.888200	0.007300	0.593800
H41	H4	0.023400	0.949700	0.761400
H51	H5	0.235900	0.023100	0.763400
H61	H6	0.558200	0.279100	0.149600
H71	H7	0.683300	0.217400	0.238000
H81	H8	0.788000	0.582700	0.233400
H91	H9	0.995600	0.629900	0.302400
H101	H10	0.463200	0.194500	0.717000
H111	H11	0.284200	0.141300	0.488000
H121	H12	0.388200	0.586500	0.593800
H131	H13	0.523400	0.811700	0.761400
H141	H14	0.735900	0.740300	0.763400
H151	H15	0.058200	0.870500	0.149600
H161	H16	0.183300	0.020600	0.238000
H171	H17	0.288000	0.650700	0.233400
H181	H18	0.495600	0.672500	0.302400
C11	C1	0.995100	0.220100	0.759000
C21	C2	0.015300	0.372700	0.797400
C31	C3	0.942300	0.417300	0.692800
C41	C4	0.842000	0.314200	0.557400
C51	C5	0.824800	0.162500	0.521800
C61	C6	0.900500	0.113300	0.620400
C71	C7	0.139400	0.033500	0.820200
C81	C8	0.247000	0.026200	0.955600
C91	C9	0.123100	0.494600	0.944800
C101	C10	0.719300	0.043700	0.373800
C111	C11	0.495100	0.538900	0.759000
C121	C12	0.515300	0.424700	0.797400
C131	C13	0.442300	0.275500	0.692800
C141	C14	0.342000	0.243200	0.557400
C151	C15	0.324800	0.359300	0.521800
C161	C16	0.400500	0.507100	0.620400
C171	C17	0.639400	0.786700	0.820200
C181	C18	0.747000	0.929400	0.955600
C191	C19	0.623100	0.450200	0.944800
C201	C20	0.219300	0.330100	0.373800
O11	O1	0.066100	0.178800	0.862000
O21	O2	0.317900	0.909300	0.940600
O31	O3	0.260300	0.143500	0.068400
O41	O4	0.134600	0.465200	0.046600
O51	O5	0.194300	0.614700	0.958400
O61	O6	0.583000	0.082200	0.298200
O71	O7	0.757300	0.913300	0.331600
O81	O8	0.679400	0.266200	0.188600
O91	O9	0.904000	0.549700	0.258800
O101	O10	0.566100	0.683200	0.862000
O111	O11	0.817900	0.031300	0.940600
O121	O12	0.760300	0.924900	0.068400
O131	O13	0.634600	0.581400	0.046600
O141	O14	0.694300	0.343700	0.958400
O151	O15	0.083000	0.216000	0.298200
O161	O16	0.257300	0.418300	0.331600
O171	O17	0.179400	0.922400	0.188600
O181	O18	0.404000	0.709100	0.258800
