data_PEWGEF_freeONLY_PM
_symmetry_space_group_name_H-M	'P1'
_cell_length_a	11.573300
_cell_length_b	14.606600
_cell_length_c	14.606600
_cell_angle_alpha	66.711100
_cell_angle_beta	74.685800
_cell_angle_gamma	105.314000
_symmetry_Int_Tables_number 1

loop_
_symmetry_equiv_pos_as_xyz
'x,y,z'

loop_
_atom_site_label
_atom_site_type_symbol
_atom_site_fract_x
_atom_site_fract_y
_atom_site_fract_z
Cu11	Cu1	0.084420	0.881860	0.516680
Cu21	Cu2	0.601100	0.516680	0.601460
Cu31	Cu3	0.202560	0.601460	0.881860
Cu41	Cu4	0.601100	0.398540	0.483320
Cu51	Cu5	0.202560	0.118140	0.398540
Cu61	Cu6	0.084420	0.483320	0.118140
Cu71	Cu7	0.915860	0.000000	0.404690
Cu81	Cu8	0.320550	0.404690	0.595310
Cu91	Cu9	0.915860	0.595310	0.000000
H11	H1	0.910300	0.944800	0.244100
H21	H2	0.661500	0.859400	0.418800
H31	H3	0.551100	0.748800	0.527200
H41	H4	0.623800	0.745200	0.419800
H51	H5	0.826500	0.548500	0.707900
H61	H6	0.977100	0.629300	0.624900
H71	H7	0.889800	0.549100	0.596000
H81	H8	0.515900	0.935700	0.662500
H91	H9	0.154400	0.244100	0.811100
H101	H10	0.080300	0.418800	0.721800
H111	H11	0.078300	0.527200	0.724000
H121	H12	0.043600	0.419800	0.835000
H131	H13	0.534400	0.707900	0.743600
H141	H14	0.602000	0.624900	0.745800
H151	H15	0.485800	0.596000	0.854900
H161	H16	0.178400	0.662500	0.401800
H171	H17	0.965500	0.811100	0.944800
H181	H18	0.802100	0.721800	0.859400
H191	H19	0.802300	0.724000	0.748800
H201	H20	0.878600	0.835000	0.745200
H211	H21	0.278000	0.743600	0.548500
H221	H22	0.347800	0.745800	0.629300
H231	H23	0.340700	0.854900	0.549100
H241	H24	0.580200	0.401800	0.935700
H251	H25	0.154400	0.188900	0.755900
H261	H26	0.080300	0.278200	0.581200
H271	H27	0.078300	0.276000	0.472800
H281	H28	0.043600	0.165000	0.580200
H291	H29	0.534400	0.256400	0.292100
H301	H30	0.602000	0.254200	0.375100
H311	H31	0.485800	0.145100	0.404000
H321	H32	0.178400	0.598200	0.337500
H331	H33	0.965500	0.055200	0.188900
H341	H34	0.802100	0.140600	0.278200
H351	H35	0.802300	0.251200	0.276000
H361	H36	0.878600	0.254800	0.165000
H371	H37	0.278000	0.451500	0.256400
H381	H38	0.347800	0.370700	0.254200
H391	H39	0.340700	0.450900	0.145100
H401	H40	0.580200	0.064300	0.598200
H411	H41	0.910300	0.755900	0.055200
H421	H42	0.661500	0.581200	0.140600
H431	H43	0.551100	0.472800	0.251200
H441	H44	0.623800	0.580200	0.254800
H451	H45	0.826500	0.292100	0.451500
H461	H46	0.977100	0.375100	0.370700
H471	H47	0.889800	0.404000	0.450900
H481	H48	0.515900	0.337500	0.064300
H491	H49	0.132900	0.000000	0.329900
H501	H50	0.526700	0.000000	0.543800
H511	H51	0.462800	0.329900	0.670100
H521	H52	0.070500	0.543800	0.456200
H531	H53	0.132900	0.670100	0.000000
H541	H54	0.526700	0.456200	0.000000
C11	C1	0.634700	0.780400	0.463700
C21	C2	0.738100	0.761900	0.502200
C31	C3	0.846600	0.681300	0.573400
C41	C4	0.888700	0.594600	0.630400
C51	C5	0.098400	0.463700	0.755900
C61	C6	0.240300	0.502200	0.735900
C71	C7	0.420000	0.573400	0.745300
C81	C8	0.519100	0.630400	0.775000
C91	C9	0.854300	0.755900	0.780400
C101	C10	0.976200	0.735900	0.761900
C111	C11	0.165300	0.745300	0.681300
C121	C12	0.294100	0.775000	0.594600
C131	C13	0.098400	0.244100	0.536300
C141	C14	0.240300	0.264100	0.497800
C151	C15	0.420000	0.254700	0.426600
C161	C16	0.519100	0.225000	0.369600
C171	C17	0.854300	0.219600	0.244100
C181	C18	0.976200	0.238100	0.264100
C191	C19	0.165300	0.318700	0.254700
C201	C20	0.294100	0.405400	0.225000
C211	C21	0.634700	0.536300	0.219600
C221	C22	0.738100	0.497800	0.238100
C231	C23	0.846600	0.426600	0.318700
C241	C24	0.888700	0.369600	0.405400
C251	C25	0.569350	0.000000	0.591950
C261	C26	0.708950	0.000000	0.545150
C271	C27	0.161300	0.591950	0.408050
C281	C28	0.254100	0.545150	0.454850
C291	C29	0.569350	0.408050	0.000000
C301	C30	0.708950	0.454850	0.000000
N11	N1	0.843900	0.837400	0.484400
N21	N2	0.915100	0.788100	0.530800
N31	N3	0.733200	0.660400	0.558200
N41	N4	0.328300	0.484400	0.678200
N51	N5	0.445900	0.530800	0.681100
N61	N6	0.291400	0.558200	0.781400
N71	N7	0.006500	0.678200	0.837400
N81	N8	0.127000	0.681100	0.788100
N91	N9	0.072800	0.781400	0.660400
N101	N10	0.328300	0.321800	0.515600
N111	N11	0.445900	0.318900	0.469200
N121	N12	0.291400	0.218600	0.441800
N131	N13	0.006500	0.162600	0.321800
N141	N14	0.127000	0.211900	0.318900
N151	N15	0.072800	0.339600	0.218600
N161	N16	0.843900	0.515600	0.162600
N171	N17	0.915100	0.469200	0.211900
N181	N18	0.733200	0.441800	0.339600
O11	O1	0.089250	0.000000	0.386450
O21	O2	0.241100	0.000000	0.482600
O31	O3	0.741150	0.000000	0.465050
O41	O4	0.766450	0.000000	0.603650
O51	O5	0.907900	0.000000	0.251300
O61	O6	0.475700	0.386450	0.613550
O71	O7	0.723700	0.482600	0.517400
O81	O8	0.206200	0.465050	0.534950
O91	O9	0.370100	0.603650	0.396350
O101	O10	0.159200	0.251300	0.748700
O111	O11	0.089250	0.613550	0.000000
O121	O12	0.241100	0.517400	0.000000
O131	O13	0.741150	0.534950	0.000000
O141	O14	0.766450	0.396350	0.000000
O151	O15	0.907900	0.748700	0.000000
