data_PEWXUL01_freeONLY_PM
_symmetry_space_group_name_H-M	'P1'
_cell_length_a	8.630000
_cell_length_b	13.514500
_cell_length_c	13.514500
_cell_angle_alpha	94.888000
_cell_angle_beta	96.885200
_cell_angle_gamma	96.885200
_symmetry_Int_Tables_number 1

loop_
_symmetry_equiv_pos_as_xyz
'x,y,z'

loop_
_atom_site_label
_atom_site_type_symbol
_atom_site_fract_x
_atom_site_fract_y
_atom_site_fract_z
Ni11	Ni1	0.750000	0.675560	0.324440
H11	H1	0.503200	0.605200	0.136800
H21	H2	0.485000	0.600400	0.963200
H31	H3	0.929900	0.745400	0.994800
H41	H4	0.938600	0.746100	0.168700
H51	H5	0.671500	0.598500	0.819700
H61	H6	0.611700	0.702300	0.822700
H71	H7	0.902100	0.572200	0.498800
H81	H8	0.917400	0.572700	0.672300
H91	H9	0.705000	0.826100	0.676500
H101	H10	0.677400	0.808900	0.501300
H111	H11	0.922600	0.674400	0.831400
H121	H12	0.862200	0.778000	0.833600
H131	H13	0.996800	0.863200	0.394800
H141	H14	0.015000	0.036800	0.399600
H151	H15	0.570100	0.005200	0.254600
H161	H16	0.561400	0.831300	0.253900
H171	H17	0.828500	0.180300	0.401500
H181	H18	0.888300	0.177300	0.297700
H191	H19	0.597900	0.501200	0.427800
H201	H20	0.582600	0.327700	0.427300
H211	H21	0.795000	0.323500	0.173900
H221	H22	0.822600	0.498700	0.191100
H231	H23	0.577400	0.168600	0.325600
H241	H24	0.637800	0.166400	0.222000
C11	C1	0.592000	0.634100	0.107300
C21	C2	0.579000	0.631600	0.004200
C31	C3	0.704000	0.672300	0.959900
C41	C4	0.841000	0.714000	0.022800
C51	C5	0.844000	0.714000	0.124800
C61	C6	0.694000	0.667800	0.847000
C71	C7	0.855000	0.623200	0.536000
C81	C8	0.868000	0.626500	0.638700
C91	C9	0.815000	0.702700	0.693300
C101	C10	0.746000	0.771100	0.641900
C111	C11	0.731000	0.760900	0.537900
C121	C12	0.833000	0.708900	0.806500
C131	C13	0.383000	0.652700	0.347100
C141	C14	0.908000	0.892700	0.365900
C151	C15	0.921000	0.995800	0.368400
C161	C16	0.796000	0.040100	0.327700
C171	C17	0.659000	0.977200	0.286000
C181	C18	0.656000	0.875200	0.286000
C191	C19	0.806000	0.153000	0.332200
C201	C20	0.645000	0.464000	0.376800
C211	C21	0.632000	0.361300	0.373500
C221	C22	0.685000	0.306700	0.297300
C231	C23	0.754000	0.358100	0.228900
C241	C24	0.769000	0.462100	0.239100
C251	C25	0.667000	0.193500	0.291100
C261	C26	0.117000	0.652900	0.347300
N11	N1	0.724400	0.673200	0.168000
N21	N2	0.783000	0.687900	0.484500
N31	N3	0.510500	0.668400	0.330600
N41	N4	0.775600	0.832000	0.326800
N51	N5	0.717000	0.515500	0.312100
N61	N6	0.989500	0.669400	0.331600
N71	N7	0.250000	0.624300	0.375700
Ni21	Ni2	0.250000	0.324440	0.675560
H251	H25	0.496800	0.394800	0.863200
H261	H26	0.515000	0.399600	0.036800
H271	H27	0.070100	0.254600	0.005200
H281	H28	0.061400	0.253900	0.831300
H291	H29	0.328500	0.401500	0.180300
H301	H30	0.388300	0.297700	0.177300
H311	H31	0.097900	0.427800	0.501200
H321	H32	0.082600	0.427300	0.327700
H331	H33	0.295000	0.173900	0.323500
H341	H34	0.322600	0.191100	0.498700
H351	H35	0.077400	0.325600	0.168600
H361	H36	0.137800	0.222000	0.166400
H371	H37	0.003200	0.136800	0.605200
H381	H38	0.985000	0.963200	0.600400
H391	H39	0.429900	0.994800	0.745400
H401	H40	0.438600	0.168700	0.746100
H411	H41	0.171500	0.819700	0.598500
H421	H42	0.111700	0.822700	0.702300
H431	H43	0.402100	0.498800	0.572200
H441	H44	0.417400	0.672300	0.572700
H451	H45	0.205000	0.676500	0.826100
H461	H46	0.177400	0.501300	0.808900
H471	H47	0.422600	0.831400	0.674400
H481	H48	0.362200	0.833600	0.778000
C271	C27	0.408000	0.365900	0.892700
C281	C28	0.421000	0.368400	0.995800
C291	C29	0.296000	0.327700	0.040100
C301	C30	0.159000	0.286000	0.977200
C311	C31	0.156000	0.286000	0.875200
C321	C32	0.306000	0.332200	0.153000
C331	C33	0.145000	0.376800	0.464000
C341	C34	0.132000	0.373500	0.361300
C351	C35	0.185000	0.297300	0.306700
C361	C36	0.254000	0.228900	0.358100
C371	C37	0.269000	0.239100	0.462100
C381	C38	0.167000	0.291100	0.193500
C391	C39	0.617000	0.347300	0.652900
C401	C40	0.092000	0.107300	0.634100
C411	C41	0.079000	0.004200	0.631600
C421	C42	0.204000	0.959900	0.672300
C431	C43	0.341000	0.022800	0.714000
C441	C44	0.344000	0.124800	0.714000
C451	C45	0.194000	0.847000	0.667800
C461	C46	0.355000	0.536000	0.623200
C471	C47	0.368000	0.638700	0.626500
C481	C48	0.315000	0.693300	0.702700
C491	C49	0.246000	0.641900	0.771100
C501	C50	0.231000	0.537900	0.760900
C511	C51	0.333000	0.806500	0.708900
C521	C52	0.883000	0.347100	0.652700
N81	N8	0.275600	0.326800	0.832000
N91	N9	0.217000	0.312100	0.515500
N101	N10	0.489500	0.331600	0.669400
N111	N11	0.224400	0.168000	0.673200
N121	N12	0.283000	0.484500	0.687900
N131	N13	0.010500	0.330600	0.668400
N141	N14	0.750000	0.375700	0.624300
