data_PEXBIF01_freeONLY_PM
_symmetry_space_group_name_H-M	'P1'
_cell_length_a	16.662000
_cell_length_b	14.861000
_cell_length_c	17.977700
_cell_angle_alpha	90.000000
_cell_angle_beta	113.117000
_cell_angle_gamma	90.000000
_symmetry_Int_Tables_number 1

loop_
_symmetry_equiv_pos_as_xyz
'x,y,z'

loop_
_atom_site_label
_atom_site_type_symbol
_atom_site_fract_x
_atom_site_fract_y
_atom_site_fract_z
C11	C1	0.282500	0.966400	0.410610
H11	H1	0.272500	0.027800	0.401100
C21	C2	0.273600	0.823700	0.397310
H21	H2	0.255200	0.766700	0.376200
C31	C3	0.340500	0.840100	0.467620
H31	H3	0.376400	0.797900	0.503500
C41	C4	0.409500	0.981400	0.543040
H41	H4	0.414600	0.954300	0.593800
H51	H5	0.389200	0.042700	0.542100
C51	C5	0.498700	0.982900	0.538760
H61	H6	0.537100	0.020000	0.582700
H71	H7	0.522000	0.922300	0.547800
C61	C6	0.122400	0.028300	0.095320
H81	H8	0.131200	0.082300	0.123500
C71	C7	0.103000	0.888600	0.064800
H91	H9	0.095300	0.827000	0.068400
C81	C8	0.103400	0.932400	0.999000
H101	H10	0.097100	0.906500	0.949900
C91	C9	0.125200	0.096200	0.969000
H111	H11	0.121800	0.152600	0.994800
H121	H12	0.077900	0.095000	0.916000
C101	C10	0.210300	0.091600	0.959600
H131	H13	0.214500	0.142600	0.927700
H141	H14	0.211400	0.037400	0.930100
C111	C11	0.923600	0.955300	0.244260
H151	H15	0.921200	0.892800	0.242400
C121	C12	0.849900	0.002800	0.236830
H161	H16	0.798600	0.973100	0.231100
C131	C13	0.853900	0.095600	0.238100
H171	H17	0.804800	0.129100	0.233100
C141	C14	0.930500	0.139200	0.246710
C151	C15	0.004700	0.087900	0.257900
C161	C16	0.095100	0.126500	0.279800
C171	C17	0.930600	0.240900	0.242840
Cd11	Cd1	0.118050	0.924150	0.249500
N11	N1	0.115640	0.949720	0.125450
N21	N2	0.236310	0.901660	0.361190
N31	N3	0.998860	0.996520	0.254100
N41	N4	0.114750	0.020580	0.017820
N51	N5	0.345100	0.930920	0.475630
O11	O1	0.913540	0.281400	0.295410
O21	O2	0.939020	0.279820	0.186310
O31	O3	0.152310	0.078450	0.273510
O41	O4	0.105230	0.204630	0.304580
C181	C18	0.782500	0.466400	0.910610
H181	H18	0.772500	0.527800	0.901100
C191	C19	0.773600	0.323700	0.897310
H191	H19	0.755200	0.266700	0.876200
C201	C20	0.840500	0.340100	0.967620
H201	H20	0.876400	0.297900	0.003500
C211	C21	0.909500	0.481400	0.043040
H211	H21	0.914600	0.454300	0.093800
H221	H22	0.889200	0.542700	0.042100
C221	C22	0.998700	0.482900	0.038760
H231	H23	0.037100	0.520000	0.082700
H241	H24	0.022000	0.422300	0.047800
C231	C23	0.622400	0.528300	0.595320
H251	H25	0.631200	0.582300	0.623500
C241	C24	0.603000	0.388600	0.564800
H261	H26	0.595300	0.327000	0.568400
C251	C25	0.603400	0.432400	0.499000
H271	H27	0.597100	0.406500	0.449900
C261	C26	0.625200	0.596200	0.469000
H281	H28	0.621800	0.652600	0.494800
H291	H29	0.577900	0.595000	0.416000
C271	C27	0.710300	0.591600	0.459600
H301	H30	0.714500	0.642600	0.427700
H311	H31	0.711400	0.537400	0.430100
C281	C28	0.423600	0.455300	0.744260
H321	H32	0.421200	0.392800	0.742400
C291	C29	0.349900	0.502800	0.736830
H331	H33	0.298600	0.473100	0.731100
C301	C30	0.353900	0.595600	0.738100
H341	H34	0.304800	0.629100	0.733100
C311	C31	0.430500	0.639200	0.746710
C321	C32	0.504700	0.587900	0.757900
C331	C33	0.595100	0.626500	0.779800
C341	C34	0.430600	0.740900	0.742840
Cd21	Cd2	0.618050	0.424150	0.749500
N61	N6	0.615640	0.449720	0.625450
N71	N7	0.736310	0.401660	0.861190
N81	N8	0.498860	0.496520	0.754100
N91	N9	0.614750	0.520580	0.517820
N101	N10	0.845100	0.430920	0.975630
O51	O5	0.413540	0.781400	0.795410
O61	O6	0.439020	0.779820	0.686310
O71	O7	0.652310	0.578450	0.773510
O81	O8	0.605230	0.704630	0.804580
C351	C35	0.217500	0.966400	0.589390
H351	H35	0.227500	0.027800	0.598900
C361	C36	0.226400	0.823700	0.602690
H361	H36	0.244800	0.766700	0.623800
C371	C37	0.159500	0.840100	0.532380
H371	H37	0.123600	0.797900	0.496500
C381	C38	0.090500	0.981400	0.456960
H381	H38	0.085400	0.954300	0.406200
H391	H39	0.110800	0.042700	0.457900
C391	C39	0.001300	0.982900	0.461240
H401	H40	0.962900	0.020000	0.417300
H411	H41	0.978000	0.922300	0.452200
C401	C40	0.377600	0.028300	0.904680
H421	H42	0.368800	0.082300	0.876500
C411	C41	0.397000	0.888600	0.935200
H431	H43	0.404700	0.827000	0.931600
C421	C42	0.396600	0.932400	0.001000
H441	H44	0.402900	0.906500	0.050100
C431	C43	0.374800	0.096200	0.031000
H451	H45	0.378200	0.152600	0.005200
H461	H46	0.422100	0.095000	0.084000
C441	C44	0.289700	0.091600	0.040400
H471	H47	0.285500	0.142600	0.072300
H481	H48	0.288600	0.037400	0.069900
C451	C45	0.576400	0.955300	0.755740
H491	H49	0.578800	0.892800	0.757600
C461	C46	0.650100	0.002800	0.763170
H501	H50	0.701400	0.973100	0.768900
C471	C47	0.646100	0.095600	0.761900
H511	H51	0.695200	0.129100	0.766900
C481	C48	0.569500	0.139200	0.753290
C491	C49	0.495300	0.087900	0.742100
C501	C50	0.404900	0.126500	0.720200
C511	C51	0.569400	0.240900	0.757160
Cd31	Cd3	0.381950	0.924150	0.750500
N111	N11	0.384360	0.949720	0.874550
N121	N12	0.263690	0.901660	0.638810
N131	N13	0.501140	0.996520	0.745900
N141	N14	0.385250	0.020580	0.982180
N151	N15	0.154900	0.930920	0.524370
O91	O9	0.586460	0.281400	0.704590
O101	O10	0.560980	0.279820	0.813690
O111	O11	0.347690	0.078450	0.726490
O121	O12	0.394770	0.204630	0.695420
C521	C52	0.717500	0.466400	0.089390
H521	H52	0.727500	0.527800	0.098900
C531	C53	0.726400	0.323700	0.102690
H531	H53	0.744800	0.266700	0.123800
C541	C54	0.659500	0.340100	0.032380
H541	H54	0.623600	0.297900	0.996500
C551	C55	0.590500	0.481400	0.956960
H551	H55	0.585400	0.454300	0.906200
H561	H56	0.610800	0.542700	0.957900
C561	C56	0.501300	0.482900	0.961240
H571	H57	0.462900	0.520000	0.917300
H581	H58	0.478000	0.422300	0.952200
C571	C57	0.877600	0.528300	0.404680
H591	H59	0.868800	0.582300	0.376500
C581	C58	0.897000	0.388600	0.435200
H601	H60	0.904700	0.327000	0.431600
C591	C59	0.896600	0.432400	0.501000
H611	H61	0.902900	0.406500	0.550100
C601	C60	0.874800	0.596200	0.531000
H621	H62	0.878200	0.652600	0.505200
H631	H63	0.922100	0.595000	0.584000
C611	C61	0.789700	0.591600	0.540400
H641	H64	0.785500	0.642600	0.572300
H651	H65	0.788600	0.537400	0.569900
C621	C62	0.076400	0.455300	0.255740
H661	H66	0.078800	0.392800	0.257600
C631	C63	0.150100	0.502800	0.263170
H671	H67	0.201400	0.473100	0.268900
C641	C64	0.146100	0.595600	0.261900
H681	H68	0.195200	0.629100	0.266900
C651	C65	0.069500	0.639200	0.253290
C661	C66	0.995300	0.587900	0.242100
C671	C67	0.904900	0.626500	0.220200
C681	C68	0.069400	0.740900	0.257160
Cd41	Cd4	0.881950	0.424150	0.250500
N161	N16	0.884360	0.449720	0.374550
N171	N17	0.763690	0.401660	0.138810
N181	N18	0.001140	0.496520	0.245900
N191	N19	0.885250	0.520580	0.482180
N201	N20	0.654900	0.430920	0.024370
O131	O13	0.086460	0.781400	0.204590
O141	O14	0.060980	0.779820	0.313690
O151	O15	0.847690	0.578450	0.226490
O161	O16	0.894770	0.704630	0.195420
C691	C69	0.717500	0.033600	0.589390
H691	H69	0.727500	0.972200	0.598900
C701	C70	0.726400	0.176300	0.602690
H701	H70	0.744800	0.233300	0.623800
C711	C71	0.659500	0.159900	0.532380
H711	H71	0.623600	0.202100	0.496500
C721	C72	0.590500	0.018600	0.456960
H721	H72	0.585400	0.045700	0.406200
H731	H73	0.610800	0.957300	0.457900
C731	C73	0.501300	0.017100	0.461240
H741	H74	0.462900	0.980000	0.417300
H751	H75	0.478000	0.077700	0.452200
C741	C74	0.877600	0.971700	0.904680
H761	H76	0.868800	0.917700	0.876500
C751	C75	0.897000	0.111400	0.935200
H771	H77	0.904700	0.173000	0.931600
C761	C76	0.896600	0.067600	0.001000
H781	H78	0.902900	0.093500	0.050100
C771	C77	0.874800	0.903800	0.031000
H791	H79	0.878200	0.847400	0.005200
H801	H80	0.922100	0.905000	0.084000
C781	C78	0.789700	0.908400	0.040400
H811	H81	0.785500	0.857400	0.072300
H821	H82	0.788600	0.962600	0.069900
C791	C79	0.076400	0.044700	0.755740
H831	H83	0.078800	0.107200	0.757600
C801	C80	0.150100	0.997200	0.763170
H841	H84	0.201400	0.026900	0.768900
C811	C81	0.146100	0.904400	0.761900
H851	H85	0.195200	0.870900	0.766900
C821	C82	0.069500	0.860800	0.753290
C831	C83	0.995300	0.912100	0.742100
C841	C84	0.904900	0.873500	0.720200
C851	C85	0.069400	0.759100	0.757160
Cd51	Cd5	0.881950	0.075850	0.750500
N211	N21	0.884360	0.050280	0.874550
N221	N22	0.763690	0.098340	0.638810
N231	N23	0.001140	0.003480	0.745900
N241	N24	0.885250	0.979420	0.982180
N251	N25	0.654900	0.069080	0.524370
O171	O17	0.086460	0.718600	0.704590
O181	O18	0.060980	0.720180	0.813690
O191	O19	0.847690	0.921550	0.726490
O201	O20	0.894770	0.795370	0.695420
C861	C86	0.217500	0.533600	0.089390
H861	H86	0.227500	0.472200	0.098900
C871	C87	0.226400	0.676300	0.102690
H871	H87	0.244800	0.733300	0.123800
C881	C88	0.159500	0.659900	0.032380
H881	H88	0.123600	0.702100	0.996500
C891	C89	0.090500	0.518600	0.956960
H891	H89	0.085400	0.545700	0.906200
H901	H90	0.110800	0.457300	0.957900
C901	C90	0.001300	0.517100	0.961240
H911	H91	0.962900	0.480000	0.917300
H921	H92	0.978000	0.577700	0.952200
C911	C91	0.377600	0.471700	0.404680
H931	H93	0.368800	0.417700	0.376500
C921	C92	0.397000	0.611400	0.435200
H941	H94	0.404700	0.673000	0.431600
C931	C93	0.396600	0.567600	0.501000
H951	H95	0.402900	0.593500	0.550100
C941	C94	0.374800	0.403800	0.531000
H961	H96	0.378200	0.347400	0.505200
H971	H97	0.422100	0.405000	0.584000
C951	C95	0.289700	0.408400	0.540400
H981	H98	0.285500	0.357400	0.572300
H991	H99	0.288600	0.462600	0.569900
C961	C96	0.576400	0.544700	0.255740
H1001	H100	0.578800	0.607200	0.257600
C971	C97	0.650100	0.497200	0.263170
H1011	H101	0.701400	0.526900	0.268900
C981	C98	0.646100	0.404400	0.261900
H1021	H102	0.695200	0.370900	0.266900
C991	C99	0.569500	0.360800	0.253290
C1001	C100	0.495300	0.412100	0.242100
C1011	C101	0.404900	0.373500	0.220200
C1021	C102	0.569400	0.259100	0.257160
Cd61	Cd6	0.381950	0.575850	0.250500
N261	N26	0.384360	0.550280	0.374550
N271	N27	0.263690	0.598340	0.138810
N281	N28	0.501140	0.503480	0.245900
N291	N29	0.385250	0.479420	0.482180
N301	N30	0.154900	0.569080	0.024370
O211	O21	0.586460	0.218600	0.204590
O221	O22	0.560980	0.220180	0.313690
O231	O23	0.347690	0.421550	0.226490
O241	O24	0.394770	0.295370	0.195420
C1031	C103	0.782500	0.033600	0.410610
H1031	H103	0.772500	0.972200	0.401100
C1041	C104	0.773600	0.176300	0.397310
H1041	H104	0.755200	0.233300	0.376200
C1051	C105	0.840500	0.159900	0.467620
H1051	H105	0.876400	0.202100	0.503500
C1061	C106	0.909500	0.018600	0.543040
H1061	H106	0.914600	0.045700	0.593800
H1071	H107	0.889200	0.957300	0.542100
C1071	C107	0.998700	0.017100	0.538760
H1081	H108	0.037100	0.980000	0.582700
H1091	H109	0.022000	0.077700	0.547800
C1081	C108	0.622400	0.971700	0.095320
H1101	H110	0.631200	0.917700	0.123500
C1091	C109	0.603000	0.111400	0.064800
H1111	H111	0.595300	0.173000	0.068400
C1101	C110	0.603400	0.067600	0.999000
H1121	H112	0.597100	0.093500	0.949900
C1111	C111	0.625200	0.903800	0.969000
H1131	H113	0.621800	0.847400	0.994800
H1141	H114	0.577900	0.905000	0.916000
C1121	C112	0.710300	0.908400	0.959600
H1151	H115	0.714500	0.857400	0.927700
H1161	H116	0.711400	0.962600	0.930100
C1131	C113	0.423600	0.044700	0.244260
H1171	H117	0.421200	0.107200	0.242400
C1141	C114	0.349900	0.997200	0.236830
H1181	H118	0.298600	0.026900	0.231100
C1151	C115	0.353900	0.904400	0.238100
H1191	H119	0.304800	0.870900	0.233100
C1161	C116	0.430500	0.860800	0.246710
C1171	C117	0.504700	0.912100	0.257900
C1181	C118	0.595100	0.873500	0.279800
C1191	C119	0.430600	0.759100	0.242840
Cd71	Cd7	0.618050	0.075850	0.249500
N311	N31	0.615640	0.050280	0.125450
N321	N32	0.736310	0.098340	0.361190
N331	N33	0.498860	0.003480	0.254100
N341	N34	0.614750	0.979420	0.017820
N351	N35	0.845100	0.069080	0.475630
O251	O25	0.413540	0.718600	0.295410
O261	O26	0.439020	0.720180	0.186310
O271	O27	0.652310	0.921550	0.273510
O281	O28	0.605230	0.795370	0.304580
C1201	C120	0.282500	0.533600	0.910610
H1201	H120	0.272500	0.472200	0.901100
C1211	C121	0.273600	0.676300	0.897310
H1211	H121	0.255200	0.733300	0.876200
C1221	C122	0.340500	0.659900	0.967620
H1221	H122	0.376400	0.702100	0.003500
C1231	C123	0.409500	0.518600	0.043040
H1231	H123	0.414600	0.545700	0.093800
H1241	H124	0.389200	0.457300	0.042100
C1241	C124	0.498700	0.517100	0.038760
H1251	H125	0.537100	0.480000	0.082700
H1261	H126	0.522000	0.577700	0.047800
C1251	C125	0.122400	0.471700	0.595320
H1271	H127	0.131200	0.417700	0.623500
C1261	C126	0.103000	0.611400	0.564800
H1281	H128	0.095300	0.673000	0.568400
C1271	C127	0.103400	0.567600	0.499000
H1291	H129	0.097100	0.593500	0.449900
C1281	C128	0.125200	0.403800	0.469000
H1301	H130	0.121800	0.347400	0.494800
H1311	H131	0.077900	0.405000	0.416000
C1291	C129	0.210300	0.408400	0.459600
H1321	H132	0.214500	0.357400	0.427700
H1331	H133	0.211400	0.462600	0.430100
C1301	C130	0.923600	0.544700	0.744260
H1341	H134	0.921200	0.607200	0.742400
C1311	C131	0.849900	0.497200	0.736830
H1351	H135	0.798600	0.526900	0.731100
C1321	C132	0.853900	0.404400	0.738100
H1361	H136	0.804800	0.370900	0.733100
C1331	C133	0.930500	0.360800	0.746710
C1341	C134	0.004700	0.412100	0.757900
C1351	C135	0.095100	0.373500	0.779800
C1361	C136	0.930600	0.259100	0.742840
Cd81	Cd8	0.118050	0.575850	0.749500
N361	N36	0.115640	0.550280	0.625450
N371	N37	0.236310	0.598340	0.861190
N381	N38	0.998860	0.503480	0.754100
N391	N39	0.114750	0.479420	0.517820
N401	N40	0.345100	0.569080	0.975630
O291	O29	0.913540	0.218600	0.795410
O301	O30	0.939020	0.220180	0.686310
O311	O31	0.152310	0.421550	0.773510
O321	O32	0.105230	0.295370	0.804580
