data_PEXTUI_freeONLY_PM
_symmetry_space_group_name_H-M	'P1'
_cell_length_a	10.226000
_cell_length_b	10.814000
_cell_length_c	29.876000
_cell_angle_alpha	90.000000
_cell_angle_beta	99.437000
_cell_angle_gamma	90.000000
_symmetry_Int_Tables_number 1

loop_
_symmetry_equiv_pos_as_xyz
'x,y,z'

loop_
_atom_site_label
_atom_site_type_symbol
_atom_site_fract_x
_atom_site_fract_y
_atom_site_fract_z
Cd11	Cd1	0.029270	0.203370	0.896670
Cd21	Cd2	0.728140	0.373720	0.849090
Cd31	Cd3	0.970730	0.703370	0.603330
Cd41	Cd4	0.271860	0.873720	0.650910
Cd51	Cd5	0.970730	0.796630	0.103330
Cd61	Cd6	0.271860	0.626280	0.150910
Cd71	Cd7	0.029270	0.296630	0.396670
Cd81	Cd8	0.728140	0.126280	0.349090
Cd91	Cd9	0.500000	0.500000	0.000000
Cd101	Cd10	0.500000	0.000000	0.500000
H11	H1	0.752900	0.923200	0.953900
H21	H2	0.360900	0.886300	0.949500
H31	H3	0.508400	0.205500	0.910700
H41	H4	0.241500	0.394100	0.847900
H51	H5	0.374400	0.560800	0.744500
H61	H6	0.985200	0.553600	0.748900
H71	H7	0.247100	0.423200	0.546100
H81	H8	0.639100	0.386300	0.550500
H91	H9	0.491600	0.705500	0.589300
H101	H10	0.758500	0.894100	0.652100
H111	H11	0.625600	0.060800	0.755500
H121	H12	0.014800	0.053600	0.751100
H131	H13	0.247100	0.076800	0.046100
H141	H14	0.639100	0.113700	0.050500
H151	H15	0.491600	0.794500	0.089300
H161	H16	0.758500	0.605900	0.152100
H171	H17	0.625600	0.439200	0.255500
H181	H18	0.014800	0.446400	0.251100
H191	H19	0.752900	0.576800	0.453900
H201	H20	0.360900	0.613700	0.449500
H211	H21	0.508400	0.294500	0.410700
H221	H22	0.241500	0.105900	0.347900
H231	H23	0.374400	0.939200	0.244500
H241	H24	0.985200	0.946400	0.248900
C11	C1	0.765300	0.149400	0.921440
C21	C2	0.649400	0.076500	0.931280
C31	C3	0.667700	0.956000	0.947600
C41	C4	0.560900	0.885000	0.954400
C51	C5	0.433200	0.934100	0.944900
C61	C6	0.413700	0.053600	0.928700
C71	C7	0.521500	0.125200	0.921700
C81	C8	0.581100	0.753300	0.970800
C91	C9	0.275200	0.104200	0.917000
C101	C10	0.981600	0.434500	0.825600
C111	C11	0.096200	0.468900	0.802400
C121	C12	0.224600	0.437000	0.820600
C131	C13	0.329200	0.468800	0.798100
C141	C14	0.304100	0.536300	0.758700
C151	C15	0.175700	0.568500	0.739600
C161	C16	0.071900	0.533600	0.761600
C171	C17	0.471000	0.433200	0.816700
C181	C18	0.149100	0.640200	0.695800
C191	C19	0.234700	0.649400	0.578560
C201	C20	0.350600	0.576500	0.568720
C211	C21	0.332300	0.456000	0.552400
C221	C22	0.439100	0.385000	0.545600
C231	C23	0.566800	0.434100	0.555100
C241	C24	0.586300	0.553600	0.571300
C251	C25	0.478500	0.625200	0.578300
C261	C26	0.418900	0.253300	0.529200
C271	C27	0.724800	0.604200	0.583000
C281	C28	0.018400	0.934500	0.674400
C291	C29	0.903800	0.968900	0.697600
C301	C30	0.775400	0.937000	0.679400
C311	C31	0.670800	0.968800	0.701900
C321	C32	0.695900	0.036300	0.741300
C331	C33	0.824300	0.068500	0.760400
C341	C34	0.928100	0.033600	0.738400
C351	C35	0.529000	0.933200	0.683300
C361	C36	0.850900	0.140200	0.804200
C371	C37	0.234700	0.850600	0.078560
C381	C38	0.350600	0.923500	0.068720
C391	C39	0.332300	0.044000	0.052400
C401	C40	0.439100	0.115000	0.045600
C411	C41	0.566800	0.065900	0.055100
C421	C42	0.586300	0.946400	0.071300
C431	C43	0.478500	0.874800	0.078300
C441	C44	0.418900	0.246700	0.029200
C451	C45	0.724800	0.895800	0.083000
C461	C46	0.018400	0.565500	0.174400
C471	C47	0.903800	0.531100	0.197600
C481	C48	0.775400	0.563000	0.179400
C491	C49	0.670800	0.531200	0.201900
C501	C50	0.695900	0.463700	0.241300
C511	C51	0.824300	0.431500	0.260400
C521	C52	0.928100	0.466400	0.238400
C531	C53	0.529000	0.566800	0.183300
C541	C54	0.850900	0.359800	0.304200
C551	C55	0.765300	0.350600	0.421440
C561	C56	0.649400	0.423500	0.431280
C571	C57	0.667700	0.544000	0.447600
C581	C58	0.560900	0.615000	0.454400
C591	C59	0.433200	0.565900	0.444900
C601	C60	0.413700	0.446400	0.428700
C611	C61	0.521500	0.374800	0.421700
C621	C62	0.581100	0.746700	0.470800
C631	C63	0.275200	0.395800	0.417000
C641	C64	0.981600	0.065500	0.325600
C651	C65	0.096200	0.031100	0.302400
C661	C66	0.224600	0.063000	0.320600
C671	C67	0.329200	0.031200	0.298100
C681	C68	0.304100	0.963700	0.258700
C691	C69	0.175700	0.931500	0.239600
C701	C70	0.071900	0.966400	0.261600
C711	C71	0.471000	0.066800	0.316700
C721	C72	0.149100	0.859800	0.195800
O11	O1	0.752000	0.265700	0.915530
O21	O2	0.869700	0.092200	0.919600
O31	O3	0.478800	0.688400	0.970800
O41	O4	0.693900	0.714200	0.983300
O51	O5	0.180000	0.035000	0.919700
O61	O6	0.259000	0.213800	0.903680
O71	O7	0.003800	0.397600	0.865850
O81	O8	0.867200	0.446700	0.803400
O91	O9	0.499200	0.392100	0.856040
O101	O10	0.555800	0.446900	0.792400
O111	O11	0.032000	0.644100	0.676130
O121	O12	0.249200	0.686900	0.682570
O131	O13	0.062800	0.287100	0.968500
O141	O14	0.746400	0.559200	0.888900
O151	O15	0.383600	0.434100	0.931700
O161	O16	0.700100	0.448400	0.975000
O171	O17	0.248000	0.765700	0.584470
O181	O18	0.130300	0.592200	0.580400
O191	O19	0.521200	0.188400	0.529200
O201	O20	0.306100	0.214200	0.516700
O211	O21	0.820000	0.535000	0.580300
O221	O22	0.741000	0.713800	0.596320
O231	O23	0.996200	0.897600	0.634150
O241	O24	0.132800	0.946700	0.696600
O251	O25	0.500800	0.892100	0.643960
O261	O26	0.444200	0.946900	0.707600
O271	O27	0.968000	0.144100	0.823870
O281	O28	0.750800	0.186900	0.817430
O291	O29	0.937200	0.787100	0.531500
O301	O30	0.253600	0.059200	0.611100
O311	O31	0.616400	0.934100	0.568300
O321	O32	0.299900	0.948400	0.525000
O331	O33	0.248000	0.734300	0.084470
O341	O34	0.130300	0.907800	0.080400
O351	O35	0.521200	0.311600	0.029200
O361	O36	0.306100	0.285800	0.016700
O371	O37	0.820000	0.965000	0.080300
O381	O38	0.741000	0.786200	0.096320
O391	O39	0.996200	0.602400	0.134150
O401	O40	0.132800	0.553300	0.196600
O411	O41	0.500800	0.607900	0.143960
O421	O42	0.444200	0.553100	0.207600
O431	O43	0.968000	0.355900	0.323870
O441	O44	0.750800	0.313100	0.317430
O451	O45	0.937200	0.712900	0.031500
O461	O46	0.253600	0.440800	0.111100
O471	O47	0.616400	0.565900	0.068300
O481	O48	0.299900	0.551600	0.025000
O491	O49	0.752000	0.234300	0.415530
O501	O50	0.869700	0.407800	0.419600
O511	O51	0.478800	0.811600	0.470800
O521	O52	0.693900	0.785800	0.483300
O531	O53	0.180000	0.465000	0.419700
O541	O54	0.259000	0.286200	0.403680
O551	O55	0.003800	0.102400	0.365850
O561	O56	0.867200	0.053300	0.303400
O571	O57	0.499200	0.107900	0.356040
O581	O58	0.555800	0.053100	0.292400
O591	O59	0.032000	0.855900	0.176130
O601	O60	0.249200	0.813100	0.182570
O611	O61	0.062800	0.212900	0.468500
O621	O62	0.746400	0.940800	0.388900
O631	O63	0.383600	0.065900	0.431700
O641	O64	0.700100	0.051600	0.475000
