data_PIBPAS01_freeONLY_PM
_symmetry_space_group_name_H-M	'P1'
_cell_length_a	17.998000
_cell_length_b	17.998000
_cell_length_c	25.957700
_cell_angle_alpha	90.000000
_cell_angle_beta	90.000000
_cell_angle_gamma	90.000000
_symmetry_Int_Tables_number 1

loop_
_symmetry_equiv_pos_as_xyz
'x,y,z'

loop_
_atom_site_label
_atom_site_type_symbol
_atom_site_fract_x
_atom_site_fract_y
_atom_site_fract_z
C11	C1	0.333600	0.609900	0.948800
C21	C2	0.226900	0.812600	0.140800
C31	C3	0.387800	0.570000	0.923410
C41	C4	0.368800	0.522900	0.883580
C51	C5	0.294100	0.515000	0.869100
C61	C6	0.240100	0.556700	0.894000
H11	H1	0.189700	0.553200	0.883500
C71	C7	0.259400	0.603100	0.933900
H21	H2	0.222100	0.630600	0.951300
C81	C8	0.354900	0.661000	0.991710
C91	C9	0.274000	0.465600	0.825100
C101	C10	0.468400	0.304100	0.655170
C111	C11	0.395400	0.280100	0.653000
C121	C12	0.344200	0.308400	0.686900
C131	C13	0.363600	0.359700	0.724500
C141	C14	0.437000	0.382900	0.727600
H31	H3	0.451500	0.417100	0.753600
C151	C15	0.489300	0.356300	0.692800
H41	H4	0.539200	0.373400	0.694400
C161	C16	0.521700	0.276700	0.615800
C171	C17	0.305900	0.391800	0.758100
C181	C18	0.957300	0.387100	0.739400
C191	C19	0.977600	0.421200	0.785700
C201	C20	0.050600	0.427600	0.797900
H51	H5	0.064500	0.450800	0.829400
C211	C21	0.106000	0.400500	0.764700
C221	C22	0.083600	0.366600	0.719100
H61	H6	0.120200	0.348200	0.696000
C231	C23	0.010500	0.359300	0.706800
H71	H7	0.996300	0.335000	0.675800
C241	C24	0.875100	0.384200	0.726440
C251	C25	0.185600	0.412000	0.776600
N11	N1	0.235600	0.378400	0.746900
N21	N2	0.201900	0.454800	0.816460
N31	N3	0.328900	0.435900	0.797580
O11	O1	0.422650	0.666430	0.002160
O21	O2	0.303320	0.693920	0.015810
O31	O3	0.590670	0.290200	0.623490
O41	O4	0.497120	0.240450	0.579240
O51	O5	0.857630	0.346400	0.686190
O61	O6	0.831340	0.416160	0.754940
O71	O7	0.186000	0.823400	0.177700
Zn11	Zn1	0.337060	0.750180	0.075410
H81	H8	0.443000	0.577000	0.933600
H91	H9	0.376000	0.247000	0.619600
H101	H10	0.424000	0.499000	0.868000
H111	H11	0.940000	0.440000	0.813000
H121	H12	0.307000	0.294000	0.682000
C261	C26	0.666400	0.390100	0.448800
C271	C27	0.773100	0.187400	0.640800
C281	C28	0.612200	0.430000	0.423410
C291	C29	0.631200	0.477100	0.383580
C301	C30	0.705900	0.485000	0.369100
C311	C31	0.759900	0.443300	0.394000
H131	H13	0.810300	0.446800	0.383500
C321	C32	0.740600	0.396900	0.433900
H141	H14	0.777900	0.369400	0.451300
C331	C33	0.645100	0.339000	0.491710
C341	C34	0.726000	0.534400	0.325100
C351	C35	0.531600	0.695900	0.155170
C361	C36	0.604600	0.719900	0.153000
C371	C37	0.655800	0.691600	0.186900
C381	C38	0.636400	0.640300	0.224500
C391	C39	0.563000	0.617100	0.227600
H151	H15	0.548500	0.582900	0.253600
C401	C40	0.510700	0.643700	0.192800
H161	H16	0.460800	0.626600	0.194400
C411	C41	0.478300	0.723300	0.115800
C421	C42	0.694100	0.608200	0.258100
C431	C43	0.042700	0.612900	0.239400
C441	C44	0.022400	0.578800	0.285700
C451	C45	0.949400	0.572400	0.297900
H171	H17	0.935500	0.549200	0.329400
C461	C46	0.894000	0.599500	0.264700
C471	C47	0.916400	0.633400	0.219100
H181	H18	0.879800	0.651800	0.196000
C481	C48	0.989500	0.640700	0.206800
H191	H19	0.003700	0.665000	0.175800
C491	C49	0.124900	0.615800	0.226440
C501	C50	0.814400	0.588000	0.276600
N41	N4	0.764400	0.621600	0.246900
N51	N5	0.798100	0.545200	0.316460
N61	N6	0.671100	0.564100	0.297580
O81	O8	0.577350	0.333570	0.502160
O91	O9	0.696680	0.306080	0.515810
O101	O10	0.409330	0.709800	0.123490
O111	O11	0.502880	0.759550	0.079240
O121	O12	0.142370	0.653600	0.186190
O131	O13	0.168660	0.583840	0.254940
O141	O14	0.814000	0.176600	0.677700
Zn21	Zn2	0.662940	0.249820	0.575410
H201	H20	0.557000	0.423000	0.433600
H211	H21	0.624000	0.753000	0.119600
H221	H22	0.576000	0.501000	0.368000
H231	H23	0.060000	0.560000	0.313000
H241	H24	0.693000	0.706000	0.182000
C511	C51	0.390100	0.333600	0.198800
C521	C52	0.187400	0.226900	0.390800
C531	C53	0.430000	0.387800	0.173410
C541	C54	0.477100	0.368800	0.133580
C551	C55	0.485000	0.294100	0.119100
C561	C56	0.443300	0.240100	0.144000
H251	H25	0.446800	0.189700	0.133500
C571	C57	0.396900	0.259400	0.183900
H261	H26	0.369400	0.222100	0.201300
C581	C58	0.339000	0.354900	0.241710
C591	C59	0.534400	0.274000	0.075100
C601	C60	0.695900	0.468400	0.905170
C611	C61	0.719900	0.395400	0.903000
C621	C62	0.691600	0.344200	0.936900
C631	C63	0.640300	0.363600	0.974500
C641	C64	0.617100	0.437000	0.977600
H271	H27	0.582900	0.451500	0.003600
C651	C65	0.643700	0.489300	0.942800
H281	H28	0.626600	0.539200	0.944400
C661	C66	0.723300	0.521700	0.865800
C671	C67	0.608200	0.305900	0.008100
C681	C68	0.612900	0.957300	0.989400
C691	C69	0.578800	0.977600	0.035700
C701	C70	0.572400	0.050600	0.047900
H291	H29	0.549200	0.064500	0.079400
C711	C71	0.599500	0.106000	0.014700
C721	C72	0.633400	0.083600	0.969100
H301	H30	0.651800	0.120200	0.946000
C731	C73	0.640700	0.010500	0.956800
H311	H31	0.665000	0.996300	0.925800
C741	C74	0.615800	0.875100	0.976440
C751	C75	0.588000	0.185600	0.026600
N71	N7	0.621600	0.235600	0.996900
N81	N8	0.545200	0.201900	0.066460
N91	N9	0.564100	0.328900	0.047580
O151	O15	0.333570	0.422650	0.252160
O161	O16	0.306080	0.303320	0.265810
O171	O17	0.709800	0.590670	0.873490
O181	O18	0.759550	0.497120	0.829240
O191	O19	0.653600	0.857630	0.936190
O201	O20	0.583840	0.831340	0.004940
O211	O21	0.176600	0.186000	0.427700
Zn31	Zn3	0.249820	0.337060	0.325410
H321	H32	0.423000	0.443000	0.183600
H331	H33	0.753000	0.376000	0.869600
H341	H34	0.501000	0.424000	0.118000
H351	H35	0.560000	0.940000	0.063000
H361	H36	0.706000	0.307000	0.932000
C761	C76	0.609900	0.666400	0.698800
C771	C77	0.812600	0.773100	0.890800
C781	C78	0.570000	0.612200	0.673410
C791	C79	0.522900	0.631200	0.633580
C801	C80	0.515000	0.705900	0.619100
C811	C81	0.556700	0.759900	0.644000
H371	H37	0.553200	0.810300	0.633500
C821	C82	0.603100	0.740600	0.683900
H381	H38	0.630600	0.777900	0.701300
C831	C83	0.661000	0.645100	0.741710
C841	C84	0.465600	0.726000	0.575100
C851	C85	0.304100	0.531600	0.405170
C861	C86	0.280100	0.604600	0.403000
C871	C87	0.308400	0.655800	0.436900
C881	C88	0.359700	0.636400	0.474500
C891	C89	0.382900	0.563000	0.477600
H391	H39	0.417100	0.548500	0.503600
C901	C90	0.356300	0.510700	0.442800
H401	H40	0.373400	0.460800	0.444400
C911	C91	0.276700	0.478300	0.365800
C921	C92	0.391800	0.694100	0.508100
C931	C93	0.387100	0.042700	0.489400
C941	C94	0.421200	0.022400	0.535700
C951	C95	0.427600	0.949400	0.547900
H411	H41	0.450800	0.935500	0.579400
C961	C96	0.400500	0.894000	0.514700
C971	C97	0.366600	0.916400	0.469100
H421	H42	0.348200	0.879800	0.446000
C981	C98	0.359300	0.989500	0.456800
H431	H43	0.335000	0.003700	0.425800
C991	C99	0.384200	0.124900	0.476440
C1001	C100	0.412000	0.814400	0.526600
N101	N10	0.378400	0.764400	0.496900
N111	N11	0.454800	0.798100	0.566460
N121	N12	0.435900	0.671100	0.547580
O221	O22	0.666430	0.577350	0.752160
O231	O23	0.693920	0.696680	0.765810
O241	O24	0.290200	0.409330	0.373490
O251	O25	0.240450	0.502880	0.329240
O261	O26	0.346400	0.142370	0.436190
O271	O27	0.416160	0.168660	0.504940
O281	O28	0.823400	0.814000	0.927700
Zn41	Zn4	0.750180	0.662940	0.825410
H441	H44	0.577000	0.557000	0.683600
H451	H45	0.247000	0.624000	0.369600
H461	H46	0.499000	0.576000	0.618000
H471	H47	0.440000	0.060000	0.563000
H481	H48	0.294000	0.693000	0.432000
C1011	C101	0.666400	0.609900	0.051200
C1021	C102	0.773100	0.812600	0.859200
C1031	C103	0.612200	0.570000	0.076590
C1041	C104	0.631200	0.522900	0.116420
C1051	C105	0.705900	0.515000	0.130900
C1061	C106	0.759900	0.556700	0.106000
H491	H49	0.810300	0.553200	0.116500
C1071	C107	0.740600	0.603100	0.066100
H501	H50	0.777900	0.630600	0.048700
C1081	C108	0.645100	0.661000	0.008290
C1091	C109	0.726000	0.465600	0.174900
C1101	C110	0.531600	0.304100	0.344830
C1111	C111	0.604600	0.280100	0.347000
C1121	C112	0.655800	0.308400	0.313100
C1131	C113	0.636400	0.359700	0.275500
C1141	C114	0.563000	0.382900	0.272400
H511	H51	0.548500	0.417100	0.246400
C1151	C115	0.510700	0.356300	0.307200
H521	H52	0.460800	0.373400	0.305600
C1161	C116	0.478300	0.276700	0.384200
C1171	C117	0.694100	0.391800	0.241900
C1181	C118	0.042700	0.387100	0.260600
C1191	C119	0.022400	0.421200	0.214300
C1201	C120	0.949400	0.427600	0.202100
H531	H53	0.935500	0.450800	0.170600
C1211	C121	0.894000	0.400500	0.235300
C1221	C122	0.916400	0.366600	0.280900
H541	H54	0.879800	0.348200	0.304000
C1231	C123	0.989500	0.359300	0.293200
H551	H55	0.003700	0.335000	0.324200
C1241	C124	0.124900	0.384200	0.273560
C1251	C125	0.814400	0.412000	0.223400
N131	N13	0.764400	0.378400	0.253100
N141	N14	0.798100	0.454800	0.183540
N151	N15	0.671100	0.435900	0.202420
O291	O29	0.577350	0.666430	0.997840
O301	O30	0.696680	0.693920	0.984190
O311	O31	0.409330	0.290200	0.376510
O321	O32	0.502880	0.240450	0.420760
O331	O33	0.142370	0.346400	0.313810
O341	O34	0.168660	0.416160	0.245060
O351	O35	0.814000	0.823400	0.822300
Zn51	Zn5	0.662940	0.750180	0.924590
H561	H56	0.557000	0.577000	0.066400
H571	H57	0.624000	0.247000	0.380400
H581	H58	0.576000	0.499000	0.132000
H591	H59	0.060000	0.440000	0.187000
H601	H60	0.693000	0.294000	0.318000
C1261	C126	0.333600	0.390100	0.551200
C1271	C127	0.226900	0.187400	0.359200
C1281	C128	0.387800	0.430000	0.576590
C1291	C129	0.368800	0.477100	0.616420
C1301	C130	0.294100	0.485000	0.630900
C1311	C131	0.240100	0.443300	0.606000
H611	H61	0.189700	0.446800	0.616500
C1321	C132	0.259400	0.396900	0.566100
H621	H62	0.222100	0.369400	0.548700
C1331	C133	0.354900	0.339000	0.508290
C1341	C134	0.274000	0.534400	0.674900
C1351	C135	0.468400	0.695900	0.844830
C1361	C136	0.395400	0.719900	0.847000
C1371	C137	0.344200	0.691600	0.813100
C1381	C138	0.363600	0.640300	0.775500
C1391	C139	0.437000	0.617100	0.772400
H631	H63	0.451500	0.582900	0.746400
C1401	C140	0.489300	0.643700	0.807200
H641	H64	0.539200	0.626600	0.805600
C1411	C141	0.521700	0.723300	0.884200
C1421	C142	0.305900	0.608200	0.741900
C1431	C143	0.957300	0.612900	0.760600
C1441	C144	0.977600	0.578800	0.714300
C1451	C145	0.050600	0.572400	0.702100
H651	H65	0.064500	0.549200	0.670600
C1461	C146	0.106000	0.599500	0.735300
C1471	C147	0.083600	0.633400	0.780900
H661	H66	0.120200	0.651800	0.804000
C1481	C148	0.010500	0.640700	0.793200
H671	H67	0.996300	0.665000	0.824200
C1491	C149	0.875100	0.615800	0.773560
C1501	C150	0.185600	0.588000	0.723400
N161	N16	0.235600	0.621600	0.753100
N171	N17	0.201900	0.545200	0.683540
N181	N18	0.328900	0.564100	0.702420
O361	O36	0.422650	0.333570	0.497840
O371	O37	0.303320	0.306080	0.484190
O381	O38	0.590670	0.709800	0.876510
O391	O39	0.497120	0.759550	0.920760
O401	O40	0.857630	0.653600	0.813810
O411	O41	0.831340	0.583840	0.745060
O421	O42	0.186000	0.176600	0.322300
Zn61	Zn6	0.337060	0.249820	0.424590
H681	H68	0.443000	0.423000	0.566400
H691	H69	0.376000	0.753000	0.880400
H701	H70	0.424000	0.501000	0.632000
H711	H71	0.940000	0.560000	0.687000
H721	H72	0.307000	0.706000	0.818000
C1511	C151	0.609900	0.333600	0.801200
C1521	C152	0.812600	0.226900	0.609200
C1531	C153	0.570000	0.387800	0.826590
C1541	C154	0.522900	0.368800	0.866420
C1551	C155	0.515000	0.294100	0.880900
C1561	C156	0.556700	0.240100	0.856000
H731	H73	0.553200	0.189700	0.866500
C1571	C157	0.603100	0.259400	0.816100
H741	H74	0.630600	0.222100	0.798700
C1581	C158	0.661000	0.354900	0.758290
C1591	C159	0.465600	0.274000	0.924900
C1601	C160	0.304100	0.468400	0.094830
C1611	C161	0.280100	0.395400	0.097000
C1621	C162	0.308400	0.344200	0.063100
C1631	C163	0.359700	0.363600	0.025500
C1641	C164	0.382900	0.437000	0.022400
H751	H75	0.417100	0.451500	0.996400
C1651	C165	0.356300	0.489300	0.057200
H761	H76	0.373400	0.539200	0.055600
C1661	C166	0.276700	0.521700	0.134200
C1671	C167	0.391800	0.305900	0.991900
C1681	C168	0.387100	0.957300	0.010600
C1691	C169	0.421200	0.977600	0.964300
C1701	C170	0.427600	0.050600	0.952100
H771	H77	0.450800	0.064500	0.920600
C1711	C171	0.400500	0.106000	0.985300
C1721	C172	0.366600	0.083600	0.030900
H781	H78	0.348200	0.120200	0.054000
C1731	C173	0.359300	0.010500	0.043200
H791	H79	0.335000	0.996300	0.074200
C1741	C174	0.384200	0.875100	0.023560
C1751	C175	0.412000	0.185600	0.973400
N191	N19	0.378400	0.235600	0.003100
N201	N20	0.454800	0.201900	0.933540
N211	N21	0.435900	0.328900	0.952420
O431	O43	0.666430	0.422650	0.747840
O441	O44	0.693920	0.303320	0.734190
O451	O45	0.290200	0.590670	0.126510
O461	O46	0.240450	0.497120	0.170760
O471	O47	0.346400	0.857630	0.063810
O481	O48	0.416160	0.831340	0.995060
O491	O49	0.823400	0.186000	0.572300
Zn71	Zn7	0.750180	0.337060	0.674590
H801	H80	0.577000	0.443000	0.816400
H811	H81	0.247000	0.376000	0.130400
H821	H82	0.499000	0.424000	0.882000
H831	H83	0.440000	0.940000	0.937000
H841	H84	0.294000	0.307000	0.068000
C1761	C176	0.390100	0.666400	0.301200
C1771	C177	0.187400	0.773100	0.109200
C1781	C178	0.430000	0.612200	0.326590
C1791	C179	0.477100	0.631200	0.366420
C1801	C180	0.485000	0.705900	0.380900
C1811	C181	0.443300	0.759900	0.356000
H851	H85	0.446800	0.810300	0.366500
C1821	C182	0.396900	0.740600	0.316100
H861	H86	0.369400	0.777900	0.298700
C1831	C183	0.339000	0.645100	0.258290
C1841	C184	0.534400	0.726000	0.424900
C1851	C185	0.695900	0.531600	0.594830
C1861	C186	0.719900	0.604600	0.597000
C1871	C187	0.691600	0.655800	0.563100
C1881	C188	0.640300	0.636400	0.525500
C1891	C189	0.617100	0.563000	0.522400
H871	H87	0.582900	0.548500	0.496400
C1901	C190	0.643700	0.510700	0.557200
H881	H88	0.626600	0.460800	0.555600
C1911	C191	0.723300	0.478300	0.634200
C1921	C192	0.608200	0.694100	0.491900
C1931	C193	0.612900	0.042700	0.510600
C1941	C194	0.578800	0.022400	0.464300
C1951	C195	0.572400	0.949400	0.452100
H891	H89	0.549200	0.935500	0.420600
C1961	C196	0.599500	0.894000	0.485300
C1971	C197	0.633400	0.916400	0.530900
H901	H90	0.651800	0.879800	0.554000
C1981	C198	0.640700	0.989500	0.543200
H911	H91	0.665000	0.003700	0.574200
C1991	C199	0.615800	0.124900	0.523560
C2001	C200	0.588000	0.814400	0.473400
N221	N22	0.621600	0.764400	0.503100
N231	N23	0.545200	0.798100	0.433540
N241	N24	0.564100	0.671100	0.452420
O501	O50	0.333570	0.577350	0.247840
O511	O51	0.306080	0.696680	0.234190
O521	O52	0.709800	0.409330	0.626510
O531	O53	0.759550	0.502880	0.670760
O541	O54	0.653600	0.142370	0.563810
O551	O55	0.583840	0.168660	0.495060
O561	O56	0.176600	0.814000	0.072300
Zn81	Zn8	0.249820	0.662940	0.174590
H921	H92	0.423000	0.557000	0.316400
H931	H93	0.753000	0.624000	0.630400
H941	H94	0.501000	0.576000	0.382000
H951	H95	0.560000	0.060000	0.437000
H961	H96	0.706000	0.693000	0.568000
O571	O57	0.251490	0.748510	0.125000
O581	O58	0.748510	0.251490	0.625000
O591	O59	0.251490	0.251490	0.375000
O601	O60	0.748510	0.748510	0.875000
Zn91	Zn9	0.500000	0.751940	0.000000
Zn101	Zn10	0.500000	0.248060	0.500000
Zn111	Zn11	0.248060	0.500000	0.250000
Zn121	Zn12	0.751940	0.500000	0.750000
