data_PIDMEV01_freeONLY_PM
_symmetry_space_group_name_H-M	'P1'
_cell_length_a	14.811200
_cell_length_b	14.811200
_cell_length_c	16.558900
_cell_angle_alpha	102.826000
_cell_angle_beta	102.826000
_cell_angle_gamma	115.994000
_symmetry_Int_Tables_number 1

loop_
_symmetry_equiv_pos_as_xyz
'x,y,z'

loop_
_atom_site_label
_atom_site_type_symbol
_atom_site_fract_x
_atom_site_fract_y
_atom_site_fract_z
Zn11	Zn1	0.047220	0.434380	0.936190
Zn21	Zn2	0.565620	0.952780	0.563810
Zn31	Zn3	0.952780	0.565620	0.063810
Zn41	Zn4	0.434380	0.047220	0.436190
Zn51	Zn5	0.829300	0.170700	0.750000
Zn61	Zn6	0.170700	0.829300	0.250000
H11	H1	0.995200	0.045000	0.835900
H21	H2	0.091900	0.959700	0.849000
H31	H3	0.365500	0.242900	0.920400
H41	H4	0.266600	0.326400	0.904600
H51	H5	0.627700	0.105300	0.913000
H61	H6	0.492500	0.077300	0.971100
H71	H7	0.305100	0.060900	0.745600
H81	H8	0.438000	0.085800	0.687300
H91	H9	0.122900	0.836300	0.033900
H101	H10	0.206300	0.997300	0.011900
H111	H11	0.299300	0.861900	0.834300
H121	H12	0.222200	0.704400	0.861700
H131	H13	0.322200	0.592600	0.157800
H141	H14	0.279700	0.654900	0.111900
H151	H15	0.423300	0.667300	0.085100
H161	H16	0.365400	0.541400	0.041900
H171	H17	0.323100	0.604300	0.995900
H181	H18	0.955000	0.004800	0.664100
H191	H19	0.040300	0.908100	0.651000
H201	H20	0.757100	0.634500	0.579600
H211	H21	0.673600	0.733400	0.595400
H221	H22	0.894700	0.372300	0.587000
H231	H23	0.922700	0.507500	0.528900
H241	H24	0.939100	0.694900	0.754400
H251	H25	0.914200	0.562000	0.812700
H261	H26	0.163700	0.877100	0.466100
H271	H27	0.002700	0.793700	0.488100
H281	H28	0.138100	0.700700	0.665700
H291	H29	0.295600	0.777800	0.638300
H301	H30	0.407400	0.677800	0.342200
H311	H31	0.345100	0.720300	0.388100
H321	H32	0.332700	0.576700	0.414900
H331	H33	0.458600	0.634600	0.458100
H341	H34	0.395700	0.676900	0.504100
H351	H35	0.004800	0.955000	0.164100
H361	H36	0.908100	0.040300	0.151000
H371	H37	0.634500	0.757100	0.079600
H381	H38	0.733400	0.673600	0.095400
H391	H39	0.372300	0.894700	0.087000
H401	H40	0.507500	0.922700	0.028900
H411	H41	0.694900	0.939100	0.254400
H421	H42	0.562000	0.914200	0.312700
H431	H43	0.877100	0.163700	0.966100
H441	H44	0.793700	0.002700	0.988100
H451	H45	0.700700	0.138100	0.165700
H461	H46	0.777800	0.295600	0.138300
H471	H47	0.677800	0.407400	0.842200
H481	H48	0.720300	0.345100	0.888100
H491	H49	0.576700	0.332700	0.914900
H501	H50	0.634600	0.458600	0.958100
H511	H51	0.676900	0.395700	0.004100
H521	H52	0.045000	0.995200	0.335900
H531	H53	0.959700	0.091900	0.349000
H541	H54	0.242900	0.365500	0.420400
H551	H55	0.326400	0.266600	0.404600
H561	H56	0.105300	0.627700	0.413000
H571	H57	0.077300	0.492500	0.471100
H581	H58	0.060900	0.305100	0.245600
H591	H59	0.085800	0.438000	0.187300
H601	H60	0.836300	0.122900	0.533900
H611	H61	0.997300	0.206300	0.511900
H621	H62	0.861900	0.299300	0.334300
H631	H63	0.704400	0.222200	0.361700
H641	H64	0.592600	0.322200	0.657800
H651	H65	0.654900	0.279700	0.611900
H661	H66	0.667300	0.423300	0.585100
H671	H67	0.541400	0.365400	0.541900
H681	H68	0.604300	0.323100	0.495900
C11	C1	0.054380	0.247020	0.861900
C21	C2	0.120640	0.194960	0.869600
C31	C3	0.069780	0.084820	0.852900
C41	C4	0.127700	0.033500	0.861100
C51	C5	0.239900	0.091900	0.887600
C61	C6	0.290990	0.202810	0.903500
C71	C7	0.231630	0.252970	0.894200
C81	C8	0.631570	0.110230	0.754400
C91	C9	0.546090	0.096910	0.793800
C101	C10	0.562640	0.095360	0.879100
C111	C11	0.481460	0.078740	0.914000
C121	C12	0.384710	0.064490	0.863900
C131	C13	0.369270	0.068530	0.778900
C141	C14	0.449030	0.083970	0.744300
C151	C15	0.106800	0.649600	0.962500
C161	C16	0.162000	0.752800	0.948900
C171	C17	0.158500	0.841500	0.993900
C181	C18	0.207260	0.937740	0.980100
C191	C19	0.258210	0.944790	0.917700
C201	C20	0.263850	0.857150	0.874400
C211	C21	0.216900	0.762300	0.890400
C221	C22	0.286000	0.591200	0.100600
C231	C23	0.354900	0.601900	0.052000
C241	C24	0.752980	0.945620	0.638100
C251	C25	0.805040	0.879360	0.630400
C261	C26	0.915180	0.930220	0.647100
C271	C27	0.966500	0.872300	0.638900
C281	C28	0.908100	0.760100	0.612400
C291	C29	0.797190	0.709010	0.596500
C301	C30	0.747030	0.768370	0.605800
C311	C31	0.889770	0.368430	0.745600
C321	C32	0.903090	0.453910	0.706200
C331	C33	0.904640	0.437360	0.620900
C341	C34	0.921260	0.518540	0.586000
C351	C35	0.935510	0.615290	0.636100
C361	C36	0.931470	0.630730	0.721100
C371	C37	0.916030	0.550970	0.755700
C381	C38	0.350400	0.893200	0.537500
C391	C39	0.247200	0.838000	0.551100
C401	C40	0.158500	0.841500	0.506100
C411	C41	0.062260	0.792740	0.519900
C421	C42	0.055210	0.741790	0.582300
C431	C43	0.142850	0.736150	0.625600
C441	C44	0.237700	0.783100	0.609600
C451	C45	0.408800	0.714000	0.399400
C461	C46	0.398100	0.645100	0.448000
C471	C47	0.945620	0.752980	0.138100
C481	C48	0.879360	0.805040	0.130400
C491	C49	0.930220	0.915180	0.147100
C501	C50	0.872300	0.966500	0.138900
C511	C51	0.760100	0.908100	0.112400
C521	C52	0.709010	0.797190	0.096500
C531	C53	0.768370	0.747030	0.105800
C541	C54	0.368430	0.889770	0.245600
C551	C55	0.453910	0.903090	0.206200
C561	C56	0.437360	0.904640	0.120900
C571	C57	0.518540	0.921260	0.086000
C581	C58	0.615290	0.935510	0.136100
C591	C59	0.630730	0.931470	0.221100
C601	C60	0.550970	0.916030	0.255700
C611	C61	0.893200	0.350400	0.037500
C621	C62	0.838000	0.247200	0.051100
C631	C63	0.841500	0.158500	0.006100
C641	C64	0.792740	0.062260	0.019900
C651	C65	0.741790	0.055210	0.082300
C661	C66	0.736150	0.142850	0.125600
C671	C67	0.783100	0.237700	0.109600
C681	C68	0.714000	0.408800	0.899400
C691	C69	0.645100	0.398100	0.948000
C701	C70	0.247020	0.054380	0.361900
C711	C71	0.194960	0.120640	0.369600
C721	C72	0.084820	0.069780	0.352900
C731	C73	0.033500	0.127700	0.361100
C741	C74	0.091900	0.239900	0.387600
C751	C75	0.202810	0.290990	0.403500
C761	C76	0.252970	0.231630	0.394200
C771	C77	0.110230	0.631570	0.254400
C781	C78	0.096910	0.546090	0.293800
C791	C79	0.095360	0.562640	0.379100
C801	C80	0.078740	0.481460	0.414000
C811	C81	0.064490	0.384710	0.363900
C821	C82	0.068530	0.369270	0.278900
C831	C83	0.083970	0.449030	0.244300
C841	C84	0.649600	0.106800	0.462500
C851	C85	0.752800	0.162000	0.448900
C861	C86	0.841500	0.158500	0.493900
C871	C87	0.937740	0.207260	0.480100
C881	C88	0.944790	0.258210	0.417700
C891	C89	0.857150	0.263850	0.374400
C901	C90	0.762300	0.216900	0.390400
C911	C91	0.591200	0.286000	0.600600
C921	C92	0.601900	0.354900	0.552000
N11	N1	0.300300	0.041100	0.898600
N21	N2	0.958900	0.699700	0.601400
N31	N3	0.699700	0.958900	0.101400
N41	N4	0.041100	0.300300	0.398600
O11	O1	0.954460	0.187740	0.839400
O21	O2	0.102580	0.348220	0.880000
O31	O3	0.722350	0.138050	0.806500
O41	O4	0.609940	0.094460	0.672900
O51	O5	0.047200	0.642200	0.007100
O61	O6	0.120200	0.575000	0.926200
O71	O7	0.175900	0.496500	0.063300
O81	O8	0.812260	0.045540	0.660600
O91	O9	0.651780	0.897420	0.620000
O101	O10	0.861950	0.277650	0.693500
O111	O11	0.905540	0.390060	0.827100
O121	O12	0.357800	0.952800	0.492900
O131	O13	0.425000	0.879800	0.573800
O141	O14	0.503500	0.824100	0.436700
O151	O15	0.045540	0.812260	0.160600
O161	O16	0.897420	0.651780	0.120000
O171	O17	0.277650	0.861950	0.193500
O181	O18	0.390060	0.905540	0.327100
O191	O19	0.952800	0.357800	0.992900
O201	O20	0.879800	0.425000	0.073800
O211	O21	0.824100	0.503500	0.936700
O221	O22	0.187740	0.954460	0.339400
O231	O23	0.348220	0.102580	0.380000
O241	O24	0.138050	0.722350	0.306500
O251	O25	0.094460	0.609940	0.172900
O261	O26	0.642200	0.047200	0.507100
O271	O27	0.575000	0.120200	0.426200
O281	O28	0.496500	0.175900	0.563300
