data_PIDMEV_freeONLY_PM
_symmetry_space_group_name_H-M	'P1'
_cell_length_a	14.791700
_cell_length_b	14.791700
_cell_length_c	16.817100
_cell_angle_alpha	102.257000
_cell_angle_beta	102.257000
_cell_angle_gamma	115.741000
_symmetry_Int_Tables_number 1

loop_
_symmetry_equiv_pos_as_xyz
'x,y,z'

loop_
_atom_site_label
_atom_site_type_symbol
_atom_site_fract_x
_atom_site_fract_y
_atom_site_fract_z
Zn11	Zn1	0.541280	0.930960	0.931090
Zn21	Zn2	0.069040	0.458720	0.568910
Zn31	Zn3	0.458720	0.069040	0.068910
Zn41	Zn4	0.930960	0.541280	0.431090
Zn51	Zn5	0.329080	0.670920	0.750000
Zn61	Zn6	0.670920	0.329080	0.250000
H11	H1	0.494000	0.544600	0.835100
H21	H2	0.589500	0.459300	0.848300
H31	H3	0.862000	0.737800	0.917100
H41	H4	0.762300	0.822500	0.901100
H51	H5	0.125500	0.608100	0.911200
H61	H6	0.990400	0.576400	0.968000
H71	H7	0.803800	0.556000	0.745800
H81	H8	0.937300	0.582500	0.688900
H91	H9	0.623300	0.334700	0.033700
H101	H10	0.705200	0.494200	0.009800
H111	H11	0.799500	0.360900	0.835400
H121	H12	0.722400	0.203600	0.863800
H131	H13	0.455400	0.506000	0.664900
H141	H14	0.540700	0.410500	0.651700
H151	H15	0.262200	0.138000	0.582900
H161	H16	0.177500	0.237700	0.598900
H171	H17	0.391900	0.874500	0.588800
H181	H18	0.423600	0.009600	0.532000
H191	H19	0.444000	0.196200	0.754200
H201	H20	0.417500	0.062700	0.811100
H211	H21	0.665300	0.376700	0.466300
H221	H22	0.505800	0.294800	0.490200
H231	H23	0.639100	0.200500	0.664600
H241	H24	0.796400	0.277600	0.636200
H251	H25	0.506000	0.455400	0.164900
H261	H26	0.410500	0.540700	0.151700
H271	H27	0.138000	0.262200	0.082900
H281	H28	0.237700	0.177500	0.098900
H291	H29	0.874500	0.391900	0.088800
H301	H30	0.009600	0.423600	0.032000
H311	H31	0.196200	0.444000	0.254200
H321	H32	0.062700	0.417500	0.311100
H331	H33	0.376700	0.665300	0.966300
H341	H34	0.294800	0.505800	0.990200
H351	H35	0.200500	0.639100	0.164600
H361	H36	0.277600	0.796400	0.136200
H371	H37	0.544600	0.494000	0.335100
H381	H38	0.459300	0.589500	0.348300
H391	H39	0.737800	0.862000	0.417100
H401	H40	0.822500	0.762300	0.401100
H411	H41	0.608100	0.125500	0.411200
H421	H42	0.576400	0.990400	0.468000
H431	H43	0.556000	0.803800	0.245800
H441	H44	0.582500	0.937300	0.188900
H451	H45	0.334700	0.623300	0.533700
H461	H46	0.494200	0.705200	0.509800
H471	H47	0.360900	0.799500	0.335400
H481	H48	0.203600	0.722400	0.363800
C11	C1	0.552710	0.746090	0.861200
C21	C2	0.618150	0.692850	0.868100
C31	C3	0.568080	0.583720	0.851900
C41	C4	0.625110	0.532690	0.859900
C51	C5	0.736240	0.588760	0.885300
C61	C6	0.787910	0.698690	0.900700
C71	C7	0.727880	0.749520	0.891400
C81	C8	0.130590	0.609810	0.754600
C91	C9	0.045220	0.596580	0.793800
C101	C10	0.060050	0.595950	0.877400
C111	C11	0.979600	0.577800	0.911900
C121	C12	0.882540	0.561660	0.862400
C131	C13	0.868030	0.564970	0.778900
C141	C14	0.948130	0.581470	0.745200
C151	C15	0.606100	0.148300	0.963500
C161	C16	0.660600	0.251600	0.949000
C171	C17	0.657780	0.339420	0.993300
C181	C18	0.705800	0.434800	0.978300
C191	C19	0.754930	0.441870	0.916200
C201	C20	0.762940	0.355460	0.874500
C211	C21	0.716370	0.261230	0.891300
C221	C22	0.253910	0.447290	0.638800
C231	C23	0.307150	0.381850	0.631900
C241	C24	0.416280	0.431920	0.648100
C251	C25	0.467310	0.374890	0.640100
C261	C26	0.411240	0.263760	0.614700
C271	C27	0.301310	0.212090	0.599300
C281	C28	0.250480	0.272120	0.608600
C291	C29	0.390190	0.869410	0.745400
C301	C30	0.403420	0.954780	0.706200
C311	C31	0.404050	0.939950	0.622600
C321	C32	0.422200	0.020400	0.588100
C331	C33	0.438340	0.117460	0.637600
C341	C34	0.435030	0.131970	0.721100
C351	C35	0.418530	0.051870	0.754800
C361	C36	0.851700	0.393900	0.536500
C371	C37	0.748400	0.339400	0.551000
C381	C38	0.660580	0.342220	0.506700
C391	C39	0.565200	0.294200	0.521700
C401	C40	0.558130	0.245070	0.583800
C411	C41	0.644540	0.237060	0.625500
C421	C42	0.738770	0.283630	0.608700
C431	C43	0.447290	0.253910	0.138800
C441	C44	0.381850	0.307150	0.131900
C451	C45	0.431920	0.416280	0.148100
C461	C46	0.374890	0.467310	0.140100
C471	C47	0.263760	0.411240	0.114700
C481	C48	0.212090	0.301310	0.099300
C491	C49	0.272120	0.250480	0.108600
C501	C50	0.869410	0.390190	0.245400
C511	C51	0.954780	0.403420	0.206200
C521	C52	0.939950	0.404050	0.122600
C531	C53	0.020400	0.422200	0.088100
C541	C54	0.117460	0.438340	0.137600
C551	C55	0.131970	0.435030	0.221100
C561	C56	0.051870	0.418530	0.254800
C571	C57	0.393900	0.851700	0.036500
C581	C58	0.339400	0.748400	0.051000
C591	C59	0.342220	0.660580	0.006700
C601	C60	0.294200	0.565200	0.021700
C611	C61	0.245070	0.558130	0.083800
C621	C62	0.237060	0.644540	0.125500
C631	C63	0.283630	0.738770	0.108700
C641	C64	0.746090	0.552710	0.361200
C651	C65	0.692850	0.618150	0.368100
C661	C66	0.583720	0.568080	0.351900
C671	C67	0.532690	0.625110	0.359900
C681	C68	0.588760	0.736240	0.385300
C691	C69	0.698690	0.787910	0.400700
C701	C70	0.749520	0.727880	0.391400
C711	C71	0.609810	0.130590	0.254600
C721	C72	0.596580	0.045220	0.293800
C731	C73	0.595950	0.060050	0.377400
C741	C74	0.577800	0.979600	0.411900
C751	C75	0.561660	0.882540	0.362400
C761	C76	0.564970	0.868030	0.278900
C771	C77	0.581470	0.948130	0.245200
C781	C78	0.148300	0.606100	0.463500
C791	C79	0.251600	0.660600	0.449000
C801	C80	0.339420	0.657780	0.493300
C811	C81	0.434800	0.705800	0.478300
C821	C82	0.441870	0.754930	0.416200
C831	C83	0.355460	0.762940	0.374500
C841	C84	0.261230	0.716370	0.391300
N11	N1	0.797140	0.537460	0.896400
N21	N2	0.462540	0.202860	0.603600
N31	N3	0.202860	0.462540	0.103600
N41	N4	0.537460	0.797140	0.396400
O11	O1	0.452900	0.687500	0.837400
O21	O2	0.600560	0.846640	0.881900
O31	O3	0.220970	0.638430	0.805300
O41	O4	0.110260	0.595140	0.675300
O51	O5	0.548130	0.140870	0.008400
O61	O6	0.616800	0.073200	0.925800
O71	O7	0.312500	0.547100	0.662600
O81	O8	0.153360	0.399440	0.618100
O91	O9	0.361570	0.779030	0.694700
O101	O10	0.404860	0.889740	0.824700
O111	O11	0.859130	0.451870	0.491600
O121	O12	0.926800	0.383200	0.574200
O131	O13	0.547100	0.312500	0.162600
O141	O14	0.399440	0.153360	0.118100
O151	O15	0.779030	0.361570	0.194700
O161	O16	0.889740	0.404860	0.324700
O171	O17	0.451870	0.859130	0.991600
O181	O18	0.383200	0.926800	0.074200
O191	O19	0.687500	0.452900	0.337400
O201	O20	0.846640	0.600560	0.381900
O211	O21	0.638430	0.220970	0.305300
O221	O22	0.595140	0.110260	0.175300
O231	O23	0.140870	0.548130	0.508400
O241	O24	0.073200	0.616800	0.425800
