data_PIGHIX_freeONLY_PM
_symmetry_space_group_name_H-M	'P1'
_cell_length_a	19.094900
_cell_length_b	22.766700
_cell_length_c	13.395200
_cell_angle_alpha	90.000000
_cell_angle_beta	113.185000
_cell_angle_gamma	90.000000
_symmetry_Int_Tables_number 1

loop_
_symmetry_equiv_pos_as_xyz
'x,y,z'

loop_
_atom_site_label
_atom_site_type_symbol
_atom_site_fract_x
_atom_site_fract_y
_atom_site_fract_z
Cu11	Cu1	0.495850	0.763350	0.556960
N11	N1	0.467400	0.677550	0.544900
N21	N2	0.405140	0.767130	0.415900
N31	N3	0.574360	0.935340	0.804500
O11	O1	0.511420	0.847940	0.565200
O21	O2	0.620550	0.847190	0.540700
O31	O3	0.579060	0.746210	0.693700
O41	O4	0.579670	0.811690	0.818500
C11	C1	0.501100	0.633650	0.611100
H11	H1	0.541700	0.642000	0.677500
C21	C2	0.478700	0.575700	0.585900
H21	H2	0.503300	0.545600	0.635300
C31	C3	0.421300	0.562500	0.490100
H31	H3	0.406000	0.523300	0.473100
C41	C4	0.384700	0.607300	0.416500
C51	C5	0.324000	0.599700	0.313400
H41	H4	0.305800	0.561500	0.291100
C61	C6	0.292100	0.644300	0.247400
H51	H5	0.252600	0.636900	0.179600
C71	C7	0.316700	0.703800	0.277400
C81	C8	0.286200	0.753900	0.214400
H61	H6	0.246800	0.749900	0.145300
C91	C9	0.313300	0.808000	0.252700
H71	H7	0.291800	0.841700	0.211400
C101	C10	0.373500	0.813100	0.354200
H81	H8	0.392300	0.850800	0.379800
C111	C11	0.376800	0.713000	0.378900
C121	C12	0.410100	0.664930	0.448600
C131	C13	0.649100	0.933750	0.861300
H91	H9	0.673700	0.897200	0.878700
C141	C14	0.692000	0.984900	0.896000
H101	H10	0.744800	0.982300	0.936800
C151	C15	0.658500	0.038200	0.871400
H111	H11	0.687500	0.072500	0.895300
C161	C16	0.580100	0.041720	0.809900
C171	C17	0.537900	0.095800	0.778800
H121	H12	0.563700	0.131800	0.799000
C181	C18	0.540400	0.988720	0.779500
C191	C19	0.567800	0.872880	0.552200
C201	C20	0.565700	0.937780	0.547200
H131	H13	0.612200	0.958300	0.572900
C211	C21	0.501700	0.968520	0.508500
H141	H14	0.455500	0.948200	0.490800
C221	C22	0.605500	0.768060	0.786800
C231	C23	0.673600	0.739140	0.867400
H151	H15	0.687100	0.701700	0.851000
C241	C24	0.716300	0.763310	0.961000
H161	H16	0.701800	0.800300	0.977700
Cu21	Cu2	0.995850	0.263350	0.556960
N41	N4	0.967400	0.177550	0.544900
N51	N5	0.905140	0.267130	0.415900
N61	N6	0.074360	0.435340	0.804500
O51	O5	0.011420	0.347940	0.565200
O61	O6	0.120550	0.347190	0.540700
O71	O7	0.079060	0.246210	0.693700
O81	O8	0.079670	0.311690	0.818500
C251	C25	0.001100	0.133650	0.611100
H171	H17	0.041700	0.142000	0.677500
C261	C26	0.978700	0.075700	0.585900
H181	H18	0.003300	0.045600	0.635300
C271	C27	0.921300	0.062500	0.490100
H191	H19	0.906000	0.023300	0.473100
C281	C28	0.884700	0.107300	0.416500
C291	C29	0.824000	0.099700	0.313400
H201	H20	0.805800	0.061500	0.291100
C301	C30	0.792100	0.144300	0.247400
H211	H21	0.752600	0.136900	0.179600
C311	C31	0.816700	0.203800	0.277400
C321	C32	0.786200	0.253900	0.214400
H221	H22	0.746800	0.249900	0.145300
C331	C33	0.813300	0.308000	0.252700
H231	H23	0.791800	0.341700	0.211400
C341	C34	0.873500	0.313100	0.354200
H241	H24	0.892300	0.350800	0.379800
C351	C35	0.876800	0.213000	0.378900
C361	C36	0.910100	0.164930	0.448600
C371	C37	0.149100	0.433750	0.861300
H251	H25	0.173700	0.397200	0.878700
C381	C38	0.192000	0.484900	0.896000
H261	H26	0.244800	0.482300	0.936800
C391	C39	0.158500	0.538200	0.871400
H271	H27	0.187500	0.572500	0.895300
C401	C40	0.080100	0.541720	0.809900
C411	C41	0.037900	0.595800	0.778800
H281	H28	0.063700	0.631800	0.799000
C421	C42	0.040400	0.488720	0.779500
C431	C43	0.067800	0.372880	0.552200
C441	C44	0.065700	0.437780	0.547200
H291	H29	0.112200	0.458300	0.572900
C451	C45	0.001700	0.468520	0.508500
H301	H30	0.955500	0.448200	0.490800
C461	C46	0.105500	0.268060	0.786800
C471	C47	0.173600	0.239140	0.867400
H311	H31	0.187100	0.201700	0.851000
C481	C48	0.216300	0.263310	0.961000
H321	H32	0.201800	0.300300	0.977700
Cu31	Cu3	0.504150	0.763350	0.943040
N71	N7	0.532600	0.677550	0.955100
N81	N8	0.594860	0.767130	0.084100
N91	N9	0.425640	0.935340	0.695500
O91	O9	0.488580	0.847940	0.934800
O101	O10	0.379450	0.847190	0.959300
O111	O11	0.420940	0.746210	0.806300
O121	O12	0.420330	0.811690	0.681500
C491	C49	0.498900	0.633650	0.888900
H331	H33	0.458300	0.642000	0.822500
C501	C50	0.521300	0.575700	0.914100
H341	H34	0.496700	0.545600	0.864700
C511	C51	0.578700	0.562500	0.009900
H351	H35	0.594000	0.523300	0.026900
C521	C52	0.615300	0.607300	0.083500
C531	C53	0.676000	0.599700	0.186600
H361	H36	0.694200	0.561500	0.208900
C541	C54	0.707900	0.644300	0.252600
H371	H37	0.747400	0.636900	0.320400
C551	C55	0.683300	0.703800	0.222600
C561	C56	0.713800	0.753900	0.285600
H381	H38	0.753200	0.749900	0.354700
C571	C57	0.686700	0.808000	0.247300
H391	H39	0.708200	0.841700	0.288600
C581	C58	0.626500	0.813100	0.145800
H401	H40	0.607700	0.850800	0.120200
C591	C59	0.623200	0.713000	0.121100
C601	C60	0.589900	0.664930	0.051400
C611	C61	0.350900	0.933750	0.638700
H411	H41	0.326300	0.897200	0.621300
C621	C62	0.308000	0.984900	0.604000
H421	H42	0.255200	0.982300	0.563200
C631	C63	0.341500	0.038200	0.628600
H431	H43	0.312500	0.072500	0.604700
C641	C64	0.419900	0.041720	0.690100
C651	C65	0.462100	0.095800	0.721200
H441	H44	0.436300	0.131800	0.701000
C661	C66	0.459600	0.988720	0.720500
C671	C67	0.432200	0.872880	0.947800
C681	C68	0.434300	0.937780	0.952800
H451	H45	0.387800	0.958300	0.927100
C691	C69	0.498300	0.968520	0.991500
H461	H46	0.544500	0.948200	0.009200
C701	C70	0.394500	0.768060	0.713200
C711	C71	0.326400	0.739140	0.632600
H471	H47	0.312900	0.701700	0.649000
C721	C72	0.283700	0.763310	0.539000
H481	H48	0.298200	0.800300	0.522300
Cu41	Cu4	0.004150	0.263350	0.943040
N101	N10	0.032600	0.177550	0.955100
N111	N11	0.094860	0.267130	0.084100
N121	N12	0.925640	0.435340	0.695500
O131	O13	0.988580	0.347940	0.934800
O141	O14	0.879450	0.347190	0.959300
O151	O15	0.920940	0.246210	0.806300
O161	O16	0.920330	0.311690	0.681500
C731	C73	0.998900	0.133650	0.888900
H491	H49	0.958300	0.142000	0.822500
C741	C74	0.021300	0.075700	0.914100
H501	H50	0.996700	0.045600	0.864700
C751	C75	0.078700	0.062500	0.009900
H511	H51	0.094000	0.023300	0.026900
C761	C76	0.115300	0.107300	0.083500
C771	C77	0.176000	0.099700	0.186600
H521	H52	0.194200	0.061500	0.208900
C781	C78	0.207900	0.144300	0.252600
H531	H53	0.247400	0.136900	0.320400
C791	C79	0.183300	0.203800	0.222600
C801	C80	0.213800	0.253900	0.285600
H541	H54	0.253200	0.249900	0.354700
C811	C81	0.186700	0.308000	0.247300
H551	H55	0.208200	0.341700	0.288600
C821	C82	0.126500	0.313100	0.145800
H561	H56	0.107700	0.350800	0.120200
C831	C83	0.123200	0.213000	0.121100
C841	C84	0.089900	0.164930	0.051400
C851	C85	0.850900	0.433750	0.638700
H571	H57	0.826300	0.397200	0.621300
C861	C86	0.808000	0.484900	0.604000
H581	H58	0.755200	0.482300	0.563200
C871	C87	0.841500	0.538200	0.628600
H591	H59	0.812500	0.572500	0.604700
C881	C88	0.919900	0.541720	0.690100
C891	C89	0.962100	0.595800	0.721200
H601	H60	0.936300	0.631800	0.701000
C901	C90	0.959600	0.488720	0.720500
C911	C91	0.932200	0.372880	0.947800
C921	C92	0.934300	0.437780	0.952800
H611	H61	0.887800	0.458300	0.927100
C931	C93	0.998300	0.468520	0.991500
H621	H62	0.044500	0.448200	0.009200
C941	C94	0.894500	0.268060	0.713200
C951	C95	0.826400	0.239140	0.632600
H631	H63	0.812900	0.201700	0.649000
C961	C96	0.783700	0.263310	0.539000
H641	H64	0.798200	0.300300	0.522300
Cu51	Cu5	0.504150	0.236650	0.443040
N131	N13	0.532600	0.322450	0.455100
N141	N14	0.594860	0.232870	0.584100
N151	N15	0.425640	0.064660	0.195500
O171	O17	0.488580	0.152060	0.434800
O181	O18	0.379450	0.152810	0.459300
O191	O19	0.420940	0.253790	0.306300
O201	O20	0.420330	0.188310	0.181500
C971	C97	0.498900	0.366350	0.388900
H651	H65	0.458300	0.358000	0.322500
C981	C98	0.521300	0.424300	0.414100
H661	H66	0.496700	0.454400	0.364700
C991	C99	0.578700	0.437500	0.509900
H671	H67	0.594000	0.476700	0.526900
C1001	C100	0.615300	0.392700	0.583500
C1011	C101	0.676000	0.400300	0.686600
H681	H68	0.694200	0.438500	0.708900
C1021	C102	0.707900	0.355700	0.752600
H691	H69	0.747400	0.363100	0.820400
C1031	C103	0.683300	0.296200	0.722600
C1041	C104	0.713800	0.246100	0.785600
H701	H70	0.753200	0.250100	0.854700
C1051	C105	0.686700	0.192000	0.747300
H711	H71	0.708200	0.158300	0.788600
C1061	C106	0.626500	0.186900	0.645800
H721	H72	0.607700	0.149200	0.620200
C1071	C107	0.623200	0.287000	0.621100
C1081	C108	0.589900	0.335070	0.551400
C1091	C109	0.350900	0.066250	0.138700
H731	H73	0.326300	0.102800	0.121300
C1101	C110	0.308000	0.015100	0.104000
H741	H74	0.255200	0.017700	0.063200
C1111	C111	0.341500	0.961800	0.128600
H751	H75	0.312500	0.927500	0.104700
C1121	C112	0.419900	0.958280	0.190100
C1131	C113	0.462100	0.904200	0.221200
H761	H76	0.436300	0.868200	0.201000
C1141	C114	0.459600	0.011280	0.220500
C1151	C115	0.432200	0.127120	0.447800
C1161	C116	0.434300	0.062220	0.452800
H771	H77	0.387800	0.041700	0.427100
C1171	C117	0.498300	0.031480	0.491500
H781	H78	0.544500	0.051800	0.509200
C1181	C118	0.394500	0.231940	0.213200
C1191	C119	0.326400	0.260860	0.132600
H791	H79	0.312900	0.298300	0.149000
C1201	C120	0.283700	0.236690	0.039000
H801	H80	0.298200	0.199700	0.022300
Cu61	Cu6	0.004150	0.736650	0.443040
N161	N16	0.032600	0.822450	0.455100
N171	N17	0.094860	0.732870	0.584100
N181	N18	0.925640	0.564660	0.195500
O211	O21	0.988580	0.652060	0.434800
O221	O22	0.879450	0.652810	0.459300
O231	O23	0.920940	0.753790	0.306300
O241	O24	0.920330	0.688310	0.181500
C1211	C121	0.998900	0.866350	0.388900
H811	H81	0.958300	0.858000	0.322500
C1221	C122	0.021300	0.924300	0.414100
H821	H82	0.996700	0.954400	0.364700
C1231	C123	0.078700	0.937500	0.509900
H831	H83	0.094000	0.976700	0.526900
C1241	C124	0.115300	0.892700	0.583500
C1251	C125	0.176000	0.900300	0.686600
H841	H84	0.194200	0.938500	0.708900
C1261	C126	0.207900	0.855700	0.752600
H851	H85	0.247400	0.863100	0.820400
C1271	C127	0.183300	0.796200	0.722600
C1281	C128	0.213800	0.746100	0.785600
H861	H86	0.253200	0.750100	0.854700
C1291	C129	0.186700	0.692000	0.747300
H871	H87	0.208200	0.658300	0.788600
C1301	C130	0.126500	0.686900	0.645800
H881	H88	0.107700	0.649200	0.620200
C1311	C131	0.123200	0.787000	0.621100
C1321	C132	0.089900	0.835070	0.551400
C1331	C133	0.850900	0.566250	0.138700
H891	H89	0.826300	0.602800	0.121300
C1341	C134	0.808000	0.515100	0.104000
H901	H90	0.755200	0.517700	0.063200
C1351	C135	0.841500	0.461800	0.128600
H911	H91	0.812500	0.427500	0.104700
C1361	C136	0.919900	0.458280	0.190100
C1371	C137	0.962100	0.404200	0.221200
H921	H92	0.936300	0.368200	0.201000
C1381	C138	0.959600	0.511280	0.220500
C1391	C139	0.932200	0.627120	0.447800
C1401	C140	0.934300	0.562220	0.452800
H931	H93	0.887800	0.541700	0.427100
C1411	C141	0.998300	0.531480	0.491500
H941	H94	0.044500	0.551800	0.509200
C1421	C142	0.894500	0.731940	0.213200
C1431	C143	0.826400	0.760860	0.132600
H951	H95	0.812900	0.798300	0.149000
C1441	C144	0.783700	0.736690	0.039000
H961	H96	0.798200	0.699700	0.022300
Cu71	Cu7	0.495850	0.236650	0.056960
N191	N19	0.467400	0.322450	0.044900
N201	N20	0.405140	0.232870	0.915900
N211	N21	0.574360	0.064660	0.304500
O251	O25	0.511420	0.152060	0.065200
O261	O26	0.620550	0.152810	0.040700
O271	O27	0.579060	0.253790	0.193700
O281	O28	0.579670	0.188310	0.318500
C1451	C145	0.501100	0.366350	0.111100
H971	H97	0.541700	0.358000	0.177500
C1461	C146	0.478700	0.424300	0.085900
H981	H98	0.503300	0.454400	0.135300
C1471	C147	0.421300	0.437500	0.990100
H991	H99	0.406000	0.476700	0.973100
C1481	C148	0.384700	0.392700	0.916500
C1491	C149	0.324000	0.400300	0.813400
H1001	H100	0.305800	0.438500	0.791100
C1501	C150	0.292100	0.355700	0.747400
H1011	H101	0.252600	0.363100	0.679600
C1511	C151	0.316700	0.296200	0.777400
C1521	C152	0.286200	0.246100	0.714400
H1021	H102	0.246800	0.250100	0.645300
C1531	C153	0.313300	0.192000	0.752700
H1031	H103	0.291800	0.158300	0.711400
C1541	C154	0.373500	0.186900	0.854200
H1041	H104	0.392300	0.149200	0.879800
C1551	C155	0.376800	0.287000	0.878900
C1561	C156	0.410100	0.335070	0.948600
C1571	C157	0.649100	0.066250	0.361300
H1051	H105	0.673700	0.102800	0.378700
C1581	C158	0.692000	0.015100	0.396000
H1061	H106	0.744800	0.017700	0.436800
C1591	C159	0.658500	0.961800	0.371400
H1071	H107	0.687500	0.927500	0.395300
C1601	C160	0.580100	0.958280	0.309900
C1611	C161	0.537900	0.904200	0.278800
H1081	H108	0.563700	0.868200	0.299000
C1621	C162	0.540400	0.011280	0.279500
C1631	C163	0.567800	0.127120	0.052200
C1641	C164	0.565700	0.062220	0.047200
H1091	H109	0.612200	0.041700	0.072900
C1651	C165	0.501700	0.031480	0.008500
H1101	H110	0.455500	0.051800	0.990800
C1661	C166	0.605500	0.231940	0.286800
C1671	C167	0.673600	0.260860	0.367400
H1111	H111	0.687100	0.298300	0.351000
C1681	C168	0.716300	0.236690	0.461000
H1121	H112	0.701800	0.199700	0.477700
Cu81	Cu8	0.995850	0.736650	0.056960
N221	N22	0.967400	0.822450	0.044900
N231	N23	0.905140	0.732870	0.915900
N241	N24	0.074360	0.564660	0.304500
O291	O29	0.011420	0.652060	0.065200
O301	O30	0.120550	0.652810	0.040700
O311	O31	0.079060	0.753790	0.193700
O321	O32	0.079670	0.688310	0.318500
C1691	C169	0.001100	0.866350	0.111100
H1131	H113	0.041700	0.858000	0.177500
C1701	C170	0.978700	0.924300	0.085900
H1141	H114	0.003300	0.954400	0.135300
C1711	C171	0.921300	0.937500	0.990100
H1151	H115	0.906000	0.976700	0.973100
C1721	C172	0.884700	0.892700	0.916500
C1731	C173	0.824000	0.900300	0.813400
H1161	H116	0.805800	0.938500	0.791100
C1741	C174	0.792100	0.855700	0.747400
H1171	H117	0.752600	0.863100	0.679600
C1751	C175	0.816700	0.796200	0.777400
C1761	C176	0.786200	0.746100	0.714400
H1181	H118	0.746800	0.750100	0.645300
C1771	C177	0.813300	0.692000	0.752700
H1191	H119	0.791800	0.658300	0.711400
C1781	C178	0.873500	0.686900	0.854200
H1201	H120	0.892300	0.649200	0.879800
C1791	C179	0.876800	0.787000	0.878900
C1801	C180	0.910100	0.835070	0.948600
C1811	C181	0.149100	0.566250	0.361300
H1211	H121	0.173700	0.602800	0.378700
C1821	C182	0.192000	0.515100	0.396000
H1221	H122	0.244800	0.517700	0.436800
C1831	C183	0.158500	0.461800	0.371400
H1231	H123	0.187500	0.427500	0.395300
C1841	C184	0.080100	0.458280	0.309900
C1851	C185	0.037900	0.404200	0.278800
H1241	H124	0.063700	0.368200	0.299000
C1861	C186	0.040400	0.511280	0.279500
C1871	C187	0.067800	0.627120	0.052200
C1881	C188	0.065700	0.562220	0.047200
H1251	H125	0.112200	0.541700	0.072900
C1891	C189	0.001700	0.531480	0.008500
H1261	H126	0.955500	0.551800	0.990800
C1901	C190	0.105500	0.731940	0.286800
C1911	C191	0.173600	0.760860	0.367400
H1271	H127	0.187100	0.798300	0.351000
C1921	C192	0.216300	0.736690	0.461000
H1281	H128	0.201800	0.699700	0.477700
Cu91	Cu9	0.500000	0.868740	0.750000
Cu101	Cu10	0.000000	0.368740	0.750000
Cu111	Cu11	0.500000	0.131260	0.250000
Cu121	Cu12	0.000000	0.631260	0.250000
