data_PIGXAF_freeONLY_PM
_symmetry_space_group_name_H-M	'P1'
_cell_length_a	16.037100
_cell_length_b	16.037100
_cell_length_c	16.037100
_cell_angle_alpha	109.471000
_cell_angle_beta	109.471000
_cell_angle_gamma	109.471000
_symmetry_Int_Tables_number 1

loop_
_symmetry_equiv_pos_as_xyz
'x,y,z'

loop_
_atom_site_label
_atom_site_type_symbol
_atom_site_fract_x
_atom_site_fract_y
_atom_site_fract_z
Cd11	Cd1	0.375000	0.625000	0.750000
Cd21	Cd2	0.125000	0.875000	0.250000
Cd31	Cd3	0.750000	0.125000	0.375000
Cd41	Cd4	0.250000	0.375000	0.125000
Cd51	Cd5	0.625000	0.250000	0.875000
Cd61	Cd6	0.875000	0.750000	0.625000
Cd71	Cd7	0.167600	0.417600	0.750000
Cd81	Cd8	0.332400	0.082400	0.250000
Cd91	Cd9	0.750000	0.332400	0.582400
Cd101	Cd10	0.250000	0.167600	0.917600
Cd111	Cd11	0.417600	0.250000	0.667600
Cd121	Cd12	0.082400	0.750000	0.832400
Cd131	Cd13	0.917600	0.667600	0.250000
Cd141	Cd14	0.582400	0.832400	0.750000
Cd151	Cd15	0.667600	0.750000	0.417600
Cd161	Cd16	0.832400	0.250000	0.082400
Cd171	Cd17	0.250000	0.582400	0.332400
Cd181	Cd18	0.750000	0.917600	0.167600
C11	C1	0.348100	0.405300	0.710800
C21	C2	0.442500	0.456200	0.703300
C31	C3	0.194500	0.637300	0.789200
C41	C4	0.252900	0.739200	0.796700
C51	C5	0.305500	0.094700	0.442800
C61	C6	0.247100	0.043800	0.486300
C71	C7	0.151900	0.862700	0.057200
C81	C8	0.057500	0.760800	0.013700
C91	C9	0.942800	0.305500	0.594700
C101	C10	0.986300	0.247100	0.543800
C111	C11	0.557200	0.151900	0.362700
C121	C12	0.513700	0.057500	0.260800
C131	C13	0.210800	0.348100	0.905300
C141	C14	0.203300	0.442500	0.956200
C151	C15	0.289200	0.194500	0.137300
C161	C16	0.296700	0.252900	0.239200
C171	C17	0.637300	0.289200	0.694500
C181	C18	0.739200	0.296700	0.752900
C191	C19	0.405300	0.210800	0.848100
C201	C20	0.456200	0.203300	0.942500
C211	C21	0.862700	0.557200	0.651900
C221	C22	0.760800	0.513700	0.557500
C231	C23	0.094700	0.942800	0.805500
C241	C24	0.043800	0.986300	0.747100
C251	C25	0.137300	0.694500	0.289200
C261	C26	0.239200	0.752900	0.296700
C271	C27	0.905300	0.848100	0.210800
C281	C28	0.956200	0.942500	0.203300
C291	C29	0.362700	0.651900	0.557200
C301	C30	0.260800	0.557500	0.513700
C311	C31	0.594700	0.805500	0.942800
C321	C32	0.543800	0.747100	0.986300
C331	C33	0.848100	0.710800	0.405300
C341	C34	0.942500	0.703300	0.456200
C351	C35	0.694500	0.789200	0.637300
C361	C36	0.752900	0.796700	0.739200
C371	C37	0.805500	0.442800	0.094700
C381	C38	0.747100	0.486300	0.043800
C391	C39	0.651900	0.057200	0.862700
C401	C40	0.557500	0.013700	0.760800
C411	C41	0.442800	0.594700	0.305500
C421	C42	0.486300	0.543800	0.247100
C431	C43	0.057200	0.362700	0.151900
C441	C44	0.013700	0.260800	0.057500
C451	C45	0.710800	0.905300	0.348100
C461	C46	0.703300	0.956200	0.442500
C471	C47	0.789200	0.137300	0.194500
C481	C48	0.796700	0.239200	0.252900
O11	O1	0.307900	0.458500	0.733000
O21	O2	0.471100	0.545600	0.719100
O31	O3	0.484000	0.404100	0.681100
O41	O4	0.315200	0.314500	0.691500
O51	O5	0.225500	0.574900	0.767000
O61	O6	0.326500	0.752000	0.780900
O71	O7	0.223000	0.802900	0.818900
O81	O8	0.123000	0.623700	0.808500
O91	O9	0.274500	0.041500	0.349400
O101	O10	0.173500	0.954400	0.425500
O111	O11	0.277000	0.095900	0.579900
O121	O12	0.377000	0.185500	0.500700
O131	O13	0.192100	0.925100	0.150600
O141	O14	0.028900	0.748000	0.074500
O151	O15	0.016000	0.697100	0.920100
O161	O16	0.184800	0.876300	0.999300
O171	O17	0.849400	0.274500	0.541500
O181	O18	0.925500	0.173500	0.454400
O191	O19	0.079900	0.277000	0.595900
O201	O20	0.000700	0.377000	0.685500
O211	O21	0.650600	0.192100	0.425100
O221	O22	0.574500	0.028900	0.248000
O231	O23	0.420100	0.016000	0.197100
O241	O24	0.499300	0.184800	0.376300
O251	O25	0.233000	0.307900	0.958500
O261	O26	0.219100	0.471100	0.045600
O271	O27	0.181100	0.484000	0.904100
O281	O28	0.191500	0.315200	0.814500
O291	O29	0.267000	0.225500	0.074900
O301	O30	0.280900	0.326500	0.252000
O311	O31	0.318900	0.223000	0.302900
O321	O32	0.308500	0.123000	0.123700
O331	O33	0.574900	0.267000	0.725500
O341	O34	0.752000	0.280900	0.826500
O351	O35	0.802900	0.318900	0.723000
O361	O36	0.623700	0.308500	0.623000
O371	O37	0.458500	0.233000	0.807900
O381	O38	0.545600	0.219100	0.971100
O391	O39	0.404100	0.181100	0.984000
O401	O40	0.314500	0.191500	0.815200
O411	O41	0.925100	0.650600	0.692100
O421	O42	0.748000	0.574500	0.528900
O431	O43	0.697100	0.420100	0.516000
O441	O44	0.876300	0.499300	0.684800
O451	O45	0.041500	0.849400	0.774500
O461	O46	0.954400	0.925500	0.673500
O471	O47	0.095900	0.079900	0.777000
O481	O48	0.185500	0.000700	0.877000
O491	O49	0.074900	0.725500	0.267000
O501	O50	0.252000	0.826500	0.280900
O511	O51	0.302900	0.723000	0.318900
O521	O52	0.123700	0.623000	0.308500
O531	O53	0.958500	0.807900	0.233000
O541	O54	0.045600	0.971100	0.219100
O551	O55	0.904100	0.984000	0.181100
O561	O56	0.814500	0.815200	0.191500
O571	O57	0.425100	0.692100	0.650600
O581	O58	0.248000	0.528900	0.574500
O591	O59	0.197100	0.516000	0.420100
O601	O60	0.376300	0.684800	0.499300
O611	O61	0.541500	0.774500	0.849400
O621	O62	0.454400	0.673500	0.925500
O631	O63	0.595900	0.777000	0.079900
O641	O64	0.685500	0.877000	0.000700
O651	O65	0.807900	0.733000	0.458500
O661	O66	0.971100	0.719100	0.545600
O671	O67	0.984000	0.681100	0.404100
O681	O68	0.815200	0.691500	0.314500
O691	O69	0.725500	0.767000	0.574900
O701	O70	0.826500	0.780900	0.752000
O711	O71	0.723000	0.818900	0.802900
O721	O72	0.623000	0.808500	0.623700
O731	O73	0.774500	0.349400	0.041500
O741	O74	0.673500	0.425500	0.954400
O751	O75	0.777000	0.579900	0.095900
O761	O76	0.877000	0.500700	0.185500
O771	O77	0.692100	0.150600	0.925100
O781	O78	0.528900	0.074500	0.748000
O791	O79	0.516000	0.920100	0.697100
O801	O80	0.684800	0.999300	0.876300
O811	O81	0.349400	0.541500	0.274500
O821	O82	0.425500	0.454400	0.173500
O831	O83	0.579900	0.595900	0.277000
O841	O84	0.500700	0.685500	0.377000
O851	O85	0.150600	0.425100	0.192100
O861	O86	0.074500	0.248000	0.028900
O871	O87	0.920100	0.197100	0.016000
O881	O88	0.999300	0.376300	0.184800
O891	O89	0.733000	0.958500	0.307900
O901	O90	0.719100	0.045600	0.471100
O911	O91	0.681100	0.904100	0.484000
O921	O92	0.691500	0.814500	0.315200
O931	O93	0.767000	0.074900	0.225500
O941	O94	0.780900	0.252000	0.326500
O951	O95	0.818900	0.302900	0.223000
O961	O96	0.808500	0.123700	0.123000
