data_PIHWOU_freeONLY_PM
_symmetry_space_group_name_H-M	'P1'
_cell_length_a	16.238700
_cell_length_b	9.370800
_cell_length_c	10.500700
_cell_angle_alpha	90.000000
_cell_angle_beta	93.898000
_cell_angle_gamma	90.000000
_symmetry_Int_Tables_number 1

loop_
_symmetry_equiv_pos_as_xyz
'x,y,z'

loop_
_atom_site_label
_atom_site_type_symbol
_atom_site_fract_x
_atom_site_fract_y
_atom_site_fract_z
Zn11	Zn1	0.047480	0.429010	0.838360
Zn21	Zn2	0.414870	0.626090	0.861530
P11	P1	0.938420	0.707170	0.888430
P21	P2	0.246120	0.477250	0.881730
P31	P3	0.460480	0.613250	0.159080
O11	O1	0.840670	0.719300	0.863900
H11	H1	0.818300	0.672400	0.917800
O21	O2	0.961410	0.567600	0.829800
O31	O3	0.971090	0.836800	0.824230
O41	O4	0.960880	0.712800	0.030320
O51	O5	0.156150	0.514000	0.866700
O61	O6	0.270160	0.399600	0.005900
O71	O7	0.268520	0.374400	0.769400
H21	H2	0.226500	0.335100	0.739200
O81	O8	0.298640	0.609700	0.870700
O91	O9	0.429810	0.713200	0.254500
O101	O10	0.542530	0.549500	0.207400
O111	O11	0.464790	0.681800	0.028460
O121	O12	0.400620	0.480400	0.146600
H31	H3	0.421100	0.418500	0.103500
Zn31	Zn3	0.952520	0.929010	0.661640
Zn41	Zn4	0.585130	0.126090	0.638470
P41	P4	0.061580	0.207170	0.611570
P51	P5	0.753880	0.977250	0.618270
P61	P6	0.539520	0.113250	0.340920
O131	O13	0.159330	0.219300	0.636100
H41	H4	0.181700	0.172400	0.582200
O141	O14	0.038590	0.067600	0.670200
O151	O15	0.028910	0.336800	0.675770
O161	O16	0.039120	0.212800	0.469680
O171	O17	0.843850	0.014000	0.633300
O181	O18	0.729840	0.899600	0.494100
O191	O19	0.731480	0.874400	0.730600
H51	H5	0.773500	0.835100	0.760800
O201	O20	0.701360	0.109700	0.629300
O211	O21	0.570190	0.213200	0.245500
O221	O22	0.457470	0.049500	0.292600
O231	O23	0.535210	0.181800	0.471540
O241	O24	0.599380	0.980400	0.353400
H61	H6	0.578900	0.918500	0.396500
Zn51	Zn5	0.952520	0.570990	0.161640
Zn61	Zn6	0.585130	0.373910	0.138470
P71	P7	0.061580	0.292830	0.111570
P81	P8	0.753880	0.522750	0.118270
P91	P9	0.539520	0.386750	0.840920
O251	O25	0.159330	0.280700	0.136100
H71	H7	0.181700	0.327600	0.082200
O261	O26	0.038590	0.432400	0.170200
O271	O27	0.028910	0.163200	0.175770
O281	O28	0.039120	0.287200	0.969680
O291	O29	0.843850	0.486000	0.133300
O301	O30	0.729840	0.600400	0.994100
O311	O31	0.731480	0.625600	0.230600
H81	H8	0.773500	0.664900	0.260800
O321	O32	0.701360	0.390300	0.129300
O331	O33	0.570190	0.286800	0.745500
O341	O34	0.457470	0.450500	0.792600
O351	O35	0.535210	0.318200	0.971540
O361	O36	0.599380	0.519600	0.853400
H91	H9	0.578900	0.581500	0.896500
Zn71	Zn7	0.047480	0.070990	0.338360
Zn81	Zn8	0.414870	0.873910	0.361530
P101	P10	0.938420	0.792830	0.388430
P111	P11	0.246120	0.022750	0.381730
P121	P12	0.460480	0.886750	0.659080
O371	O37	0.840670	0.780700	0.363900
H101	H10	0.818300	0.827600	0.417800
O381	O38	0.961410	0.932400	0.329800
O391	O39	0.971090	0.663200	0.324230
O401	O40	0.960880	0.787200	0.530320
O411	O41	0.156150	0.986000	0.366700
O421	O42	0.270160	0.100400	0.505900
O431	O43	0.268520	0.125600	0.269400
H111	H11	0.226500	0.164900	0.239200
O441	O44	0.298640	0.890300	0.370700
O451	O45	0.429810	0.786800	0.754500
O461	O46	0.542530	0.950500	0.707400
O471	O47	0.464790	0.818200	0.528460
O481	O48	0.400620	0.019600	0.646600
H121	H12	0.421100	0.081500	0.603500
