data_PIJDIX_freeONLY_PM
_symmetry_space_group_name_H-M	'P1'
_cell_length_a	9.741200
_cell_length_b	13.095500
_cell_length_c	15.692200
_cell_angle_alpha	90.000000
_cell_angle_beta	95.092000
_cell_angle_gamma	90.000000
_symmetry_Int_Tables_number 1

loop_
_symmetry_equiv_pos_as_xyz
'x,y,z'

loop_
_atom_site_label
_atom_site_type_symbol
_atom_site_fract_x
_atom_site_fract_y
_atom_site_fract_z
Zn11	Zn1	0.288450	0.137520	0.250160
Zn21	Zn2	0.810710	0.029080	0.434100
Zn31	Zn3	0.597000	0.868560	0.090050
P11	P1	0.359340	0.039170	0.085590
H11	H1	0.460200	0.113000	0.113800
P21	P2	0.101950	0.112970	0.406180
H21	H2	0.170700	0.196300	0.455500
P31	P3	0.497340	0.127270	0.407270
H31	H3	0.436700	0.060500	0.445300
P41	P4	0.697070	0.879130	0.286340
H41	H4	0.562300	0.907200	0.311500
O11	O1	0.253500	0.050700	0.150290
O21	O2	0.460700	0.106700	0.314000
O31	O3	0.694100	0.767200	0.304600
O41	O4	0.130400	0.118300	0.313200
O51	O5	0.950300	0.132400	0.415900
O61	O6	0.648700	0.113100	0.430730
O71	O7	0.153700	0.014200	0.447910
O81	O8	0.809000	0.934200	0.341680
O91	O9	0.707200	0.902500	0.193540
O101	O10	0.299800	0.070400	0.997080
O111	O11	0.446700	0.228500	0.435700
O121	O12	0.417800	0.932900	0.086400
Zn41	Zn4	0.711550	0.637520	0.249840
Zn51	Zn5	0.189290	0.529080	0.065900
Zn61	Zn6	0.403000	0.368560	0.409950
P51	P5	0.640660	0.539170	0.414410
H51	H5	0.539800	0.613000	0.386200
P61	P6	0.898050	0.612970	0.093820
H61	H6	0.829300	0.696300	0.044500
P71	P7	0.502660	0.627270	0.092730
H71	H7	0.563300	0.560500	0.054700
P81	P8	0.302930	0.379130	0.213660
H81	H8	0.437700	0.407200	0.188500
O131	O13	0.746500	0.550700	0.349710
O141	O14	0.539300	0.606700	0.186000
O151	O15	0.305900	0.267200	0.195400
O161	O16	0.869600	0.618300	0.186800
O171	O17	0.049700	0.632400	0.084100
O181	O18	0.351300	0.613100	0.069270
O191	O19	0.846300	0.514200	0.052090
O201	O20	0.191000	0.434200	0.158320
O211	O21	0.292800	0.402500	0.306460
O221	O22	0.700200	0.570400	0.502920
O231	O23	0.553300	0.728500	0.064300
O241	O24	0.582200	0.432900	0.413600
Zn71	Zn7	0.711550	0.862480	0.749840
Zn81	Zn8	0.189290	0.970920	0.565900
Zn91	Zn9	0.403000	0.131440	0.909950
P91	P9	0.640660	0.960830	0.914410
H91	H9	0.539800	0.887000	0.886200
P101	P10	0.898050	0.887030	0.593820
H101	H10	0.829300	0.803700	0.544500
P111	P11	0.502660	0.872730	0.592730
H111	H11	0.563300	0.939500	0.554700
P121	P12	0.302930	0.120870	0.713660
H121	H12	0.437700	0.092800	0.688500
O251	O25	0.746500	0.949300	0.849710
O261	O26	0.539300	0.893300	0.686000
O271	O27	0.305900	0.232800	0.695400
O281	O28	0.869600	0.881700	0.686800
O291	O29	0.049700	0.867600	0.584100
O301	O30	0.351300	0.886900	0.569270
O311	O31	0.846300	0.985800	0.552090
O321	O32	0.191000	0.065800	0.658320
O331	O33	0.292800	0.097500	0.806460
O341	O34	0.700200	0.929600	0.002920
O351	O35	0.553300	0.771500	0.564300
O361	O36	0.582200	0.067100	0.913600
Zn101	Zn10	0.288450	0.362480	0.750160
Zn111	Zn11	0.810710	0.470920	0.934100
Zn121	Zn12	0.597000	0.631440	0.590050
P131	P13	0.359340	0.460830	0.585590
H131	H13	0.460200	0.387000	0.613800
P141	P14	0.101950	0.387030	0.906180
H141	H14	0.170700	0.303700	0.955500
P151	P15	0.497340	0.372730	0.907270
H151	H15	0.436700	0.439500	0.945300
P161	P16	0.697070	0.620870	0.786340
H161	H16	0.562300	0.592800	0.811500
O371	O37	0.253500	0.449300	0.650290
O381	O38	0.460700	0.393300	0.814000
O391	O39	0.694100	0.732800	0.804600
O401	O40	0.130400	0.381700	0.813200
O411	O41	0.950300	0.367600	0.915900
O421	O42	0.648700	0.386900	0.930730
O431	O43	0.153700	0.485800	0.947910
O441	O44	0.809000	0.565800	0.841680
O451	O45	0.707200	0.597500	0.693540
O461	O46	0.299800	0.429600	0.497080
O471	O47	0.446700	0.271500	0.935700
O481	O48	0.417800	0.567100	0.586400
