data_PIJJOI_freeONLY_PM
_symmetry_space_group_name_H-M	'P1'
_cell_length_a	16.204500
_cell_length_b	17.602200
_cell_length_c	17.902500
_cell_angle_alpha	90.000000
_cell_angle_beta	90.000000
_cell_angle_gamma	90.000000
_symmetry_Int_Tables_number 1

loop_
_symmetry_equiv_pos_as_xyz
'x,y,z'

loop_
_atom_site_label
_atom_site_type_symbol
_atom_site_fract_x
_atom_site_fract_y
_atom_site_fract_z
Zn11	Zn1	0.274790	0.899170	0.617030
Zn21	Zn2	0.774790	0.600830	0.382970
Zn31	Zn3	0.774790	0.399170	0.882970
Zn41	Zn4	0.274790	0.100830	0.117030
H11	H1	0.286700	0.075600	0.578500
H21	H2	0.150000	0.008600	0.195000
H31	H3	0.225200	0.852200	0.445300
H41	H4	0.321500	0.851300	0.453500
H51	H5	0.281000	0.877900	0.378400
H61	H6	0.261600	0.190000	0.510800
H71	H7	0.209300	0.178800	0.437900
H81	H8	0.305700	0.184800	0.433000
H91	H9	0.096000	0.913600	0.308700
H101	H10	0.051400	0.992200	0.317000
H111	H11	0.102700	0.959000	0.383700
H121	H12	0.409300	0.091000	0.253000
H131	H13	0.396300	0.094700	0.339700
H141	H14	0.362200	0.159800	0.288700
H151	H15	0.084000	0.739000	0.552100
H161	H16	0.989700	0.678300	0.476100
H171	H17	0.896000	0.878800	0.415300
H181	H18	0.985000	0.939200	0.496400
H191	H19	0.786700	0.424400	0.421500
H201	H20	0.650000	0.491400	0.805000
H211	H21	0.725200	0.647800	0.554700
H221	H22	0.821500	0.648700	0.546500
H231	H23	0.781000	0.622100	0.621600
H241	H24	0.761600	0.310000	0.489200
H251	H25	0.709300	0.321200	0.562100
H261	H26	0.805700	0.315200	0.567000
H271	H27	0.596000	0.586400	0.691300
H281	H28	0.551400	0.507800	0.683000
H291	H29	0.602700	0.541000	0.616300
H301	H30	0.909300	0.409000	0.747000
H311	H31	0.896300	0.405300	0.660300
H321	H32	0.862200	0.340200	0.711300
H331	H33	0.584000	0.761000	0.447900
H341	H34	0.489700	0.821700	0.523900
H351	H35	0.396000	0.621200	0.584700
H361	H36	0.485000	0.560800	0.503600
H371	H37	0.786700	0.575600	0.921500
H381	H38	0.650000	0.508600	0.305000
H391	H39	0.725200	0.352200	0.054700
H401	H40	0.821500	0.351300	0.046500
H411	H41	0.781000	0.377900	0.121600
H421	H42	0.761600	0.690000	0.989200
H431	H43	0.709300	0.678800	0.062100
H441	H44	0.805700	0.684800	0.067000
H451	H45	0.596000	0.413600	0.191300
H461	H46	0.551400	0.492200	0.183000
H471	H47	0.602700	0.459000	0.116300
H481	H48	0.909300	0.591000	0.247000
H491	H49	0.896300	0.594700	0.160300
H501	H50	0.862200	0.659800	0.211300
H511	H51	0.584000	0.239000	0.947900
H521	H52	0.489700	0.178300	0.023900
H531	H53	0.396000	0.378800	0.084700
H541	H54	0.485000	0.439200	0.003600
H551	H55	0.286700	0.924400	0.078500
H561	H56	0.150000	0.991400	0.695000
H571	H57	0.225200	0.147800	0.945300
H581	H58	0.321500	0.148700	0.953500
H591	H59	0.281000	0.122100	0.878400
H601	H60	0.261600	0.810000	0.010800
H611	H61	0.209300	0.821200	0.937900
H621	H62	0.305700	0.815200	0.933000
H631	H63	0.096000	0.086400	0.808700
H641	H64	0.051400	0.007800	0.817000
H651	H65	0.102700	0.041000	0.883700
H661	H66	0.409300	0.909000	0.753000
H671	H67	0.396300	0.905300	0.839700
H681	H68	0.362200	0.840200	0.788700
H691	H69	0.084000	0.261000	0.052100
H701	H70	0.989700	0.321700	0.976100
H711	H71	0.896000	0.121200	0.915300
H721	H72	0.985000	0.060800	0.996400
C11	C1	0.275500	0.877570	0.431790
C21	C2	0.273500	0.957400	0.459980
C31	C3	0.261130	0.024320	0.419410
C41	C4	0.266960	0.082660	0.470890
C51	C5	0.260300	0.166510	0.462370
C61	C6	0.099500	0.963400	0.330360
C71	C7	0.174920	0.002800	0.301780
C81	C8	0.243650	0.030530	0.339020
C91	C9	0.292720	0.064430	0.284140
C101	C10	0.372200	0.106200	0.292110
C111	C11	0.107520	0.885220	0.579570
C121	C12	0.044540	0.845440	0.531720
C131	C13	0.045670	0.767300	0.525260
C141	C14	0.989880	0.731060	0.478830
C151	C15	0.933310	0.850380	0.443250
C161	C16	0.987230	0.886690	0.491250
C171	C17	0.872280	0.731990	0.388170
C181	C18	0.934360	0.772370	0.436490
C191	C19	0.775500	0.622430	0.568210
C201	C20	0.773500	0.542600	0.540020
C211	C21	0.761130	0.475680	0.580590
C221	C22	0.766960	0.417340	0.529110
C231	C23	0.760300	0.333490	0.537630
C241	C24	0.599500	0.536600	0.669640
C251	C25	0.674920	0.497200	0.698220
C261	C26	0.743650	0.469470	0.660980
C271	C27	0.792720	0.435570	0.715860
C281	C28	0.872200	0.393800	0.707890
C291	C29	0.607520	0.614780	0.420430
C301	C30	0.544540	0.654560	0.468280
C311	C31	0.545670	0.732700	0.474740
C321	C32	0.489880	0.768940	0.521170
C331	C33	0.433310	0.649620	0.556750
C341	C34	0.487230	0.613310	0.508750
C351	C35	0.372280	0.768010	0.611830
C361	C36	0.434360	0.727630	0.563510
C371	C37	0.775500	0.377570	0.068210
C381	C38	0.773500	0.457400	0.040020
C391	C39	0.761130	0.524320	0.080590
C401	C40	0.766960	0.582660	0.029110
C411	C41	0.760300	0.666510	0.037630
C421	C42	0.599500	0.463400	0.169640
C431	C43	0.674920	0.502800	0.198220
C441	C44	0.743650	0.530530	0.160980
C451	C45	0.792720	0.564430	0.215860
C461	C46	0.872200	0.606200	0.207890
C471	C47	0.607520	0.385220	0.920430
C481	C48	0.544540	0.345440	0.968280
C491	C49	0.545670	0.267300	0.974740
C501	C50	0.489880	0.231060	0.021170
C511	C51	0.433310	0.350380	0.056750
C521	C52	0.487230	0.386690	0.008750
C531	C53	0.372280	0.231990	0.111830
C541	C54	0.434360	0.272370	0.063510
C551	C55	0.275500	0.122430	0.931790
C561	C56	0.273500	0.042600	0.959980
C571	C57	0.261130	0.975680	0.919410
C581	C58	0.266960	0.917340	0.970890
C591	C59	0.260300	0.833490	0.962370
C601	C60	0.099500	0.036600	0.830360
C611	C61	0.174920	0.997200	0.801780
C621	C62	0.243650	0.969470	0.839020
C631	C63	0.292720	0.935570	0.784140
C641	C64	0.372200	0.893800	0.792110
C651	C65	0.107520	0.114780	0.079570
C661	C66	0.044540	0.154560	0.031720
C671	C67	0.045670	0.232700	0.025260
C681	C68	0.989880	0.268940	0.978830
C691	C69	0.933310	0.149620	0.943250
C701	C70	0.987230	0.113310	0.991250
C711	C71	0.872280	0.268010	0.888170
C721	C72	0.934360	0.227630	0.936490
N11	N1	0.286200	0.973960	0.532430
N21	N2	0.281270	0.050560	0.537490
N31	N3	0.256020	0.057790	0.217490
N41	N4	0.184780	0.020110	0.229460
N51	N5	0.786200	0.526040	0.467570
N61	N6	0.781270	0.449440	0.462510
N71	N7	0.756020	0.442210	0.782510
N81	N8	0.684780	0.479890	0.770540
N91	N9	0.786200	0.473960	0.967570
N101	N10	0.781270	0.550560	0.962510
N111	N11	0.756020	0.557790	0.282510
N121	N12	0.684780	0.520110	0.270540
N131	N13	0.286200	0.026040	0.032430
N141	N14	0.281270	0.949440	0.037490
N151	N15	0.256020	0.942210	0.717490
N161	N16	0.184780	0.979890	0.729460
O11	O1	0.172800	0.846350	0.591990
O21	O2	0.094810	0.950850	0.601740
O31	O3	0.872170	0.660210	0.394930
O41	O4	0.825630	0.768790	0.348260
O51	O5	0.672800	0.653650	0.408010
O61	O6	0.594810	0.549150	0.398260
O71	O7	0.372170	0.839790	0.605070
O81	O8	0.325630	0.731210	0.651740
O91	O9	0.672800	0.346350	0.908010
O101	O10	0.594810	0.450850	0.898260
O111	O11	0.372170	0.160210	0.105070
O121	O12	0.325630	0.268790	0.151740
O131	O13	0.172800	0.153650	0.091990
O141	O14	0.094810	0.049150	0.101740
O151	O15	0.872170	0.339790	0.894930
O161	O16	0.825630	0.231210	0.848260
Zn51	Zn5	0.225210	0.600830	0.117030
Zn61	Zn6	0.725210	0.899170	0.882970
Zn71	Zn7	0.725210	0.100830	0.382970
Zn81	Zn8	0.225210	0.399170	0.617030
H731	H73	0.213300	0.424400	0.078500
H741	H74	0.350000	0.491400	0.695000
H751	H75	0.274800	0.647800	0.945300
H761	H76	0.178500	0.648700	0.953500
H771	H77	0.219000	0.622100	0.878400
H781	H78	0.238400	0.310000	0.010800
H791	H79	0.290700	0.321200	0.937900
H801	H80	0.194300	0.315200	0.933000
H811	H81	0.404000	0.586400	0.808700
H821	H82	0.448600	0.507800	0.817000
H831	H83	0.397300	0.541000	0.883700
H841	H84	0.090700	0.409000	0.753000
H851	H85	0.103700	0.405300	0.839700
H861	H86	0.137800	0.340200	0.788700
H871	H87	0.416000	0.761000	0.052100
H881	H88	0.510300	0.821700	0.976100
H891	H89	0.604000	0.621200	0.915300
H901	H90	0.515000	0.560800	0.996400
H911	H91	0.713300	0.075600	0.921500
H921	H92	0.850000	0.008600	0.305000
H931	H93	0.774800	0.852200	0.054700
H941	H94	0.678500	0.851300	0.046500
H951	H95	0.719000	0.877900	0.121600
H961	H96	0.738400	0.190000	0.989200
H971	H97	0.790700	0.178800	0.062100
H981	H98	0.694300	0.184800	0.067000
H991	H99	0.904000	0.913600	0.191300
H1001	H100	0.948600	0.992200	0.183000
H1011	H101	0.897300	0.959000	0.116300
H1021	H102	0.590700	0.091000	0.247000
H1031	H103	0.603700	0.094700	0.160300
H1041	H104	0.637800	0.159800	0.211300
H1051	H105	0.916000	0.739000	0.947900
H1061	H106	0.010300	0.678300	0.023900
H1071	H107	0.104000	0.878800	0.084700
H1081	H108	0.015000	0.939200	0.003600
H1091	H109	0.713300	0.924400	0.421500
H1101	H110	0.850000	0.991400	0.805000
H1111	H111	0.774800	0.147800	0.554700
H1121	H112	0.678500	0.148700	0.546500
H1131	H113	0.719000	0.122100	0.621600
H1141	H114	0.738400	0.810000	0.489200
H1151	H115	0.790700	0.821200	0.562100
H1161	H116	0.694300	0.815200	0.567000
H1171	H117	0.904000	0.086400	0.691300
H1181	H118	0.948600	0.007800	0.683000
H1191	H119	0.897300	0.041000	0.616300
H1201	H120	0.590700	0.909000	0.747000
H1211	H121	0.603700	0.905300	0.660300
H1221	H122	0.637800	0.840200	0.711300
H1231	H123	0.916000	0.261000	0.447900
H1241	H124	0.010300	0.321700	0.523900
H1251	H125	0.104000	0.121200	0.584700
H1261	H126	0.015000	0.060800	0.503600
H1271	H127	0.213300	0.575600	0.578500
H1281	H128	0.350000	0.508600	0.195000
H1291	H129	0.274800	0.352200	0.445300
H1301	H130	0.178500	0.351300	0.453500
H1311	H131	0.219000	0.377900	0.378400
H1321	H132	0.238400	0.690000	0.510800
H1331	H133	0.290700	0.678800	0.437900
H1341	H134	0.194300	0.684800	0.433000
H1351	H135	0.404000	0.413600	0.308700
H1361	H136	0.448600	0.492200	0.317000
H1371	H137	0.397300	0.459000	0.383700
H1381	H138	0.090700	0.591000	0.253000
H1391	H139	0.103700	0.594700	0.339700
H1401	H140	0.137800	0.659800	0.288700
H1411	H141	0.416000	0.239000	0.552100
H1421	H142	0.510300	0.178300	0.476100
H1431	H143	0.604000	0.378800	0.415300
H1441	H144	0.515000	0.439200	0.496400
C731	C73	0.224500	0.622430	0.931790
C741	C74	0.226500	0.542600	0.959980
C751	C75	0.238870	0.475680	0.919410
C761	C76	0.233040	0.417340	0.970890
C771	C77	0.239700	0.333490	0.962370
C781	C78	0.400500	0.536600	0.830360
C791	C79	0.325080	0.497200	0.801780
C801	C80	0.256350	0.469470	0.839020
C811	C81	0.207280	0.435570	0.784140
C821	C82	0.127800	0.393800	0.792110
C831	C83	0.392480	0.614780	0.079570
C841	C84	0.455460	0.654560	0.031720
C851	C85	0.454330	0.732700	0.025260
C861	C86	0.510120	0.768940	0.978830
C871	C87	0.566690	0.649620	0.943250
C881	C88	0.512770	0.613310	0.991250
C891	C89	0.627720	0.768010	0.888170
C901	C90	0.565640	0.727630	0.936490
C911	C91	0.724500	0.877570	0.068210
C921	C92	0.726500	0.957400	0.040020
C931	C93	0.738870	0.024320	0.080590
C941	C94	0.733040	0.082660	0.029110
C951	C95	0.739700	0.166510	0.037630
C961	C96	0.900500	0.963400	0.169640
C971	C97	0.825080	0.002800	0.198220
C981	C98	0.756350	0.030530	0.160980
C991	C99	0.707280	0.064430	0.215860
C1001	C100	0.627800	0.106200	0.207890
C1011	C101	0.892480	0.885220	0.920430
C1021	C102	0.955460	0.845440	0.968280
C1031	C103	0.954330	0.767300	0.974740
C1041	C104	0.010120	0.731060	0.021170
C1051	C105	0.066690	0.850380	0.056750
C1061	C106	0.012770	0.886690	0.008750
C1071	C107	0.127720	0.731990	0.111830
C1081	C108	0.065640	0.772370	0.063510
C1091	C109	0.724500	0.122430	0.568210
C1101	C110	0.726500	0.042600	0.540020
C1111	C111	0.738870	0.975680	0.580590
C1121	C112	0.733040	0.917340	0.529110
C1131	C113	0.739700	0.833490	0.537630
C1141	C114	0.900500	0.036600	0.669640
C1151	C115	0.825080	0.997200	0.698220
C1161	C116	0.756350	0.969470	0.660980
C1171	C117	0.707280	0.935570	0.715860
C1181	C118	0.627800	0.893800	0.707890
C1191	C119	0.892480	0.114780	0.420430
C1201	C120	0.955460	0.154560	0.468280
C1211	C121	0.954330	0.232700	0.474740
C1221	C122	0.010120	0.268940	0.521170
C1231	C123	0.066690	0.149620	0.556750
C1241	C124	0.012770	0.113310	0.508750
C1251	C125	0.127720	0.268010	0.611830
C1261	C126	0.065640	0.227630	0.563510
C1271	C127	0.224500	0.377570	0.431790
C1281	C128	0.226500	0.457400	0.459980
C1291	C129	0.238870	0.524320	0.419410
C1301	C130	0.233040	0.582660	0.470890
C1311	C131	0.239700	0.666510	0.462370
C1321	C132	0.400500	0.463400	0.330360
C1331	C133	0.325080	0.502800	0.301780
C1341	C134	0.256350	0.530530	0.339020
C1351	C135	0.207280	0.564430	0.284140
C1361	C136	0.127800	0.606200	0.292110
C1371	C137	0.392480	0.385220	0.579570
C1381	C138	0.455460	0.345440	0.531720
C1391	C139	0.454330	0.267300	0.525260
C1401	C140	0.510120	0.231060	0.478830
C1411	C141	0.566690	0.350380	0.443250
C1421	C142	0.512770	0.386690	0.491250
C1431	C143	0.627720	0.231990	0.388170
C1441	C144	0.565640	0.272370	0.436490
N171	N17	0.213800	0.526040	0.032430
N181	N18	0.218730	0.449440	0.037490
N191	N19	0.243980	0.442210	0.717490
N201	N20	0.315220	0.479890	0.729460
N211	N21	0.713800	0.973960	0.967570
N221	N22	0.718730	0.050560	0.962510
N231	N23	0.743980	0.057790	0.282510
N241	N24	0.815220	0.020110	0.270540
N251	N25	0.713800	0.026040	0.467570
N261	N26	0.718730	0.949440	0.462510
N271	N27	0.743980	0.942210	0.782510
N281	N28	0.815220	0.979890	0.770540
N291	N29	0.213800	0.473960	0.532430
N301	N30	0.218730	0.550560	0.537490
N311	N31	0.243980	0.557790	0.217490
N321	N32	0.315220	0.520110	0.229460
O171	O17	0.327200	0.653650	0.091990
O181	O18	0.405190	0.549150	0.101740
O191	O19	0.627830	0.839790	0.894930
O201	O20	0.674370	0.731210	0.848260
O211	O21	0.827200	0.846350	0.908010
O221	O22	0.905190	0.950850	0.898260
O231	O23	0.127830	0.660210	0.105070
O241	O24	0.174370	0.768790	0.151740
O251	O25	0.827200	0.153650	0.408010
O261	O26	0.905190	0.049150	0.398260
O271	O27	0.127830	0.339790	0.605070
O281	O28	0.174370	0.231210	0.651740
O291	O29	0.327200	0.346350	0.591990
O301	O30	0.405190	0.450850	0.601740
O311	O31	0.627830	0.160210	0.394930
O321	O32	0.674370	0.268790	0.348260
