data_PIYZAZ_freeONLY_PM
_symmetry_space_group_name_H-M	'P1'
_cell_length_a	8.995000
_cell_length_b	8.995000
_cell_length_c	8.995000
_cell_angle_alpha	60.000000
_cell_angle_beta	60.000000
_cell_angle_gamma	60.000000
_symmetry_Int_Tables_number 1

loop_
_symmetry_equiv_pos_as_xyz
'x,y,z'

loop_
_atom_site_label
_atom_site_type_symbol
_atom_site_fract_x
_atom_site_fract_y
_atom_site_fract_z
Cd11	Cd1	0.125000	0.625000	0.625000
Cd21	Cd2	0.875000	0.375000	0.375000
C11	C1	0.026540	0.920380	0.526540
C21	C2	0.420380	0.526540	0.526540
C31	C3	0.026540	0.526540	0.526540
C41	C4	0.026540	0.526540	0.920380
C51	C5	0.579620	0.473460	0.473460
C61	C6	0.973460	0.079620	0.473460
C71	C7	0.973460	0.473460	0.473460
C81	C8	0.973460	0.473460	0.079620
