data_PIYZED01_freeONLY_PM
_symmetry_space_group_name_H-M	'P1'
_cell_length_a	12.683000
_cell_length_b	12.683000
_cell_length_c	12.683000
_cell_angle_alpha	90.000000
_cell_angle_beta	90.000000
_cell_angle_gamma	90.000000
_symmetry_Int_Tables_number 1

loop_
_symmetry_equiv_pos_as_xyz
'x,y,z'

loop_
_atom_site_label
_atom_site_type_symbol
_atom_site_fract_x
_atom_site_fract_y
_atom_site_fract_z
Cd11	Cd1	0.625000	0.125000	0.125000
Cd21	Cd2	0.125000	0.625000	0.125000
Cd31	Cd3	0.125000	0.125000	0.625000
Cd41	Cd4	0.625000	0.625000	0.625000
Cd51	Cd5	0.875000	0.875000	0.375000
Cd61	Cd6	0.875000	0.375000	0.875000
Cd71	Cd7	0.375000	0.875000	0.875000
Cd81	Cd8	0.375000	0.375000	0.375000
C11	C1	0.723880	0.223880	0.026120
C21	C2	0.026120	0.026120	0.526120
C31	C3	0.526120	0.526120	0.526120
C41	C4	0.526120	0.723880	0.723880
C51	C5	0.223880	0.526120	0.223880
C61	C6	0.026120	0.723880	0.223880
C71	C7	0.526120	0.026120	0.026120
C81	C8	0.723880	0.526120	0.723880
C91	C9	0.223880	0.223880	0.526120
C101	C10	0.223880	0.026120	0.723880
C111	C11	0.026120	0.526120	0.026120
C121	C12	0.723880	0.723880	0.526120
C131	C13	0.526120	0.223880	0.223880
C141	C14	0.973880	0.973880	0.473880
C151	C15	0.776120	0.276120	0.973880
C161	C16	0.473880	0.776120	0.776120
C171	C17	0.276120	0.473880	0.276120
C181	C18	0.473880	0.276120	0.276120
C191	C19	0.776120	0.776120	0.473880
C201	C20	0.276120	0.973880	0.776120
C211	C21	0.973880	0.473880	0.973880
C221	C22	0.776120	0.473880	0.776120
C231	C23	0.276120	0.276120	0.473880
C241	C24	0.473880	0.973880	0.973880
C251	C25	0.473880	0.473880	0.473880
C261	C26	0.973880	0.776120	0.276120
C271	C27	0.276120	0.776120	0.973880
C281	C28	0.973880	0.276120	0.776120
C291	C29	0.776120	0.973880	0.276120
C301	C30	0.223880	0.723880	0.026120
C311	C31	0.723880	0.026120	0.223880
C321	C32	0.026120	0.223880	0.723880
