data_PIZRAT_freeONLY_PM
_symmetry_space_group_name_H-M	'P1'
_cell_length_a	13.492000
_cell_length_b	14.377000
_cell_length_c	16.191000
_cell_angle_alpha	90.000000
_cell_angle_beta	90.000000
_cell_angle_gamma	90.000000
_symmetry_Int_Tables_number 1

loop_
_symmetry_equiv_pos_as_xyz
'x,y,z'

loop_
_atom_site_label
_atom_site_type_symbol
_atom_site_fract_x
_atom_site_fract_y
_atom_site_fract_z
Cu11	Cu1	0.700600	0.206740	0.663980
Cu21	Cu2	0.929890	0.048790	0.415010
Cu31	Cu3	0.070110	0.548790	0.084990
Cu41	Cu4	0.429890	0.451210	0.584990
Cu51	Cu5	0.570110	0.951210	0.915010
Cu61	Cu6	0.799400	0.793260	0.163980
Cu71	Cu7	0.299400	0.706740	0.836020
Cu81	Cu8	0.200600	0.293260	0.336020
H11	H1	0.966300	0.766100	0.440600
H21	H2	0.436700	0.316500	0.827700
H31	H3	0.725900	0.134900	0.838500
H41	H4	0.573000	0.695500	0.537100
H51	H5	0.495400	0.140100	0.900400
H61	H6	0.936700	0.183500	0.172300
H71	H7	0.838200	0.145400	0.213400
H81	H8	0.583300	0.086100	0.425400
H91	H9	0.066200	0.425100	0.478300
H101	H10	0.384400	0.212100	0.359400
H111	H11	0.210200	0.600500	0.530200
H121	H12	0.585200	0.007500	0.251000
H131	H13	0.225900	0.365100	0.161500
H141	H14	0.051400	0.203800	0.903700
H151	H15	0.944400	0.354000	0.700800
H161	H16	0.853500	0.184800	0.003600
H171	H17	0.876400	0.045800	0.595000
H181	H18	0.854900	0.760300	0.947000
H191	H19	0.551400	0.296200	0.096300
H201	H20	0.193400	0.457200	0.770600
H211	H21	0.387300	0.613900	0.238100
H221	H22	0.444400	0.146000	0.299200
H231	H23	0.354900	0.739700	0.053000
H241	H24	0.997900	0.852800	0.970700
H251	H25	0.274100	0.634900	0.661500
H261	H26	0.448600	0.796200	0.403700
H271	H27	0.789800	0.100500	0.969800
H281	H28	0.063300	0.683500	0.327700
H291	H29	0.146500	0.684800	0.496400
H301	H30	0.492600	0.240000	0.330500
H311	H31	0.914800	0.992500	0.751000
H321	H32	0.884400	0.287900	0.640600
H331	H33	0.693400	0.042800	0.229400
H341	H34	0.376400	0.454200	0.405000
H351	H35	0.406700	0.407600	0.026000
H361	H36	0.002100	0.352800	0.529300
H371	H37	0.618900	0.902900	0.633100
H381	H38	0.338200	0.354600	0.786600
H391	H39	0.507400	0.740000	0.169500
H401	H40	0.978300	0.545100	0.290800
H411	H41	0.071600	0.207600	0.832400
H421	H42	0.645100	0.239700	0.447000
H431	H43	0.428400	0.792400	0.332400
H441	H44	0.478300	0.954900	0.709200
H451	H45	0.502100	0.147200	0.470700
H461	H46	0.353500	0.315200	0.996400
H471	H47	0.948600	0.703800	0.596300
H481	H48	0.123600	0.545800	0.905000
H491	H49	0.085200	0.492500	0.749000
H501	H50	0.927000	0.304500	0.037100
H511	H51	0.427000	0.195500	0.962900
H521	H52	0.073000	0.804500	0.462900
H531	H53	0.083300	0.413900	0.574600
H541	H54	0.055600	0.854000	0.799200
H551	H55	0.112700	0.386100	0.738100
H561	H56	0.118900	0.597100	0.366900
H571	H57	0.646500	0.815200	0.503600
H581	H58	0.774100	0.865100	0.338500
H591	H59	0.416700	0.586100	0.074600
H601	H60	0.710200	0.899500	0.469800
H611	H61	0.021700	0.045100	0.209200
H621	H62	0.615600	0.712100	0.140600
H631	H63	0.661800	0.854600	0.713400
H641	H64	0.414800	0.507500	0.249000
H651	H65	0.004600	0.859900	0.400400
H661	H66	0.992600	0.260000	0.669500
H671	H67	0.995400	0.359900	0.099600
H681	H68	0.593300	0.907600	0.474000
H691	H69	0.497900	0.647200	0.029300
H701	H70	0.161800	0.645400	0.286600
H711	H71	0.533700	0.233900	0.940600
H721	H72	0.887300	0.886100	0.761900
H731	H73	0.115600	0.787900	0.859400
H741	H74	0.433800	0.574900	0.978300
H751	H75	0.916700	0.913900	0.925400
H761	H76	0.555600	0.646000	0.200800
H771	H77	0.623600	0.954200	0.095000
H781	H78	0.571600	0.292400	0.167600
H791	H79	0.566200	0.074900	0.521700
H801	H80	0.504600	0.640100	0.599600
H811	H81	0.806600	0.957200	0.729400
H821	H82	0.306600	0.542800	0.270600
H831	H83	0.612700	0.113900	0.261900
H841	H84	0.093300	0.592400	0.526000
H851	H85	0.881100	0.097100	0.133100
H861	H86	0.033700	0.266100	0.059400
H871	H87	0.933800	0.925100	0.021700
H881	H88	0.928400	0.707600	0.667600
H891	H89	0.381100	0.402900	0.866900
H901	H90	0.563300	0.816500	0.672300
H911	H91	0.145100	0.260300	0.553000
H921	H92	0.466300	0.733900	0.559400
H931	H93	0.521700	0.454900	0.790800
H941	H94	0.906700	0.092400	0.974000
H951	H95	0.007400	0.760000	0.830500
H961	H96	0.289800	0.399500	0.030200
C11	C1	0.947500	0.665000	0.171000
C21	C2	0.949100	0.846900	0.602300
C31	C3	0.591700	0.077200	0.141800
C41	C4	0.966200	0.750300	0.635700
C51	C5	0.640800	0.826700	0.377400
C61	C6	0.144300	0.306300	0.507500
C71	C7	0.466200	0.749700	0.364300
C81	C8	0.644300	0.193700	0.492500
C91	C9	0.962400	0.875300	0.519800
C101	C10	0.623500	0.058700	0.228600
C111	C11	0.429900	0.276000	0.163900
C121	C12	0.100600	0.474900	0.244000
C131	C13	0.851600	0.134300	0.964000
C141	C14	0.067000	0.381400	0.523900
C151	C15	0.568800	0.710200	0.186000
C161	C16	0.459800	0.437900	0.761600
C171	C17	0.889300	0.240600	0.757600
C181	C18	0.408300	0.577200	0.358200
C191	C19	0.101700	0.628100	0.315700
C201	C20	0.091700	0.422800	0.858200
C211	C21	0.898300	0.128100	0.184300
C221	C22	0.148400	0.634300	0.536000
C231	C23	0.601700	0.871900	0.684300
C241	C24	0.447500	0.835000	0.829000
C251	C25	0.610700	0.759400	0.257600
C261	C26	0.389300	0.259400	0.242400
C271	C27	0.933000	0.881400	0.976100
C281	C28	0.550900	0.153100	0.102300
C291	C29	0.440800	0.806900	0.918600
C301	C30	0.929900	0.224000	0.836100
C311	C31	0.505300	0.678200	0.550200
C321	C32	0.355700	0.693700	0.007500
C331	C33	0.552500	0.335000	0.671000
C341	C34	0.070100	0.724000	0.663900
C351	C35	0.123500	0.441300	0.771400
C361	C36	0.537600	0.124700	0.019800
C371	C37	0.754700	0.851800	0.001600
C381	C38	0.648400	0.865700	0.464000
C391	C39	0.559200	0.306900	0.581400
C401	C40	0.959800	0.062100	0.238400
C411	C41	0.570100	0.776000	0.336100
C421	C42	0.908300	0.922800	0.641800
C431	C43	0.449100	0.653100	0.397700
C441	C44	0.052500	0.165000	0.329000
C451	C45	0.398300	0.371900	0.815700
C461	C46	0.245300	0.351800	0.498400
C471	C47	0.068800	0.789800	0.814000
C481	C48	0.745300	0.148200	0.501600
C491	C49	0.940800	0.693100	0.081400
C501	C50	0.254700	0.648200	0.998400
C511	C51	0.859200	0.173300	0.877400
C521	C52	0.351600	0.365700	0.036000
C531	C53	0.600600	0.025100	0.756000
C541	C54	0.399400	0.525100	0.744000
C551	C55	0.037600	0.375300	0.980200
C561	C56	0.110700	0.740600	0.742400
C571	C57	0.140800	0.673300	0.622600
C581	C58	0.376500	0.558700	0.271400
C591	C59	0.050900	0.346900	0.897700
C601	C60	0.359200	0.326700	0.122600
C611	C61	0.540200	0.937900	0.738400
C621	C62	0.005300	0.821800	0.449800
C631	C63	0.494700	0.178200	0.949800
C641	C64	0.059200	0.193100	0.418600
C651	C65	0.931200	0.289800	0.686000
C661	C66	0.033800	0.250300	0.864300
C671	C67	0.040200	0.562100	0.261600
C681	C68	0.533800	0.249700	0.135700
C691	C69	0.462400	0.624700	0.480200
C701	C70	0.567000	0.118600	0.476100
C711	C71	0.433000	0.618600	0.023900
C721	C72	0.855700	0.806300	0.992500
C731	C73	0.876500	0.941300	0.728600
C741	C74	0.431200	0.210200	0.314000
C751	C75	0.994700	0.321800	0.050200
C761	C76	0.899400	0.974900	0.256000
N11	N1	0.399800	0.509400	0.415200
N21	N2	0.483700	0.396500	0.682400
N31	N3	0.878200	0.760800	0.071100
N41	N4	0.219200	0.663100	0.674400
N51	N5	0.719200	0.836900	0.325600
N61	N6	0.100200	0.490600	0.915200
N71	N7	0.931900	0.962700	0.510600
N81	N8	0.621800	0.239200	0.571100
N91	N9	0.780800	0.163100	0.825600
N101	N10	0.068100	0.462700	0.989400
N111	N11	0.701000	0.797700	0.252300
N121	N12	0.516300	0.896500	0.817600
N131	N13	0.983700	0.103500	0.317600
N141	N14	0.280800	0.336900	0.174400
N151	N15	0.378200	0.739200	0.928900
N161	N16	0.799000	0.202300	0.752300
N171	N17	0.299000	0.297700	0.247700
N181	N18	0.899800	0.990600	0.584800
N191	N19	0.600200	0.009400	0.084800
N201	N20	0.568100	0.037300	0.010600
N211	N21	0.121800	0.260800	0.428900
N221	N22	0.016300	0.603500	0.182400
N231	N23	0.201000	0.702300	0.747700
N241	N24	0.431900	0.537300	0.489400
O11	O1	0.007000	0.151100	0.471700
O21	O2	0.372800	0.572800	0.803300
O31	O3	0.878200	0.957400	0.331000
O41	O4	0.111400	0.201700	0.276300
O51	O5	0.284600	0.351000	0.425200
O61	O6	0.781700	0.110000	0.441200
O71	O7	0.493000	0.848900	0.971700
O81	O8	0.627200	0.072800	0.696700
O91	O9	0.281700	0.390000	0.558800
O101	O10	0.215400	0.649000	0.925200
O111	O11	0.507000	0.348900	0.528300
O121	O12	0.715400	0.851000	0.074800
O131	O13	0.784600	0.149000	0.574800
O141	O14	0.121800	0.457400	0.169000
O151	O15	0.378200	0.542600	0.669000
O161	O16	0.872800	0.927200	0.196700
O171	O17	0.621800	0.042600	0.831000
O181	O18	0.218300	0.610000	0.058800
O191	O19	0.127200	0.427200	0.303300
O201	O20	0.611400	0.298300	0.723700
O211	O21	0.888600	0.701700	0.223700
O221	O22	0.718300	0.890000	0.941200
O231	O23	0.388600	0.798300	0.776300
O241	O24	0.993000	0.651100	0.028300
