data_POBYAH_charged_PM
_symmetry_space_group_name_H-M	'P1'
_cell_length_a	15.541900
_cell_length_b	15.541900
_cell_length_c	26.489300
_cell_angle_alpha	90.000000
_cell_angle_beta	90.000000
_cell_angle_gamma	90.000000
_symmetry_Int_Tables_number 1

loop_
_symmetry_equiv_pos_as_xyz
'x,y,z'

loop_
_atom_site_label
_atom_site_type_symbol
_atom_site_fract_x
_atom_site_fract_y
_atom_site_fract_z
Ni11	Ni1	0.370360	0.154990	0.252590
Ni21	Ni2	0.197800	0.155600	0.312930
Ni31	Ni3	0.346030	0.287400	0.331700
Ni41	Ni4	0.041600	0.163250	0.385720
Ni51	Ni5	0.185220	0.294770	0.398990
Ni61	Ni6	0.586030	0.328100	0.170590
Ni71	Ni7	0.629640	0.845010	0.752590
Ni81	Ni8	0.802200	0.844400	0.812930
Ni91	Ni9	0.653970	0.712600	0.831700
Ni101	Ni10	0.958400	0.836750	0.885720
Ni111	Ni11	0.814780	0.705230	0.898990
Ni121	Ni12	0.413970	0.671900	0.670590
Ni131	Ni13	0.845010	0.370360	0.002590
Ni141	Ni14	0.844400	0.197800	0.062930
Ni151	Ni15	0.712600	0.346030	0.081700
Ni161	Ni16	0.836750	0.041600	0.135720
Ni171	Ni17	0.705230	0.185220	0.148990
Ni181	Ni18	0.671900	0.586030	0.920590
Ni191	Ni19	0.154990	0.629640	0.502590
Ni201	Ni20	0.155600	0.802200	0.562930
Ni211	Ni21	0.287400	0.653970	0.581700
Ni221	Ni22	0.163250	0.958400	0.635720
Ni231	Ni23	0.294770	0.814780	0.648990
Ni241	Ni24	0.328100	0.413970	0.420590
P11	P1	0.169500	0.361080	0.281530
P21	P2	0.830500	0.638920	0.781530
P31	P3	0.638920	0.169500	0.031530
P41	P4	0.361080	0.830500	0.531530
H11	H1	0.347700	0.122800	0.347600
H21	H2	0.199800	0.128400	0.411300
H31	H3	0.340000	0.248300	0.425600
H41	H4	0.910300	0.146400	0.457100
H51	H5	0.566800	0.167900	0.411900
H61	H6	0.698300	0.145600	0.443700
H71	H7	0.805400	0.202300	0.309800
H81	H8	0.652300	0.877200	0.847600
H91	H9	0.800200	0.871600	0.911300
H101	H10	0.660000	0.751700	0.925600
H111	H11	0.089700	0.853600	0.957100
H121	H12	0.433200	0.832100	0.911900
H131	H13	0.301700	0.854400	0.943700
H141	H14	0.194600	0.797700	0.809800
H151	H15	0.877200	0.347700	0.097600
H161	H16	0.871600	0.199800	0.161300
H171	H17	0.751700	0.340000	0.175600
H181	H18	0.853600	0.910300	0.207100
H191	H19	0.832100	0.566800	0.161900
H201	H20	0.854400	0.698300	0.193700
H211	H21	0.797700	0.805400	0.059800
H221	H22	0.122800	0.652300	0.597600
H231	H23	0.128400	0.800200	0.661300
H241	H24	0.248300	0.660000	0.675600
H251	H25	0.146400	0.089700	0.707100
H261	H26	0.167900	0.433200	0.661900
H271	H27	0.145600	0.301700	0.693700
H281	H28	0.202300	0.194600	0.559800
W11	W1	0.359830	0.365170	0.206590
W21	W2	0.141050	0.518650	0.378850
W31	W3	0.018820	0.539280	0.271100
W41	W4	0.979600	0.373490	0.354520
W51	W5	0.038100	0.375950	0.169000
W61	W6	0.336980	0.513700	0.301070
W71	W7	0.216260	0.531560	0.191510
W81	W8	0.003770	0.211930	0.254230
W91	W9	0.185960	0.209780	0.180440
W101	W10	0.640170	0.634830	0.706590
W111	W11	0.858950	0.481350	0.878850
W121	W12	0.981180	0.460720	0.771100
W131	W13	0.020400	0.626510	0.854520
W141	W14	0.961900	0.624050	0.669000
W151	W15	0.663020	0.486300	0.801070
W161	W16	0.783740	0.468440	0.691510
W171	W17	0.996230	0.788070	0.754230
W181	W18	0.814040	0.790220	0.680440
W191	W19	0.634830	0.359830	0.956590
W201	W20	0.481350	0.141050	0.128850
W211	W21	0.460720	0.018820	0.021100
W221	W22	0.626510	0.979600	0.104520
W231	W23	0.624050	0.038100	0.919000
W241	W24	0.486300	0.336980	0.051070
W251	W25	0.468440	0.216260	0.941510
W261	W26	0.788070	0.003770	0.004230
W271	W27	0.790220	0.185960	0.930440
W281	W28	0.365170	0.640170	0.456590
W291	W29	0.518650	0.858950	0.628850
W301	W30	0.539280	0.981180	0.521100
W311	W31	0.373490	0.020400	0.604520
W321	W32	0.375950	0.961900	0.419000
W331	W33	0.513700	0.663020	0.551070
W341	W34	0.531560	0.783740	0.441510
W351	W35	0.211930	0.996230	0.504230
W361	W36	0.209780	0.814040	0.430440
C11	C1	0.602900	0.196200	0.340700
C21	C2	0.614600	0.174200	0.391100
C31	C3	0.692200	0.161900	0.410100
C41	C4	0.765100	0.173200	0.380100
C51	C5	0.756800	0.194700	0.329800
C61	C6	0.675000	0.204800	0.309200
C71	C7	0.514200	0.209700	0.319300
C81	C8	0.662900	0.225200	0.254200
C91	C9	0.853600	0.162600	0.402900
C101	C10	0.397100	0.803800	0.840700
C111	C11	0.385400	0.825800	0.891100
C121	C12	0.307800	0.838100	0.910100
C131	C13	0.234900	0.826800	0.880100
C141	C14	0.243200	0.805300	0.829800
C151	C15	0.325000	0.795200	0.809200
C161	C16	0.485800	0.790300	0.819300
C171	C17	0.337100	0.774800	0.754200
C181	C18	0.146400	0.837400	0.902900
C191	C19	0.803800	0.602900	0.090700
C201	C20	0.825800	0.614600	0.141100
C211	C21	0.838100	0.692200	0.160100
C221	C22	0.826800	0.765100	0.130100
C231	C23	0.805300	0.756800	0.079800
C241	C24	0.795200	0.675000	0.059200
C251	C25	0.790300	0.514200	0.069300
C261	C26	0.774800	0.662900	0.004200
C271	C27	0.837400	0.853600	0.152900
C281	C28	0.196200	0.397100	0.590700
C291	C29	0.174200	0.385400	0.641100
C301	C30	0.161900	0.307800	0.660100
C311	C31	0.173200	0.234900	0.630100
C321	C32	0.194700	0.243200	0.579800
C331	C33	0.204800	0.325000	0.559200
C341	C34	0.209700	0.485800	0.569300
C351	C35	0.225200	0.337100	0.504200
C361	C36	0.162600	0.146400	0.652900
O11	O1	0.235300	0.162900	0.236100
O21	O2	0.322700	0.161800	0.322500
O31	O3	0.364200	0.287300	0.256100
O41	O4	0.069300	0.168000	0.304400
O51	O5	0.170400	0.167500	0.387900
O61	O6	0.313900	0.291000	0.403000
O71	O7	0.353800	0.422300	0.342100
O81	O8	0.055300	0.298900	0.382600
O91	O9	0.574200	0.200300	0.150000
O101	O10	0.209500	0.296700	0.319100
O111	O11	0.490800	0.160500	0.284400
O121	O12	0.471100	0.265100	0.341400
O131	O13	0.614700	0.289400	0.242800
O141	O14	0.704500	0.177200	0.224300
O151	O15	0.916900	0.162100	0.371700
O161	O16	0.859500	0.151100	0.449300
O171	O17	0.455200	0.344800	0.174200
O181	O18	0.290000	0.576500	0.241800
O191	O19	0.110900	0.289900	0.141800
O201	O20	0.272900	0.294300	0.174500
O211	O21	0.952700	0.622200	0.254200
O221	O22	0.213100	0.139900	0.132600
O231	O23	0.072200	0.584800	0.329400
O241	O24	0.236500	0.549100	0.335500
O251	O25	0.916900	0.144600	0.251700
O261	O26	0.106400	0.421600	0.308800
O271	O27	0.075500	0.163000	0.202400
O281	O28	0.886900	0.360900	0.387900
O291	O29	0.035700	0.465800	0.396200
O301	O30	0.121700	0.564700	0.234900
O311	O31	0.408500	0.150500	0.178500
O321	O32	0.238300	0.417800	0.256700
O331	O33	0.966900	0.291000	0.197900
O341	O34	0.000300	0.455400	0.219000
O351	O35	0.308500	0.460400	0.168600
O361	O36	0.136900	0.451300	0.164900
O371	O37	0.980000	0.407800	0.117700
O381	O38	0.119500	0.311900	0.240000
O391	O39	0.411800	0.588300	0.320100
O401	O40	0.962800	0.303900	0.296900
O411	O41	0.402300	0.453100	0.249400
O421	O42	0.945100	0.473300	0.312200
O431	O43	0.216500	0.611800	0.147600
O441	O44	0.377900	0.022600	0.251000
O451	O45	0.192700	0.021400	0.311600
O461	O46	0.043800	0.028400	0.390500
O471	O47	0.023100	0.182200	0.462200
O481	O48	0.600300	0.457000	0.188200
O491	O49	0.764700	0.837100	0.736100
O501	O50	0.677300	0.838200	0.822500
O511	O51	0.635800	0.712700	0.756100
O521	O52	0.930700	0.832000	0.804400
O531	O53	0.829600	0.832500	0.887900
O541	O54	0.686100	0.709000	0.903000
O551	O55	0.646200	0.577700	0.842100
O561	O56	0.944700	0.701100	0.882600
O571	O57	0.425800	0.799700	0.650000
O581	O58	0.790500	0.703300	0.819100
O591	O59	0.509200	0.839500	0.784400
O601	O60	0.528900	0.734900	0.841400
O611	O61	0.385300	0.710600	0.742800
O621	O62	0.295500	0.822800	0.724300
O631	O63	0.083100	0.837900	0.871700
O641	O64	0.140500	0.848900	0.949300
O651	O65	0.544800	0.655200	0.674200
O661	O66	0.710000	0.423500	0.741800
O671	O67	0.889100	0.710100	0.641800
O681	O68	0.727100	0.705700	0.674500
O691	O69	0.047300	0.377800	0.754200
O701	O70	0.786900	0.860100	0.632600
O711	O71	0.927800	0.415200	0.829400
O721	O72	0.763500	0.450900	0.835500
O731	O73	0.083100	0.855400	0.751700
O741	O74	0.893600	0.578400	0.808800
O751	O75	0.924500	0.837000	0.702400
O761	O76	0.113100	0.639100	0.887900
O771	O77	0.964300	0.534200	0.896200
O781	O78	0.878300	0.435300	0.734900
O791	O79	0.591500	0.849500	0.678500
O801	O80	0.761700	0.582200	0.756700
O811	O81	0.033100	0.709000	0.697900
O821	O82	0.999700	0.544600	0.719000
O831	O83	0.691500	0.539600	0.668600
O841	O84	0.863100	0.548700	0.664900
O851	O85	0.020000	0.592200	0.617700
O861	O86	0.880500	0.688100	0.740000
O871	O87	0.588200	0.411700	0.820100
O881	O88	0.037200	0.696100	0.796900
O891	O89	0.597700	0.546900	0.749400
O901	O90	0.054900	0.526700	0.812200
O911	O91	0.783500	0.388200	0.647600
O921	O92	0.622100	0.977400	0.751000
O931	O93	0.807300	0.978600	0.811600
O941	O94	0.956200	0.971600	0.890500
O951	O95	0.976900	0.817800	0.962200
O961	O96	0.399700	0.543000	0.688200
O971	O97	0.837100	0.235300	0.986100
O981	O98	0.838200	0.322700	0.072500
O991	O99	0.712700	0.364200	0.006100
O1001	O100	0.832000	0.069300	0.054400
O1011	O101	0.832500	0.170400	0.137900
O1021	O102	0.709000	0.313900	0.153000
O1031	O103	0.577700	0.353800	0.092100
O1041	O104	0.701100	0.055300	0.132600
O1051	O105	0.799700	0.574200	0.900000
O1061	O106	0.703300	0.209500	0.069100
O1071	O107	0.839500	0.490800	0.034400
O1081	O108	0.734900	0.471100	0.091400
O1091	O109	0.710600	0.614700	0.992800
O1101	O110	0.822800	0.704500	0.974300
O1111	O111	0.837900	0.916900	0.121700
O1121	O112	0.848900	0.859500	0.199300
O1131	O113	0.655200	0.455200	0.924200
O1141	O114	0.423500	0.290000	0.991800
O1151	O115	0.710100	0.110900	0.891800
O1161	O116	0.705700	0.272900	0.924500
O1171	O117	0.377800	0.952700	0.004200
O1181	O118	0.860100	0.213100	0.882600
O1191	O119	0.415200	0.072200	0.079400
O1201	O120	0.450900	0.236500	0.085500
O1211	O121	0.855400	0.916900	0.001700
O1221	O122	0.578400	0.106400	0.058800
O1231	O123	0.837000	0.075500	0.952400
O1241	O124	0.639100	0.886900	0.137900
O1251	O125	0.534200	0.035700	0.146200
O1261	O126	0.435300	0.121700	0.984900
O1271	O127	0.849500	0.408500	0.928500
O1281	O128	0.582200	0.238300	0.006700
O1291	O129	0.709000	0.966900	0.947900
O1301	O130	0.544600	0.000300	0.969000
O1311	O131	0.539600	0.308500	0.918600
O1321	O132	0.548700	0.136900	0.914900
O1331	O133	0.592200	0.980000	0.867700
O1341	O134	0.688100	0.119500	0.990000
O1351	O135	0.411700	0.411800	0.070100
O1361	O136	0.696100	0.962800	0.046900
O1371	O137	0.546900	0.402300	0.999400
O1381	O138	0.526700	0.945100	0.062200
O1391	O139	0.388200	0.216500	0.897600
O1401	O140	0.977400	0.377900	0.001000
O1411	O141	0.978600	0.192700	0.061600
O1421	O142	0.971600	0.043800	0.140500
O1431	O143	0.817800	0.023100	0.212200
O1441	O144	0.543000	0.600300	0.938200
O1451	O145	0.162900	0.764700	0.486100
O1461	O146	0.161800	0.677300	0.572500
O1471	O147	0.287300	0.635800	0.506100
O1481	O148	0.168000	0.930700	0.554400
O1491	O149	0.167500	0.829600	0.637900
O1501	O150	0.291000	0.686100	0.653000
O1511	O151	0.422300	0.646200	0.592100
O1521	O152	0.298900	0.944700	0.632600
O1531	O153	0.200300	0.425800	0.400000
O1541	O154	0.296700	0.790500	0.569100
O1551	O155	0.160500	0.509200	0.534400
O1561	O156	0.265100	0.528900	0.591400
O1571	O157	0.289400	0.385300	0.492800
O1581	O158	0.177200	0.295500	0.474300
O1591	O159	0.162100	0.083100	0.621700
O1601	O160	0.151100	0.140500	0.699300
O1611	O161	0.344800	0.544800	0.424200
O1621	O162	0.576500	0.710000	0.491800
O1631	O163	0.289900	0.889100	0.391800
O1641	O164	0.294300	0.727100	0.424500
O1651	O165	0.622200	0.047300	0.504200
O1661	O166	0.139900	0.786900	0.382600
O1671	O167	0.584800	0.927800	0.579400
O1681	O168	0.549100	0.763500	0.585500
O1691	O169	0.144600	0.083100	0.501700
O1701	O170	0.421600	0.893600	0.558800
O1711	O171	0.163000	0.924500	0.452400
O1721	O172	0.360900	0.113100	0.637900
O1731	O173	0.465800	0.964300	0.646200
O1741	O174	0.564700	0.878300	0.484900
O1751	O175	0.150500	0.591500	0.428500
O1761	O176	0.417800	0.761700	0.506700
O1771	O177	0.291000	0.033100	0.447900
O1781	O178	0.455400	0.999700	0.469000
O1791	O179	0.460400	0.691500	0.418600
O1801	O180	0.451300	0.863100	0.414900
O1811	O181	0.407800	0.020000	0.367700
O1821	O182	0.311900	0.880500	0.490000
O1831	O183	0.588300	0.588200	0.570100
O1841	O184	0.303900	0.037200	0.546900
O1851	O185	0.453100	0.597700	0.499400
O1861	O186	0.473300	0.054900	0.562200
O1871	O187	0.611800	0.783500	0.397600
O1881	O188	0.022600	0.622100	0.501000
O1891	O189	0.021400	0.807300	0.561600
O1901	O190	0.028400	0.956200	0.640500
O1911	O191	0.182200	0.976900	0.712200
O1921	O192	0.457000	0.399700	0.438200
H291	H29	0.673500	0.021400	0.255000
H301	H30	0.605800	0.984000	0.217000
H311	H31	0.599500	0.080200	0.234400
H321	H32	0.526200	0.040900	0.307400
H331	H33	0.567100	0.863500	0.297700
H341	H34	0.479600	0.899000	0.317900
H351	H35	0.419600	0.844800	0.244500
H361	H36	0.462000	0.912400	0.215800
H371	H37	0.502800	0.828800	0.221300
H381	H38	0.680400	0.981200	0.301500
H391	H39	0.629600	0.963700	0.346400
H401	H40	0.634000	0.900400	0.306100
C371	C37	0.614300	0.022900	0.244700
C381	C38	0.557000	0.996000	0.289000
C391	C39	0.520000	0.903000	0.290300
N11	N1	0.470000	0.868000	0.236500
N21	N2	0.633000	0.956000	0.313000
H411	H41	0.326500	0.978600	0.755000
H421	H42	0.394200	0.016000	0.717000
H431	H43	0.400500	0.919800	0.734400
H441	H44	0.473800	0.959100	0.807400
H451	H45	0.432900	0.136500	0.797700
H461	H46	0.520400	0.101000	0.817900
H471	H47	0.580400	0.155200	0.744500
H481	H48	0.538000	0.087600	0.715800
H491	H49	0.497200	0.171200	0.721300
H501	H50	0.319600	0.018800	0.801500
H511	H51	0.370400	0.036300	0.846400
H521	H52	0.366000	0.099600	0.806100
C401	C40	0.385700	0.977100	0.744700
C411	C41	0.443000	0.004000	0.789000
C421	C42	0.480000	0.097000	0.790300
N31	N3	0.530000	0.132000	0.736500
N41	N4	0.367000	0.044000	0.813000
H531	H53	0.978600	0.673500	0.005000
H541	H54	0.016000	0.605800	0.967000
H551	H55	0.919800	0.599500	0.984400
H561	H56	0.959100	0.526200	0.057400
H571	H57	0.136500	0.567100	0.047700
H581	H58	0.101000	0.479600	0.067900
H591	H59	0.155200	0.419600	0.994500
H601	H60	0.087600	0.462000	0.965800
H611	H61	0.171200	0.502800	0.971300
H621	H62	0.018800	0.680400	0.051500
H631	H63	0.036300	0.629600	0.096400
H641	H64	0.099600	0.634000	0.056100
C431	C43	0.977100	0.614300	0.994700
C441	C44	0.004000	0.557000	0.039000
C451	C45	0.097000	0.520000	0.040300
N51	N5	0.132000	0.470000	0.986500
N61	N6	0.044000	0.633000	0.063000
H651	H65	0.021400	0.326500	0.505000
H661	H66	0.984000	0.394200	0.467000
H671	H67	0.080200	0.400500	0.484400
H681	H68	0.040900	0.473800	0.557400
H691	H69	0.863500	0.432900	0.547700
H701	H70	0.899000	0.520400	0.567900
H711	H71	0.844800	0.580400	0.494500
H721	H72	0.912400	0.538000	0.465800
H731	H73	0.828800	0.497200	0.471300
H741	H74	0.981200	0.319600	0.551500
H751	H75	0.963700	0.370400	0.596400
H761	H76	0.900400	0.366000	0.556100
C461	C46	0.022900	0.385700	0.494700
C471	C47	0.996000	0.443000	0.539000
C481	C48	0.903000	0.480000	0.540300
N71	N7	0.868000	0.530000	0.486500
N81	N8	0.956000	0.367000	0.563000
