data_POKTIU_freeONLY_PM
_symmetry_space_group_name_H-M	'P1'
_cell_length_a	6.061700
_cell_length_b	23.528000
_cell_length_c	13.360100
_cell_angle_alpha	90.000000
_cell_angle_beta	112.658000
_cell_angle_gamma	90.000000
_symmetry_Int_Tables_number 1

loop_
_symmetry_equiv_pos_as_xyz
'x,y,z'

loop_
_atom_site_label
_atom_site_type_symbol
_atom_site_fract_x
_atom_site_fract_y
_atom_site_fract_z
Lu11	Lu1	0.400190	0.670030	0.390330
O11	O1	0.468700	0.749690	0.309000
O21	O2	0.109100	0.599660	0.359200
H11	H1	0.083500	0.606100	0.416400
H21	H2	0.011100	0.574200	0.323300
O31	O3	0.362800	0.826690	0.204700
O41	O4	0.537200	0.625000	0.558500
H31	H3	0.582200	0.619300	0.626300
H41	H4	0.548800	0.593700	0.529200
O51	O5	0.811600	0.837240	0.931200
O61	O6	0.164300	0.793570	0.978000
O71	O7	0.504300	0.562200	0.147600
O81	O8	0.401500	0.626860	0.243100
O91	O9	0.137500	0.504800	0.228800
O101	O10	0.790500	0.471600	0.113900
N11	N1	0.021700	0.711710	0.229700
N21	N2	0.682800	0.756300	0.040000
N31	N3	0.068900	0.639400	0.005800
N41	N4	0.719800	0.559500	0.985300
C11	C1	0.326100	0.778500	0.232000
C21	C2	0.081200	0.752000	0.172700
C31	C3	0.916200	0.770100	0.072600
C41	C4	0.972800	0.804000	0.988500
C51	C5	0.625300	0.717500	0.098200
H51	H5	0.466500	0.706500	0.077200
C61	C6	0.797600	0.693100	0.189600
H61	H6	0.755000	0.663100	0.223600
C71	C7	0.358700	0.593700	0.163400
C81	C8	0.109200	0.596500	0.076600
C91	C9	0.932900	0.556400	0.067200
C101	C10	0.960300	0.507800	0.144700
C111	C11	0.677300	0.601000	0.913800
H71	H7	0.529600	0.603400	0.856200
C121	C12	0.854200	0.641100	0.924700
H81	H8	0.821600	0.670100	0.873700
Lu21	Lu2	0.599810	0.170030	0.109670
O111	O11	0.531300	0.249690	0.191000
O121	O12	0.890900	0.099660	0.140800
H91	H9	0.916500	0.106100	0.083600
H101	H10	0.988900	0.074200	0.176700
O131	O13	0.637200	0.326690	0.295300
O141	O14	0.462800	0.125000	0.941500
H111	H11	0.417800	0.119300	0.873700
H121	H12	0.451200	0.093700	0.970800
O151	O15	0.188400	0.337240	0.568800
O161	O16	0.835700	0.293570	0.522000
O171	O17	0.495700	0.062200	0.352400
O181	O18	0.598500	0.126860	0.256900
O191	O19	0.862500	0.004800	0.271200
O201	O20	0.209500	0.971600	0.386100
N51	N5	0.978300	0.211710	0.270300
N61	N6	0.317200	0.256300	0.460000
N71	N7	0.931100	0.139400	0.494200
N81	N8	0.280200	0.059500	0.514700
C131	C13	0.673900	0.278500	0.268000
C141	C14	0.918800	0.252000	0.327300
C151	C15	0.083800	0.270100	0.427400
C161	C16	0.027200	0.304000	0.511500
C171	C17	0.374700	0.217500	0.401800
H131	H13	0.533500	0.206500	0.422800
C181	C18	0.202400	0.193100	0.310400
H141	H14	0.245000	0.163100	0.276400
C191	C19	0.641300	0.093700	0.336600
C201	C20	0.890800	0.096500	0.423400
C211	C21	0.067100	0.056400	0.432800
C221	C22	0.039700	0.007800	0.355300
C231	C23	0.322700	0.101000	0.586200
H151	H15	0.470400	0.103400	0.643800
C241	C24	0.145800	0.141100	0.575300
H161	H16	0.178400	0.170100	0.626300
Lu31	Lu3	0.599810	0.329970	0.609670
O211	O21	0.531300	0.250310	0.691000
O221	O22	0.890900	0.400340	0.640800
H171	H17	0.916500	0.393900	0.583600
H181	H18	0.988900	0.425800	0.676700
O231	O23	0.637200	0.173310	0.795300
O241	O24	0.462800	0.375000	0.441500
H191	H19	0.417800	0.380700	0.373700
H201	H20	0.451200	0.406300	0.470800
O251	O25	0.188400	0.162760	0.068800
O261	O26	0.835700	0.206430	0.022000
O271	O27	0.495700	0.437800	0.852400
O281	O28	0.598500	0.373140	0.756900
O291	O29	0.862500	0.495200	0.771200
O301	O30	0.209500	0.528400	0.886100
N91	N9	0.978300	0.288290	0.770300
N101	N10	0.317200	0.243700	0.960000
N111	N11	0.931100	0.360600	0.994200
N121	N12	0.280200	0.440500	0.014700
C251	C25	0.673900	0.221500	0.768000
C261	C26	0.918800	0.248000	0.827300
C271	C27	0.083800	0.229900	0.927400
C281	C28	0.027200	0.196000	0.011500
C291	C29	0.374700	0.282500	0.901800
H211	H21	0.533500	0.293500	0.922800
C301	C30	0.202400	0.306900	0.810400
H221	H22	0.245000	0.336900	0.776400
C311	C31	0.641300	0.406300	0.836600
C321	C32	0.890800	0.403500	0.923400
C331	C33	0.067100	0.443600	0.932800
C341	C34	0.039700	0.492200	0.855300
C351	C35	0.322700	0.399000	0.086200
H231	H23	0.470400	0.396600	0.143800
C361	C36	0.145800	0.358900	0.075300
H241	H24	0.178400	0.329900	0.126300
Lu41	Lu4	0.400190	0.829970	0.890330
O311	O31	0.468700	0.750310	0.809000
O321	O32	0.109100	0.900340	0.859200
H251	H25	0.083500	0.893900	0.916400
H261	H26	0.011100	0.925800	0.823300
O331	O33	0.362800	0.673310	0.704700
O341	O34	0.537200	0.875000	0.058500
H271	H27	0.582200	0.880700	0.126300
H281	H28	0.548800	0.906300	0.029200
O351	O35	0.811600	0.662760	0.431200
O361	O36	0.164300	0.706430	0.478000
O371	O37	0.504300	0.937800	0.647600
O381	O38	0.401500	0.873140	0.743100
O391	O39	0.137500	0.995200	0.728800
O401	O40	0.790500	0.028400	0.613900
N131	N13	0.021700	0.788290	0.729700
N141	N14	0.682800	0.743700	0.540000
N151	N15	0.068900	0.860600	0.505800
N161	N16	0.719800	0.940500	0.485300
C371	C37	0.326100	0.721500	0.732000
C381	C38	0.081200	0.748000	0.672700
C391	C39	0.916200	0.729900	0.572600
C401	C40	0.972800	0.696000	0.488500
C411	C41	0.625300	0.782500	0.598200
H291	H29	0.466500	0.793500	0.577200
C421	C42	0.797600	0.806900	0.689600
H301	H30	0.755000	0.836900	0.723600
C431	C43	0.358700	0.906300	0.663400
C441	C44	0.109200	0.903500	0.576600
C451	C45	0.932900	0.943600	0.567200
C461	C46	0.960300	0.992200	0.644700
C471	C47	0.677300	0.899000	0.413800
H311	H31	0.529600	0.896600	0.356200
C481	C48	0.854200	0.858900	0.424700
H321	H32	0.821600	0.829900	0.373700
Cu11	Cu1	0.500000	0.500000	0.000000
Cu21	Cu2	0.500000	0.000000	0.500000
