data_POKVAO_freeONLY_PM
_symmetry_space_group_name_H-M	'P1'
_cell_length_a	6.040700
_cell_length_b	12.329700
_cell_length_c	23.580000
_cell_angle_alpha	90.000000
_cell_angle_beta	90.000000
_cell_angle_gamma	94.053200
_symmetry_Int_Tables_number 1

loop_
_symmetry_equiv_pos_as_xyz
'x,y,z'

loop_
_atom_site_label
_atom_site_type_symbol
_atom_site_fract_x
_atom_site_fract_y
_atom_site_fract_z
Gd11	Gd1	0.011570	0.109830	0.328610
Gd21	Gd2	0.488430	0.390170	0.828610
Gd31	Gd3	0.511570	0.609830	0.171390
Gd41	Gd4	0.988430	0.890170	0.671390
Cu11	Cu1	0.000000	0.000000	0.000000
Cu21	Cu2	0.500000	0.500000	0.500000
H11	H1	0.322000	0.356800	0.603900
H21	H2	0.546700	0.874900	0.829800
H31	H3	0.609300	0.546900	0.901100
H41	H4	0.109300	0.046900	0.598900
H51	H5	0.960800	0.890500	0.357400
H61	H6	0.390700	0.453100	0.098900
H71	H7	0.460800	0.390500	0.142600
H81	H8	0.046700	0.374900	0.670200
H91	H9	0.322000	0.684600	0.076700
H101	H10	0.822000	0.184600	0.423300
H111	H11	0.453300	0.125100	0.170200
H121	H12	0.178000	0.143200	0.103900
H131	H13	0.953300	0.625100	0.329800
H141	H14	0.468200	0.725900	0.664200
H151	H15	0.678000	0.643200	0.396100
H161	H16	0.890700	0.953100	0.401100
H171	H17	0.178000	0.815400	0.576700
H181	H18	0.891900	0.924900	0.207600
H191	H19	0.822000	0.856800	0.896100
H201	H20	0.623500	0.155900	0.397100
H211	H21	0.531800	0.274100	0.335800
H221	H22	0.123500	0.655900	0.102900
H231	H23	0.539200	0.609500	0.857400
H241	H24	0.876500	0.344100	0.897100
H251	H25	0.031800	0.774100	0.164200
H261	H26	0.678000	0.315400	0.923300
H271	H27	0.608100	0.575100	0.707600
H281	H28	0.039200	0.109500	0.642600
H291	H29	0.391900	0.424900	0.292400
H301	H30	0.376500	0.844100	0.602900
H311	H31	0.108100	0.075100	0.792400
H321	H32	0.968200	0.225900	0.835800
C11	C1	0.699200	0.833400	0.092900
C21	C2	0.433500	0.073700	0.141500
C31	C3	0.566500	0.926300	0.858500
C41	C4	0.632200	0.068800	0.944200
C51	C5	0.267200	0.084900	0.101400
C61	C6	0.965500	0.579600	0.595700
C71	C7	0.984800	0.510700	0.196900
C81	C8	0.800800	0.666600	0.592900
C91	C9	0.586400	0.172100	0.747700
C101	C10	0.465500	0.079600	0.904300
C111	C11	0.300800	0.166600	0.907100
C121	C12	0.767200	0.584900	0.398600
C131	C13	0.889700	0.190900	0.806300
C141	C14	0.732800	0.915100	0.898600
C151	C15	0.100600	0.268400	0.222000
C161	C16	0.655700	0.072200	0.729700
C171	C17	0.899400	0.731600	0.778000
C181	C18	0.132200	0.568800	0.555800
C191	C19	0.529400	0.402700	0.281400
C201	C20	0.183400	0.645100	0.508000
C211	C21	0.155700	0.572200	0.770300
C221	C22	0.470600	0.597300	0.718600
C231	C23	0.600600	0.768400	0.278000
C241	C24	0.034500	0.420400	0.404300
C251	C25	0.015200	0.489300	0.803100
C261	C26	0.389700	0.690900	0.693700
C271	C27	0.683400	0.145100	0.992000
C281	C28	0.515200	0.989300	0.696900
C291	C29	0.344300	0.927800	0.270300
C301	C30	0.199200	0.333400	0.407100
C311	C31	0.610300	0.309100	0.306300
C321	C32	0.316600	0.854900	0.008000
C331	C33	0.066500	0.426300	0.641500
C341	C34	0.029400	0.902700	0.218600
C351	C35	0.970600	0.097300	0.781400
C361	C36	0.367800	0.931200	0.055800
C371	C37	0.232800	0.415100	0.601400
C381	C38	0.086400	0.672100	0.752300
C391	C39	0.110300	0.809100	0.193700
C401	C40	0.913600	0.327900	0.247700
C411	C41	0.867800	0.431200	0.444200
C421	C42	0.933500	0.573700	0.358500
C431	C43	0.816600	0.354900	0.492000
C441	C44	0.534500	0.920400	0.095700
C451	C45	0.484800	0.010700	0.303100
C461	C46	0.399400	0.231600	0.722000
C471	C47	0.413600	0.827900	0.252300
C481	C48	0.844300	0.427800	0.229700
N11	N1	0.200800	0.729900	0.712200
N21	N2	0.853800	0.040700	0.742600
N31	N3	0.646200	0.459300	0.242600
N41	N4	0.765100	0.987200	0.940700
N51	N5	0.564500	0.991500	0.139900
N61	N6	0.299200	0.770100	0.212200
N71	N7	0.700800	0.229900	0.787800
N81	N8	0.935500	0.508500	0.639900
N91	N9	0.734900	0.512800	0.440700
N101	N10	0.064500	0.491500	0.360100
N111	N11	0.353800	0.540700	0.757400
N121	N12	0.435500	0.008500	0.860100
N131	N13	0.234900	0.012800	0.059300
N141	N14	0.799200	0.270100	0.287800
N151	N15	0.146200	0.959300	0.257400
N161	N16	0.265100	0.487200	0.559300
O11	O1	0.618600	0.930900	0.662900
O21	O2	0.408400	0.769600	0.005200
O31	O3	0.993200	0.947600	0.376800
O41	O4	0.836600	0.746500	0.625300
O51	O5	0.665600	0.795900	0.325800
O61	O6	0.834400	0.704100	0.825800
O71	O7	0.678400	0.386700	0.529000
O81	O8	0.881400	0.569100	0.162900
O91	O9	0.257400	0.639700	0.099700
O101	O10	0.834400	0.809200	0.749500
O111	O11	0.757400	0.139700	0.400300
O121	O12	0.641000	0.650500	0.561700
O131	O13	0.908400	0.269600	0.494800
O141	O14	0.690400	0.022400	0.293100
O151	O15	0.334400	0.204100	0.674200
O161	O16	0.381400	0.069100	0.337100
O171	O17	0.859000	0.849500	0.061700
O181	O18	0.242600	0.860300	0.599700
O191	O19	0.141000	0.150500	0.938300
O201	O20	0.663400	0.753500	0.125300
O211	O21	0.309600	0.977600	0.706900
O221	O22	0.359000	0.349500	0.438300
O231	O23	0.165600	0.190800	0.250500
O241	O24	0.506800	0.552400	0.876800
O251	O25	0.493200	0.447600	0.123200
O261	O26	0.321600	0.613300	0.471000
O271	O27	0.336600	0.246500	0.874700
O281	O28	0.118600	0.430900	0.837100
O291	O29	0.665600	0.690800	0.249500
O301	O30	0.591600	0.230400	0.994800
O311	O31	0.165600	0.295900	0.174200
O321	O32	0.809600	0.477600	0.793100
O331	O33	0.163400	0.253500	0.374700
O341	O34	0.178400	0.886700	0.971000
O351	O35	0.821600	0.113300	0.029000
O361	O36	0.742600	0.360300	0.900300
O371	O37	0.091600	0.730400	0.505200
O381	O38	0.006800	0.052400	0.623200
O391	O39	0.334400	0.309200	0.750500
O401	O40	0.190400	0.522400	0.206900
