data_POLBAT_freeONLY_PM
_symmetry_space_group_name_H-M	'P1'
_cell_length_a	8.787000
_cell_length_b	17.783000
_cell_length_c	9.204000
_cell_angle_alpha	90.000000
_cell_angle_beta	109.560000
_cell_angle_gamma	90.000000
_symmetry_Int_Tables_number 1

loop_
_symmetry_equiv_pos_as_xyz
'x,y,z'

loop_
_atom_site_label
_atom_site_type_symbol
_atom_site_fract_x
_atom_site_fract_y
_atom_site_fract_z
Ga11	Ga1	0.067900	0.294900	0.303600
Ga21	Ga2	0.135500	0.110000	0.165800
Ga31	Ga3	0.513500	0.329100	0.196200
P11	P1	0.341200	0.429400	0.369800
P21	P2	0.802700	0.288700	0.483100
P31	P3	0.248300	0.161300	0.508900
O11	O1	0.034900	0.209500	0.178300
O21	O2	0.194900	0.378200	0.314600
O31	O3	0.242000	0.244200	0.462000
O41	O4	0.950200	0.303200	0.439100
O51	O5	0.403300	0.146800	0.642500
O61	O6	0.458400	0.412500	0.280200
O71	O7	0.829200	0.220700	0.592600
O81	O8	0.101200	0.138400	0.555500
O91	O9	0.654000	0.269600	0.342800
O101	O10	0.244700	0.108800	0.376200
O111	O11	0.429000	0.419000	0.542600
O121	O12	0.278200	0.509200	0.335600
O131	O13	0.773200	0.359300	0.562700
H11	H1	0.921000	0.211000	0.095000
Ga41	Ga4	0.432100	0.794900	0.196400
Ga51	Ga5	0.364500	0.610000	0.334200
Ga61	Ga6	0.986500	0.829100	0.303800
P41	P4	0.158800	0.929400	0.130200
P51	P5	0.697300	0.788700	0.016900
P61	P6	0.251700	0.661300	0.991100
O141	O14	0.465100	0.709500	0.321700
O151	O15	0.305100	0.878200	0.185400
O161	O16	0.258000	0.744200	0.038000
O171	O17	0.549800	0.803200	0.060900
O181	O18	0.096700	0.646800	0.857500
O191	O19	0.041600	0.912500	0.219800
O201	O20	0.670800	0.720700	0.907400
O211	O21	0.398800	0.638400	0.944500
O221	O22	0.846000	0.769600	0.157200
O231	O23	0.255300	0.608800	0.123800
O241	O24	0.071000	0.919000	0.957400
O251	O25	0.221800	0.009200	0.164400
O261	O26	0.726800	0.859300	0.937300
H21	H2	0.579000	0.711000	0.405000
Ga71	Ga7	0.932100	0.705100	0.696400
Ga81	Ga8	0.864500	0.890000	0.834200
Ga91	Ga9	0.486500	0.670900	0.803800
P71	P7	0.658800	0.570600	0.630200
P81	P8	0.197300	0.711300	0.516900
P91	P9	0.751700	0.838700	0.491100
O271	O27	0.965100	0.790500	0.821700
O281	O28	0.805100	0.621800	0.685400
O291	O29	0.758000	0.755800	0.538000
O301	O30	0.049800	0.696800	0.560900
O311	O31	0.596700	0.853200	0.357500
O321	O32	0.541600	0.587500	0.719800
O331	O33	0.170800	0.779300	0.407400
O341	O34	0.898800	0.861600	0.444500
O351	O35	0.346000	0.730400	0.657200
O361	O36	0.755300	0.891200	0.623800
O371	O37	0.571000	0.581000	0.457400
O381	O38	0.721800	0.490800	0.664400
O391	O39	0.226800	0.640700	0.437300
H31	H3	0.079000	0.789000	0.905000
Ga101	Ga10	0.567900	0.205100	0.803600
Ga111	Ga11	0.635500	0.390000	0.665800
Ga121	Ga12	0.013500	0.170900	0.696200
P101	P10	0.841200	0.070600	0.869800
P111	P11	0.302700	0.211300	0.983100
P121	P12	0.748300	0.338700	0.008900
O401	O40	0.534900	0.290500	0.678300
O411	O41	0.694900	0.121800	0.814600
O421	O42	0.742000	0.255800	0.962000
O431	O43	0.450200	0.196800	0.939100
O441	O44	0.903300	0.353200	0.142500
O451	O45	0.958400	0.087500	0.780200
O461	O46	0.329200	0.279300	0.092600
O471	O47	0.601200	0.361600	0.055500
O481	O48	0.154000	0.230400	0.842800
O491	O49	0.744700	0.391200	0.876200
O501	O50	0.929000	0.081000	0.042600
O511	O51	0.778200	0.990800	0.835600
O521	O52	0.273200	0.140700	0.062700
H41	H4	0.421000	0.289000	0.595000
