data_POLBEX_freeONLY_PM
_symmetry_space_group_name_H-M	'P1'
_cell_length_a	10.252000
_cell_length_b	18.409000
_cell_length_c	24.639000
_cell_angle_alpha	90.000000
_cell_angle_beta	90.000000
_cell_angle_gamma	90.000000
_symmetry_Int_Tables_number 1

loop_
_symmetry_equiv_pos_as_xyz
'x,y,z'

loop_
_atom_site_label
_atom_site_type_symbol
_atom_site_fract_x
_atom_site_fract_y
_atom_site_fract_z
Ga11	Ga1	0.114200	0.086000	0.432800
Ga21	Ga2	0.922800	0.850700	0.339800
Ga31	Ga3	0.380700	0.066900	0.558300
Ga41	Ga4	0.602200	0.920500	0.234700
Ga51	Ga5	0.592900	0.174500	0.345900
Ga61	Ga6	0.896500	0.109500	0.239900
Ga71	Ga7	0.917700	0.300000	0.275900
Ga81	Ga8	0.422400	0.230700	0.231100
P11	P1	0.897700	0.937600	0.232200
P21	P2	0.415800	0.098000	0.438300
P31	P3	0.083600	0.915900	0.437700
P41	P4	0.605600	0.092800	0.232600
P51	P5	0.900800	0.170300	0.360100
P61	P6	0.581800	0.141000	0.645100
P71	P7	0.622400	0.322900	0.298700
P81	P8	0.875200	0.707800	0.291500
F11	F1	0.832300	0.214000	0.246000
F21	F2	0.667900	0.815300	0.237000
F31	F3	0.422700	0.191200	0.306700
O11	O1	0.869000	0.917100	0.292400
O21	O2	0.762100	0.937200	0.204400
O31	O3	0.957500	0.013300	0.231800
O41	O4	0.982300	0.883400	0.203200
O51	O5	0.468600	0.096300	0.496900
O61	O6	0.417900	0.022800	0.411500
O71	O7	0.278500	0.127700	0.438500
O81	O8	0.502100	0.150300	0.407700
O91	O9	0.987400	0.868100	0.406700
O101	O10	0.224400	0.889500	0.427700
O111	O11	0.068600	0.992400	0.415600
O121	O12	0.043300	0.906500	0.497900
O131	O13	0.518300	0.149600	0.205100
O141	O14	0.631200	0.107800	0.293300
O151	O15	0.541600	0.018600	0.226900
O161	O16	0.740500	0.094400	0.203600
O171	O17	0.927100	0.248700	0.344500
O181	O18	0.992700	0.152200	0.407200
O191	O19	0.763700	0.157400	0.380600
O201	O20	0.936200	0.115100	0.312900
O211	O21	0.561200	0.087000	0.692100
O221	O22	0.577700	0.220100	0.660900
O231	O23	0.717400	0.125200	0.617100
O241	O24	0.473500	0.129600	0.603400
O251	O25	0.610000	0.274200	0.349300
O261	O26	0.582800	0.281300	0.247400
O271	O27	0.532900	0.390400	0.309200
O281	O28	0.757800	0.350400	0.292000
O291	O29	0.737900	0.678600	0.282400
O301	O30	0.881100	0.755600	0.342500
O311	O31	0.963200	0.641900	0.301600
O321	O32	0.919900	0.752800	0.243100
O331	O33	0.090700	0.837000	0.301100
Ga91	Ga9	0.114200	0.914000	0.567200
Ga101	Ga10	0.922800	0.149300	0.660200
Ga111	Ga11	0.380700	0.933100	0.441700
Ga121	Ga12	0.602200	0.079500	0.765300
Ga131	Ga13	0.592900	0.825500	0.654100
Ga141	Ga14	0.896500	0.890500	0.760100
Ga151	Ga15	0.917700	0.700000	0.724100
Ga161	Ga16	0.422400	0.769300	0.768900
P91	P9	0.897700	0.062400	0.767800
P101	P10	0.415800	0.902000	0.561700
P111	P11	0.083600	0.084100	0.562300
P121	P12	0.605600	0.907200	0.767400
P131	P13	0.900800	0.829700	0.639900
P141	P14	0.581800	0.859000	0.354900
P151	P15	0.622400	0.677100	0.701300
P161	P16	0.875200	0.292200	0.708500
F41	F4	0.832300	0.786000	0.754000
F51	F5	0.667900	0.184700	0.763000
F61	F6	0.422700	0.808800	0.693300
O341	O34	0.869000	0.082900	0.707600
O351	O35	0.762100	0.062800	0.795600
O361	O36	0.957500	0.986700	0.768200
O371	O37	0.982300	0.116600	0.796800
O381	O38	0.468600	0.903700	0.503100
O391	O39	0.417900	0.977200	0.588500
O401	O40	0.278500	0.872300	0.561500
O411	O41	0.502100	0.849700	0.592300
O421	O42	0.987400	0.131900	0.593300
O431	O43	0.224400	0.110500	0.572300
O441	O44	0.068600	0.007600	0.584400
O451	O45	0.043300	0.093500	0.502100
O461	O46	0.518300	0.850400	0.794900
O471	O47	0.631200	0.892200	0.706700
O481	O48	0.541600	0.981400	0.773100
O491	O49	0.740500	0.905600	0.796400
O501	O50	0.927100	0.751300	0.655500
O511	O51	0.992700	0.847800	0.592800
O521	O52	0.763700	0.842600	0.619400
O531	O53	0.936200	0.884900	0.687100
O541	O54	0.561200	0.913000	0.307900
O551	O55	0.577700	0.779900	0.339100
O561	O56	0.717400	0.874800	0.382900
O571	O57	0.473500	0.870400	0.396600
O581	O58	0.610000	0.725800	0.650700
O591	O59	0.582800	0.718700	0.752600
O601	O60	0.532900	0.609600	0.690800
O611	O61	0.757800	0.649600	0.708000
O621	O62	0.737900	0.321400	0.717600
O631	O63	0.881100	0.244400	0.657500
O641	O64	0.963200	0.358100	0.698400
O651	O65	0.919900	0.247200	0.756900
O661	O66	0.090700	0.163000	0.698900
Ga171	Ga17	0.885800	0.414000	0.932800
Ga181	Ga18	0.077200	0.649300	0.839800
Ga191	Ga19	0.619300	0.433100	0.058300
Ga201	Ga20	0.397800	0.579500	0.734700
Ga211	Ga21	0.407100	0.325500	0.845900
Ga221	Ga22	0.103500	0.390500	0.739900
Ga231	Ga23	0.082300	0.200000	0.775900
Ga241	Ga24	0.577600	0.269300	0.731100
P171	P17	0.102300	0.562400	0.732200
P181	P18	0.584200	0.402000	0.938300
P191	P19	0.916400	0.584100	0.937700
P201	P20	0.394400	0.407200	0.732600
P211	P21	0.099200	0.329700	0.860100
P221	P22	0.418200	0.359000	0.145100
P231	P23	0.377600	0.177100	0.798700
P241	P24	0.124800	0.792200	0.791500
F71	F7	0.167700	0.286000	0.746000
F81	F8	0.332100	0.684700	0.737000
F91	F9	0.577300	0.308800	0.806700
O671	O67	0.131000	0.582900	0.792400
O681	O68	0.237900	0.562800	0.704400
O691	O69	0.042500	0.486700	0.731800
O701	O70	0.017700	0.616600	0.703200
O711	O71	0.531400	0.403700	0.996900
O721	O72	0.582100	0.477200	0.911500
O731	O73	0.721500	0.372300	0.938500
O741	O74	0.497900	0.349700	0.907700
O751	O75	0.012600	0.631900	0.906700
O761	O76	0.775600	0.610500	0.927700
O771	O77	0.931400	0.507600	0.915600
O781	O78	0.956700	0.593500	0.997900
O791	O79	0.481700	0.350400	0.705100
O801	O80	0.368800	0.392200	0.793300
O811	O81	0.458400	0.481400	0.726900
O821	O82	0.259500	0.405600	0.703600
O831	O83	0.072900	0.251300	0.844500
O841	O84	0.007300	0.347800	0.907200
O851	O85	0.236300	0.342600	0.880600
O861	O86	0.063800	0.384900	0.812900
O871	O87	0.438800	0.413000	0.192100
O881	O88	0.422300	0.279900	0.160900
O891	O89	0.282600	0.374800	0.117100
O901	O90	0.526500	0.370400	0.103400
O911	O91	0.390000	0.225800	0.849300
O921	O92	0.417200	0.218700	0.747400
O931	O93	0.467100	0.109600	0.809200
O941	O94	0.242200	0.149600	0.792000
O951	O95	0.262100	0.821400	0.782400
O961	O96	0.118900	0.744400	0.842500
O971	O97	0.036800	0.858100	0.801600
O981	O98	0.080100	0.747200	0.743100
O991	O99	0.909300	0.663000	0.801100
Ga251	Ga25	0.885800	0.586000	0.067200
Ga261	Ga26	0.077200	0.350700	0.160200
Ga271	Ga27	0.619300	0.566900	0.941700
Ga281	Ga28	0.397800	0.420500	0.265300
Ga291	Ga29	0.407100	0.674500	0.154100
Ga301	Ga30	0.103500	0.609500	0.260100
Ga311	Ga31	0.082300	0.800000	0.224100
Ga321	Ga32	0.577600	0.730700	0.268900
P251	P25	0.102300	0.437600	0.267800
P261	P26	0.584200	0.598000	0.061700
P271	P27	0.916400	0.415900	0.062300
P281	P28	0.394400	0.592800	0.267400
P291	P29	0.099200	0.670300	0.139900
P301	P30	0.418200	0.641000	0.854900
P311	P31	0.377600	0.822900	0.201300
P321	P32	0.124800	0.207800	0.208500
F101	F10	0.167700	0.714000	0.254000
F111	F11	0.332100	0.315300	0.263000
F121	F12	0.577300	0.691200	0.193300
O1001	O100	0.131000	0.417100	0.207600
O1011	O101	0.237900	0.437200	0.295600
O1021	O102	0.042500	0.513300	0.268200
O1031	O103	0.017700	0.383400	0.296800
O1041	O104	0.531400	0.596300	0.003100
O1051	O105	0.582100	0.522800	0.088500
O1061	O106	0.721500	0.627700	0.061500
O1071	O107	0.497900	0.650300	0.092300
O1081	O108	0.012600	0.368100	0.093300
O1091	O109	0.775600	0.389500	0.072300
O1101	O110	0.931400	0.492400	0.084400
O1111	O111	0.956700	0.406500	0.002100
O1121	O112	0.481700	0.649600	0.294900
O1131	O113	0.368800	0.607800	0.206700
O1141	O114	0.458400	0.518600	0.273100
O1151	O115	0.259500	0.594400	0.296400
O1161	O116	0.072900	0.748700	0.155500
O1171	O117	0.007300	0.652200	0.092800
O1181	O118	0.236300	0.657400	0.119400
O1191	O119	0.063800	0.615100	0.187100
O1201	O120	0.438800	0.587000	0.807900
O1211	O121	0.422300	0.720100	0.839100
O1221	O122	0.282600	0.625200	0.882900
O1231	O123	0.526500	0.629600	0.896600
O1241	O124	0.390000	0.774200	0.150700
O1251	O125	0.417200	0.781300	0.252600
O1261	O126	0.467100	0.890400	0.190800
O1271	O127	0.242200	0.850400	0.208000
O1281	O128	0.262100	0.178600	0.217600
O1291	O129	0.118900	0.255600	0.157500
O1301	O130	0.036800	0.141900	0.198400
O1311	O131	0.080100	0.252800	0.256900
O1321	O132	0.909300	0.337000	0.198900
