data_POLDUQ_freeONLY_PM
_symmetry_space_group_name_H-M	'P1'
_cell_length_a	24.169000
_cell_length_b	24.169000
_cell_length_c	4.980000
_cell_angle_alpha	90.000000
_cell_angle_beta	90.000000
_cell_angle_gamma	90.000000
_symmetry_Int_Tables_number 1

loop_
_symmetry_equiv_pos_as_xyz
'x,y,z'

loop_
_atom_site_label
_atom_site_type_symbol
_atom_site_fract_x
_atom_site_fract_y
_atom_site_fract_z
O11	O1	0.522460	0.932030	0.818700
N11	N1	0.638240	0.837810	0.798400
C11	C1	0.584000	0.859600	0.727400
H11	H1	0.556600	0.830700	0.750900
H21	H2	0.584100	0.870100	0.539400
C21	C2	0.567700	0.909700	0.896600
N21	N2	0.683910	0.853700	0.662900
C31	C3	0.724100	0.827900	0.790200
H31	H3	0.761100	0.831300	0.742600
C41	C4	0.651800	0.804000	0.995200
H41	H4	0.626800	0.788200	0.115000
O21	O2	0.595410	0.925470	0.087800
N31	N3	0.454280	0.956470	0.251800
O31	O3	0.022460	0.432030	0.318700
N41	N4	0.138240	0.337810	0.298400
C51	C5	0.084000	0.359600	0.227400
H51	H5	0.056600	0.330700	0.250900
H61	H6	0.084100	0.370100	0.039400
C61	C6	0.067700	0.409700	0.396600
N51	N5	0.183910	0.353700	0.162900
C71	C7	0.224100	0.327900	0.290200
H71	H7	0.261100	0.331300	0.242600
C81	C8	0.151800	0.304000	0.495200
H81	H8	0.126800	0.288200	0.615000
O41	O4	0.095410	0.425470	0.587800
N61	N6	0.954280	0.456470	0.751800
O51	O5	0.977540	0.067970	0.318700
N71	N7	0.861760	0.162190	0.298400
C91	C9	0.916000	0.140400	0.227400
H91	H9	0.943400	0.169300	0.250900
H101	H10	0.915900	0.129900	0.039400
C101	C10	0.932300	0.090300	0.396600
N81	N8	0.816090	0.146300	0.162900
C111	C11	0.775900	0.172100	0.290200
H111	H11	0.738900	0.168700	0.242600
C121	C12	0.848200	0.196000	0.495200
H121	H12	0.873200	0.211800	0.615000
O61	O6	0.904590	0.074530	0.587800
N91	N9	0.045720	0.043530	0.751800
O71	O7	0.477540	0.567970	0.818700
N101	N10	0.361760	0.662190	0.798400
C131	C13	0.416000	0.640400	0.727400
H131	H13	0.443400	0.669300	0.750900
H141	H14	0.415900	0.629900	0.539400
C141	C14	0.432300	0.590300	0.896600
N111	N11	0.316090	0.646300	0.662900
C151	C15	0.275900	0.672100	0.790200
H151	H15	0.238900	0.668700	0.742600
C161	C16	0.348200	0.696000	0.995200
H161	H16	0.373200	0.711800	0.115000
O81	O8	0.404590	0.574530	0.087800
N121	N12	0.545720	0.543530	0.251800
O91	O9	0.817970	0.772460	0.068700
N131	N13	0.912190	0.888240	0.048400
C171	C17	0.890400	0.834000	0.977400
H171	H17	0.919300	0.806600	0.000900
H181	H18	0.879900	0.834100	0.789400
C181	C18	0.840300	0.817700	0.146600
N141	N14	0.896300	0.933910	0.912900
C191	C19	0.922100	0.974100	0.040200
H191	H19	0.918700	0.011100	0.992600
C201	C20	0.946000	0.901800	0.245200
H201	H20	0.961800	0.876800	0.365000
O101	O10	0.824530	0.845410	0.337800
N151	N15	0.793530	0.704280	0.501800
O111	O11	0.317970	0.272460	0.568700
N161	N16	0.412190	0.388240	0.548400
C211	C21	0.390400	0.334000	0.477400
H211	H21	0.419300	0.306600	0.500900
H221	H22	0.379900	0.334100	0.289400
C221	C22	0.340300	0.317700	0.646600
N171	N17	0.396300	0.433910	0.412900
C231	C23	0.422100	0.474100	0.540200
H231	H23	0.418700	0.511100	0.492600
C241	C24	0.446000	0.401800	0.745200
H241	H24	0.461800	0.376800	0.865000
O121	O12	0.324530	0.345410	0.837800
N181	N18	0.293530	0.204280	0.001800
O131	O13	0.682030	0.227540	0.568700
N191	N19	0.587810	0.111760	0.548400
C251	C25	0.609600	0.166000	0.477400
H251	H25	0.580700	0.193400	0.500900
H261	H26	0.620100	0.165900	0.289400
C261	C26	0.659700	0.182300	0.646600
N201	N20	0.603700	0.066090	0.412900
C271	C27	0.577900	0.025900	0.540200
H271	H27	0.581300	0.988900	0.492600
C281	C28	0.554000	0.098200	0.745200
H281	H28	0.538200	0.123200	0.865000
O141	O14	0.675470	0.154590	0.837800
N211	N21	0.706470	0.295720	0.001800
O151	O15	0.182030	0.727540	0.068700
N221	N22	0.087810	0.611760	0.048400
C291	C29	0.109600	0.666000	0.977400
H291	H29	0.080700	0.693400	0.000900
H301	H30	0.120100	0.665900	0.789400
C301	C30	0.159700	0.682300	0.146600
N231	N23	0.103700	0.566090	0.912900
C311	C31	0.077900	0.525900	0.040200
H311	H31	0.081300	0.488900	0.992600
C321	C32	0.054000	0.598200	0.245200
H321	H32	0.038200	0.623200	0.365000
O161	O16	0.175470	0.654590	0.337800
N241	N24	0.206470	0.795720	0.501800
O171	O17	0.477540	0.067970	0.181300
N251	N25	0.361760	0.162190	0.201600
C331	C33	0.416000	0.140400	0.272600
H331	H33	0.443400	0.169300	0.249100
H341	H34	0.415900	0.129900	0.460600
C341	C34	0.432300	0.090300	0.103400
N261	N26	0.316090	0.146300	0.337100
C351	C35	0.275900	0.172100	0.209800
H351	H35	0.238900	0.168700	0.257400
C361	C36	0.348200	0.196000	0.004800
H361	H36	0.373200	0.211800	0.885000
O181	O18	0.404590	0.074530	0.912200
N271	N27	0.545720	0.043530	0.748200
O191	O19	0.977540	0.567970	0.681300
N281	N28	0.861760	0.662190	0.701600
C371	C37	0.916000	0.640400	0.772600
H371	H37	0.943400	0.669300	0.749100
H381	H38	0.915900	0.629900	0.960600
C381	C38	0.932300	0.590300	0.603400
N291	N29	0.816090	0.646300	0.837100
C391	C39	0.775900	0.672100	0.709800
H391	H39	0.738900	0.668700	0.757400
C401	C40	0.848200	0.696000	0.504800
H401	H40	0.873200	0.711800	0.385000
O201	O20	0.904590	0.574530	0.412200
N301	N30	0.045720	0.543530	0.248200
O211	O21	0.022460	0.932030	0.681300
N311	N31	0.138240	0.837810	0.701600
C411	C41	0.084000	0.859600	0.772600
H411	H41	0.056600	0.830700	0.749100
H421	H42	0.084100	0.870100	0.960600
C421	C42	0.067700	0.909700	0.603400
N321	N32	0.183910	0.853700	0.837100
C431	C43	0.224100	0.827900	0.709800
H431	H43	0.261100	0.831300	0.757400
C441	C44	0.151800	0.804000	0.504800
H441	H44	0.126800	0.788200	0.385000
O221	O22	0.095410	0.925470	0.412200
N331	N33	0.954280	0.956470	0.248200
O231	O23	0.522460	0.432030	0.181300
N341	N34	0.638240	0.337810	0.201600
C451	C45	0.584000	0.359600	0.272600
H451	H45	0.556600	0.330700	0.249100
H461	H46	0.584100	0.370100	0.460600
C461	C46	0.567700	0.409700	0.103400
N351	N35	0.683910	0.353700	0.337100
C471	C47	0.724100	0.327900	0.209800
H471	H47	0.761100	0.331300	0.257400
C481	C48	0.651800	0.304000	0.004800
H481	H48	0.626800	0.288200	0.885000
O241	O24	0.595410	0.425470	0.912200
N361	N36	0.454280	0.456470	0.748200
O251	O25	0.182030	0.227540	0.931300
N371	N37	0.087810	0.111760	0.951600
C491	C49	0.109600	0.166000	0.022600
H491	H49	0.080700	0.193400	0.999100
H501	H50	0.120100	0.165900	0.210600
C501	C50	0.159700	0.182300	0.853400
N381	N38	0.103700	0.066090	0.087100
C511	C51	0.077900	0.025900	0.959800
H511	H51	0.081300	0.988900	0.007400
C521	C52	0.054000	0.098200	0.754800
H521	H52	0.038200	0.123200	0.635000
O261	O26	0.175470	0.154590	0.662200
N391	N39	0.206470	0.295720	0.498200
O271	O27	0.682030	0.727540	0.431300
N401	N40	0.587810	0.611760	0.451600
C531	C53	0.609600	0.666000	0.522600
H531	H53	0.580700	0.693400	0.499100
H541	H54	0.620100	0.665900	0.710600
C541	C54	0.659700	0.682300	0.353400
N411	N41	0.603700	0.566090	0.587100
C551	C55	0.577900	0.525900	0.459800
H551	H55	0.581300	0.488900	0.507400
C561	C56	0.554000	0.598200	0.254800
H561	H56	0.538200	0.623200	0.135000
O281	O28	0.675470	0.654590	0.162200
N421	N42	0.706470	0.795720	0.998200
O291	O29	0.317970	0.772460	0.431300
N431	N43	0.412190	0.888240	0.451600
C571	C57	0.390400	0.834000	0.522600
H571	H57	0.419300	0.806600	0.499100
H581	H58	0.379900	0.834100	0.710600
C581	C58	0.340300	0.817700	0.353400
N441	N44	0.396300	0.933910	0.587100
C591	C59	0.422100	0.974100	0.459800
H591	H59	0.418700	0.011100	0.507400
C601	C60	0.446000	0.901800	0.254800
H601	H60	0.461800	0.876800	0.135000
O301	O30	0.324530	0.845410	0.162200
N451	N45	0.293530	0.704280	0.998200
O311	O31	0.817970	0.272460	0.931300
N461	N46	0.912190	0.388240	0.951600
C611	C61	0.890400	0.334000	0.022600
H611	H61	0.919300	0.306600	0.999100
H621	H62	0.879900	0.334100	0.210600
C621	C62	0.840300	0.317700	0.853400
N471	N47	0.896300	0.433910	0.087100
C631	C63	0.922100	0.474100	0.959800
H631	H63	0.918700	0.511100	0.007400
C641	C64	0.946000	0.401800	0.754800
H641	H64	0.961800	0.376800	0.635000
O321	O32	0.824530	0.345410	0.662200
N481	N48	0.793530	0.204280	0.498200
Cu11	Cu1	0.500000	0.000000	0.000000
Cu21	Cu2	0.000000	0.500000	0.500000
Cu31	Cu3	0.000000	0.000000	0.500000
Cu41	Cu4	0.500000	0.500000	0.000000
Cu51	Cu5	0.750000	0.750000	0.250000
Cu61	Cu6	0.750000	0.250000	0.750000
Cu71	Cu7	0.250000	0.250000	0.750000
Cu81	Cu8	0.250000	0.750000	0.250000
