data_PONPOX_freeONLY_PM
_symmetry_space_group_name_H-M	'P1'
_cell_length_a	16.023000
_cell_length_b	10.062000
_cell_length_c	18.486000
_cell_angle_alpha	90.000000
_cell_angle_beta	90.000000
_cell_angle_gamma	90.000000
_symmetry_Int_Tables_number 1

loop_
_symmetry_equiv_pos_as_xyz
'x,y,z'

loop_
_atom_site_label
_atom_site_type_symbol
_atom_site_fract_x
_atom_site_fract_y
_atom_site_fract_z
Ga11	Ga1	0.460020	0.317470	0.217940
Ga21	Ga2	0.649390	0.163800	0.176670
Ga31	Ga3	0.489530	0.346300	0.408510
P11	P1	0.488100	0.142400	0.077300
P21	P2	0.558000	0.118300	0.316400
P31	P3	0.315600	0.349600	0.330800
F11	F1	0.580500	0.329900	0.191200
F21	F2	0.497300	0.410300	0.304900
O11	O1	0.434400	0.211200	0.134100
O21	O2	0.553000	0.973400	0.339500
O31	O3	0.347900	0.311900	0.256000
O41	O4	0.485000	0.154200	0.268100
O51	O5	0.580200	0.131200	0.099800
O61	O6	0.640200	0.142300	0.275900
O71	O7	0.291000	0.497600	0.333500
O81	O8	0.237400	0.268900	0.348900
O91	O9	0.557900	0.202300	0.386400
O101	O10	0.378800	0.315700	0.391300
O111	O11	0.480200	0.218100	0.006300
O121	O12	0.454200	0.000400	0.067800
Ga41	Ga4	0.039980	0.682530	0.717940
Ga51	Ga5	0.850610	0.836200	0.676670
Ga61	Ga6	0.010470	0.653700	0.908510
P41	P4	0.011900	0.857600	0.577300
P51	P5	0.942000	0.881700	0.816400
P61	P6	0.184400	0.650400	0.830800
F31	F3	0.919500	0.670100	0.691200
F41	F4	0.002700	0.589700	0.804900
O131	O13	0.065600	0.788800	0.634100
O141	O14	0.947000	0.026600	0.839500
O151	O15	0.152100	0.688100	0.756000
O161	O16	0.015000	0.845800	0.768100
O171	O17	0.919800	0.868800	0.599800
O181	O18	0.859800	0.857700	0.775900
O191	O19	0.209000	0.502400	0.833500
O201	O20	0.262600	0.731100	0.848900
O211	O21	0.942100	0.797700	0.886400
O221	O22	0.121200	0.684300	0.891300
O231	O23	0.019800	0.781900	0.506300
O241	O24	0.045800	0.999600	0.567800
Ga71	Ga7	0.539980	0.817470	0.282060
Ga81	Ga8	0.350610	0.663800	0.323330
Ga91	Ga9	0.510470	0.846300	0.091490
P71	P7	0.511900	0.642400	0.422700
P81	P8	0.442000	0.618300	0.183600
P91	P9	0.684400	0.849600	0.169200
F51	F5	0.419500	0.829900	0.308800
F61	F6	0.502700	0.910300	0.195100
O251	O25	0.565600	0.711200	0.365900
O261	O26	0.447000	0.473400	0.160500
O271	O27	0.652100	0.811900	0.244000
O281	O28	0.515000	0.654200	0.231900
O291	O29	0.419800	0.631200	0.400200
O301	O30	0.359800	0.642300	0.224100
O311	O31	0.709000	0.997600	0.166500
O321	O32	0.762600	0.768900	0.151100
O331	O33	0.442100	0.702300	0.113600
O341	O34	0.621200	0.815700	0.108700
O351	O35	0.519800	0.718100	0.493700
O361	O36	0.545800	0.500400	0.432200
Ga101	Ga10	0.960020	0.182530	0.782060
Ga111	Ga11	0.149390	0.336200	0.823330
Ga121	Ga12	0.989530	0.153700	0.591490
P101	P10	0.988100	0.357600	0.922700
P111	P11	0.058000	0.381700	0.683600
P121	P12	0.815600	0.150400	0.669200
F71	F7	0.080500	0.170100	0.808800
F81	F8	0.997300	0.089700	0.695100
O371	O37	0.934400	0.288800	0.865900
O381	O38	0.053000	0.526600	0.660500
O391	O39	0.847900	0.188100	0.744000
O401	O40	0.985000	0.345800	0.731900
O411	O41	0.080200	0.368800	0.900200
O421	O42	0.140200	0.357700	0.724100
O431	O43	0.791000	0.002400	0.666500
O441	O44	0.737400	0.231100	0.651100
O451	O45	0.057900	0.297700	0.613600
O461	O46	0.878800	0.184300	0.608700
O471	O47	0.980200	0.281900	0.993700
O481	O48	0.954200	0.499600	0.932200
Ga131	Ga13	0.539980	0.682530	0.782060
Ga141	Ga14	0.350610	0.836200	0.823330
Ga151	Ga15	0.510470	0.653700	0.591490
P131	P13	0.511900	0.857600	0.922700
P141	P14	0.442000	0.881700	0.683600
P151	P15	0.684400	0.650400	0.669200
F91	F9	0.419500	0.670100	0.808800
F101	F10	0.502700	0.589700	0.695100
O491	O49	0.565600	0.788800	0.865900
O501	O50	0.447000	0.026600	0.660500
O511	O51	0.652100	0.688100	0.744000
O521	O52	0.515000	0.845800	0.731900
O531	O53	0.419800	0.868800	0.900200
O541	O54	0.359800	0.857700	0.724100
O551	O55	0.709000	0.502400	0.666500
O561	O56	0.762600	0.731100	0.651100
O571	O57	0.442100	0.797700	0.613600
O581	O58	0.621200	0.684300	0.608700
O591	O59	0.519800	0.781900	0.993700
O601	O60	0.545800	0.999600	0.932200
Ga161	Ga16	0.960020	0.317470	0.282060
Ga171	Ga17	0.149390	0.163800	0.323330
Ga181	Ga18	0.989530	0.346300	0.091490
P161	P16	0.988100	0.142400	0.422700
P171	P17	0.058000	0.118300	0.183600
P181	P18	0.815600	0.349600	0.169200
F111	F11	0.080500	0.329900	0.308800
F121	F12	0.997300	0.410300	0.195100
O611	O61	0.934400	0.211200	0.365900
O621	O62	0.053000	0.973400	0.160500
O631	O63	0.847900	0.311900	0.244000
O641	O64	0.985000	0.154200	0.231900
O651	O65	0.080200	0.131200	0.400200
O661	O66	0.140200	0.142300	0.224100
O671	O67	0.791000	0.497600	0.166500
O681	O68	0.737400	0.268900	0.151100
O691	O69	0.057900	0.202300	0.113600
O701	O70	0.878800	0.315700	0.108700
O711	O71	0.980200	0.218100	0.493700
O721	O72	0.954200	0.000400	0.432200
Ga191	Ga19	0.460020	0.182530	0.717940
Ga201	Ga20	0.649390	0.336200	0.676670
Ga211	Ga21	0.489530	0.153700	0.908510
P191	P19	0.488100	0.357600	0.577300
P201	P20	0.558000	0.381700	0.816400
P211	P21	0.315600	0.150400	0.830800
F131	F13	0.580500	0.170100	0.691200
F141	F14	0.497300	0.089700	0.804900
O731	O73	0.434400	0.288800	0.634100
O741	O74	0.553000	0.526600	0.839500
O751	O75	0.347900	0.188100	0.756000
O761	O76	0.485000	0.345800	0.768100
O771	O77	0.580200	0.368800	0.599800
O781	O78	0.640200	0.357700	0.775900
O791	O79	0.291000	0.002400	0.833500
O801	O80	0.237400	0.231100	0.848900
O811	O81	0.557900	0.297700	0.886400
O821	O82	0.378800	0.184300	0.891300
O831	O83	0.480200	0.281900	0.506300
O841	O84	0.454200	0.499600	0.567800
Ga221	Ga22	0.039980	0.817470	0.217940
Ga231	Ga23	0.850610	0.663800	0.176670
Ga241	Ga24	0.010470	0.846300	0.408510
P221	P22	0.011900	0.642400	0.077300
P231	P23	0.942000	0.618300	0.316400
P241	P24	0.184400	0.849600	0.330800
F151	F15	0.919500	0.829900	0.191200
F161	F16	0.002700	0.910300	0.304900
O851	O85	0.065600	0.711200	0.134100
O861	O86	0.947000	0.473400	0.339500
O871	O87	0.152100	0.811900	0.256000
O881	O88	0.015000	0.654200	0.268100
O891	O89	0.919800	0.631200	0.099800
O901	O90	0.859800	0.642300	0.275900
O911	O91	0.209000	0.997600	0.333500
O921	O92	0.262600	0.768900	0.348900
O931	O93	0.942100	0.702300	0.386400
O941	O94	0.121200	0.815700	0.391300
O951	O95	0.019800	0.718100	0.006300
O961	O96	0.045800	0.500400	0.067800
