data_PORLAL_freeONLY_PM
_symmetry_space_group_name_H-M	'P1'
_cell_length_a	8.209600
_cell_length_b	14.998000
_cell_length_c	36.872700
_cell_angle_alpha	90.000000
_cell_angle_beta	90.882400
_cell_angle_gamma	90.000000
_symmetry_Int_Tables_number 1

loop_
_symmetry_equiv_pos_as_xyz
'x,y,z'

loop_
_atom_site_label
_atom_site_type_symbol
_atom_site_fract_x
_atom_site_fract_y
_atom_site_fract_z
Gd11	Gd1	0.165450	0.098080	0.486780
Gd21	Gd2	0.834550	0.901920	0.513220
Gd31	Gd3	0.665450	0.901920	0.986780
Gd41	Gd4	0.334550	0.098080	0.013220
H11	H1	0.534700	0.953500	0.260600
H21	H2	0.464700	0.299100	0.378700
H31	H3	0.645200	0.269700	0.372200
H41	H4	0.590500	0.372700	0.073700
H51	H5	0.066100	0.311700	0.772200
H61	H6	0.415000	0.335900	0.564700
H71	H7	0.736700	0.090400	0.657800
H81	H8	0.932200	0.396200	0.888000
H91	H9	0.329700	0.951000	0.457300
H101	H10	0.407100	0.287700	0.887100
H111	H11	0.618400	0.074600	0.387900
H121	H12	0.915000	0.664100	0.064700
H131	H13	0.090500	0.627300	0.573700
H141	H14	0.964700	0.700900	0.878700
H151	H15	0.660100	0.669300	0.490800
H161	H16	0.881600	0.074600	0.112100
H171	H17	0.670300	0.049000	0.542700
H181	H18	0.634900	0.088600	0.429900
H191	H19	0.933900	0.688300	0.227800
H201	H20	0.391000	0.371300	0.974900
H211	H21	0.907100	0.712300	0.387100
H221	H22	0.860900	0.425000	0.545500
H231	H23	0.045300	0.914300	0.093600
H241	H24	0.585000	0.664100	0.435300
H251	H25	0.432200	0.603800	0.388000
H261	H26	0.839900	0.669300	0.009200
H271	H27	0.142800	0.752500	0.002300
H281	H28	0.084200	0.670700	0.280700
H291	H29	0.034700	0.046500	0.760600
H301	H30	0.335800	0.240600	0.425900
H311	H31	0.998100	0.220200	0.147800
H321	H32	0.625300	0.021600	0.132800
H331	H33	0.988000	0.187000	0.570300
H341	H34	0.118400	0.925400	0.887900
H351	H35	0.829700	0.049000	0.957300
H361	H36	0.415800	0.670700	0.219300
H371	H37	0.202300	0.524700	0.915200
H381	H38	0.357200	0.752500	0.497700
H391	H39	0.263300	0.909600	0.342200
H401	H40	0.545300	0.085700	0.593600
H411	H41	0.125300	0.978400	0.632800
H421	H42	0.145200	0.730300	0.872200
H431	H43	0.623200	0.065600	0.791600
H441	H44	0.214900	0.285600	0.821700
H451	H45	0.854800	0.269700	0.127800
H461	H46	0.160100	0.330700	0.990800
H471	H47	0.865100	0.088600	0.070100
H481	H48	0.263000	0.914500	0.014900
H491	H49	0.365100	0.911400	0.570100
H501	H50	0.376800	0.934400	0.208400
H511	H51	0.067800	0.603800	0.112000
H521	H52	0.360900	0.575000	0.045500
H531	H53	0.012000	0.813000	0.429700
H541	H54	0.454700	0.914300	0.406400
H551	H55	0.247000	0.858000	0.903600
H561	H56	0.170300	0.951000	0.042700
H571	H57	0.909500	0.372700	0.426300
H581	H58	0.702300	0.475300	0.415200
H591	H59	0.374700	0.978400	0.867200
H601	H60	0.664200	0.759400	0.574100
H611	H61	0.164200	0.240600	0.074100
H621	H62	0.763000	0.085500	0.514900
H631	H63	0.584200	0.329300	0.780700
H641	H64	0.915800	0.329300	0.719300
H651	H65	0.566100	0.688300	0.272200
H661	H66	0.835800	0.759400	0.925900
H671	H67	0.109000	0.371300	0.525100
H681	H68	0.297700	0.524700	0.584800
H691	H69	0.797700	0.475300	0.084800
H701	H70	0.567800	0.396200	0.612000
H711	H71	0.876800	0.065600	0.708400
H721	H72	0.001900	0.779800	0.852200
H731	H73	0.237000	0.914500	0.485100
H741	H74	0.134900	0.911400	0.929900
H751	H75	0.381600	0.925400	0.612100
H761	H76	0.488000	0.813000	0.070300
H771	H77	0.123200	0.934400	0.291600
H781	H78	0.512000	0.187000	0.929700
H791	H79	0.498100	0.779800	0.647800
H801	H80	0.857200	0.247500	0.997700
H811	H81	0.737000	0.085500	0.985100
H821	H82	0.609000	0.628700	0.025100
H831	H83	0.465300	0.046500	0.739400
H841	H84	0.714900	0.714400	0.321700
H851	H85	0.085000	0.335900	0.935300
H861	H86	0.763300	0.090400	0.842200
H871	H87	0.092900	0.287700	0.612900
H881	H88	0.433900	0.311700	0.727800
H891	H89	0.236700	0.909600	0.157800
H901	H90	0.354800	0.730300	0.627800
H911	H91	0.954700	0.085700	0.906400
H921	H92	0.535300	0.700900	0.621300
H931	H93	0.501900	0.220200	0.352200
H941	H94	0.874700	0.021600	0.367200
H951	H95	0.891000	0.628700	0.474900
H961	H96	0.642800	0.247500	0.502300
H971	H97	0.285100	0.285600	0.678300
H981	H98	0.253000	0.858000	0.596400
H991	H99	0.753000	0.142000	0.096400
H1001	H100	0.409500	0.627300	0.926300
H1011	H101	0.592900	0.712300	0.112900
H1021	H102	0.035300	0.299100	0.121300
H1031	H103	0.639100	0.425000	0.954500
H1041	H104	0.339900	0.330700	0.509200
H1051	H105	0.965300	0.953500	0.239400
H1061	H106	0.785100	0.714400	0.178300
H1071	H107	0.747000	0.142000	0.403600
H1081	H108	0.139100	0.575000	0.454500
C11	C1	0.121120	0.800500	0.291520
C21	C2	0.535000	0.249200	0.374300
C31	C3	0.035000	0.750800	0.874300
C41	C4	0.994620	0.010300	0.568720
C51	C5	0.686230	0.808900	0.146030
C61	C6	0.433100	0.176800	0.728300
C71	C7	0.220050	0.787400	0.324850
C81	C8	0.154920	0.708100	0.984920
C91	C9	0.296360	0.700600	0.964960
C101	C10	0.375250	0.039400	0.871850
C111	C11	0.624750	0.960600	0.128150
C121	C12	0.952300	0.146900	0.902500
C131	C13	0.452300	0.853100	0.402500
C141	C14	0.279950	0.787400	0.175150
C151	C15	0.415710	0.545200	0.027210
C161	C16	0.029740	0.262000	0.759340
C171	C17	0.535490	0.793900	0.425390
C181	C18	0.349690	0.469300	0.011690
C191	C19	0.938400	0.334900	0.891300
C201	C20	0.849690	0.530700	0.511690
C211	C21	0.395770	0.226500	0.883870
C221	C22	0.196930	0.099300	0.652230
C231	C23	0.875250	0.960600	0.371850
C241	C24	0.964510	0.793900	0.074610
C251	C25	0.434670	0.423200	0.984770
C261	C26	0.091200	0.193500	0.071500
C271	C27	0.928590	0.233600	0.471890
C281	C28	0.188670	0.435100	0.023370
C291	C29	0.642500	0.276100	0.632200
C301	C30	0.690240	0.430400	0.432340
C311	C31	0.552220	0.926600	0.097120
C321	C32	0.345080	0.708100	0.515080
C331	C33	0.408800	0.193500	0.428500
C341	C34	0.134380	0.815900	0.126480
C351	C35	0.971970	0.701800	0.080370
C361	C36	0.584700	0.115200	0.779000
C371	C37	0.428590	0.766400	0.971890
C381	C38	0.459960	0.166000	0.908760
C391	C39	0.033030	0.646800	0.977930
C401	C40	0.562000	0.272100	0.772300
C411	C41	0.561600	0.334900	0.608700
C421	C42	0.447780	0.073400	0.902880
C431	C43	0.779950	0.212600	0.675150
C441	C44	0.311330	0.435100	0.476630
C451	C45	0.566900	0.823200	0.271700
C461	C46	0.124750	0.039400	0.628150
C471	C47	0.466970	0.646800	0.522070
C481	C48	0.540040	0.834000	0.091240
C491	C49	0.168130	0.162000	0.804530
C501	C50	0.028030	0.298200	0.919630
C511	C51	0.140200	0.882600	0.906700
C521	C52	0.186880	0.631500	0.560880
C531	C53	0.453160	0.577900	0.547460
C541	C54	0.688670	0.564900	0.523370
C551	C55	0.490100	0.103700	0.747500
C561	C56	0.640200	0.117400	0.406700
C571	C57	0.313770	0.191100	0.853970
C581	C58	0.135300	0.168300	0.955900
C591	C59	0.062000	0.727900	0.272300
C601	C60	0.040040	0.166000	0.591240
C611	C61	0.668130	0.838000	0.304530
C621	C62	0.047700	0.853100	0.097500
C631	C63	0.934670	0.576800	0.484770
C641	C64	0.809760	0.430400	0.067660
C651	C65	0.635300	0.831700	0.455900
C661	C66	0.933100	0.823200	0.228300
C671	C67	0.359800	0.882600	0.593300
C681	C68	0.470260	0.262000	0.740660
C691	C69	0.331870	0.162000	0.695470
C701	C70	0.303070	0.099300	0.847770
C711	C71	0.634380	0.184100	0.626480
C721	C72	0.813770	0.808900	0.353970
C731	C73	0.471970	0.298200	0.580370
C741	C74	0.509900	0.896300	0.252500
C751	C75	0.309760	0.569600	0.567660
C761	C76	0.009900	0.103700	0.752500
C771	C77	0.621120	0.199500	0.791520
C781	C78	0.046840	0.577900	0.952540
C791	C79	0.966970	0.353200	0.022070
C801	C80	0.990100	0.896300	0.247500
C811	C81	0.186230	0.191100	0.646030
C821	C82	0.365620	0.815900	0.373520
C831	C83	0.813120	0.368500	0.439120
C841	C84	0.364700	0.168300	0.544100
C851	C85	0.696930	0.900700	0.152230
C861	C86	0.953160	0.422100	0.047460
C871	C87	0.703640	0.299400	0.035040
C881	C88	0.654920	0.291900	0.484920
C891	C89	0.415300	0.884800	0.221000
C901	C90	0.066900	0.176800	0.771700
C911	C91	0.065330	0.423200	0.515230
C921	C92	0.959960	0.834000	0.408760
C931	C93	0.357500	0.723900	0.367800
C941	C94	0.190240	0.569600	0.932340
C951	C95	0.529740	0.738000	0.259340
C961	C96	0.908800	0.806500	0.928500
C971	C97	0.528030	0.701800	0.419630
C981	C98	0.857500	0.276100	0.867800
C991	C99	0.859800	0.117400	0.093300
C1001	C100	0.686880	0.368500	0.060880
C1011	C101	0.061600	0.665100	0.108700
C1021	C102	0.915300	0.115200	0.721000
C1031	C103	0.796360	0.299400	0.464960
C1041	C104	0.505380	0.010300	0.931280
C1051	C105	0.203640	0.700600	0.535040
C1061	C106	0.464510	0.206100	0.574610
C1071	C107	0.565330	0.576800	0.015230
C1081	C108	0.142500	0.723900	0.132200
C1091	C109	0.035490	0.206100	0.925390
C1101	C110	0.313120	0.631500	0.939120
C1111	C111	0.546840	0.422100	0.452540
C1121	C112	0.831870	0.838000	0.195470
C1131	C113	0.571410	0.233600	0.028110
C1141	C114	0.720050	0.212600	0.824850
C1151	C115	0.438000	0.727900	0.227700
C1161	C116	0.084290	0.545200	0.472790
C1171	C117	0.865620	0.184100	0.873520
C1181	C118	0.811330	0.564900	0.976630
C1191	C119	0.965000	0.249200	0.125700
C1201	C120	0.947780	0.926600	0.402880
C1211	C121	0.438400	0.665100	0.391300
C1221	C122	0.895770	0.773500	0.383870
C1231	C123	0.938000	0.272100	0.727700
C1241	C124	0.052220	0.073400	0.597120
C1251	C125	0.584290	0.454800	0.972790
C1261	C126	0.378880	0.800500	0.208480
C1271	C127	0.494620	0.989700	0.068720
C1281	C128	0.970260	0.738000	0.240660
C1291	C129	0.845080	0.291900	0.015080
C1301	C130	0.547700	0.146900	0.597500
C1311	C131	0.878880	0.199500	0.708480
C1321	C132	0.533030	0.353200	0.477930
C1331	C133	0.104230	0.226500	0.616130
C1341	C134	0.465000	0.750800	0.625700
C1351	C135	0.864700	0.831700	0.044100
C1361	C136	0.604230	0.773500	0.116130
C1371	C137	0.071410	0.766400	0.528110
C1381	C138	0.005380	0.989700	0.431280
C1391	C139	0.084700	0.884800	0.279000
C1401	C140	0.150310	0.469300	0.488310
C1411	C141	0.650310	0.530700	0.988310
C1421	C142	0.591200	0.806500	0.571500
C1431	C143	0.915710	0.454800	0.527210
C1441	C144	0.803070	0.900700	0.347770
N11	N1	0.618010	0.636400	0.507310
N21	N2	0.721820	0.146600	0.654320
N31	N3	0.221820	0.853400	0.154320
N41	N4	0.778180	0.146600	0.845680
N51	N5	0.881990	0.636400	0.992690
N61	N6	0.734540	0.292000	0.662740
N71	N7	0.265460	0.708000	0.337260
N81	N8	0.788190	0.916600	0.182990
N91	N9	0.595000	0.526800	0.547400
N101	N10	0.211810	0.083400	0.817010
N111	N11	0.024710	0.814500	0.904810
N121	N12	0.381990	0.363600	0.492690
N131	N13	0.475290	0.814500	0.595190
N141	N14	0.118010	0.363600	0.007310
N151	N15	0.772030	0.770500	0.174530
N161	N16	0.227970	0.229500	0.825470
N171	N17	0.727970	0.770500	0.325470
N181	N18	0.234540	0.708000	0.162740
N191	N19	0.405000	0.473200	0.452600
N201	N20	0.905000	0.526800	0.952600
N211	N21	0.278180	0.853400	0.345680
N221	N22	0.288190	0.083400	0.682990
N231	N23	0.272030	0.229500	0.674530
N241	N24	0.095000	0.473200	0.047400
N251	N25	0.711810	0.916600	0.317010
N261	N26	0.765460	0.292000	0.837260
N271	N27	0.975290	0.185500	0.095190
N281	N28	0.524710	0.185500	0.404810
O11	O1	0.698550	0.042800	0.520550
O21	O2	0.117920	0.087900	0.965520
O31	O3	0.586300	0.941900	0.922800
O41	O4	0.301450	0.957200	0.479450
O51	O5	0.382080	0.087900	0.534480
O61	O6	0.108370	0.141400	0.045670
O71	O7	0.970690	0.976600	0.464890
O81	O8	0.905390	0.170800	0.494190
O91	O9	0.935770	0.760900	0.544270
O101	O10	0.882080	0.912100	0.034480
O111	O11	0.094610	0.829200	0.505810
O121	O12	0.086300	0.058100	0.422800
O131	O13	0.241480	0.217900	0.972080
O141	O14	0.064230	0.239100	0.455730
O151	O15	0.594610	0.170800	0.005810
O161	O16	0.617920	0.912100	0.465520
O171	O17	0.258520	0.217900	0.527920
O181	O18	0.564230	0.760900	0.955730
O191	O19	0.391630	0.141400	0.454330
O201	O20	0.029310	0.023400	0.535110
O211	O21	0.741480	0.782100	0.472080
O221	O22	0.405390	0.829200	0.994190
O231	O23	0.608370	0.858600	0.545670
O241	O24	0.913700	0.941900	0.577200
O251	O25	0.198550	0.957200	0.020550
O261	O26	0.801450	0.042800	0.979450
O271	O27	0.758520	0.782100	0.027920
O281	O28	0.891630	0.858600	0.954330
O291	O29	0.529310	0.976600	0.035110
O301	O30	0.435770	0.239100	0.044270
O311	O31	0.470690	0.023400	0.964890
O321	O32	0.413700	0.058100	0.077200
