data_POVXII_freeONLY_PM
_symmetry_space_group_name_H-M	'P1'
_cell_length_a	10.788000
_cell_length_b	12.702000
_cell_length_c	15.784000
_cell_angle_alpha	90.000000
_cell_angle_beta	90.000000
_cell_angle_gamma	90.000000
_symmetry_Int_Tables_number 1

loop_
_symmetry_equiv_pos_as_xyz
'x,y,z'

loop_
_atom_site_label
_atom_site_type_symbol
_atom_site_fract_x
_atom_site_fract_y
_atom_site_fract_z
Mn11	Mn1	0.044470	0.250000	0.637520
Mn21	Mn2	0.314140	0.250000	0.717220
Mn31	Mn3	0.455530	0.750000	0.137520
Mn41	Mn4	0.185860	0.750000	0.217220
Mn51	Mn5	0.955530	0.750000	0.362480
Mn61	Mn6	0.685860	0.750000	0.282780
Mn71	Mn7	0.544470	0.250000	0.862480
Mn81	Mn8	0.814140	0.250000	0.782780
Mn91	Mn9	0.000000	0.000000	0.500000
Mn101	Mn10	0.500000	0.000000	0.000000
Mn111	Mn11	0.000000	0.500000	0.500000
Mn121	Mn12	0.500000	0.500000	0.000000
H11	H1	0.376400	0.556800	0.604800
H21	H2	0.412000	0.452500	0.656200
H31	H3	0.434100	0.457800	0.556000
H41	H4	0.704900	0.508600	0.639500
H51	H5	0.706300	0.450000	0.729200
H61	H6	0.761900	0.566300	0.720800
H71	H7	0.123600	0.443200	0.104800
H81	H8	0.088000	0.547500	0.156200
H91	H9	0.065900	0.542200	0.056000
H101	H10	0.795100	0.491400	0.139500
H111	H11	0.793700	0.550000	0.229200
H121	H12	0.738100	0.433700	0.220800
H131	H13	0.623600	0.056800	0.395200
H141	H14	0.588000	0.952500	0.343800
H151	H15	0.565900	0.957800	0.444000
H161	H16	0.295100	0.008600	0.360500
H171	H17	0.293700	0.950000	0.270800
H181	H18	0.238100	0.066300	0.279200
H191	H19	0.876400	0.943200	0.895200
H201	H20	0.912000	0.047500	0.843800
H211	H21	0.934100	0.042200	0.944000
H221	H22	0.204900	0.991400	0.860500
H231	H23	0.206300	0.050000	0.770800
H241	H24	0.261900	0.933700	0.779200
H251	H25	0.623600	0.443200	0.395200
H261	H26	0.588000	0.547500	0.343800
H271	H27	0.565900	0.542200	0.444000
H281	H28	0.295100	0.491400	0.360500
H291	H29	0.293700	0.550000	0.270800
H301	H30	0.238100	0.433700	0.279200
H311	H31	0.876400	0.556800	0.895200
H321	H32	0.912000	0.452500	0.843800
H331	H33	0.934100	0.457800	0.944000
H341	H34	0.204900	0.508600	0.860500
H351	H35	0.206300	0.450000	0.770800
H361	H36	0.261900	0.566300	0.779200
H371	H37	0.376400	0.943200	0.604800
H381	H38	0.412000	0.047500	0.656200
H391	H39	0.434100	0.042200	0.556000
H401	H40	0.704900	0.991400	0.639500
H411	H41	0.706300	0.050000	0.729200
H421	H42	0.761900	0.933700	0.720800
H431	H43	0.123600	0.056800	0.104800
H441	H44	0.088000	0.952500	0.156200
H451	H45	0.065900	0.957800	0.056000
H461	H46	0.795100	0.008600	0.139500
H471	H47	0.793700	0.950000	0.229200
H481	H48	0.738100	0.066300	0.220800
C11	C1	0.251580	0.437050	0.587840
C21	C2	0.379700	0.479800	0.602500
C31	C3	0.876900	0.453010	0.671960
C41	C4	0.751600	0.498400	0.692100
C51	C5	0.248420	0.562950	0.087840
C61	C6	0.120300	0.520200	0.102500
C71	C7	0.623100	0.546990	0.171960
C81	C8	0.748400	0.501600	0.192100
C91	C9	0.748420	0.937050	0.412160
C101	C10	0.620300	0.979800	0.397500
C111	C11	0.123100	0.953010	0.328040
C121	C12	0.248400	0.998400	0.307900
C131	C13	0.751580	0.062950	0.912160
C141	C14	0.879700	0.020200	0.897500
C151	C15	0.376900	0.046990	0.828040
C161	C16	0.251600	0.001600	0.807900
C171	C17	0.748420	0.562950	0.412160
C181	C18	0.620300	0.520200	0.397500
C191	C19	0.123100	0.546990	0.328040
C201	C20	0.248400	0.501600	0.307900
C211	C21	0.751580	0.437050	0.912160
C221	C22	0.879700	0.479800	0.897500
C231	C23	0.376900	0.453010	0.828040
C241	C24	0.251600	0.498400	0.807900
C251	C25	0.251580	0.062950	0.587840
C261	C26	0.379700	0.020200	0.602500
C271	C27	0.876900	0.046990	0.671960
C281	C28	0.751600	0.001600	0.692100
C291	C29	0.248420	0.937050	0.087840
C301	C30	0.120300	0.979800	0.102500
C311	C31	0.623100	0.953010	0.171960
C321	C32	0.748400	0.998400	0.192100
C331	C33	0.956600	0.250000	0.476000
C341	C34	0.904800	0.250000	0.388070
C351	C35	0.083600	0.250000	0.846200
C361	C36	0.170400	0.250000	0.921620
C371	C37	0.543400	0.750000	0.976000
C381	C38	0.595200	0.750000	0.888070
C391	C39	0.416400	0.750000	0.346200
C401	C40	0.329600	0.750000	0.421620
C411	C41	0.043400	0.750000	0.524000
C421	C42	0.095200	0.750000	0.611930
C431	C43	0.916400	0.750000	0.153800
C441	C44	0.829600	0.750000	0.078380
C451	C45	0.456600	0.250000	0.024000
C461	C46	0.404800	0.250000	0.111930
C471	C47	0.583600	0.250000	0.653800
C481	C48	0.670400	0.250000	0.578380
O11	O1	0.214100	0.357670	0.630720
O21	O2	0.950680	0.508270	0.631870
O31	O3	0.190260	0.481740	0.532180
O41	O4	0.900820	0.357760	0.693950
O51	O5	0.978150	0.166210	0.514920
O61	O6	0.285900	0.642330	0.130720
O71	O7	0.549320	0.491730	0.131870
O81	O8	0.309740	0.518260	0.032180
O91	O9	0.599180	0.642240	0.193950
O101	O10	0.521850	0.833790	0.014920
O111	O11	0.785900	0.857670	0.369280
O121	O12	0.049320	0.008270	0.368130
O131	O13	0.809740	0.981740	0.467820
O141	O14	0.099180	0.857760	0.306050
O151	O15	0.021850	0.666210	0.485080
O161	O16	0.714100	0.142330	0.869280
O171	O17	0.450680	0.991730	0.868130
O181	O18	0.690260	0.018260	0.967820
O191	O19	0.400820	0.142240	0.806050
O201	O20	0.478150	0.333790	0.985080
O211	O21	0.785900	0.642330	0.369280
O221	O22	0.049320	0.491730	0.368130
O231	O23	0.809740	0.518260	0.467820
O241	O24	0.099180	0.642240	0.306050
O251	O25	0.021850	0.833790	0.485080
O261	O26	0.714100	0.357670	0.869280
O271	O27	0.450680	0.508270	0.868130
O281	O28	0.690260	0.481740	0.967820
O291	O29	0.400820	0.357760	0.806050
O301	O30	0.478150	0.166210	0.985080
O311	O31	0.214100	0.142330	0.630720
O321	O32	0.950680	0.991730	0.631870
O331	O33	0.190260	0.018260	0.532180
O341	O34	0.900820	0.142240	0.693950
O351	O35	0.978150	0.333790	0.514920
O361	O36	0.285900	0.857670	0.130720
O371	O37	0.549320	0.008270	0.131870
O381	O38	0.309740	0.981740	0.032180
O391	O39	0.599180	0.857760	0.193950
O401	O40	0.521850	0.666210	0.014920
O411	O41	0.128870	0.250000	0.771350
O421	O42	0.970800	0.250000	0.861560
O431	O43	0.371130	0.750000	0.271350
O441	O44	0.529200	0.750000	0.361560
O451	O45	0.871130	0.750000	0.228650
O461	O46	0.029200	0.750000	0.138440
O471	O47	0.628870	0.250000	0.728650
O481	O48	0.470800	0.250000	0.638440
