data_POVZUX_freeONLY_PM
_symmetry_space_group_name_H-M	'P1'
_cell_length_a	11.384000
_cell_length_b	12.189000
_cell_length_c	23.331000
_cell_angle_alpha	83.750000
_cell_angle_beta	82.022000
_cell_angle_gamma	70.697000
_symmetry_Int_Tables_number 1

loop_
_symmetry_equiv_pos_as_xyz
'x,y,z'

loop_
_atom_site_label
_atom_site_type_symbol
_atom_site_fract_x
_atom_site_fract_y
_atom_site_fract_z
Sm11	Sm1	0.263500	0.732970	0.260110
Sm21	Sm2	0.736500	0.267030	0.739890
Cu11	Cu1	0.691600	0.130500	0.972220
Cu21	Cu2	0.108600	0.242500	0.255020
Cu31	Cu3	0.308400	0.869500	0.027780
Cu41	Cu4	0.891400	0.757500	0.744980
Cu51	Cu5	0.500000	0.500000	0.500000
Si11	Si1	0.126400	0.212700	0.762700
Si21	Si2	0.873600	0.787300	0.237300
H11	H1	0.323700	0.701900	0.431000
H21	H2	0.108000	0.247900	0.010400
H31	H3	0.082000	0.331000	0.496500
H41	H4	0.278300	0.254800	0.336300
H51	H5	0.541400	0.876200	0.929600
H61	H6	0.286700	0.236800	0.148800
H71	H7	0.255400	0.471200	0.459500
H81	H8	0.535000	0.647500	0.062900
H91	H9	0.933700	0.251100	0.173600
H101	H10	0.747900	0.448900	0.418700
H111	H11	0.743000	0.391300	0.115100
H121	H12	0.892000	0.752100	0.989600
H131	H13	0.415500	0.761300	0.543200
H141	H14	0.458600	0.123800	0.070400
H151	H15	0.904700	0.199300	0.537500
H161	H16	0.066300	0.748900	0.826400
H171	H17	0.397600	0.647400	0.945700
H181	H18	0.940000	0.130100	0.014000
H191	H19	0.754800	0.622800	0.023300
H201	H20	0.257000	0.608700	0.884900
H211	H21	0.744600	0.528800	0.540500
H221	H22	0.546300	0.850200	0.585400
H231	H23	0.602400	0.352600	0.054300
H241	H24	0.245200	0.377200	0.976700
H251	H25	0.676300	0.298100	0.569000
H261	H26	0.095300	0.800700	0.462500
H271	H27	0.465000	0.352500	0.937100
H281	H28	0.918000	0.669000	0.503500
H291	H29	0.937500	0.255200	0.359200
H301	H30	0.252100	0.551100	0.581300
H311	H31	0.584500	0.238700	0.456800
H321	H32	0.453700	0.149800	0.414600
H331	H33	0.713300	0.763200	0.851200
H341	H34	0.721700	0.745200	0.663700
H351	H35	0.062500	0.744800	0.640800
H361	H36	0.060000	0.869900	0.986000
W11	W1	0.927580	0.118110	0.867210
W21	W2	0.684000	0.686520	0.354380
W31	W3	0.743160	0.924670	0.107660
W41	W4	0.562890	0.834240	0.216580
W51	W5	0.911170	0.490880	0.764470
W61	W6	0.088830	0.509120	0.235530
W71	W7	0.437110	0.165760	0.783420
W81	W8	0.233960	0.078450	0.631000
W91	W9	0.010590	0.343660	0.630910
W101	W10	0.017310	0.985750	0.745170
W111	W11	0.788880	0.534680	0.218000
W121	W12	0.649990	0.068320	0.230900
W131	W13	0.256840	0.075330	0.892340
W141	W14	0.971100	0.629200	0.110830
W151	W15	0.982690	0.014250	0.254830
W161	W16	0.350010	0.931680	0.769100
W171	W17	0.072420	0.881890	0.132790
W181	W18	0.989410	0.656340	0.369090
W191	W19	0.028900	0.370800	0.889170
W201	W20	0.316000	0.313480	0.645620
W211	W21	0.766040	0.921550	0.369000
W221	W22	0.211120	0.465320	0.782000
C11	C1	0.214000	0.239800	0.074300
C21	C2	0.797200	0.711900	0.584200
C31	C3	0.317000	0.324000	0.990300
C41	C4	0.438000	0.308000	0.967300
C51	C5	0.152000	0.740000	0.482400
C61	C6	0.237000	0.663000	0.912800
C71	C7	0.683000	0.676000	0.009700
C81	C8	0.202800	0.288100	0.415800
C91	C9	0.321000	0.402000	0.454800
C101	C10	0.000900	0.251300	0.089000
C111	C11	0.500000	0.275000	0.452000
C121	C12	0.241000	0.603200	0.548700
C131	C13	0.434000	0.182000	0.041400
C141	C14	0.571000	0.777000	0.570400
C151	C15	0.003600	0.268300	0.373600
C161	C16	0.429000	0.223000	0.429600
C171	C17	0.562000	0.692000	0.032700
C181	C18	0.996400	0.731700	0.626400
C191	C19	0.005000	0.248900	0.148400
C201	C20	0.500000	0.725000	0.548000
C211	C21	0.720000	0.313000	0.533900
C221	C22	0.214000	0.239600	0.133700
C231	C23	0.566000	0.818000	0.958600
C241	C24	0.012200	0.700400	0.568700
C251	C25	0.280000	0.687000	0.466100
C261	C26	0.795700	0.734700	0.639100
C271	C27	0.999100	0.748700	0.911000
C281	C28	0.763000	0.337000	0.087200
C291	C29	0.987800	0.299600	0.431300
C301	C30	0.759000	0.396800	0.451300
C311	C31	0.108000	0.246500	0.050300
C321	C32	0.687000	0.311000	0.054800
C331	C33	0.995000	0.751100	0.851600
C341	C34	0.892000	0.753500	0.949700
C351	C35	0.679000	0.598000	0.545200
C361	C36	0.912000	0.688000	0.541500
C371	C37	0.848000	0.260000	0.517600
C381	C38	0.874000	0.189000	0.031100
C391	C39	0.786000	0.760200	0.925700
C401	C40	0.786000	0.760400	0.866300
C411	C41	0.204300	0.265300	0.360900
C421	C42	0.088000	0.312000	0.458500
C431	C43	0.126000	0.811000	0.968900
C441	C44	0.313000	0.689000	0.945200
N11	N1	0.128500	0.682900	0.534800
N21	N2	0.871500	0.317100	0.465200
N31	N3	0.677900	0.753100	0.963300
N41	N4	0.686400	0.697800	0.565300
N51	N5	0.673100	0.386300	0.491600
N61	N6	0.890400	0.756600	0.830100
N71	N7	0.322100	0.246900	0.036700
N81	N8	0.326900	0.613700	0.508400
N91	N9	0.115800	0.740800	0.932900
N101	N10	0.488600	0.788300	0.002500
N111	N11	0.106700	0.257000	0.340000
N121	N12	0.248600	0.785600	0.977700
N131	N13	0.109600	0.243400	0.169900
N141	N14	0.893300	0.743000	0.660000
N151	N15	0.563400	0.616600	0.533800
N161	N16	0.884200	0.259200	0.067100
N171	N17	0.436600	0.383400	0.466200
N181	N18	0.751400	0.214400	0.022300
N191	N19	0.313600	0.302200	0.434700
N201	N20	0.511400	0.211700	0.997500
O11	O1	0.019400	0.583200	0.042200
O21	O2	0.914300	0.664400	0.211500
O31	O3	0.476700	0.009900	0.766100
O41	O4	0.791000	0.187700	0.835300
O51	O5	0.946200	0.258900	0.885900
O61	O6	0.105400	0.055900	0.890300
O71	O7	0.563600	0.406100	0.806500
O81	O8	0.085700	0.335600	0.788500
O91	O9	0.661000	0.065100	0.147900
O101	O10	0.894600	0.944100	0.109700
O111	O11	0.281600	0.982100	0.577300
O121	O12	0.406600	0.837700	0.218200
O131	O13	0.863800	0.071600	0.731100
O141	O14	0.402000	0.580000	0.320200
O151	O15	0.907300	0.489500	0.848600
O161	O16	0.424800	0.367500	0.604200
O171	O17	0.987700	0.151600	0.266100
O181	O18	0.593400	0.162300	0.781800
O191	O19	0.411200	0.115700	0.864000
O201	O20	0.836900	0.770300	0.308200
O211	O21	0.012300	0.848400	0.733900
O221	O22	0.032600	0.021400	0.173500
O231	O23	0.445000	0.788400	0.760600
O241	O24	0.347200	0.166000	0.606100
O251	O25	0.105500	0.021700	0.674200
O261	O26	0.942200	0.426800	0.573000
O271	O27	0.339000	0.934900	0.852100
O281	O28	0.807300	0.630100	0.757500
O291	O29	0.170700	0.239500	0.902700
O301	O30	0.741300	0.581100	0.295700
O311	O31	0.105000	0.203000	0.595000
O321	O32	0.967400	0.978600	0.826500
O331	O33	0.598000	0.420000	0.679800
O341	O34	0.751700	0.865000	0.208000
O351	O35	0.662600	0.678500	0.200200
O361	O36	0.977200	0.461000	0.686700
O371	O37	0.718400	0.017900	0.422700
O381	O38	0.022800	0.539000	0.313300
O391	O39	0.022000	0.151000	0.778800
O401	O40	0.588800	0.884300	0.136000
O411	O41	0.671800	0.999500	0.309300
O421	O42	0.829300	0.760500	0.097300
O431	O43	0.822700	0.618900	0.389500
O441	O44	0.294500	0.020300	0.962500
O451	O45	0.980600	0.416800	0.957800
O461	O46	0.187500	0.929700	0.771400
O471	O47	0.328200	0.000500	0.690700
O481	O48	0.895000	0.797000	0.405000
O491	O49	0.860200	0.072200	0.933500
O501	O50	0.436400	0.593900	0.193500
O511	O51	0.209000	0.812300	0.164700
O521	O52	0.139800	0.927800	0.066500
O531	O53	0.812500	0.070300	0.228600
O541	O54	0.941800	0.440000	0.236900
O551	O55	0.183100	0.595400	0.231800
O561	O56	0.523300	0.990100	0.233900
O571	O57	0.588400	0.786900	0.294600
O581	O58	0.575200	0.632500	0.395800
O591	O59	0.102300	0.715000	0.332200
O601	O60	0.143800	0.456800	0.862400
O611	O61	0.897700	0.285000	0.667800
O621	O62	0.192700	0.369900	0.242500
O631	O63	0.136200	0.928400	0.268900
O641	O64	0.709200	0.436400	0.215200
O651	O65	0.411600	0.213100	0.705400
O661	O66	0.258700	0.418900	0.704300
O671	O67	0.362800	0.930700	0.093300
O681	O68	0.816900	0.404600	0.768200
O691	O69	0.266200	0.093000	0.259900
O701	O70	0.856200	0.543200	0.137600
O711	O71	0.058200	0.560000	0.763100
O721	O72	0.092700	0.510500	0.151400
O731	O73	0.652800	0.834000	0.393900
O741	O74	0.637200	0.069300	0.906700
O751	O75	0.978000	0.849000	0.221200
O761	O76	0.290800	0.563600	0.784800
O771	O77	0.177300	0.381100	0.610500
O781	O78	0.733800	0.907000	0.740100
O791	O79	0.894500	0.978300	0.325800
O801	O80	0.322700	0.817900	0.341400
O811	O81	0.555000	0.211600	0.239400
O821	O82	0.337400	0.321500	0.799800
O831	O83	0.248300	0.135000	0.792000
O841	O84	0.057800	0.573200	0.427000
O851	O85	0.163100	0.229700	0.691800
O861	O86	0.705500	0.979700	0.037500
O871	O87	0.677300	0.182100	0.658600
O881	O88	0.053800	0.741100	0.114100
