data_POXHIU_freeONLY_PM
_symmetry_space_group_name_H-M	'P1'
_cell_length_a	9.113700
_cell_length_b	9.663900
_cell_length_c	22.259000
_cell_angle_alpha	90.000000
_cell_angle_beta	90.000000
_cell_angle_gamma	117.960000
_symmetry_Int_Tables_number 1

loop_
_symmetry_equiv_pos_as_xyz
'x,y,z'

loop_
_atom_site_label
_atom_site_type_symbol
_atom_site_fract_x
_atom_site_fract_y
_atom_site_fract_z
Ho11	Ho1	0.619220	0.354600	0.008270
Ho21	Ho2	0.880780	0.645400	0.508270
Ho31	Ho3	0.380780	0.645400	0.991730
Ho41	Ho4	0.119220	0.354600	0.491730
Ag11	Ag1	0.011770	0.679840	0.851680
Ag21	Ag2	0.488230	0.320160	0.351680
Ag31	Ag3	0.988230	0.320160	0.148320
Ag41	Ag4	0.511770	0.679840	0.648320
H11	H1	0.945200	0.227200	0.928900
H21	H2	0.746000	0.036800	0.867800
H31	H3	0.775300	0.823200	0.841100
H41	H4	0.182500	0.971100	0.935000
H51	H5	0.985100	0.638000	0.715900
H61	H6	0.101800	0.309500	0.659900
H71	H7	0.138700	0.262500	0.759800
H81	H8	0.108400	0.412200	0.833400
H91	H9	0.554800	0.772800	0.428900
H101	H10	0.754000	0.963200	0.367800
H111	H11	0.724700	0.176800	0.341100
H121	H12	0.317500	0.028900	0.435000
H131	H13	0.514900	0.362000	0.215900
H141	H14	0.398200	0.690500	0.159900
H151	H15	0.361300	0.737500	0.259800
H161	H16	0.391600	0.587800	0.333400
H171	H17	0.054800	0.772800	0.071100
H181	H18	0.254000	0.963200	0.132200
H191	H19	0.224700	0.176800	0.158900
H201	H20	0.817500	0.028900	0.065000
H211	H21	0.014900	0.362000	0.284100
H221	H22	0.898200	0.690500	0.340100
H231	H23	0.861300	0.737500	0.240200
H241	H24	0.891600	0.587800	0.166600
H251	H25	0.445200	0.227200	0.571100
H261	H26	0.246000	0.036800	0.632200
H271	H27	0.275300	0.823200	0.658900
H281	H28	0.682500	0.971100	0.565000
H291	H29	0.485100	0.638000	0.784100
H301	H30	0.601800	0.309500	0.840100
H311	H31	0.638700	0.262500	0.740200
H321	H32	0.608400	0.412200	0.666600
C11	C1	0.224400	0.246100	0.974360
C21	C2	0.088100	0.119700	0.937700
C31	C3	0.954900	0.139100	0.917870
C41	C4	0.836500	0.026000	0.881400
C51	C5	0.854800	0.898300	0.865900
C61	C6	0.095000	0.986100	0.920800
C71	C7	0.018400	0.562700	0.724490
C81	C8	0.039400	0.481100	0.677200
C91	C9	0.086300	0.366900	0.690500
C101	C10	0.109700	0.339900	0.749800
C111	C11	0.089400	0.429000	0.793700
C121	C12	0.010800	0.516800	0.614200
C131	C13	0.508100	0.007500	0.965590
C141	C14	0.997800	0.520000	0.966830
C151	C15	0.275600	0.753900	0.474360
C161	C16	0.411900	0.880300	0.437700
C171	C17	0.545100	0.860900	0.417870
C181	C18	0.663500	0.974000	0.381400
C191	C19	0.645200	0.101700	0.365900
C201	C20	0.405000	0.013900	0.420800
C211	C21	0.481600	0.437300	0.224490
C221	C22	0.460600	0.518900	0.177200
C231	C23	0.413700	0.633100	0.190500
C241	C24	0.390300	0.660100	0.249800
C251	C25	0.410600	0.571000	0.293700
C261	C26	0.489200	0.483200	0.114200
C271	C27	0.991900	0.992500	0.465590
C281	C28	0.502200	0.480000	0.466830
C291	C29	0.775600	0.753900	0.025640
C301	C30	0.911900	0.880300	0.062300
C311	C31	0.045100	0.860900	0.082130
C321	C32	0.163500	0.974000	0.118600
C331	C33	0.145200	0.101700	0.134100
C341	C34	0.905000	0.013900	0.079200
C351	C35	0.981600	0.437300	0.275510
C361	C36	0.960600	0.518900	0.322800
C371	C37	0.913700	0.633100	0.309500
C381	C38	0.890300	0.660100	0.250200
C391	C39	0.910600	0.571000	0.206300
C401	C40	0.989200	0.483200	0.385800
C411	C41	0.491900	0.992500	0.034410
C421	C42	0.002200	0.480000	0.033170
C431	C43	0.724400	0.246100	0.525640
C441	C44	0.588100	0.119700	0.562300
C451	C45	0.454900	0.139100	0.582130
C461	C46	0.336500	0.026000	0.618600
C471	C47	0.354800	0.898300	0.634100
C481	C48	0.595000	0.986100	0.579200
C491	C49	0.518400	0.562700	0.775510
C501	C50	0.539400	0.481100	0.822800
C511	C51	0.586300	0.366900	0.809500
C521	C52	0.609700	0.339900	0.750200
C531	C53	0.589400	0.429000	0.706300
C541	C54	0.510800	0.516800	0.885800
C551	C55	0.008100	0.007500	0.534410
C561	C56	0.497800	0.520000	0.533170
N11	N1	0.981900	0.876000	0.884760
N21	N2	0.043300	0.539500	0.781980
N31	N3	0.518100	0.124000	0.384760
N41	N4	0.456700	0.460500	0.281980
N51	N5	0.018100	0.124000	0.115240
N61	N6	0.956700	0.460500	0.218020
N71	N7	0.481900	0.876000	0.615240
N81	N8	0.543300	0.539500	0.718020
O11	O1	0.328000	0.212600	0.999120
O21	O2	0.223500	0.374500	0.976130
O31	O3	0.949200	0.607600	0.606680
O41	O4	0.048200	0.451700	0.572640
O51	O5	0.134000	0.614900	0.943460
O61	O6	0.860500	0.456900	0.940950
O71	O7	0.578100	0.143700	0.944390
O81	O8	0.450700	0.882600	0.936190
O91	O9	0.172000	0.787400	0.499120
O101	O10	0.276500	0.625500	0.476130
O111	O11	0.550800	0.392400	0.106680
O121	O12	0.451800	0.548300	0.072640
O131	O13	0.366000	0.385100	0.443460
O141	O14	0.639500	0.543100	0.440950
O151	O15	0.921900	0.856300	0.444390
O161	O16	0.049300	0.117400	0.436190
O171	O17	0.672000	0.787400	0.000880
O181	O18	0.776500	0.625500	0.023870
O191	O19	0.050800	0.392400	0.393320
O201	O20	0.951800	0.548300	0.427360
O211	O21	0.866000	0.385100	0.056540
O221	O22	0.139500	0.543100	0.059050
O231	O23	0.421900	0.856300	0.055610
O241	O24	0.549300	0.117400	0.063810
O251	O25	0.828000	0.212600	0.500880
O261	O26	0.723500	0.374500	0.523870
O271	O27	0.449200	0.607600	0.893320
O281	O28	0.548200	0.451700	0.927360
O291	O29	0.634000	0.614900	0.556540
O301	O30	0.360500	0.456900	0.559050
O311	O31	0.078100	0.143700	0.555610
O321	O32	0.950700	0.882600	0.563810
