data_PRIMIN_freeONLY_PM
_symmetry_space_group_name_H-M	'P1'
_cell_length_a	8.719800
_cell_length_b	18.421800
_cell_length_c	9.272500
_cell_angle_alpha	90.000000
_cell_angle_beta	108.248000
_cell_angle_gamma	90.000000
_symmetry_Int_Tables_number 1

loop_
_symmetry_equiv_pos_as_xyz
'x,y,z'

loop_
_atom_site_label
_atom_site_type_symbol
_atom_site_fract_x
_atom_site_fract_y
_atom_site_fract_z
C11	C1	0.727900	0.045500	0.449300
C21	C2	0.564400	0.082000	0.408500
C31	C3	0.485900	0.085400	0.120800
C41	C4	0.304900	0.064700	0.074000
C51	C5	0.807200	0.182100	0.830100
C61	C6	0.850100	0.121600	0.950500
N11	N1	0.532700	0.128100	0.266800
O11	O1	0.770100	0.010800	0.575900
O21	O2	0.816200	0.052400	0.364200
O31	O3	0.255600	0.032000	0.947900
O41	O4	0.232300	0.079000	0.163300
O51	O5	0.919500	0.064600	0.918800
O61	O6	0.821500	0.132200	0.077600
O71	O7	0.930000	0.858600	0.624900
O81	O8	0.073700	0.095000	0.675500
Pr11	Pr1	0.008900	0.976000	0.782100
C71	C7	0.272100	0.545500	0.550700
C81	C8	0.435600	0.582000	0.591500
C91	C9	0.514100	0.585400	0.879200
C101	C10	0.695100	0.564700	0.926000
C111	C11	0.192800	0.682100	0.169900
C121	C12	0.149900	0.621600	0.049500
N21	N2	0.467300	0.628100	0.733200
O91	O9	0.229900	0.510800	0.424100
O101	O10	0.183800	0.552400	0.635800
O111	O11	0.744400	0.532000	0.052100
O121	O12	0.767700	0.579000	0.836700
O131	O13	0.080500	0.564600	0.081200
O141	O14	0.178500	0.632200	0.922400
O151	O15	0.070000	0.358600	0.375100
O161	O16	0.926300	0.595000	0.324500
Pr21	Pr2	0.991100	0.476000	0.217900
C131	C13	0.272100	0.954500	0.550700
C141	C14	0.435600	0.918000	0.591500
C151	C15	0.514100	0.914600	0.879200
C161	C16	0.695100	0.935300	0.926000
C171	C17	0.192800	0.817900	0.169900
C181	C18	0.149900	0.878400	0.049500
N31	N3	0.467300	0.871900	0.733200
O171	O17	0.229900	0.989200	0.424100
O181	O18	0.183800	0.947600	0.635800
O191	O19	0.744400	0.968000	0.052100
O201	O20	0.767700	0.921000	0.836700
O211	O21	0.080500	0.935400	0.081200
O221	O22	0.178500	0.867800	0.922400
O231	O23	0.070000	0.141400	0.375100
O241	O24	0.926300	0.905000	0.324500
Pr31	Pr3	0.991100	0.024000	0.217900
C191	C19	0.727900	0.454500	0.449300
C201	C20	0.564400	0.418000	0.408500
C211	C21	0.485900	0.414600	0.120800
C221	C22	0.304900	0.435300	0.074000
C231	C23	0.807200	0.317900	0.830100
C241	C24	0.850100	0.378400	0.950500
N41	N4	0.532700	0.371900	0.266800
O251	O25	0.770100	0.489200	0.575900
O261	O26	0.816200	0.447600	0.364200
O271	O27	0.255600	0.468000	0.947900
O281	O28	0.232300	0.421000	0.163300
O291	O29	0.919500	0.435400	0.918800
O301	O30	0.821500	0.367800	0.077600
O311	O31	0.930000	0.641400	0.624900
O321	O32	0.073700	0.405000	0.675500
Pr41	Pr4	0.008900	0.524000	0.782100
N51	N5	0.780400	0.250000	0.915600
N61	N6	0.219600	0.750000	0.084400
