data_PUFNUB_freeONLY_PM
_symmetry_space_group_name_H-M	'P1'
_cell_length_a	15.368300
_cell_length_b	15.368300
_cell_length_c	9.895000
_cell_angle_alpha	90.000000
_cell_angle_beta	90.000000
_cell_angle_gamma	90.000000
_symmetry_Int_Tables_number 1

loop_
_symmetry_equiv_pos_as_xyz
'x,y,z'

loop_
_atom_site_label
_atom_site_type_symbol
_atom_site_fract_x
_atom_site_fract_y
_atom_site_fract_z
O11	O1	0.128620	0.032130	0.121700
C11	C1	0.257410	0.887760	0.877700
H11	H1	0.240300	0.912900	0.796400
C21	C2	0.306170	0.812870	0.879300
H21	H2	0.322600	0.787600	0.797800
O21	O2	0.871380	0.967870	0.121700
C31	C3	0.742590	0.112240	0.877700
H31	H3	0.759700	0.087100	0.796400
C41	C4	0.693830	0.187130	0.879300
H41	H4	0.677400	0.212400	0.797800
O31	O3	0.967870	0.128620	0.121700
C51	C5	0.112240	0.257410	0.877700
H51	H5	0.087100	0.240300	0.796400
C61	C6	0.187130	0.306170	0.879300
H61	H6	0.212400	0.322600	0.797800
O41	O4	0.032130	0.871380	0.121700
C71	C7	0.887760	0.742590	0.877700
H71	H7	0.912900	0.759700	0.796400
C81	C8	0.812870	0.693830	0.879300
H81	H8	0.787600	0.677400	0.797800
O51	O5	0.871380	0.032130	0.378300
C91	C9	0.742590	0.887760	0.622300
H91	H9	0.759700	0.912900	0.703600
C101	C10	0.693830	0.812870	0.620700
H101	H10	0.677400	0.787600	0.702200
O61	O6	0.128620	0.967870	0.378300
C111	C11	0.257410	0.112240	0.622300
H111	H11	0.240300	0.087100	0.703600
C121	C12	0.306170	0.187130	0.620700
H121	H12	0.322600	0.212400	0.702200
O71	O7	0.032130	0.128620	0.378300
C131	C13	0.887760	0.257410	0.622300
H131	H13	0.912900	0.240300	0.703600
C141	C14	0.812870	0.306170	0.620700
H141	H14	0.787600	0.322600	0.702200
O81	O8	0.967870	0.871380	0.378300
C151	C15	0.112240	0.742590	0.622300
H151	H15	0.087100	0.759700	0.703600
C161	C16	0.187130	0.693830	0.620700
H161	H16	0.212400	0.677400	0.702200
O91	O9	0.871380	0.967870	0.878300
C171	C17	0.742590	0.112240	0.122300
H171	H17	0.759700	0.087100	0.203600
C181	C18	0.693830	0.187130	0.120700
H181	H18	0.677400	0.212400	0.202200
O101	O10	0.128620	0.032130	0.878300
C191	C19	0.257410	0.887760	0.122300
H191	H19	0.240300	0.912900	0.203600
C201	C20	0.306170	0.812870	0.120700
H201	H20	0.322600	0.787600	0.202200
O111	O11	0.032130	0.871380	0.878300
C211	C21	0.887760	0.742590	0.122300
H211	H21	0.912900	0.759700	0.203600
C221	C22	0.812870	0.693830	0.120700
H221	H22	0.787600	0.677400	0.202200
O121	O12	0.967870	0.128620	0.878300
C231	C23	0.112240	0.257410	0.122300
H231	H23	0.087100	0.240300	0.203600
C241	C24	0.187130	0.306170	0.120700
H241	H24	0.212400	0.322600	0.202200
O131	O13	0.128620	0.967870	0.621700
C251	C25	0.257410	0.112240	0.377700
H251	H25	0.240300	0.087100	0.296400
C261	C26	0.306170	0.187130	0.379300
H261	H26	0.322600	0.212400	0.297800
O141	O14	0.871380	0.032130	0.621700
C271	C27	0.742590	0.887760	0.377700
H271	H27	0.759700	0.912900	0.296400
C281	C28	0.693830	0.812870	0.379300
H281	H28	0.677400	0.787600	0.297800
O151	O15	0.967870	0.871380	0.621700
C291	C29	0.112240	0.742590	0.377700
H291	H29	0.087100	0.759700	0.296400
C301	C30	0.187130	0.693830	0.379300
H301	H30	0.212400	0.677400	0.297800
O161	O16	0.032130	0.128620	0.621700
C311	C31	0.887760	0.257410	0.377700
H311	H31	0.912900	0.240300	0.296400
C321	C32	0.812870	0.306170	0.379300
H321	H32	0.787600	0.322600	0.297800
Sm11	Sm1	0.000000	0.000000	0.250000
Sm21	Sm2	0.000000	0.000000	0.750000
S11	S1	0.180790	0.027780	0.000000
O171	O17	0.248490	0.090520	0.000000
N11	N1	0.369600	0.531000	0.000000
C331	C33	0.234300	0.925000	0.000000
C341	C34	0.331600	0.773900	0.000000
C351	C35	0.383200	0.690100	0.000000
C361	C36	0.335000	0.613600	0.000000
C371	C37	0.241800	0.607400	0.000000
H331	H33	0.202300	0.653300	0.000000
C381	C38	0.222600	0.521100	0.000000
H341	H34	0.166900	0.497400	0.000000
C391	C39	0.301700	0.472700	0.000000
S21	S2	0.819210	0.972220	0.000000
O181	O18	0.751510	0.909480	0.000000
N21	N2	0.630400	0.469000	0.000000
C401	C40	0.765700	0.075000	0.000000
C411	C41	0.668400	0.226100	0.000000
C421	C42	0.616800	0.309900	0.000000
C431	C43	0.665000	0.386400	0.000000
C441	C44	0.758200	0.392600	0.000000
H351	H35	0.797700	0.346700	0.000000
C451	C45	0.777400	0.478900	0.000000
H361	H36	0.833100	0.502600	0.000000
C461	C46	0.698300	0.527300	0.000000
S31	S3	0.972220	0.180790	0.000000
O191	O19	0.909480	0.248490	0.000000
N31	N3	0.469000	0.369600	0.000000
C471	C47	0.075000	0.234300	0.000000
C481	C48	0.226100	0.331600	0.000000
C491	C49	0.309900	0.383200	0.000000
C501	C50	0.386400	0.335000	0.000000
C511	C51	0.392600	0.241800	0.000000
H371	H37	0.346700	0.202300	0.000000
C521	C52	0.478900	0.222600	0.000000
H381	H38	0.502600	0.166900	0.000000
C531	C53	0.527300	0.301700	0.000000
S41	S4	0.027780	0.819210	0.000000
O201	O20	0.090520	0.751510	0.000000
N41	N4	0.531000	0.630400	0.000000
C541	C54	0.925000	0.765700	0.000000
C551	C55	0.773900	0.668400	0.000000
C561	C56	0.690100	0.616800	0.000000
C571	C57	0.613600	0.665000	0.000000
C581	C58	0.607400	0.758200	0.000000
H391	H39	0.653300	0.797700	0.000000
C591	C59	0.521100	0.777400	0.000000
H401	H40	0.497400	0.833100	0.000000
C601	C60	0.472700	0.698300	0.000000
S51	S5	0.819210	0.027780	0.500000
O211	O21	0.751510	0.090520	0.500000
N51	N5	0.630400	0.531000	0.500000
C611	C61	0.765700	0.925000	0.500000
C621	C62	0.668400	0.773900	0.500000
C631	C63	0.616800	0.690100	0.500000
C641	C64	0.665000	0.613600	0.500000
C651	C65	0.758200	0.607400	0.500000
H411	H41	0.797700	0.653300	0.500000
C661	C66	0.777400	0.521100	0.500000
H421	H42	0.833100	0.497400	0.500000
C671	C67	0.698300	0.472700	0.500000
S61	S6	0.180790	0.972220	0.500000
O221	O22	0.248490	0.909480	0.500000
N61	N6	0.369600	0.469000	0.500000
C681	C68	0.234300	0.075000	0.500000
C691	C69	0.331600	0.226100	0.500000
C701	C70	0.383200	0.309900	0.500000
C711	C71	0.335000	0.386400	0.500000
C721	C72	0.241800	0.392600	0.500000
H431	H43	0.202300	0.346700	0.500000
C731	C73	0.222600	0.478900	0.500000
H441	H44	0.166900	0.502600	0.500000
C741	C74	0.301700	0.527300	0.500000
S71	S7	0.027780	0.180790	0.500000
O231	O23	0.090520	0.248490	0.500000
N71	N7	0.531000	0.369600	0.500000
C751	C75	0.925000	0.234300	0.500000
C761	C76	0.773900	0.331600	0.500000
C771	C77	0.690100	0.383200	0.500000
C781	C78	0.613600	0.335000	0.500000
C791	C79	0.607400	0.241800	0.500000
H451	H45	0.653300	0.202300	0.500000
C801	C80	0.521100	0.222600	0.500000
H461	H46	0.497400	0.166900	0.500000
C811	C81	0.472700	0.301700	0.500000
S81	S8	0.972220	0.819210	0.500000
O241	O24	0.909480	0.751510	0.500000
N81	N8	0.469000	0.630400	0.500000
C821	C82	0.075000	0.765700	0.500000
C831	C83	0.226100	0.668400	0.500000
C841	C84	0.309900	0.616800	0.500000
C851	C85	0.386400	0.665000	0.500000
C861	C86	0.392600	0.758200	0.500000
H471	H47	0.346700	0.797700	0.500000
C871	C87	0.478900	0.777400	0.500000
H481	H48	0.502600	0.833100	0.500000
C881	C88	0.527300	0.698300	0.500000
