data_PUGSUH_freeONLY_PM
_symmetry_space_group_name_H-M	'P1'
_cell_length_a	10.364000
_cell_length_b	26.746000
_cell_length_c	27.804000
_cell_angle_alpha	90.000000
_cell_angle_beta	93.910000
_cell_angle_gamma	90.000000
_symmetry_Int_Tables_number 1

loop_
_symmetry_equiv_pos_as_xyz
'x,y,z'

loop_
_atom_site_label
_atom_site_type_symbol
_atom_site_fract_x
_atom_site_fract_y
_atom_site_fract_z
C11	C1	0.963600	0.371000	0.071500
C21	C2	0.970300	0.416900	0.037900
C31	C3	0.955600	0.408300	0.987600
H11	H1	0.937300	0.375800	0.976000
C41	C4	0.991600	0.462000	0.056000
H21	H2	0.996700	0.466900	0.089500
C51	C5	0.007100	0.504000	0.023800
C61	C6	0.032200	0.552700	0.044800
H31	H3	0.039900	0.557700	0.078300
C71	C7	0.245100	0.335800	0.206400
C81	C8	0.367300	0.363300	0.215200
C91	C9	0.485600	0.340300	0.206600
H41	H4	0.486900	0.306700	0.196800
C101	C10	0.598500	0.366500	0.212500
C111	C11	0.599400	0.415300	0.228000
H51	H5	0.678200	0.432800	0.231900
C121	C12	0.484600	0.439200	0.238000
C131	C13	0.369200	0.412500	0.230700
H61	H6	0.290800	0.428300	0.236600
C141	C14	0.721500	0.341200	0.197900
C151	C15	0.486800	0.491800	0.255200
C161	C16	0.590800	0.512900	0.280400
H71	H7	0.664600	0.493100	0.287400
C171	C17	0.592300	0.561300	0.296000
H81	H8	0.665900	0.573900	0.313600
C181	C18	0.484500	0.592700	0.285800
C191	C19	0.378400	0.573000	0.259200
H91	H9	0.306300	0.593400	0.251100
C201	C20	0.377900	0.523100	0.244300
H101	H10	0.304500	0.510000	0.226900
C211	C21	0.487400	0.645600	0.300800
C221	C22	0.691800	0.222300	0.081900
C231	C23	0.564800	0.219300	0.053700
C241	C24	0.452300	0.218600	0.078500
H111	H11	0.456800	0.216300	0.112300
C251	C25	0.332200	0.221500	0.052100
C261	C26	0.324900	0.224800	0.002300
H121	H12	0.243600	0.226900	0.985300
C271	C27	0.436500	0.224800	0.977000
C281	C28	0.558900	0.224400	0.003800
H131	H13	0.635400	0.227500	0.987800
C291	C29	0.212600	0.225000	0.078800
C301	C30	0.430900	0.229400	0.924300
C311	C31	0.332600	0.255000	0.898900
H141	H14	0.265800	0.269200	0.915600
C321	C32	0.330600	0.260100	0.849700
H151	H15	0.259900	0.276000	0.833100
C331	C33	0.429300	0.242400	0.824500
C341	C34	0.525700	0.217400	0.850100
H161	H16	0.593600	0.204300	0.833200
C351	C35	0.529600	0.210000	0.899600
H171	H17	0.597900	0.192300	0.915700
C361	C36	0.429100	0.249700	0.770600
O11	O1	0.970500	0.269710	0.150530
O21	O2	0.947600	0.329700	0.050930
O31	O3	0.969000	0.380100	0.115100
O41	O4	0.256200	0.288140	0.201180
O51	O5	0.141900	0.360160	0.203330
O61	O6	0.711400	0.299800	0.178350
O71	O7	0.827700	0.364910	0.206250
O81	O8	0.587400	0.661400	0.323350
O91	O9	0.385200	0.671060	0.291980
O101	O10	0.695500	0.212200	0.125880
O111	O11	0.790600	0.233810	0.059190
O121	O12	0.221700	0.217360	0.123370
O131	O13	0.106800	0.234080	0.053970
O141	O14	0.330000	0.267400	0.748230
O151	O15	0.523000	0.232700	0.751100
Zn11	Zn1	0.122190	0.238060	0.182850
Zn21	Zn2	0.827820	0.233430	0.177720
Zn31	Zn3	0.955430	0.264080	0.081850
Zn41	Zn4	0.973110	0.336570	0.174950
C371	C37	0.536400	0.871000	0.428500
C381	C38	0.529700	0.916900	0.462100
C391	C39	0.544400	0.908300	0.512400
H181	H18	0.562700	0.875800	0.524000
C401	C40	0.508400	0.962000	0.444000
H191	H19	0.503300	0.966900	0.410500
C411	C41	0.492900	0.004000	0.476200
C421	C42	0.467800	0.052700	0.455200
H201	H20	0.460100	0.057700	0.421700
C431	C43	0.254900	0.835800	0.293600
C441	C44	0.132700	0.863300	0.284800
C451	C45	0.014400	0.840300	0.293400
H211	H21	0.013100	0.806700	0.303200
C461	C46	0.901500	0.866500	0.287500
C471	C47	0.900600	0.915300	0.272000
H221	H22	0.821800	0.932800	0.268100
C481	C48	0.015400	0.939200	0.262000
C491	C49	0.130800	0.912500	0.269300
H231	H23	0.209200	0.928300	0.263400
C501	C50	0.778500	0.841200	0.302100
C511	C51	0.013200	0.991800	0.244800
C521	C52	0.909200	0.012900	0.219600
H241	H24	0.835400	0.993100	0.212600
C531	C53	0.907700	0.061300	0.204000
H251	H25	0.834100	0.073900	0.186400
C541	C54	0.015500	0.092700	0.214200
C551	C55	0.121600	0.073000	0.240800
H261	H26	0.193700	0.093400	0.248900
C561	C56	0.122100	0.023100	0.255700
H271	H27	0.195500	0.010000	0.273100
C571	C57	0.012600	0.145600	0.199200
C581	C58	0.808200	0.722300	0.418100
C591	C59	0.935200	0.719300	0.446300
C601	C60	0.047700	0.718600	0.421500
H281	H28	0.043200	0.716300	0.387700
C611	C61	0.167800	0.721500	0.447900
C621	C62	0.175100	0.724800	0.497700
H291	H29	0.256400	0.726900	0.514700
C631	C63	0.063500	0.724800	0.523000
C641	C64	0.941100	0.724400	0.496200
H301	H30	0.864600	0.727500	0.512200
C651	C65	0.287400	0.725000	0.421200
C661	C66	0.069100	0.729400	0.575700
C671	C67	0.167400	0.755000	0.601100
H311	H31	0.234200	0.769200	0.584400
C681	C68	0.169400	0.760100	0.650300
H321	H32	0.240100	0.776000	0.666900
C691	C69	0.070700	0.742400	0.675500
C701	C70	0.974300	0.717400	0.649900
H331	H33	0.906400	0.704300	0.666800
C711	C71	0.970400	0.710000	0.600400
H341	H34	0.902100	0.692300	0.584300
C721	C72	0.070900	0.749700	0.729400
O161	O16	0.529500	0.769710	0.349470
O171	O17	0.552400	0.829700	0.449070
O181	O18	0.531000	0.880100	0.384900
O191	O19	0.243800	0.788140	0.298820
O201	O20	0.358100	0.860160	0.296670
O211	O21	0.788600	0.799800	0.321650
O221	O22	0.672300	0.864910	0.293750
O231	O23	0.912600	0.161400	0.176650
O241	O24	0.114800	0.171060	0.208020
O251	O25	0.804500	0.712200	0.374120
O261	O26	0.709400	0.733810	0.440810
O271	O27	0.278300	0.717360	0.376630
O281	O28	0.393200	0.734080	0.446030
O291	O29	0.170000	0.767400	0.751770
O301	O30	0.977000	0.732700	0.748900
Zn51	Zn5	0.377810	0.738060	0.317150
Zn61	Zn6	0.672180	0.733430	0.322280
Zn71	Zn7	0.544570	0.764080	0.418150
Zn81	Zn8	0.526890	0.836570	0.325050
C731	C73	0.036400	0.629000	0.928500
C741	C74	0.029700	0.583100	0.962100
C751	C75	0.044400	0.591700	0.012400
H351	H35	0.062700	0.624200	0.024000
C761	C76	0.008400	0.538000	0.944000
H361	H36	0.003300	0.533100	0.910500
C771	C77	0.992900	0.496000	0.976200
C781	C78	0.967800	0.447300	0.955200
H371	H37	0.960100	0.442300	0.921700
C791	C79	0.754900	0.664200	0.793600
C801	C80	0.632700	0.636700	0.784800
C811	C81	0.514400	0.659700	0.793400
H381	H38	0.513100	0.693300	0.803200
C821	C82	0.401500	0.633500	0.787500
C831	C83	0.400600	0.584700	0.772000
H391	H39	0.321800	0.567200	0.768100
C841	C84	0.515400	0.560800	0.762000
C851	C85	0.630800	0.587500	0.769300
H401	H40	0.709200	0.571700	0.763400
C861	C86	0.278500	0.658800	0.802100
C871	C87	0.513200	0.508200	0.744800
C881	C88	0.409200	0.487100	0.719600
H411	H41	0.335400	0.506900	0.712600
C891	C89	0.407700	0.438700	0.704000
H421	H42	0.334100	0.426100	0.686400
C901	C90	0.515500	0.407300	0.714200
C911	C91	0.621600	0.427000	0.740800
H431	H43	0.693700	0.406600	0.748900
C921	C92	0.622100	0.476900	0.755700
H441	H44	0.695500	0.490000	0.773100
C931	C93	0.512600	0.354400	0.699200
C941	C94	0.308200	0.777700	0.918100
C951	C95	0.435200	0.780700	0.946300
C961	C96	0.547700	0.781400	0.921500
H451	H45	0.543200	0.783700	0.887700
C971	C97	0.667800	0.778500	0.947900
C981	C98	0.675100	0.775200	0.997700
H461	H46	0.756400	0.773100	0.014700
C991	C99	0.563500	0.775200	0.023000
C1001	C100	0.441100	0.775600	0.996200
H471	H47	0.364600	0.772500	0.012200
C1011	C101	0.787400	0.775000	0.921200
C1021	C102	0.569100	0.770600	0.075700
C1031	C103	0.667400	0.745000	0.101100
H481	H48	0.734200	0.730800	0.084400
C1041	C104	0.669400	0.739900	0.150300
H491	H49	0.740100	0.724000	0.166900
C1051	C105	0.570700	0.757600	0.175500
C1061	C106	0.474300	0.782600	0.149900
H501	H50	0.406400	0.795700	0.166800
C1071	C107	0.470400	0.790000	0.100400
H511	H51	0.402100	0.807700	0.084300
C1081	C108	0.570900	0.750300	0.229400
O311	O31	0.029500	0.730290	0.849470
O321	O32	0.052400	0.670300	0.949070
O331	O33	0.031000	0.619900	0.884900
O341	O34	0.743800	0.711860	0.798820
O351	O35	0.858100	0.639840	0.796670
O361	O36	0.288600	0.700200	0.821650
O371	O37	0.172300	0.635090	0.793750
O381	O38	0.412600	0.338600	0.676650
O391	O39	0.614800	0.328940	0.708020
O401	O40	0.304500	0.787800	0.874120
O411	O41	0.209400	0.766190	0.940810
O421	O42	0.778300	0.782640	0.876630
O431	O43	0.893200	0.765920	0.946030
O441	O44	0.670000	0.732600	0.251770
O451	O45	0.477000	0.767300	0.248900
Zn91	Zn9	0.877810	0.761940	0.817150
Zn101	Zn10	0.172180	0.766570	0.822280
Zn111	Zn11	0.044570	0.735920	0.918150
Zn121	Zn12	0.026890	0.663430	0.825050
C1091	C109	0.463600	0.129000	0.571500
C1101	C110	0.470300	0.083100	0.537900
C1111	C111	0.455600	0.091700	0.487600
H521	H52	0.437300	0.124200	0.476000
C1121	C112	0.491600	0.038000	0.556000
H531	H53	0.496700	0.033100	0.589500
C1131	C113	0.507100	0.996000	0.523800
C1141	C114	0.532200	0.947300	0.544800
H541	H54	0.539900	0.942300	0.578300
C1151	C115	0.745100	0.164200	0.706400
C1161	C116	0.867300	0.136700	0.715200
C1171	C117	0.985600	0.159700	0.706600
H551	H55	0.986900	0.193300	0.696800
C1181	C118	0.098500	0.133500	0.712500
C1191	C119	0.099400	0.084700	0.728000
H561	H56	0.178200	0.067200	0.731900
C1201	C120	0.984600	0.060800	0.738000
C1211	C121	0.869200	0.087500	0.730700
H571	H57	0.790800	0.071700	0.736600
C1221	C122	0.221500	0.158800	0.697900
C1231	C123	0.986800	0.008200	0.755200
C1241	C124	0.090800	0.987100	0.780400
H581	H58	0.164600	0.006900	0.787400
C1251	C125	0.092300	0.938700	0.796000
H591	H59	0.165900	0.926100	0.813600
C1261	C126	0.984500	0.907300	0.785800
C1271	C127	0.878400	0.927000	0.759200
H601	H60	0.806300	0.906600	0.751100
C1281	C128	0.877900	0.976900	0.744300
H611	H61	0.804500	0.990000	0.726900
C1291	C129	0.987400	0.854400	0.800800
C1301	C130	0.191800	0.277700	0.581900
C1311	C131	0.064800	0.280700	0.553700
C1321	C132	0.952300	0.281400	0.578500
H621	H62	0.956800	0.283700	0.612300
C1331	C133	0.832200	0.278500	0.552100
C1341	C134	0.824900	0.275200	0.502300
H631	H63	0.743600	0.273100	0.485300
C1351	C135	0.936500	0.275200	0.477000
C1361	C136	0.058900	0.275600	0.503800
H641	H64	0.135400	0.272500	0.487800
C1371	C137	0.712600	0.275000	0.578800
C1381	C138	0.930900	0.270600	0.424300
C1391	C139	0.832600	0.245000	0.398900
H651	H65	0.765800	0.230800	0.415600
C1401	C140	0.830600	0.239900	0.349700
H661	H66	0.759900	0.224000	0.333100
C1411	C141	0.929300	0.257600	0.324500
C1421	C142	0.025700	0.282600	0.350100
H671	H67	0.093600	0.295700	0.333200
C1431	C143	0.029600	0.290000	0.399600
H681	H68	0.097900	0.307700	0.415700
C1441	C144	0.929100	0.250300	0.270600
O461	O46	0.470500	0.230290	0.650530
O471	O47	0.447600	0.170300	0.550930
O481	O48	0.469000	0.119900	0.615100
O491	O49	0.756200	0.211860	0.701180
O501	O50	0.641900	0.139840	0.703330
O511	O51	0.211400	0.200200	0.678350
O521	O52	0.327700	0.135090	0.706250
O531	O53	0.087400	0.838600	0.823350
O541	O54	0.885200	0.828940	0.791980
O551	O55	0.195500	0.287800	0.625880
O561	O56	0.290600	0.266190	0.559190
O571	O57	0.721700	0.282640	0.623370
O581	O58	0.606800	0.265920	0.553970
O591	O59	0.830000	0.232600	0.248230
O601	O60	0.023000	0.267300	0.251100
Zn131	Zn13	0.622190	0.261940	0.682850
Zn141	Zn14	0.327820	0.266570	0.677720
Zn151	Zn15	0.455430	0.235920	0.581850
Zn161	Zn16	0.473110	0.163430	0.674950
