data_PUGSOB_freeONLY_PM
_symmetry_space_group_name_H-M	'P1'
_cell_length_a	10.327000
_cell_length_b	26.237000
_cell_length_c	27.756000
_cell_angle_alpha	90.000000
_cell_angle_beta	93.830000
_cell_angle_gamma	90.000000
_symmetry_Int_Tables_number 1

loop_
_symmetry_equiv_pos_as_xyz
'x,y,z'

loop_
_atom_site_label
_atom_site_type_symbol
_atom_site_fract_x
_atom_site_fract_y
_atom_site_fract_z
Zn11	Zn1	0.181800	0.767530	0.336720
O11	O1	0.040500	0.804570	0.363870
O21	O2	0.302200	0.835480	0.332880
O31	O3	0.310800	0.745100	0.387130
O41	O4	0.088000	0.694120	0.337860
O51	O5	0.187700	0.758940	0.266490
Zn21	Zn2	0.887190	0.773260	0.332620
Zn31	Zn3	0.054570	0.799830	0.432610
Zn41	Zn4	0.041110	0.872640	0.336560
C11	C1	0.292600	0.878240	0.312890
C21	C2	0.314300	0.753690	0.431050
O61	O6	0.759200	0.823700	0.309620
O71	O7	0.890700	0.707710	0.301990
O81	O8	0.784900	0.753180	0.390380
O91	O9	0.219500	0.767080	0.455080
O101	O10	0.055900	0.868750	0.462520
O111	O11	0.901700	0.768160	0.459280
O121	O12	0.186000	0.904040	0.306470
O131	O13	0.041600	0.917550	0.397720
O141	O14	0.872400	0.897840	0.308290
C31	C3	0.414000	0.903240	0.296910
C41	C4	0.444000	0.746650	0.459400
C51	C5	0.041600	0.908700	0.441960
C61	C6	0.531100	0.877120	0.305120
C71	C7	0.412300	0.952730	0.276470
C81	C8	0.452700	0.740300	0.509820
C91	C9	0.556400	0.749980	0.435100
C101	C10	0.019400	0.956900	0.471800
H11	H1	0.532800	0.844300	0.318700
C111	C11	0.645000	0.900360	0.293020
C121	C12	0.526200	0.974820	0.265100
H21	H2	0.333400	0.970300	0.270800
H31	H3	0.376600	0.737400	0.526400
C131	C13	0.570100	0.738380	0.534710
C141	C14	0.677500	0.750180	0.461770
H41	H4	0.552100	0.752100	0.401200
C151	C15	0.096700	0.963000	0.516500
C161	C16	0.924600	0.993400	0.455300
C171	C17	0.641800	0.948560	0.273810
C181	C18	0.769500	0.871650	0.304360
C191	C19	0.524900	0.026230	0.243910
C201	C20	0.684300	0.744400	0.510820
C211	C21	0.578000	0.733000	0.589140
C221	C22	0.796900	0.757150	0.434350
C231	C23	0.216700	0.924000	0.539700
C241	C24	0.824100	0.989400	0.406000
H51	H5	0.720000	0.964100	0.266400
C251	C25	0.625100	0.060700	0.252650
C261	C26	0.420000	0.043900	0.213270
H61	H6	0.765300	0.744500	0.528400
C271	C27	0.490400	0.701400	0.610610
C281	C28	0.668800	0.760200	0.617600
C291	C29	0.306700	0.934300	0.583500
H71	H7	0.227000	0.892800	0.523800
H81	H8	0.832400	0.960200	0.386900
C301	C30	0.729800	0.023300	0.392000
H91	H9	0.698000	0.050300	0.272300
C311	C31	0.623900	0.109700	0.233990
C321	C32	0.415800	0.092900	0.195360
H101	H10	0.350900	0.021600	0.204800
H111	H11	0.425200	0.684100	0.591800
C331	C33	0.501500	0.695800	0.661300
C341	C34	0.676100	0.754400	0.667690
H121	H12	0.725700	0.782600	0.603200
H131	H13	0.365600	0.905700	0.588700
H141	H14	0.685200	0.010800	0.362500
H151	H15	0.695300	0.131500	0.240300
C351	C35	0.515300	0.126240	0.205700
H161	H16	0.343200	0.103600	0.175700
H171	H17	0.447100	0.672900	0.676300
C361	C36	0.592200	0.724000	0.689240
H181	H18	0.740500	0.771900	0.686600
C371	C37	0.509600	0.179770	0.186540
C381	C38	0.596200	0.716200	0.743220
O151	O15	0.513300	0.692100	0.761420
Zn51	Zn5	0.318200	0.267530	0.163280
O161	O16	0.459500	0.304570	0.136130
O171	O17	0.197800	0.335480	0.167120
O181	O18	0.189200	0.245100	0.112870
O191	O19	0.412000	0.194120	0.162140
O201	O20	0.312300	0.258940	0.233510
Zn61	Zn6	0.612810	0.273260	0.167380
Zn71	Zn7	0.445430	0.299830	0.067390
Zn81	Zn8	0.458890	0.372640	0.163440
C391	C39	0.207400	0.378240	0.187110
C401	C40	0.185700	0.253690	0.068950
O211	O21	0.740800	0.323700	0.190380
O221	O22	0.609300	0.207710	0.198010
O231	O23	0.715100	0.253180	0.109620
O241	O24	0.280500	0.267080	0.044920
O251	O25	0.444100	0.368750	0.037480
O261	O26	0.598300	0.268160	0.040720
O271	O27	0.314000	0.404040	0.193530
O281	O28	0.458400	0.417550	0.102280
O291	O29	0.627600	0.397840	0.191710
C411	C41	0.086000	0.403240	0.203090
C421	C42	0.056000	0.246650	0.040600
C431	C43	0.458400	0.408700	0.058040
C441	C44	0.968900	0.377120	0.194880
C451	C45	0.087700	0.452730	0.223530
C461	C46	0.047300	0.240300	0.990180
C471	C47	0.943600	0.249980	0.064900
C481	C48	0.480600	0.456900	0.028200
H191	H19	0.967200	0.344300	0.181300
C491	C49	0.855000	0.400360	0.206980
C501	C50	0.973800	0.474820	0.234900
H201	H20	0.166600	0.470300	0.229200
H211	H21	0.123400	0.237400	0.973600
C511	C51	0.929900	0.238380	0.965290
C521	C52	0.822500	0.250180	0.038230
H221	H22	0.947900	0.252100	0.098800
C531	C53	0.403300	0.463000	0.983500
C541	C54	0.575400	0.493400	0.044700
C551	C55	0.858200	0.448560	0.226190
C561	C56	0.730500	0.371650	0.195640
C571	C57	0.975100	0.526230	0.256090
C581	C58	0.815700	0.244400	0.989180
C591	C59	0.922000	0.233000	0.910860
C601	C60	0.703100	0.257150	0.065650
C611	C61	0.283300	0.424000	0.960300
C621	C62	0.675900	0.489400	0.094000
H231	H23	0.780000	0.464100	0.233600
C631	C63	0.874900	0.560700	0.247350
C641	C64	0.080000	0.543900	0.286730
H241	H24	0.734700	0.244500	0.971600
C651	C65	0.009600	0.201400	0.889390
C661	C66	0.831200	0.260200	0.882400
C671	C67	0.193300	0.434300	0.916500
H251	H25	0.273000	0.392800	0.976200
H261	H26	0.667600	0.460200	0.113100
C681	C68	0.770200	0.523300	0.108000
H271	H27	0.802000	0.550300	0.227700
C691	C69	0.876100	0.609700	0.266010
C701	C70	0.084200	0.592900	0.304640
H281	H28	0.149100	0.521600	0.295200
H291	H29	0.074800	0.184100	0.908200
C711	C71	0.998500	0.195800	0.838700
C721	C72	0.823900	0.254400	0.832310
H301	H30	0.774300	0.282600	0.896800
H311	H31	0.134400	0.405700	0.911300
H321	H32	0.814800	0.510800	0.137500
H331	H33	0.804700	0.631500	0.259700
C731	C73	0.984700	0.626240	0.294300
H341	H34	0.156800	0.603600	0.324300
H351	H35	0.052900	0.172900	0.823700
C741	C74	0.907800	0.224000	0.810760
H361	H36	0.759500	0.271900	0.813400
C751	C75	0.990400	0.679770	0.313460
C761	C76	0.903800	0.216200	0.756780
O301	O30	0.986700	0.192100	0.738580
Zn91	Zn9	0.818200	0.232470	0.663280
O311	O31	0.959500	0.195430	0.636130
O321	O32	0.697800	0.164520	0.667120
O331	O33	0.689200	0.254900	0.612870
O341	O34	0.912000	0.305880	0.662140
O351	O35	0.812300	0.241060	0.733510
Zn101	Zn10	0.112810	0.226740	0.667380
Zn111	Zn11	0.945430	0.200170	0.567390
Zn121	Zn12	0.958890	0.127360	0.663440
C771	C77	0.707400	0.121760	0.687110
C781	C78	0.685700	0.246310	0.568950
O361	O36	0.240800	0.176300	0.690380
O371	O37	0.109300	0.292290	0.698010
O381	O38	0.215100	0.246820	0.609620
O391	O39	0.780500	0.232920	0.544920
O401	O40	0.944100	0.131250	0.537480
O411	O41	0.098300	0.231840	0.540720
O421	O42	0.814000	0.095960	0.693530
O431	O43	0.958400	0.082450	0.602280
O441	O44	0.127600	0.102160	0.691710
C791	C79	0.586000	0.096760	0.703090
C801	C80	0.556000	0.253350	0.540600
C811	C81	0.958400	0.091300	0.558040
C821	C82	0.468900	0.122880	0.694880
C831	C83	0.587700	0.047270	0.723530
C841	C84	0.547300	0.259700	0.490180
C851	C85	0.443600	0.250020	0.564900
C861	C86	0.980600	0.043100	0.528200
H371	H37	0.467200	0.155700	0.681300
C871	C87	0.355000	0.099640	0.706980
C881	C88	0.473800	0.025180	0.734900
H381	H38	0.666600	0.029700	0.729200
H391	H39	0.623400	0.262600	0.473600
C891	C89	0.429900	0.261620	0.465290
C901	C90	0.322500	0.249820	0.538230
H401	H40	0.447900	0.247900	0.598800
C911	C91	0.903300	0.037000	0.483500
C921	C92	0.075400	0.006600	0.544700
C931	C93	0.358200	0.051440	0.726190
C941	C94	0.230500	0.128350	0.695640
C951	C95	0.475100	0.973770	0.756090
C961	C96	0.315700	0.255600	0.489180
C971	C97	0.422000	0.267000	0.410860
C981	C98	0.203100	0.242850	0.565650
C991	C99	0.783300	0.076000	0.460300
C1001	C100	0.175900	0.010600	0.594000
H411	H41	0.280000	0.035900	0.733600
C1011	C101	0.374900	0.939300	0.747350
C1021	C102	0.580000	0.956100	0.786730
H421	H42	0.234700	0.255500	0.471600
C1031	C103	0.509600	0.298600	0.389390
C1041	C104	0.331200	0.239800	0.382400
C1051	C105	0.693300	0.065700	0.416500
H431	H43	0.773000	0.107200	0.476200
H441	H44	0.167600	0.039800	0.613100
C1061	C106	0.270200	0.976700	0.608000
H451	H45	0.302000	0.949700	0.727700
C1071	C107	0.376100	0.890300	0.766010
C1081	C108	0.584200	0.907100	0.804640
H461	H46	0.649100	0.978400	0.795200
H471	H47	0.574800	0.315900	0.408200
C1091	C109	0.498500	0.304200	0.338700
C1101	C110	0.323900	0.245600	0.332310
H481	H48	0.274300	0.217400	0.396800
H491	H49	0.634400	0.094300	0.411300
H501	H50	0.314800	0.989200	0.637500
H511	H51	0.304700	0.868500	0.759700
C1111	C111	0.484700	0.873760	0.794300
H521	H52	0.656800	0.896400	0.824300
H531	H53	0.552900	0.327100	0.323700
C1121	C112	0.407800	0.276000	0.310760
H541	H54	0.259500	0.228100	0.313400
C1131	C113	0.490400	0.820230	0.813460
C1141	C114	0.403800	0.283800	0.256780
O451	O45	0.486700	0.307900	0.238580
Zn131	Zn13	0.681800	0.732470	0.836720
O461	O46	0.540500	0.695430	0.863870
O471	O47	0.802200	0.664520	0.832880
O481	O48	0.810800	0.754900	0.887130
O491	O49	0.588000	0.805880	0.837860
O501	O50	0.687700	0.741060	0.766490
Zn141	Zn14	0.387190	0.726740	0.832620
Zn151	Zn15	0.554570	0.700170	0.932610
Zn161	Zn16	0.541110	0.627360	0.836560
C1151	C115	0.792600	0.621760	0.812890
C1161	C116	0.814300	0.746310	0.931050
O511	O51	0.259200	0.676300	0.809620
O521	O52	0.390700	0.792290	0.801990
O531	O53	0.284900	0.746820	0.890380
O541	O54	0.719500	0.732920	0.955080
O551	O55	0.555900	0.631250	0.962520
O561	O56	0.401700	0.731840	0.959280
O571	O57	0.686000	0.595960	0.806470
O581	O58	0.541600	0.582450	0.897720
O591	O59	0.372400	0.602160	0.808290
C1171	C117	0.914000	0.596760	0.796910
C1181	C118	0.944000	0.753350	0.959400
C1191	C119	0.541600	0.591300	0.941960
C1201	C120	0.031100	0.622880	0.805120
C1211	C121	0.912300	0.547270	0.776470
C1221	C122	0.952700	0.759700	0.009820
C1231	C123	0.056400	0.750020	0.935100
C1241	C124	0.519400	0.543100	0.971800
H551	H55	0.032800	0.655700	0.818700
C1251	C125	0.145000	0.599640	0.793020
C1261	C126	0.026200	0.525180	0.765100
H561	H56	0.833400	0.529700	0.770800
H571	H57	0.876600	0.762600	0.026400
C1271	C127	0.070100	0.761620	0.034710
C1281	C128	0.177500	0.749820	0.961770
H581	H58	0.052100	0.747900	0.901200
C1291	C129	0.596700	0.537000	0.016500
C1301	C130	0.424600	0.506600	0.955300
C1311	C131	0.141800	0.551440	0.773810
C1321	C132	0.269500	0.628350	0.804360
C1331	C133	0.024900	0.473770	0.743910
C1341	C134	0.184300	0.755600	0.010820
C1351	C135	0.078000	0.767000	0.089140
C1361	C136	0.296900	0.742850	0.934350
C1371	C137	0.716700	0.576000	0.039700
C1381	C138	0.324100	0.510600	0.906000
H591	H59	0.220000	0.535900	0.766400
C1391	C139	0.125100	0.439300	0.752650
C1401	C140	0.920000	0.456100	0.713270
H601	H60	0.265300	0.755500	0.028400
C1411	C141	0.990400	0.798600	0.110610
C1421	C142	0.168800	0.739800	0.117600
C1431	C143	0.806700	0.565700	0.083500
H611	H61	0.727000	0.607200	0.023800
H621	H62	0.332400	0.539800	0.886900
C1441	C144	0.229800	0.476700	0.892000
H631	H63	0.198000	0.449700	0.772300
C1451	C145	0.123900	0.390300	0.733990
C1461	C146	0.915800	0.407100	0.695360
H641	H64	0.850900	0.478400	0.704800
H651	H65	0.925200	0.815900	0.091800
C1471	C147	0.001500	0.804200	0.161300
C1481	C148	0.176100	0.745600	0.167690
H661	H66	0.225700	0.717400	0.103200
H671	H67	0.865600	0.594300	0.088700
H681	H68	0.185200	0.489200	0.862500
H691	H69	0.195300	0.368500	0.740300
C1491	C149	0.015300	0.373760	0.705700
H701	H70	0.843200	0.396400	0.675700
H711	H71	0.947100	0.827100	0.176300
C1501	C150	0.092200	0.776000	0.189240
H721	H72	0.240500	0.728100	0.186600
C1511	C151	0.009600	0.320230	0.686540
C1521	C152	0.096200	0.783800	0.243220
O601	O60	0.013300	0.807900	0.261420
