data_PUJJEL_freeONLY_PM
_symmetry_space_group_name_H-M	'P1'
_cell_length_a	24.434000
_cell_length_b	18.364000
_cell_length_c	8.259000
_cell_angle_alpha	90.000000
_cell_angle_beta	101.720000
_cell_angle_gamma	90.000000
_symmetry_Int_Tables_number 1

loop_
_symmetry_equiv_pos_as_xyz
'x,y,z'

loop_
_atom_site_label
_atom_site_type_symbol
_atom_site_fract_x
_atom_site_fract_y
_atom_site_fract_z
C11	C1	0.350600	0.545200	0.939200
C21	C2	0.389600	0.441800	0.875300
C31	C3	0.426300	0.550600	0.821300
C41	C4	0.296100	0.649100	0.028300
C51	C5	0.370400	0.313700	0.933600
C61	C6	0.329000	0.324100	0.021600
H11	H1	0.319300	0.371000	0.047600
C71	C7	0.384800	0.242400	0.903700
H21	H2	0.413900	0.234200	0.848700
C81	C8	0.506200	0.579500	0.685900
C91	C9	0.526700	0.511000	0.670200
H31	H3	0.509800	0.471200	0.709500
C101	C10	0.572700	0.499600	0.596000
H41	H4	0.585800	0.452600	0.586600
C111	C11	0.598800	0.557200	0.537100
C121	C12	0.578900	0.626500	0.552100
H51	H5	0.596900	0.666400	0.517400
C131	C13	0.532000	0.636500	0.618900
H61	H6	0.517000	0.683100	0.619200
C141	C14	0.648300	0.544500	0.464000
C151	C15	0.284000	0.131600	0.088400
C161	C16	0.315600	0.192800	0.040300
C171	C17	0.300700	0.262000	0.073500
H71	H7	0.272000	0.269300	0.130200
C181	C18	0.357400	0.183800	0.952700
H81	H8	0.367200	0.137000	0.926200
C191	C19	0.250400	0.865200	0.146300
C201	C20	0.263500	0.790300	0.098500
C211	C21	0.308300	0.777400	0.020200
H91	H9	0.328500	0.816700	0.992600
C221	C22	0.322900	0.709000	0.983500
H101	H10	0.351700	0.702700	0.926700
C231	C23	0.237200	0.730200	0.147900
H111	H11	0.208900	0.736400	0.206700
C241	C24	0.252400	0.662100	0.110800
H121	H12	0.233000	0.622500	0.141400
N11	N1	0.428900	0.479200	0.807400
N21	N2	0.388400	0.587600	0.890600
N31	N3	0.350000	0.472400	0.936800
N41	N4	0.396500	0.368200	0.870600
H131	H13	0.421800	0.354300	0.818700
N51	N5	0.309600	0.576400	0.004800
H141	H14	0.287800	0.545600	0.038300
N61	N6	0.463200	0.596500	0.761700
H151	H15	0.458200	0.642300	0.774800
O11	O1	0.679300	0.487600	0.513300
O21	O2	0.293800	0.067100	0.040800
O31	O3	0.251400	0.140800	0.189900
O41	O4	0.217000	0.877900	0.239900
O51	O5	0.277400	0.919000	0.093600
O61	O6	0.854300	0.466200	0.868100
O71	O7	0.661800	0.587800	0.358600
La11	La1	0.747370	0.486040	0.803960
C251	C25	0.850600	0.045200	0.939200
C261	C26	0.889600	0.941800	0.875300
C271	C27	0.926300	0.050600	0.821300
C281	C28	0.796100	0.149100	0.028300
C291	C29	0.870400	0.813700	0.933600
C301	C30	0.829000	0.824100	0.021600
H161	H16	0.819300	0.871000	0.047600
C311	C31	0.884800	0.742400	0.903700
H171	H17	0.913900	0.734200	0.848700
C321	C32	0.006200	0.079500	0.685900
C331	C33	0.026700	0.011000	0.670200
H181	H18	0.009800	0.971200	0.709500
C341	C34	0.072700	0.999600	0.596000
H191	H19	0.085800	0.952600	0.586600
C351	C35	0.098800	0.057200	0.537100
C361	C36	0.078900	0.126500	0.552100
H201	H20	0.096900	0.166400	0.517400
C371	C37	0.032000	0.136500	0.618900
H211	H21	0.017000	0.183100	0.619200
C381	C38	0.148300	0.044500	0.464000
C391	C39	0.784000	0.631600	0.088400
C401	C40	0.815600	0.692800	0.040300
C411	C41	0.800700	0.762000	0.073500
H221	H22	0.772000	0.769300	0.130200
C421	C42	0.857400	0.683800	0.952700
H231	H23	0.867200	0.637000	0.926200
C431	C43	0.750400	0.365200	0.146300
C441	C44	0.763500	0.290300	0.098500
C451	C45	0.808300	0.277400	0.020200
H241	H24	0.828500	0.316700	0.992600
C461	C46	0.822900	0.209000	0.983500
H251	H25	0.851700	0.202700	0.926700
C471	C47	0.737200	0.230200	0.147900
H261	H26	0.708900	0.236400	0.206700
C481	C48	0.752400	0.162100	0.110800
H271	H27	0.733000	0.122500	0.141400
N71	N7	0.928900	0.979200	0.807400
N81	N8	0.888400	0.087600	0.890600
N91	N9	0.850000	0.972400	0.936800
N101	N10	0.896500	0.868200	0.870600
H281	H28	0.921800	0.854300	0.818700
N111	N11	0.809600	0.076400	0.004800
H291	H29	0.787800	0.045600	0.038300
N121	N12	0.963200	0.096500	0.761700
H301	H30	0.958200	0.142300	0.774800
O81	O8	0.179300	0.987600	0.513300
O91	O9	0.793800	0.567100	0.040800
O101	O10	0.751400	0.640800	0.189900
O111	O11	0.717000	0.377900	0.239900
O121	O12	0.777400	0.419000	0.093600
O131	O13	0.354300	0.966200	0.868100
O141	O14	0.161800	0.087800	0.358600
La21	La2	0.247370	0.986040	0.803960
C491	C49	0.350600	0.454800	0.439200
C501	C50	0.389600	0.558200	0.375300
C511	C51	0.426300	0.449400	0.321300
C521	C52	0.296100	0.350900	0.528300
C531	C53	0.370400	0.686300	0.433600
C541	C54	0.329000	0.675900	0.521600
H311	H31	0.319300	0.629000	0.547600
C551	C55	0.384800	0.757600	0.403700
H321	H32	0.413900	0.765800	0.348700
C561	C56	0.506200	0.420500	0.185900
C571	C57	0.526700	0.489000	0.170200
H331	H33	0.509800	0.528800	0.209500
C581	C58	0.572700	0.500400	0.096000
H341	H34	0.585800	0.547400	0.086600
C591	C59	0.598800	0.442800	0.037100
C601	C60	0.578900	0.373500	0.052100
H351	H35	0.596900	0.333600	0.017400
C611	C61	0.532000	0.363500	0.118900
H361	H36	0.517000	0.316900	0.119200
C621	C62	0.648300	0.455500	0.964000
C631	C63	0.284000	0.868400	0.588400
C641	C64	0.315600	0.807200	0.540300
C651	C65	0.300700	0.738000	0.573500
H371	H37	0.272000	0.730700	0.630200
C661	C66	0.357400	0.816200	0.452700
H381	H38	0.367200	0.863000	0.426200
C671	C67	0.250400	0.134800	0.646300
C681	C68	0.263500	0.209700	0.598500
C691	C69	0.308300	0.222600	0.520200
H391	H39	0.328500	0.183300	0.492600
C701	C70	0.322900	0.291000	0.483500
H401	H40	0.351700	0.297300	0.426700
C711	C71	0.237200	0.269800	0.647900
H411	H41	0.208900	0.263600	0.706700
C721	C72	0.252400	0.337900	0.610800
H421	H42	0.233000	0.377500	0.641400
N131	N13	0.428900	0.520800	0.307400
N141	N14	0.388400	0.412400	0.390600
N151	N15	0.350000	0.527600	0.436800
N161	N16	0.396500	0.631800	0.370600
H431	H43	0.421800	0.645700	0.318700
N171	N17	0.309600	0.423600	0.504800
H441	H44	0.287800	0.454400	0.538300
N181	N18	0.463200	0.403500	0.261700
H451	H45	0.458200	0.357700	0.274800
O151	O15	0.679300	0.512400	0.013300
O161	O16	0.293800	0.932900	0.540800
O171	O17	0.251400	0.859200	0.689900
O181	O18	0.217000	0.122100	0.739900
O191	O19	0.277400	0.081000	0.593600
O201	O20	0.854300	0.533800	0.368100
O211	O21	0.661800	0.412200	0.858600
La31	La3	0.747370	0.513960	0.303960
C731	C73	0.850600	0.954800	0.439200
C741	C74	0.889600	0.058200	0.375300
C751	C75	0.926300	0.949400	0.321300
C761	C76	0.796100	0.850900	0.528300
C771	C77	0.870400	0.186300	0.433600
C781	C78	0.829000	0.175900	0.521600
H461	H46	0.819300	0.129000	0.547600
C791	C79	0.884800	0.257600	0.403700
H471	H47	0.913900	0.265800	0.348700
C801	C80	0.006200	0.920500	0.185900
C811	C81	0.026700	0.989000	0.170200
H481	H48	0.009800	0.028800	0.209500
C821	C82	0.072700	0.000400	0.096000
H491	H49	0.085800	0.047400	0.086600
C831	C83	0.098800	0.942800	0.037100
C841	C84	0.078900	0.873500	0.052100
H501	H50	0.096900	0.833600	0.017400
C851	C85	0.032000	0.863500	0.118900
H511	H51	0.017000	0.816900	0.119200
C861	C86	0.148300	0.955500	0.964000
C871	C87	0.784000	0.368400	0.588400
C881	C88	0.815600	0.307200	0.540300
C891	C89	0.800700	0.238000	0.573500
H521	H52	0.772000	0.230700	0.630200
C901	C90	0.857400	0.316200	0.452700
H531	H53	0.867200	0.363000	0.426200
C911	C91	0.750400	0.634800	0.646300
C921	C92	0.763500	0.709700	0.598500
C931	C93	0.808300	0.722600	0.520200
H541	H54	0.828500	0.683300	0.492600
C941	C94	0.822900	0.791000	0.483500
H551	H55	0.851700	0.797300	0.426700
C951	C95	0.737200	0.769800	0.647900
H561	H56	0.708900	0.763600	0.706700
C961	C96	0.752400	0.837900	0.610800
H571	H57	0.733000	0.877500	0.641400
N191	N19	0.928900	0.020800	0.307400
N201	N20	0.888400	0.912400	0.390600
N211	N21	0.850000	0.027600	0.436800
N221	N22	0.896500	0.131800	0.370600
H581	H58	0.921800	0.145700	0.318700
N231	N23	0.809600	0.923600	0.504800
H591	H59	0.787800	0.954400	0.538300
N241	N24	0.963200	0.903500	0.261700
H601	H60	0.958200	0.857700	0.274800
O221	O22	0.179300	0.012400	0.013300
O231	O23	0.793800	0.432900	0.540800
O241	O24	0.751400	0.359200	0.689900
O251	O25	0.717000	0.622100	0.739900
O261	O26	0.777400	0.581000	0.593600
O271	O27	0.354300	0.033800	0.368100
O281	O28	0.161800	0.912200	0.858600
La41	La4	0.247370	0.013960	0.303960
