data_PUJQEQ_freeONLY_PM
_symmetry_space_group_name_H-M	'P1'
_cell_length_a	14.709700
_cell_length_b	21.832000
_cell_length_c	26.719000
_cell_angle_alpha	90.000000
_cell_angle_beta	90.000000
_cell_angle_gamma	90.000000
_symmetry_Int_Tables_number 1

loop_
_symmetry_equiv_pos_as_xyz
'x,y,z'

loop_
_atom_site_label
_atom_site_type_symbol
_atom_site_fract_x
_atom_site_fract_y
_atom_site_fract_z
Cu11	Cu1	0.753660	0.998660	0.462390
Cu21	Cu2	0.246340	0.498660	0.037600
Cu31	Cu3	0.253660	0.498660	0.537610
Cu41	Cu4	0.746340	0.998660	0.962390
H11	H1	0.765000	0.875000	0.510000
H21	H2	0.668000	0.787000	0.520000
H31	H3	0.467000	0.876000	0.439000
H41	H4	0.569000	0.960000	0.430000
H51	H5	0.499000	0.742000	0.458000
H61	H6	0.429000	0.787000	0.488000
H71	H7	0.496000	0.760000	0.566000
H81	H8	0.572000	0.719000	0.537000
H91	H9	0.542000	0.619000	0.567000
H101	H10	0.443000	0.531000	0.567000
H111	H11	0.234000	0.631000	0.511000
H121	H12	0.326000	0.723000	0.513000
H131	H13	0.614000	0.998000	0.544000
H141	H14	0.605000	0.018000	0.631000
H151	H15	0.887000	0.034000	0.635000
H161	H16	0.888000	0.017000	0.545000
H171	H17	0.797000	0.066000	0.707000
H181	H18	0.686000	0.062000	0.706000
H191	H19	0.805000	0.958000	0.716000
H201	H20	0.694000	0.954000	0.715000
H211	H21	0.771000	0.080000	0.786000
H221	H22	0.769000	0.084000	0.876000
H231	H23	0.724000	0.901000	0.884000
H241	H24	0.721000	0.893000	0.795000
H251	H25	0.235000	0.375000	0.990000
H261	H26	0.332000	0.287000	0.980000
H271	H27	0.533000	0.376000	0.061000
H281	H28	0.431000	0.460000	0.070000
H291	H29	0.501000	0.242000	0.042000
H301	H30	0.571000	0.287000	0.012000
H311	H31	0.504000	0.260000	0.934000
H321	H32	0.428000	0.219000	0.963000
H331	H33	0.458000	0.119000	0.933000
H341	H34	0.557000	0.031000	0.933000
H351	H35	0.766000	0.131000	0.989000
H361	H36	0.674000	0.223000	0.987000
H371	H37	0.386000	0.498000	0.956000
H381	H38	0.395000	0.518000	0.869000
H391	H39	0.113000	0.534000	0.865000
H401	H40	0.112000	0.517000	0.955000
H411	H41	0.203000	0.566000	0.793000
H421	H42	0.314000	0.562000	0.794000
H431	H43	0.195000	0.458000	0.784000
H441	H44	0.306000	0.454000	0.785000
H451	H45	0.229000	0.580000	0.714000
H461	H46	0.231000	0.584000	0.624000
H471	H47	0.276000	0.401000	0.616000
H481	H48	0.279000	0.393000	0.705000
H491	H49	0.265000	0.375000	0.490000
H501	H50	0.168000	0.287000	0.480000
H511	H51	0.967000	0.376000	0.561000
H521	H52	0.069000	0.460000	0.570000
H531	H53	0.999000	0.242000	0.542000
H541	H54	0.929000	0.287000	0.512000
H551	H55	0.996000	0.260000	0.434000
H561	H56	0.072000	0.219000	0.463000
H571	H57	0.042000	0.119000	0.433000
H581	H58	0.943000	0.031000	0.433000
H591	H59	0.734000	0.131000	0.489000
H601	H60	0.826000	0.223000	0.487000
H611	H61	0.114000	0.498000	0.456000
H621	H62	0.105000	0.518000	0.369000
H631	H63	0.387000	0.534000	0.365000
H641	H64	0.388000	0.517000	0.455000
H651	H65	0.297000	0.566000	0.293000
H661	H66	0.186000	0.562000	0.294000
H671	H67	0.305000	0.458000	0.284000
H681	H68	0.194000	0.454000	0.285000
H691	H69	0.271000	0.580000	0.214000
H701	H70	0.269000	0.584000	0.124000
H711	H71	0.224000	0.401000	0.116000
H721	H72	0.221000	0.393000	0.205000
H731	H73	0.735000	0.875000	0.010000
H741	H74	0.832000	0.787000	0.020000
H751	H75	0.033000	0.876000	0.939000
H761	H76	0.931000	0.960000	0.930000
H771	H77	0.001000	0.742000	0.958000
H781	H78	0.071000	0.787000	0.988000
H791	H79	0.004000	0.760000	0.066000
H801	H80	0.928000	0.719000	0.037000
H811	H81	0.958000	0.619000	0.067000
H821	H82	0.057000	0.531000	0.067000
H831	H83	0.266000	0.631000	0.011000
H841	H84	0.174000	0.723000	0.013000
H851	H85	0.886000	0.998000	0.044000
H861	H86	0.895000	0.018000	0.131000
H871	H87	0.613000	0.034000	0.135000
H881	H88	0.612000	0.017000	0.045000
H891	H89	0.703000	0.066000	0.207000
H901	H90	0.814000	0.062000	0.206000
H911	H91	0.695000	0.958000	0.216000
H921	H92	0.806000	0.954000	0.215000
H931	H93	0.729000	0.080000	0.286000
H941	H94	0.731000	0.084000	0.376000
H951	H95	0.776000	0.901000	0.384000
H961	H96	0.779000	0.893000	0.295000
C11	C1	0.701800	0.874900	0.494090
C21	C2	0.645700	0.823600	0.500800
C31	C3	0.558500	0.823600	0.481250
C41	C4	0.530500	0.874700	0.454350
C51	C5	0.591400	0.923100	0.448140
C61	C6	0.493600	0.770600	0.488020
C71	C7	0.506400	0.732900	0.534800
C81	C8	0.443700	0.678400	0.537980
C91	C9	0.476500	0.622800	0.555340
C101	C10	0.417900	0.572300	0.556270
C111	C11	0.299200	0.628500	0.524070
C121	C12	0.353200	0.682600	0.523800
C131	C13	0.671300	0.006100	0.562810
C141	C14	0.666500	0.017800	0.613860
C151	C15	0.745400	0.027900	0.641200
C161	C16	0.827500	0.026700	0.616160
C171	C17	0.827900	0.017200	0.563460
C181	C18	0.743700	0.039800	0.697040
C191	C19	0.747100	0.980000	0.725580
C201	C20	0.745600	0.986200	0.782130
C211	C21	0.759900	0.041000	0.806880
C221	C22	0.759400	0.042800	0.858570
C231	C23	0.734200	0.939800	0.863080
C241	C24	0.732200	0.934600	0.811850
C251	C25	0.298200	0.374900	0.005910
C261	C26	0.354300	0.323600	0.999200
C271	C27	0.441500	0.323600	0.018750
C281	C28	0.469500	0.374700	0.045650
C291	C29	0.408600	0.423100	0.051860
C301	C30	0.506400	0.270600	0.011980
C311	C31	0.493600	0.232900	0.965200
C321	C32	0.556300	0.178400	0.962020
C331	C33	0.523500	0.122800	0.944660
C341	C34	0.582100	0.072300	0.943730
C351	C35	0.700800	0.128500	0.975930
C361	C36	0.646800	0.182600	0.976200
C371	C37	0.328700	0.506100	0.937190
C381	C38	0.333500	0.517800	0.886140
C391	C39	0.254600	0.527900	0.858800
C401	C40	0.172500	0.526700	0.883840
C411	C41	0.172100	0.517200	0.936540
C421	C42	0.256300	0.539800	0.802960
C431	C43	0.252900	0.480000	0.774420
C441	C44	0.254400	0.486200	0.717870
C451	C45	0.240100	0.541000	0.693120
C461	C46	0.240600	0.542800	0.641430
C471	C47	0.265800	0.439800	0.636920
C481	C48	0.267800	0.434600	0.688150
C491	C49	0.201800	0.374900	0.505910
C501	C50	0.145700	0.323600	0.499200
C511	C51	0.058500	0.323600	0.518750
C521	C52	0.030500	0.374700	0.545650
C531	C53	0.091400	0.423100	0.551860
C541	C54	0.993600	0.270600	0.511980
C551	C55	0.006400	0.232900	0.465200
C561	C56	0.943700	0.178400	0.462020
C571	C57	0.976500	0.122800	0.444660
C581	C58	0.917900	0.072300	0.443730
C591	C59	0.799200	0.128500	0.475930
C601	C60	0.853200	0.182600	0.476200
C611	C61	0.171300	0.506100	0.437190
C621	C62	0.166500	0.517800	0.386140
C631	C63	0.245400	0.527900	0.358800
C641	C64	0.327500	0.526700	0.383840
C651	C65	0.327900	0.517200	0.436540
C661	C66	0.243700	0.539800	0.302960
C671	C67	0.247100	0.480000	0.274420
C681	C68	0.245600	0.486200	0.217870
C691	C69	0.259900	0.541000	0.193120
C701	C70	0.259400	0.542800	0.141430
C711	C71	0.234200	0.439800	0.136920
C721	C72	0.232200	0.434600	0.188150
C731	C73	0.798200	0.874900	0.994090
C741	C74	0.854300	0.823600	0.000800
C751	C75	0.941500	0.823600	0.981250
C761	C76	0.969500	0.874700	0.954350
C771	C77	0.908600	0.923100	0.948140
C781	C78	0.006400	0.770600	0.988020
C791	C79	0.993600	0.732900	0.034800
C801	C80	0.056300	0.678400	0.037980
C811	C81	0.023500	0.622800	0.055340
C821	C82	0.082100	0.572300	0.056270
C831	C83	0.200800	0.628500	0.024070
C841	C84	0.146800	0.682600	0.023800
C851	C85	0.828700	0.006100	0.062810
C861	C86	0.833500	0.017800	0.113860
C871	C87	0.754600	0.027900	0.141200
C881	C88	0.672500	0.026700	0.116160
C891	C89	0.672100	0.017200	0.063460
C901	C90	0.756300	0.039800	0.197040
C911	C91	0.752900	0.980000	0.225580
C921	C92	0.754400	0.986200	0.282130
C931	C93	0.740100	0.041000	0.306880
C941	C94	0.740600	0.042800	0.358570
C951	C95	0.765800	0.939800	0.363080
C961	C96	0.767800	0.934600	0.311850
N11	N1	0.674700	0.923120	0.466850
N21	N2	0.331300	0.575890	0.541360
N31	N3	0.750500	0.007160	0.537830
N41	N4	0.746700	0.993160	0.886880
N51	N5	0.325300	0.423120	0.033150
N61	N6	0.668700	0.075890	0.958640
N71	N7	0.249500	0.507160	0.962170
N81	N8	0.253300	0.493160	0.613120
N91	N9	0.174700	0.423120	0.533150
N101	N10	0.831300	0.075890	0.458640
N111	N11	0.250500	0.507160	0.462170
N121	N12	0.246700	0.493160	0.113120
N131	N13	0.825300	0.923120	0.966850
N141	N14	0.168700	0.575890	0.041360
N151	N15	0.749500	0.007160	0.037830
N161	N16	0.753300	0.993160	0.386880
Cu51	Cu5	0.746340	0.501340	0.462390
Cu61	Cu6	0.253660	0.001340	0.037600
Cu71	Cu7	0.246340	0.001340	0.537610
Cu81	Cu8	0.753660	0.501340	0.962390
H971	H97	0.735000	0.625000	0.510000
H981	H98	0.832000	0.713000	0.520000
H991	H99	0.033000	0.624000	0.439000
H1001	H100	0.931000	0.540000	0.430000
H1011	H101	0.001000	0.758000	0.458000
H1021	H102	0.071000	0.713000	0.488000
H1031	H103	0.004000	0.740000	0.566000
H1041	H104	0.928000	0.781000	0.537000
H1051	H105	0.958000	0.881000	0.567000
H1061	H106	0.057000	0.969000	0.567000
H1071	H107	0.266000	0.869000	0.511000
H1081	H108	0.174000	0.777000	0.513000
H1091	H109	0.886000	0.502000	0.544000
H1101	H110	0.895000	0.482000	0.631000
H1111	H111	0.613000	0.466000	0.635000
H1121	H112	0.612000	0.483000	0.545000
H1131	H113	0.703000	0.434000	0.707000
H1141	H114	0.814000	0.438000	0.706000
H1151	H115	0.695000	0.542000	0.716000
H1161	H116	0.806000	0.546000	0.715000
H1171	H117	0.729000	0.420000	0.786000
H1181	H118	0.731000	0.416000	0.876000
H1191	H119	0.776000	0.599000	0.884000
H1201	H120	0.779000	0.607000	0.795000
H1211	H121	0.265000	0.125000	0.990000
H1221	H122	0.168000	0.213000	0.980000
H1231	H123	0.967000	0.124000	0.061000
H1241	H124	0.069000	0.040000	0.070000
H1251	H125	0.999000	0.258000	0.042000
H1261	H126	0.929000	0.213000	0.012000
H1271	H127	0.996000	0.240000	0.934000
H1281	H128	0.072000	0.281000	0.963000
H1291	H129	0.042000	0.381000	0.933000
H1301	H130	0.943000	0.469000	0.933000
H1311	H131	0.734000	0.369000	0.989000
H1321	H132	0.826000	0.277000	0.987000
H1331	H133	0.114000	0.002000	0.956000
H1341	H134	0.105000	0.982000	0.869000
H1351	H135	0.387000	0.966000	0.865000
H1361	H136	0.388000	0.983000	0.955000
H1371	H137	0.297000	0.934000	0.793000
H1381	H138	0.186000	0.938000	0.794000
H1391	H139	0.305000	0.042000	0.784000
H1401	H140	0.194000	0.046000	0.785000
H1411	H141	0.271000	0.920000	0.714000
H1421	H142	0.269000	0.916000	0.624000
H1431	H143	0.224000	0.099000	0.616000
H1441	H144	0.221000	0.107000	0.705000
H1451	H145	0.235000	0.125000	0.490000
H1461	H146	0.332000	0.213000	0.480000
H1471	H147	0.533000	0.124000	0.561000
H1481	H148	0.431000	0.040000	0.570000
H1491	H149	0.501000	0.258000	0.542000
H1501	H150	0.571000	0.213000	0.512000
H1511	H151	0.504000	0.240000	0.434000
H1521	H152	0.428000	0.281000	0.463000
H1531	H153	0.458000	0.381000	0.433000
H1541	H154	0.557000	0.469000	0.433000
H1551	H155	0.766000	0.369000	0.489000
H1561	H156	0.674000	0.277000	0.487000
H1571	H157	0.386000	0.002000	0.456000
H1581	H158	0.395000	0.982000	0.369000
H1591	H159	0.113000	0.966000	0.365000
H1601	H160	0.112000	0.983000	0.455000
H1611	H161	0.203000	0.934000	0.293000
H1621	H162	0.314000	0.938000	0.294000
H1631	H163	0.195000	0.042000	0.284000
H1641	H164	0.306000	0.046000	0.285000
H1651	H165	0.229000	0.920000	0.214000
H1661	H166	0.231000	0.916000	0.124000
H1671	H167	0.276000	0.099000	0.116000
H1681	H168	0.279000	0.107000	0.205000
H1691	H169	0.765000	0.625000	0.010000
H1701	H170	0.668000	0.713000	0.020000
H1711	H171	0.467000	0.624000	0.939000
H1721	H172	0.569000	0.540000	0.930000
H1731	H173	0.499000	0.758000	0.958000
H1741	H174	0.429000	0.713000	0.988000
H1751	H175	0.496000	0.740000	0.066000
H1761	H176	0.572000	0.781000	0.037000
H1771	H177	0.542000	0.881000	0.067000
H1781	H178	0.443000	0.969000	0.067000
H1791	H179	0.234000	0.869000	0.011000
H1801	H180	0.326000	0.777000	0.013000
H1811	H181	0.614000	0.502000	0.044000
H1821	H182	0.605000	0.482000	0.131000
H1831	H183	0.887000	0.466000	0.135000
H1841	H184	0.888000	0.483000	0.045000
H1851	H185	0.797000	0.434000	0.207000
H1861	H186	0.686000	0.438000	0.206000
H1871	H187	0.805000	0.542000	0.216000
H1881	H188	0.694000	0.546000	0.215000
H1891	H189	0.771000	0.420000	0.286000
H1901	H190	0.769000	0.416000	0.376000
H1911	H191	0.724000	0.599000	0.384000
H1921	H192	0.721000	0.607000	0.295000
C971	C97	0.798200	0.625100	0.494090
C981	C98	0.854300	0.676400	0.500800
C991	C99	0.941500	0.676400	0.481250
C1001	C100	0.969500	0.625300	0.454350
C1011	C101	0.908600	0.576900	0.448140
C1021	C102	0.006400	0.729400	0.488020
C1031	C103	0.993600	0.767100	0.534800
C1041	C104	0.056300	0.821600	0.537980
C1051	C105	0.023500	0.877200	0.555340
C1061	C106	0.082100	0.927700	0.556270
C1071	C107	0.200800	0.871500	0.524070
C1081	C108	0.146800	0.817400	0.523800
C1091	C109	0.828700	0.493900	0.562810
C1101	C110	0.833500	0.482200	0.613860
C1111	C111	0.754600	0.472100	0.641200
C1121	C112	0.672500	0.473300	0.616160
C1131	C113	0.672100	0.482800	0.563460
C1141	C114	0.756300	0.460200	0.697040
C1151	C115	0.752900	0.520000	0.725580
C1161	C116	0.754400	0.513800	0.782130
C1171	C117	0.740100	0.459000	0.806880
C1181	C118	0.740600	0.457200	0.858570
C1191	C119	0.765800	0.560200	0.863080
C1201	C120	0.767800	0.565400	0.811850
C1211	C121	0.201800	0.125100	0.005910
C1221	C122	0.145700	0.176400	0.999200
C1231	C123	0.058500	0.176400	0.018750
C1241	C124	0.030500	0.125300	0.045650
C1251	C125	0.091400	0.076900	0.051860
C1261	C126	0.993600	0.229400	0.011980
C1271	C127	0.006400	0.267100	0.965200
C1281	C128	0.943700	0.321600	0.962020
C1291	C129	0.976500	0.377200	0.944660
C1301	C130	0.917900	0.427700	0.943730
C1311	C131	0.799200	0.371500	0.975930
C1321	C132	0.853200	0.317400	0.976200
C1331	C133	0.171300	0.993900	0.937190
C1341	C134	0.166500	0.982200	0.886140
C1351	C135	0.245400	0.972100	0.858800
C1361	C136	0.327500	0.973300	0.883840
C1371	C137	0.327900	0.982800	0.936540
C1381	C138	0.243700	0.960200	0.802960
C1391	C139	0.247100	0.020000	0.774420
C1401	C140	0.245600	0.013800	0.717870
C1411	C141	0.259900	0.959000	0.693120
C1421	C142	0.259400	0.957200	0.641430
C1431	C143	0.234200	0.060200	0.636920
C1441	C144	0.232200	0.065400	0.688150
C1451	C145	0.298200	0.125100	0.505910
C1461	C146	0.354300	0.176400	0.499200
C1471	C147	0.441500	0.176400	0.518750
C1481	C148	0.469500	0.125300	0.545650
C1491	C149	0.408600	0.076900	0.551860
C1501	C150	0.506400	0.229400	0.511980
C1511	C151	0.493600	0.267100	0.465200
C1521	C152	0.556300	0.321600	0.462020
C1531	C153	0.523500	0.377200	0.444660
C1541	C154	0.582100	0.427700	0.443730
C1551	C155	0.700800	0.371500	0.475930
C1561	C156	0.646800	0.317400	0.476200
C1571	C157	0.328700	0.993900	0.437190
C1581	C158	0.333500	0.982200	0.386140
C1591	C159	0.254600	0.972100	0.358800
C1601	C160	0.172500	0.973300	0.383840
C1611	C161	0.172100	0.982800	0.436540
C1621	C162	0.256300	0.960200	0.302960
C1631	C163	0.252900	0.020000	0.274420
C1641	C164	0.254400	0.013800	0.217870
C1651	C165	0.240100	0.959000	0.193120
C1661	C166	0.240600	0.957200	0.141430
C1671	C167	0.265800	0.060200	0.136920
C1681	C168	0.267800	0.065400	0.188150
C1691	C169	0.701800	0.625100	0.994090
C1701	C170	0.645700	0.676400	0.000800
C1711	C171	0.558500	0.676400	0.981250
C1721	C172	0.530500	0.625300	0.954350
C1731	C173	0.591400	0.576900	0.948140
C1741	C174	0.493600	0.729400	0.988020
C1751	C175	0.506400	0.767100	0.034800
C1761	C176	0.443700	0.821600	0.037980
C1771	C177	0.476500	0.877200	0.055340
C1781	C178	0.417900	0.927700	0.056270
C1791	C179	0.299200	0.871500	0.024070
C1801	C180	0.353200	0.817400	0.023800
C1811	C181	0.671300	0.493900	0.062810
C1821	C182	0.666500	0.482200	0.113860
C1831	C183	0.745400	0.472100	0.141200
C1841	C184	0.827500	0.473300	0.116160
C1851	C185	0.827900	0.482800	0.063460
C1861	C186	0.743700	0.460200	0.197040
C1871	C187	0.747100	0.520000	0.225580
C1881	C188	0.745600	0.513800	0.282130
C1891	C189	0.759900	0.459000	0.306880
C1901	C190	0.759400	0.457200	0.358570
C1911	C191	0.734200	0.560200	0.363080
C1921	C192	0.732200	0.565400	0.311850
N171	N17	0.825300	0.576880	0.466850
N181	N18	0.168700	0.924110	0.541360
N191	N19	0.749500	0.492840	0.537830
N201	N20	0.753300	0.506840	0.886880
N211	N21	0.174700	0.076880	0.033150
N221	N22	0.831300	0.424110	0.958640
N231	N23	0.250500	0.992840	0.962170
N241	N24	0.246700	0.006840	0.613120
N251	N25	0.325300	0.076880	0.533150
N261	N26	0.668700	0.424110	0.458640
N271	N27	0.249500	0.992840	0.462170
N281	N28	0.253300	0.006840	0.113120
N291	N29	0.674700	0.576880	0.966850
N301	N30	0.331300	0.924110	0.041360
N311	N31	0.750500	0.492840	0.037830
N321	N32	0.746700	0.506840	0.386880
