data_PUNFIO_freeONLY_PM
_symmetry_space_group_name_H-M	'P1'
_cell_length_a	7.509000
_cell_length_b	11.881000
_cell_length_c	20.942000
_cell_angle_alpha	96.623000
_cell_angle_beta	92.474000
_cell_angle_gamma	102.015000
_symmetry_Int_Tables_number 1

loop_
_symmetry_equiv_pos_as_xyz
'x,y,z'

loop_
_atom_site_label
_atom_site_type_symbol
_atom_site_fract_x
_atom_site_fract_y
_atom_site_fract_z
Cd11	Cd1	0.651690	0.853640	0.095780
Cd21	Cd2	0.748800	0.019800	0.478120
Cd31	Cd3	0.393730	0.171810	0.084650
Cd41	Cd4	0.348310	0.146360	0.904220
Cd51	Cd5	0.251200	0.980200	0.521880
Cd61	Cd6	0.606270	0.828190	0.915350
Cd71	Cd7	0.000000	0.000000	0.000000
H11	H1	0.054600	0.793800	0.142100
H21	H2	0.599300	0.561500	0.128000
H31	H3	0.840400	0.469200	0.163000
H41	H4	0.224800	0.548400	0.158600
H51	H5	0.285300	0.683600	0.165600
H61	H6	0.988200	0.659400	0.272700
H71	H7	0.138400	0.771600	0.271400
H81	H8	0.968500	0.572400	0.390500
H91	H9	0.030300	0.684700	0.496000
H101	H10	0.267700	0.882100	0.375300
H111	H11	0.068500	0.464800	0.261600
H121	H12	0.211000	0.505800	0.320800
H131	H13	0.526700	0.438600	0.312400
H141	H14	0.174600	0.351100	0.160800
H151	H15	0.636000	0.303400	0.234400
H161	H16	0.626900	0.891600	0.325600
H171	H17	0.644400	0.722800	0.474000
H181	H18	0.473100	0.586400	0.387300
H191	H19	0.468300	0.745600	0.241600
H201	H20	0.512300	0.624700	0.248400
H211	H21	0.936500	0.059600	0.269500
H221	H22	0.551100	0.070400	0.297700
H231	H23	0.294900	0.481300	0.020200
H241	H24	0.661000	0.012000	0.019000
H251	H25	0.945400	0.206200	0.857900
H261	H26	0.400700	0.438500	0.872000
H271	H27	0.159600	0.530800	0.837000
H281	H28	0.775200	0.451600	0.841400
H291	H29	0.714700	0.316400	0.834400
H301	H30	0.011800	0.340600	0.727300
H311	H31	0.861600	0.228400	0.728600
H321	H32	0.031500	0.427600	0.609500
H331	H33	0.969700	0.315300	0.504000
H341	H34	0.732300	0.117900	0.624700
H351	H35	0.931500	0.535200	0.738400
H361	H36	0.789000	0.494200	0.679200
H371	H37	0.473300	0.561400	0.687600
H381	H38	0.825400	0.648900	0.839200
H391	H39	0.364000	0.696600	0.765600
H401	H40	0.373100	0.108400	0.674400
H411	H41	0.355600	0.277200	0.526000
H421	H42	0.526900	0.413600	0.612700
H431	H43	0.531700	0.254400	0.758400
H441	H44	0.487700	0.375300	0.751600
H451	H45	0.063500	0.940400	0.730500
H461	H46	0.448900	0.929600	0.702300
H471	H47	0.705100	0.518700	0.979800
H481	H48	0.339000	0.988000	0.981000
C11	C1	0.970000	0.724600	0.142860
C21	C2	0.721900	0.597800	0.135400
C31	C3	0.854500	0.545600	0.154500
C41	C4	0.200100	0.619900	0.179980
C51	C5	0.238800	0.623200	0.254230
C61	C6	0.113300	0.696700	0.287200
C71	C7	0.036700	0.647900	0.400000
C81	C8	0.070400	0.710700	0.457800
C91	C9	0.200900	0.818700	0.392200
C101	C10	0.195600	0.499700	0.274200
C111	C11	0.469200	0.405100	0.272500
C121	C12	0.276500	0.356100	0.188700
C131	C13	0.529000	0.330200	0.229300
C141	C14	0.609900	0.832900	0.352000
C151	C15	0.618300	0.739900	0.432900
C161	C16	0.525000	0.664000	0.385300
C171	C17	0.444200	0.680400	0.266290
C181	C18	0.438000	0.131400	0.409200
C191	C19	0.331400	0.092800	0.344780
C201	C20	0.142200	0.083300	0.337080
C211	C21	0.060400	0.060500	0.275200
C221	C22	0.155100	0.039000	0.221120
C231	C23	0.341600	0.036500	0.229320
C241	C24	0.426600	0.067200	0.291770
C251	C25	0.449800	0.991900	0.177120
C261	C26	0.047300	0.015600	0.156700
C271	C27	0.023700	0.085700	0.393400
C281	C28	0.311500	0.694900	0.005800
C291	C29	0.145300	0.596800	0.003780
C301	C30	0.966300	0.609200	0.991120
C311	C31	0.175700	0.489100	0.012100
C321	C32	0.917400	0.723700	0.985900
C331	C33	0.030000	0.275400	0.857140
C341	C34	0.278100	0.402200	0.864600
C351	C35	0.145500	0.454400	0.845500
C361	C36	0.799900	0.380100	0.820020
C371	C37	0.761200	0.376800	0.745770
C381	C38	0.886700	0.303300	0.712800
C391	C39	0.963300	0.352100	0.600000
C401	C40	0.929600	0.289300	0.542200
C411	C41	0.799100	0.181300	0.607800
C421	C42	0.804400	0.500300	0.725800
C431	C43	0.530800	0.594900	0.727500
C441	C44	0.723500	0.643900	0.811300
C451	C45	0.471000	0.669800	0.770700
C461	C46	0.390100	0.167100	0.648000
C471	C47	0.381700	0.260100	0.567100
C481	C48	0.475000	0.336000	0.614700
C491	C49	0.555800	0.319600	0.733710
C501	C50	0.562000	0.868600	0.590800
C511	C51	0.668600	0.907200	0.655220
C521	C52	0.857800	0.916700	0.662920
C531	C53	0.939600	0.939500	0.724800
C541	C54	0.844900	0.961000	0.778880
C551	C55	0.658400	0.963500	0.770680
C561	C56	0.573400	0.932800	0.708230
C571	C57	0.550200	0.008100	0.822880
C581	C58	0.952700	0.984400	0.843300
C591	C59	0.976300	0.914300	0.606600
C601	C60	0.688500	0.305100	0.994200
C611	C61	0.854700	0.403200	0.996220
C621	C62	0.033700	0.390800	0.008880
C631	C63	0.824300	0.510900	0.987900
C641	C64	0.082600	0.276300	0.014100
N11	N1	0.791700	0.711700	0.128320
N21	N2	0.014300	0.627400	0.158710
N31	N3	0.307800	0.422200	0.246470
N41	N4	0.404800	0.300300	0.176470
N51	N5	0.670400	0.846900	0.412790
N61	N6	0.519900	0.722500	0.332420
N71	N7	0.171200	0.817700	0.453210
N81	N8	0.123600	0.717400	0.356950
N91	N9	0.208300	0.288300	0.871680
N101	N10	0.985700	0.372600	0.841290
N111	N11	0.692200	0.577800	0.753530
N121	N12	0.595200	0.699700	0.823530
N131	N13	0.329600	0.153100	0.587210
N141	N14	0.480100	0.277500	0.667580
N151	N15	0.828800	0.182300	0.546790
N161	N16	0.876400	0.282600	0.643050
O11	O1	0.082200	0.072500	0.447400
O21	O2	0.860100	0.095600	0.381530
O31	O3	0.495700	0.237000	0.422440
O41	O4	0.468200	0.053100	0.442190
O51	O5	0.880200	0.979400	0.157080
O61	O6	0.131500	0.034600	0.106930
O71	O7	0.468000	0.889500	0.178550
O81	O8	0.524400	0.052800	0.137060
O91	O9	0.406200	0.718200	0.057280
O101	O10	0.345200	0.738800	0.954170
O111	O11	0.760200	0.717300	0.961570
O121	O12	0.029400	0.814800	0.006320
O131	O13	0.695500	0.947400	0.011550
O141	O14	0.917800	0.927500	0.552600
O151	O15	0.139900	0.904400	0.618470
O161	O16	0.504300	0.763000	0.577560
O171	O17	0.531800	0.946900	0.557810
O181	O18	0.119800	0.020600	0.842920
O191	O19	0.868500	0.965400	0.893070
O201	O20	0.532000	0.110500	0.821450
O211	O21	0.475600	0.947200	0.862940
O221	O22	0.593800	0.281800	0.942720
O231	O23	0.654800	0.261200	0.045830
O241	O24	0.239800	0.282700	0.038430
O251	O25	0.970600	0.185200	0.993680
O261	O26	0.304500	0.052600	0.988450
