data_PUNSIB_freeONLY_PM
_symmetry_space_group_name_H-M	'P1'
_cell_length_a	9.015400
_cell_length_b	25.441000
_cell_length_c	11.390000
_cell_angle_alpha	90.000000
_cell_angle_beta	104.410000
_cell_angle_gamma	90.000000
_symmetry_Int_Tables_number 1

loop_
_symmetry_equiv_pos_as_xyz
'x,y,z'

loop_
_atom_site_label
_atom_site_type_symbol
_atom_site_fract_x
_atom_site_fract_y
_atom_site_fract_z
O11	O1	0.339500	0.153550	0.437400
O21	O2	0.293100	0.068530	0.452700
O31	O3	0.241600	0.267380	0.384400
O41	O4	0.012000	0.290820	0.278380
O51	O5	0.533300	0.318100	0.380800
H11	H1	0.482000	0.345000	0.382000
H21	H2	0.627000	0.326200	0.395000
N11	N1	0.396000	0.042330	0.256700
N21	N2	0.100800	0.310430	0.074700
C11	C1	0.341500	0.106010	0.405500
C21	C2	0.416400	0.096540	0.300900
H31	H3	0.371200	0.120800	0.233600
H41	H4	0.527200	0.104400	0.328400
C31	C3	0.297600	0.026190	0.150200
H51	H5	0.240200	0.048300	0.088100
C41	C4	0.150200	0.282910	0.287500
C51	C5	0.216800	0.290990	0.178400
H61	H6	0.302300	0.316500	0.199500
H71	H7	0.258100	0.257200	0.157000
C61	C6	0.062300	0.361990	0.047000
H81	H8	0.114100	0.392000	0.086800
O61	O6	0.839500	0.653550	0.437400
O71	O7	0.793100	0.568530	0.452700
O81	O8	0.741600	0.767380	0.384400
O91	O9	0.512000	0.790820	0.278380
O101	O10	0.033300	0.818100	0.380800
H91	H9	0.982000	0.845000	0.382000
H101	H10	0.127000	0.826200	0.395000
N31	N3	0.896000	0.542330	0.256700
N41	N4	0.600800	0.810430	0.074700
C71	C7	0.841500	0.606010	0.405500
C81	C8	0.916400	0.596540	0.300900
H111	H11	0.871200	0.620800	0.233600
H121	H12	0.027200	0.604400	0.328400
C91	C9	0.797600	0.526190	0.150200
H131	H13	0.740200	0.548300	0.088100
C101	C10	0.650200	0.782910	0.287500
C111	C11	0.716800	0.790990	0.178400
H141	H14	0.802300	0.816500	0.199500
H151	H15	0.758100	0.757200	0.157000
C121	C12	0.562300	0.861990	0.047000
H161	H16	0.614100	0.892000	0.086800
O111	O11	0.660500	0.153550	0.562600
O121	O12	0.706900	0.068530	0.547300
O131	O13	0.758400	0.267380	0.615600
O141	O14	0.988000	0.290820	0.721620
O151	O15	0.466700	0.318100	0.619200
H171	H17	0.518000	0.345000	0.618000
H181	H18	0.373000	0.326200	0.605000
N51	N5	0.604000	0.042330	0.743300
N61	N6	0.899200	0.310430	0.925300
C131	C13	0.658500	0.106010	0.594500
C141	C14	0.583600	0.096540	0.699100
H191	H19	0.628800	0.120800	0.766400
H201	H20	0.472800	0.104400	0.671600
C151	C15	0.702400	0.026190	0.849800
H211	H21	0.759800	0.048300	0.911900
C161	C16	0.849800	0.282910	0.712500
C171	C17	0.783200	0.290990	0.821600
H221	H22	0.697700	0.316500	0.800500
H231	H23	0.741900	0.257200	0.843000
C181	C18	0.937700	0.361990	0.953000
H241	H24	0.885900	0.392000	0.913200
O161	O16	0.160500	0.653550	0.562600
O171	O17	0.206900	0.568530	0.547300
O181	O18	0.258400	0.767380	0.615600
O191	O19	0.488000	0.790820	0.721620
O201	O20	0.966700	0.818100	0.619200
H251	H25	0.018000	0.845000	0.618000
H261	H26	0.873000	0.826200	0.605000
N71	N7	0.104000	0.542330	0.743300
N81	N8	0.399200	0.810430	0.925300
C191	C19	0.158500	0.606010	0.594500
C201	C20	0.083600	0.596540	0.699100
H271	H27	0.128800	0.620800	0.766400
H281	H28	0.972800	0.604400	0.671600
C211	C21	0.202400	0.526190	0.849800
H291	H29	0.259800	0.548300	0.911900
C221	C22	0.349800	0.782910	0.712500
C231	C23	0.283200	0.790990	0.821600
H301	H30	0.197700	0.816500	0.800500
H311	H31	0.241900	0.757200	0.843000
C241	C24	0.437700	0.861990	0.953000
H321	H32	0.385900	0.892000	0.913200
O211	O21	0.660500	0.846450	0.562600
O221	O22	0.706900	0.931470	0.547300
O231	O23	0.758400	0.732620	0.615600
O241	O24	0.988000	0.709180	0.721620
O251	O25	0.466700	0.681900	0.619200
H331	H33	0.518000	0.655000	0.618000
H341	H34	0.373000	0.673800	0.605000
N91	N9	0.604000	0.957670	0.743300
N101	N10	0.899200	0.689570	0.925300
C251	C25	0.658500	0.893990	0.594500
C261	C26	0.583600	0.903460	0.699100
H351	H35	0.628800	0.879200	0.766400
H361	H36	0.472800	0.895600	0.671600
C271	C27	0.702400	0.973810	0.849800
H371	H37	0.759800	0.951700	0.911900
C281	C28	0.849800	0.717090	0.712500
C291	C29	0.783200	0.709010	0.821600
H381	H38	0.697700	0.683500	0.800500
H391	H39	0.741900	0.742800	0.843000
C301	C30	0.937700	0.638010	0.953000
H401	H40	0.885900	0.608000	0.913200
O261	O26	0.160500	0.346450	0.562600
O271	O27	0.206900	0.431470	0.547300
O281	O28	0.258400	0.232620	0.615600
O291	O29	0.488000	0.209180	0.721620
O301	O30	0.966700	0.181900	0.619200
H411	H41	0.018000	0.155000	0.618000
H421	H42	0.873000	0.173800	0.605000
N111	N11	0.104000	0.457670	0.743300
N121	N12	0.399200	0.189570	0.925300
C311	C31	0.158500	0.393990	0.594500
C321	C32	0.083600	0.403460	0.699100
H431	H43	0.128800	0.379200	0.766400
H441	H44	0.972800	0.395600	0.671600
C331	C33	0.202400	0.473810	0.849800
H451	H45	0.259800	0.451700	0.911900
C341	C34	0.349800	0.217090	0.712500
C351	C35	0.283200	0.209010	0.821600
H461	H46	0.197700	0.183500	0.800500
H471	H47	0.241900	0.242800	0.843000
C361	C36	0.437700	0.138010	0.953000
H481	H48	0.385900	0.108000	0.913200
O311	O31	0.339500	0.846450	0.437400
O321	O32	0.293100	0.931470	0.452700
O331	O33	0.241600	0.732620	0.384400
O341	O34	0.012000	0.709180	0.278380
O351	O35	0.533300	0.681900	0.380800
H491	H49	0.482000	0.655000	0.382000
H501	H50	0.627000	0.673800	0.395000
N131	N13	0.396000	0.957670	0.256700
N141	N14	0.100800	0.689570	0.074700
C371	C37	0.341500	0.893990	0.405500
C381	C38	0.416400	0.903460	0.300900
H511	H51	0.371200	0.879200	0.233600
H521	H52	0.527200	0.895600	0.328400
C391	C39	0.297600	0.973810	0.150200
H531	H53	0.240200	0.951700	0.088100
C401	C40	0.150200	0.717090	0.287500
C411	C41	0.216800	0.709010	0.178400
H541	H54	0.302300	0.683500	0.199500
H551	H55	0.258100	0.742800	0.157000
C421	C42	0.062300	0.638010	0.047000
H561	H56	0.114100	0.608000	0.086800
O361	O36	0.839500	0.346450	0.437400
O371	O37	0.793100	0.431470	0.452700
O381	O38	0.741600	0.232620	0.384400
O391	O39	0.512000	0.209180	0.278380
O401	O40	0.033300	0.181900	0.380800
H571	H57	0.982000	0.155000	0.382000
H581	H58	0.127000	0.173800	0.395000
N151	N15	0.896000	0.457670	0.256700
N161	N16	0.600800	0.189570	0.074700
C431	C43	0.841500	0.393990	0.405500
C441	C44	0.916400	0.403460	0.300900
H591	H59	0.871200	0.379200	0.233600
H601	H60	0.027200	0.395600	0.328400
C451	C45	0.797600	0.473810	0.150200
H611	H61	0.740200	0.451700	0.088100
C461	C46	0.650200	0.217090	0.287500
C471	C47	0.716800	0.209010	0.178400
H621	H62	0.802300	0.183500	0.199500
H631	H63	0.758100	0.242800	0.157000
C481	C48	0.562300	0.138010	0.047000
H641	H64	0.614100	0.108000	0.086800
La11	La1	0.500000	0.234720	0.500000
La21	La2	0.000000	0.734720	0.500000
La31	La3	0.500000	0.765280	0.500000
La41	La4	0.000000	0.265280	0.500000
C491	C49	0.455100	0.000000	0.318600
H651	H65	0.527900	0.000000	0.394900
C501	C50	0.955100	0.500000	0.318600
H661	H66	0.027900	0.500000	0.394900
C511	C51	0.544900	0.000000	0.681400
H671	H67	0.472100	0.000000	0.605100
C521	C52	0.044900	0.500000	0.681400
H681	H68	0.972100	0.500000	0.605100
C531	C53	0.000000	0.280000	0.000000
H691	H69	0.000000	0.242700	0.000000
C541	C54	0.500000	0.780000	0.000000
H701	H70	0.500000	0.742700	0.000000
C551	C55	0.000000	0.720000	0.000000
H711	H71	0.000000	0.757300	0.000000
C561	C56	0.500000	0.220000	0.000000
H721	H72	0.500000	0.257300	0.000000
