data_PUPHUE_freeONLY_PM
_symmetry_space_group_name_H-M	'P1'
_cell_length_a	8.846000
_cell_length_b	22.000600
_cell_length_c	22.547500
_cell_angle_alpha	119.201000
_cell_angle_beta	96.009200
_cell_angle_gamma	90.000000
_symmetry_Int_Tables_number 1

loop_
_symmetry_equiv_pos_as_xyz
'x,y,z'

loop_
_atom_site_label
_atom_site_type_symbol
_atom_site_fract_x
_atom_site_fract_y
_atom_site_fract_z
Na11	Na1	0.643700	0.319830	0.411040
Na21	Na2	0.856300	0.908790	0.588960
Na31	Na3	0.356300	0.680170	0.588960
Na41	Na4	0.143700	0.091210	0.411040
H11	H1	0.600900	0.444600	0.549400
H21	H2	0.541400	0.379800	0.527800
H31	H3	0.394700	0.230500	0.558400
H41	H4	0.252700	0.255200	0.529800
H51	H5	0.479200	0.454000	0.661600
H61	H6	0.383700	0.524600	0.763000
H71	H7	0.138500	0.362400	0.742600
H81	H8	0.229700	0.291100	0.640600
H91	H9	0.359600	0.574000	0.870800
H101	H10	0.251100	0.582500	0.924600
H111	H11	0.361800	0.521500	0.899000
H121	H12	0.053400	0.495400	0.898200
H131	H13	0.001300	0.436700	0.823000
H141	H14	0.153300	0.431400	0.862400
H151	H15	0.196800	0.633200	0.845200
H161	H16	0.052700	0.687500	0.796600
H171	H17	0.756800	0.521500	0.705800
H181	H18	0.903900	0.467200	0.753000
H191	H19	0.016100	0.973600	0.222600
H201	H20	0.130600	0.940200	0.255000
H211	H21	0.137400	0.817600	0.037200
H221	H22	0.980900	0.718600	0.971800
H231	H23	0.774200	0.759900	0.135600
H241	H24	0.928900	0.859800	0.200400
H251	H25	0.906900	0.611700	0.932800
H261	H26	0.904600	0.588400	0.988200
H271	H27	0.774700	0.560800	0.926600
H281	H28	0.893100	0.729400	0.751000
H291	H29	0.945500	0.678600	0.679400
H301	H30	0.870400	0.444900	0.355200
H311	H31	0.839600	0.518800	0.526800
H321	H32	0.734400	0.571200	0.516600
H331	H33	0.693300	0.490700	0.473200
H341	H34	0.912000	0.616300	0.464000
H351	H35	0.049600	0.568600	0.453600
H361	H36	0.934600	0.556500	0.390400
H371	H37	0.899100	0.895200	0.450600
H381	H38	0.958600	0.852000	0.472200
H391	H39	0.105300	0.672100	0.441600
H401	H40	0.247300	0.725400	0.470200
H411	H41	0.020800	0.792400	0.338400
H421	H42	0.116300	0.761600	0.237000
H431	H43	0.361500	0.619800	0.257400
H441	H44	0.270300	0.650500	0.359400
H451	H45	0.140400	0.703200	0.129200
H461	H46	0.248900	0.657900	0.075400
H471	H47	0.138200	0.622500	0.101000
H481	H48	0.446600	0.597200	0.101800
H491	H49	0.498700	0.613700	0.177000
H501	H50	0.346700	0.569000	0.137600
H511	H51	0.303200	0.788000	0.154800
H521	H52	0.447300	0.890900	0.203400
H531	H53	0.743200	0.815700	0.294200
H541	H54	0.596100	0.714200	0.247000
H551	H55	0.483900	0.751000	0.777400
H561	H56	0.369400	0.685200	0.745000
H571	H57	0.362600	0.780400	0.962800
H581	H58	0.519100	0.746800	0.028200
H591	H59	0.725800	0.624300	0.864400
H601	H60	0.571100	0.659400	0.799600
H611	H61	0.593100	0.678900	0.067200
H621	H62	0.595400	0.600200	0.011800
H631	H63	0.725300	0.634200	0.073400
H641	H64	0.606900	0.978400	0.249000
H651	H65	0.554500	0.999200	0.320600
H661	H66	0.629600	0.089700	0.644800
H671	H67	0.660400	0.992000	0.473200
H681	H68	0.765600	0.054600	0.483400
H691	H69	0.806700	0.017500	0.526800
H701	H70	0.588000	0.152300	0.536000
H711	H71	0.450400	0.115000	0.546400
H721	H72	0.565400	0.166100	0.609600
H731	H73	0.399100	0.555400	0.450600
H741	H74	0.458600	0.620200	0.472200
H751	H75	0.605300	0.769500	0.441600
H761	H76	0.747300	0.744800	0.470200
H771	H77	0.520800	0.546000	0.338400
H781	H78	0.616300	0.475400	0.237000
H791	H79	0.861500	0.637600	0.257400
H801	H80	0.770300	0.708900	0.359400
H811	H81	0.640400	0.426000	0.129200
H821	H82	0.748900	0.417500	0.075400
H831	H83	0.638200	0.478500	0.101000
H841	H84	0.946600	0.504600	0.101800
H851	H85	0.998700	0.563300	0.177000
H861	H86	0.846700	0.568600	0.137600
H871	H87	0.803200	0.366800	0.154800
H881	H88	0.947300	0.312500	0.203400
H891	H89	0.243200	0.478500	0.294200
H901	H90	0.096100	0.532800	0.247000
H911	H91	0.983900	0.026400	0.777400
H921	H92	0.869400	0.059800	0.745000
H931	H93	0.862600	0.182400	0.962800
H941	H94	0.019100	0.281400	0.028200
H951	H95	0.225800	0.240100	0.864400
H961	H96	0.071100	0.140200	0.799600
H971	H97	0.093100	0.388300	0.067200
H981	H98	0.095400	0.411600	0.011800
H991	H99	0.225300	0.439200	0.073400
H1001	H100	0.106900	0.270600	0.249000
H1011	H101	0.054500	0.321400	0.320600
H1021	H102	0.129600	0.555100	0.644800
H1031	H103	0.160400	0.481200	0.473200
H1041	H104	0.265600	0.428800	0.483400
H1051	H105	0.306700	0.509300	0.526800
H1061	H106	0.088000	0.383700	0.536000
H1071	H107	0.950400	0.431400	0.546400
H1081	H108	0.065400	0.443500	0.609600
H1091	H109	0.100900	0.104800	0.549400
H1101	H110	0.041400	0.148000	0.527800
H1111	H111	0.894700	0.327900	0.558400
H1121	H112	0.752700	0.274600	0.529800
H1131	H113	0.979200	0.207600	0.661600
H1141	H114	0.883700	0.238400	0.763000
H1151	H115	0.638500	0.380200	0.742600
H1161	H116	0.729700	0.349500	0.640600
H1171	H117	0.859600	0.296800	0.870800
H1181	H118	0.751100	0.342100	0.924600
H1191	H119	0.861800	0.377500	0.899000
H1201	H120	0.553400	0.402800	0.898200
H1211	H121	0.501300	0.386300	0.823000
H1221	H122	0.653300	0.431000	0.862400
H1231	H123	0.696800	0.212000	0.845200
H1241	H124	0.552700	0.109100	0.796600
H1251	H125	0.256800	0.184300	0.705800
H1261	H126	0.403900	0.285800	0.753000
H1271	H127	0.516100	0.249000	0.222600
H1281	H128	0.630600	0.314800	0.255000
H1291	H129	0.637400	0.219600	0.037200
H1301	H130	0.480900	0.253200	0.971800
H1311	H131	0.274200	0.375700	0.135600
H1321	H132	0.428900	0.340600	0.200400
H1331	H133	0.406900	0.321100	0.932800
H1341	H134	0.404600	0.399800	0.988200
H1351	H135	0.274700	0.365800	0.926600
H1361	H136	0.393100	0.021600	0.751000
H1371	H137	0.445500	0.000800	0.679400
H1381	H138	0.370400	0.910300	0.355200
H1391	H139	0.339600	0.008000	0.526800
H1401	H140	0.234400	0.945400	0.516600
H1411	H141	0.193300	0.982500	0.473200
H1421	H142	0.412000	0.847700	0.464000
H1431	H143	0.549600	0.885000	0.453600
H1441	H144	0.434600	0.833900	0.390400
C11	C1	0.420700	0.225590	0.467580
C21	C2	0.363100	0.257170	0.535940
C31	C3	0.361500	0.364780	0.638760
C41	C4	0.409000	0.435310	0.677220
C51	C5	0.352000	0.477550	0.738500
C61	C6	0.249600	0.451950	0.764300
C71	C7	0.206300	0.381300	0.726200
C81	C8	0.260900	0.338250	0.664700
C91	C9	0.175900	0.502600	0.828200
C101	C10	0.298500	0.549500	0.886000
C111	C11	0.087600	0.462770	0.855540
C121	C12	0.069700	0.543940	0.804680
C131	C13	0.108500	0.609850	0.816300
C141	C14	0.023000	0.642850	0.787100
C151	C15	0.892400	0.608450	0.743500
C161	C16	0.847600	0.543690	0.732980
C171	C17	0.935000	0.511600	0.762000
C181	C18	0.229600	0.020310	0.249020
C191	C19	0.119300	0.959040	0.223880
C201	C20	0.048000	0.848570	0.124740
C211	C21	0.063200	0.806170	0.056940
C221	C22	0.969300	0.746530	0.017860
C231	C23	0.856700	0.727190	0.045980
C241	C24	0.846600	0.771270	0.114940
C251	C25	0.939600	0.831400	0.154400
C261	C26	0.842800	0.599990	0.957980
C271	C27	0.738900	0.717810	0.671220
C281	C28	0.858600	0.692100	0.705200
C291	C29	0.830500	0.456900	0.395800
C301	C30	0.775000	0.526000	0.494000
C311	C31	0.945000	0.569900	0.438200
C321	C32	0.079300	0.758010	0.532420
C331	C33	0.136900	0.721230	0.464060
C341	C34	0.138500	0.726020	0.361240
C351	C35	0.091000	0.758090	0.322780
C361	C36	0.148000	0.739050	0.261500
C371	C37	0.250400	0.687650	0.235700
C381	C38	0.293700	0.655100	0.273800
C391	C39	0.239100	0.673550	0.335300
C401	C40	0.324100	0.674400	0.171800
C411	C41	0.201500	0.663500	0.114000
C421	C42	0.412400	0.607230	0.144460
C431	C43	0.430300	0.739260	0.195320
C441	C44	0.391500	0.793550	0.183700
C451	C45	0.477000	0.855750	0.212900
C461	C46	0.607600	0.864950	0.256500
C471	C47	0.652400	0.810710	0.267020
C481	C48	0.565000	0.749600	0.238000
C491	C49	0.270400	0.771290	0.750980
C501	C50	0.380700	0.735160	0.776120
C511	C51	0.452000	0.723830	0.875260
C521	C52	0.436800	0.749230	0.943060
C531	C53	0.530700	0.728670	0.982140
C541	C54	0.643300	0.681210	0.954020
C551	C55	0.653400	0.656330	0.885060
C561	C56	0.560400	0.677000	0.845600
C571	C57	0.657200	0.642010	0.042020
C581	C58	0.761100	0.046590	0.328780
C591	C59	0.641400	0.986900	0.294800
C601	C60	0.669500	0.061100	0.604200
C611	C61	0.725000	0.032000	0.506000
C621	C62	0.555000	0.131700	0.561800
C631	C63	0.579300	0.774410	0.532420
C641	C64	0.636900	0.742830	0.464060
C651	C65	0.638500	0.635220	0.361240
C661	C66	0.591000	0.564690	0.322780
C671	C67	0.648000	0.522450	0.261500
C681	C68	0.750400	0.548050	0.235700
C691	C69	0.793700	0.618700	0.273800
C701	C70	0.739100	0.661750	0.335300
C711	C71	0.824100	0.497400	0.171800
C721	C72	0.701500	0.450500	0.114000
C731	C73	0.912400	0.537230	0.144460
C741	C74	0.930300	0.456060	0.195320
C751	C75	0.891500	0.390150	0.183700
C761	C76	0.977000	0.357150	0.212900
C771	C77	0.107600	0.391550	0.256500
C781	C78	0.152400	0.456310	0.267020
C791	C79	0.065000	0.488400	0.238000
C801	C80	0.770400	0.979690	0.750980
C811	C81	0.880700	0.040960	0.776120
C821	C82	0.952000	0.151430	0.875260
C831	C83	0.936800	0.193830	0.943060
C841	C84	0.030700	0.253470	0.982140
C851	C85	0.143300	0.272810	0.954020
C861	C86	0.153400	0.228730	0.885060
C871	C87	0.060400	0.168600	0.845600
C881	C88	0.157200	0.400010	0.042020
C891	C89	0.261100	0.282190	0.328780
C901	C90	0.141400	0.307900	0.294800
C911	C91	0.169500	0.543100	0.604200
C921	C92	0.225000	0.474000	0.506000
C931	C93	0.055000	0.430100	0.561800
C941	C94	0.920700	0.241990	0.467580
C951	C95	0.863100	0.278770	0.535940
C961	C96	0.861500	0.273980	0.638760
C971	C97	0.909000	0.241910	0.677220
C981	C98	0.852000	0.260950	0.738500
C991	C99	0.749600	0.312350	0.764300
C1001	C100	0.706300	0.344900	0.726200
C1011	C101	0.760900	0.326450	0.664700
C1021	C102	0.675900	0.325600	0.828200
C1031	C103	0.798500	0.336500	0.886000
C1041	C104	0.587600	0.392770	0.855540
C1051	C105	0.569700	0.260740	0.804680
C1061	C106	0.608500	0.206450	0.816300
C1071	C107	0.523000	0.144250	0.787100
C1081	C108	0.392400	0.135050	0.743500
C1091	C109	0.347600	0.189290	0.732980
C1101	C110	0.435000	0.250400	0.762000
C1111	C111	0.729600	0.228710	0.249020
C1121	C112	0.619300	0.264840	0.223880
C1131	C113	0.548000	0.276170	0.124740
C1141	C114	0.563200	0.250770	0.056940
C1151	C115	0.469300	0.271330	0.017860
C1161	C116	0.356700	0.318790	0.045980
C1171	C117	0.346600	0.343670	0.114940
C1181	C118	0.439600	0.323000	0.154400
C1191	C119	0.342800	0.357990	0.957980
C1201	C120	0.238900	0.953410	0.671220
C1211	C121	0.358600	0.013100	0.705200
C1221	C122	0.330500	0.938900	0.395800
C1231	C123	0.275000	0.968000	0.494000
C1241	C124	0.445000	0.868300	0.438200
C1251	C125	0.750000	0.662700	0.000000
C1261	C126	0.250000	0.337300	0.000000
N11	N1	0.853100	0.522480	0.447760
N21	N2	0.646900	0.074720	0.552240
N31	N3	0.146900	0.477520	0.552240
N41	N4	0.353100	0.925280	0.447760
O11	O1	0.508300	0.259460	0.453680
O21	O2	0.368500	0.163640	0.426220
O31	O3	0.197600	0.076740	0.299720
O41	O4	0.346400	0.014780	0.221160
O51	O5	0.419500	0.327650	0.577940
O61	O6	0.799400	0.634380	0.708580
O71	O7	0.145900	0.907110	0.157620
O81	O8	0.608000	0.692000	0.654440
O91	O9	0.787500	0.768340	0.664540
O101	O10	0.756900	0.411790	0.400980
O111	O11	0.622300	0.401940	0.529680
O121	O12	0.991700	0.805780	0.546320
O131	O13	0.131500	0.737420	0.573780
O141	O14	0.302400	0.777020	0.700280
O151	O15	0.153600	0.793620	0.778840
O161	O16	0.080500	0.749710	0.422060
O171	O17	0.700600	0.925800	0.291420
O181	O18	0.354100	0.749490	0.842380
O191	O19	0.892000	0.037560	0.345560
O201	O20	0.712500	0.103800	0.335460
O211	O21	0.743100	0.010810	0.599020
O221	O22	0.877700	0.872260	0.470320
O231	O23	0.491700	0.740540	0.546320
O241	O24	0.631500	0.836360	0.573780
O251	O25	0.802400	0.923260	0.700280
O261	O26	0.653600	0.985220	0.778840
O271	O27	0.580500	0.672350	0.422060
O281	O28	0.200600	0.365620	0.291420
O291	O29	0.854100	0.092890	0.842380
O301	O30	0.392000	0.308000	0.345560
O311	O31	0.212500	0.231660	0.335460
O321	O32	0.243100	0.588210	0.599020
O331	O33	0.377700	0.598060	0.470320
O341	O34	0.008300	0.194220	0.453680
O351	O35	0.868500	0.262580	0.426220
O361	O36	0.697600	0.222980	0.299720
O371	O37	0.846400	0.206380	0.221160
O381	O38	0.919500	0.250290	0.577940
O391	O39	0.299400	0.074200	0.708580
O401	O40	0.645900	0.250510	0.157620
O411	O41	0.108000	0.962440	0.654440
O421	O42	0.287500	0.896200	0.664540
O431	O43	0.256900	0.989190	0.400980
O441	O44	0.122300	0.127740	0.529680
