data_PUPNAQ_freeONLY_PM
_symmetry_space_group_name_H-M	'P1'
_cell_length_a	6.889000
_cell_length_b	11.606000
_cell_length_c	23.851000
_cell_angle_alpha	90.000000
_cell_angle_beta	90.000000
_cell_angle_gamma	96.082000
_symmetry_Int_Tables_number 1

loop_
_symmetry_equiv_pos_as_xyz
'x,y,z'

loop_
_atom_site_label
_atom_site_type_symbol
_atom_site_fract_x
_atom_site_fract_y
_atom_site_fract_z
Zn11	Zn1	0.131260	0.141800	0.481840
Zn21	Zn2	0.868740	0.358200	0.981840
Zn31	Zn3	0.868740	0.858200	0.518150
Zn41	Zn4	0.131260	0.641800	0.018150
H11	H1	0.521400	0.446400	0.585500
H21	H2	0.843200	0.507800	0.586600
H31	H3	0.149600	0.608200	0.573200
H41	H4	0.569900	0.258600	0.450000
H51	H5	0.225300	0.319700	0.577200
H61	H6	0.638600	0.311500	0.699400
H71	H7	0.840700	0.263200	0.627300
H81	H8	0.441800	0.999900	0.582300
H91	H9	0.239300	0.047000	0.654900
H101	H10	0.510800	0.288900	0.782900
H111	H11	0.316200	0.329000	0.858300
H121	H12	0.838800	0.185700	0.776300
H131	H13	0.032200	0.143400	0.701000
H141	H14	0.478600	0.053600	0.085500
H151	H15	0.156800	0.992200	0.086600
H161	H16	0.850400	0.891800	0.073200
H171	H17	0.430100	0.241400	0.950000
H181	H18	0.774700	0.180300	0.077200
H191	H19	0.361400	0.188500	0.199400
H201	H20	0.159300	0.236800	0.127300
H211	H21	0.558200	0.500100	0.082300
H221	H22	0.760700	0.453000	0.154900
H231	H23	0.489200	0.211100	0.282900
H241	H24	0.683800	0.171000	0.358300
H251	H25	0.161200	0.314300	0.276300
H261	H26	0.967800	0.356600	0.201000
H271	H27	0.478600	0.553600	0.414500
H281	H28	0.156800	0.492200	0.413400
H291	H29	0.850400	0.391800	0.426800
H301	H30	0.430100	0.741400	0.550000
H311	H31	0.774700	0.680300	0.422800
H321	H32	0.361400	0.688500	0.300600
H331	H33	0.159300	0.736800	0.372700
H341	H34	0.558200	0.000100	0.417700
H351	H35	0.760700	0.953000	0.345100
H361	H36	0.489200	0.711100	0.217100
H371	H37	0.683800	0.671000	0.141700
H381	H38	0.161200	0.814300	0.223700
H391	H39	0.967800	0.856600	0.299000
H401	H40	0.521400	0.946400	0.914500
H411	H41	0.843200	0.007800	0.913400
H421	H42	0.149600	0.108200	0.926800
H431	H43	0.569900	0.758600	0.050000
H441	H44	0.225300	0.819700	0.922800
H451	H45	0.638600	0.811500	0.800600
H461	H46	0.840700	0.763200	0.872700
H471	H47	0.441800	0.499900	0.917700
H481	H48	0.239300	0.547000	0.845100
H491	H49	0.510800	0.788900	0.717100
H501	H50	0.316200	0.829000	0.641700
H511	H51	0.838800	0.685700	0.723700
H521	H52	0.032200	0.643400	0.799000
C11	C1	0.814300	0.439000	0.508030
C21	C2	0.906200	0.504300	0.551300
C31	C3	0.088900	0.564100	0.543240
C41	C4	0.621000	0.375300	0.514700
C51	C5	0.522100	0.290900	0.483200
C61	C6	0.333400	0.323800	0.552260
C71	C7	0.418500	0.182800	0.685700
C81	C8	0.598400	0.247000	0.676050
C91	C9	0.718800	0.218300	0.633060
C101	C10	0.664100	0.125200	0.598450
C111	C11	0.483100	0.062600	0.606540
C121	C12	0.362400	0.091000	0.649760
C131	C13	0.799200	0.091100	0.553500
C141	C14	0.293000	0.210400	0.733630
C151	C15	0.374000	0.267000	0.781300
C161	C16	0.257700	0.291500	0.826170
C171	C17	0.057000	0.262100	0.825030
C181	C18	0.975800	0.206700	0.777880
C191	C19	0.091500	0.181400	0.732930
C201	C20	0.932600	0.289500	0.874150
C211	C21	0.185700	0.061000	0.008030
C221	C22	0.093800	0.995700	0.051300
C231	C23	0.911100	0.935900	0.043240
C241	C24	0.379000	0.124700	0.014700
C251	C25	0.477900	0.209100	0.983200
C261	C26	0.666600	0.176200	0.052260
C271	C27	0.581500	0.317200	0.185700
C281	C28	0.401600	0.253000	0.176050
C291	C29	0.281200	0.281700	0.133060
C301	C30	0.335900	0.374800	0.098450
C311	C31	0.516900	0.437400	0.106540
C321	C32	0.637600	0.409000	0.149760
C331	C33	0.200800	0.408900	0.053500
C341	C34	0.707000	0.289600	0.233630
C351	C35	0.626000	0.233000	0.281300
C361	C36	0.742300	0.208500	0.326170
C371	C37	0.943000	0.237900	0.325030
C381	C38	0.024200	0.293300	0.277880
C391	C39	0.908500	0.318600	0.232930
C401	C40	0.067400	0.210500	0.374150
C411	C41	0.185700	0.561000	0.491970
C421	C42	0.093800	0.495700	0.448700
C431	C43	0.911100	0.435900	0.456760
C441	C44	0.379000	0.624700	0.485300
C451	C45	0.477900	0.709100	0.516800
C461	C46	0.666600	0.676200	0.447740
C471	C47	0.581500	0.817200	0.314300
C481	C48	0.401600	0.753000	0.323950
C491	C49	0.281200	0.781700	0.366940
C501	C50	0.335900	0.874800	0.401550
C511	C51	0.516900	0.937400	0.393460
C521	C52	0.637600	0.909000	0.350240
C531	C53	0.200800	0.908900	0.446500
C541	C54	0.707000	0.789600	0.266370
C551	C55	0.626000	0.733000	0.218700
C561	C56	0.742300	0.708500	0.173830
C571	C57	0.943000	0.737900	0.174970
C581	C58	0.024200	0.793300	0.222120
C591	C59	0.908500	0.818600	0.267070
C601	C60	0.067400	0.710500	0.125850
C611	C61	0.814300	0.939000	0.991970
C621	C62	0.906200	0.004300	0.948700
C631	C63	0.088900	0.064100	0.956760
C641	C64	0.621000	0.875300	0.985300
C651	C65	0.522100	0.790900	0.016800
C661	C66	0.333400	0.823800	0.947740
C671	C67	0.418500	0.682800	0.814300
C681	C68	0.598400	0.747000	0.823950
C691	C69	0.718800	0.718300	0.866940
C701	C70	0.664100	0.625200	0.901550
C711	C71	0.483100	0.562600	0.893460
C721	C72	0.362400	0.591000	0.850240
C731	C73	0.799200	0.591100	0.946500
C741	C74	0.293000	0.710400	0.766370
C751	C75	0.374000	0.767000	0.718700
C761	C76	0.257700	0.791500	0.673830
C771	C77	0.057000	0.762100	0.674970
C781	C78	0.975800	0.706700	0.722120
C791	C79	0.091500	0.681400	0.767070
C801	C80	0.932600	0.789500	0.625850
N11	N1	0.496900	0.395400	0.558430
N21	N2	0.342000	0.259500	0.506860
N31	N3	0.503100	0.104600	0.058430
N41	N4	0.658000	0.240500	0.006860
N51	N5	0.503100	0.604600	0.441570
N61	N6	0.658000	0.740500	0.493140
N71	N7	0.496900	0.895400	0.941570
N81	N8	0.342000	0.759500	0.993140
O11	O1	0.958900	0.153700	0.547230
O21	O2	0.747300	0.001380	0.524990
O31	O3	0.023900	0.341800	0.914920
O41	O4	0.753400	0.261500	0.873210
O51	O5	0.041100	0.346300	0.047230
O61	O6	0.252700	0.498620	0.024990
O71	O7	0.976100	0.158200	0.414920
O81	O8	0.246600	0.238500	0.373210
O91	O9	0.041100	0.846300	0.452770
O101	O10	0.252700	0.998620	0.475010
O111	O11	0.976100	0.658200	0.085080
O121	O12	0.246600	0.738500	0.126790
O131	O13	0.958900	0.653700	0.952770
O141	O14	0.747300	0.501380	0.975010
O151	O15	0.023900	0.841800	0.585080
O161	O16	0.753400	0.761500	0.626790
