data_PUPXII_freeONLY_PM
_symmetry_space_group_name_H-M	'P1'
_cell_length_a	7.756300
_cell_length_b	9.693800
_cell_length_c	9.693800
_cell_angle_alpha	114.100000
_cell_angle_beta	99.305500
_cell_angle_gamma	80.694500
_symmetry_Int_Tables_number 1

loop_
_symmetry_equiv_pos_as_xyz
'x,y,z'

loop_
_atom_site_label
_atom_site_type_symbol
_atom_site_fract_x
_atom_site_fract_y
_atom_site_fract_z
Mn11	Mn1	0.525010	0.445540	0.112140
Mn21	Mn2	0.025010	0.887860	0.554460
H11	H1	0.867600	0.479700	0.734700
H21	H2	0.017400	0.253600	0.739400
H31	H3	0.834000	0.027000	0.318800
H41	H4	0.676200	0.241300	0.300100
H51	H5	0.665500	0.678800	0.724600
H61	H6	0.385800	0.190700	0.929700
H71	H7	0.285500	0.262100	0.075300
H81	H8	0.367600	0.265300	0.520300
H91	H9	0.517400	0.260600	0.746400
H101	H10	0.334000	0.681200	0.973000
H111	H11	0.176200	0.699900	0.758700
H121	H12	0.165500	0.275400	0.321200
H131	H13	0.885800	0.070300	0.809300
H141	H14	0.785500	0.924700	0.737900
C11	C1	0.296300	0.705400	0.322400
C21	C2	0.432200	0.669300	0.436500
C31	C3	0.420600	0.907600	0.706400
C41	C4	0.481900	0.752100	0.591500
C51	C5	0.857200	0.389100	0.649900
C61	C6	0.947300	0.251600	0.651400
C71	C7	0.838300	0.118400	0.403400
C81	C8	0.743500	0.247000	0.390400
C91	C9	0.750700	0.386500	0.516500
C101	C10	0.638800	0.524400	0.509600
C111	C11	0.796300	0.677600	0.294600
C121	C12	0.932200	0.563500	0.330700
C131	C13	0.920600	0.293600	0.092400
C141	C14	0.981900	0.408500	0.247900
C151	C15	0.357200	0.350100	0.610900
C161	C16	0.447300	0.348600	0.748400
C171	C17	0.338300	0.596600	0.881600
C181	C18	0.243500	0.609600	0.753000
C191	C19	0.250700	0.483500	0.613500
C201	C20	0.138800	0.490400	0.475600
N11	N1	0.534500	0.528000	0.387000
N21	N2	0.611200	0.658000	0.634800
N31	N3	0.937400	0.117100	0.532100
N41	N4	0.034500	0.613000	0.472000
N51	N5	0.111200	0.365200	0.342000
N61	N6	0.437400	0.467900	0.882900
O11	O1	0.297500	0.611200	0.187000
O21	O2	0.191200	0.826200	0.367800
O31	O3	0.259100	0.954100	0.702900
O41	O4	0.540500	0.978300	0.802100
O51	O5	0.399000	0.237500	0.038700
O61	O6	0.797500	0.813000	0.388800
O71	O7	0.691200	0.632200	0.173800
O81	O8	0.759100	0.297100	0.045900
O91	O9	0.040500	0.197900	0.021700
O101	O10	0.899000	0.961300	0.762500
