data_PUQHEP_freeONLY_PM
_symmetry_space_group_name_H-M	'P1'
_cell_length_a	9.838500
_cell_length_b	11.062900
_cell_length_c	13.539800
_cell_angle_alpha	66.610000
_cell_angle_beta	85.898000
_cell_angle_gamma	69.717000
_symmetry_Int_Tables_number 1

loop_
_symmetry_equiv_pos_as_xyz
'x,y,z'

loop_
_atom_site_label
_atom_site_type_symbol
_atom_site_fract_x
_atom_site_fract_y
_atom_site_fract_z
Co11	Co1	0.892570	0.023230	0.797480
Co21	Co2	0.829470	0.055180	0.014340
Co31	Co3	0.107430	0.976770	0.202520
Co41	Co4	0.170530	0.944820	0.985660
H11	H1	0.957900	0.172000	0.870700
H21	H2	0.647400	0.749900	0.104000
H31	H3	0.670100	0.366900	0.125300
H41	H4	0.878500	0.591300	0.895400
H51	H5	0.478400	0.585400	0.334500
H61	H6	0.581800	0.667100	0.265700
H71	H7	0.792300	0.829300	0.231200
H81	H8	0.641900	0.805100	0.369500
H91	H9	0.395600	0.211800	0.216000
H101	H10	0.553700	0.227000	0.079400
H111	H11	0.441900	0.891600	0.459900
H121	H12	0.249200	0.157900	0.344400
H131	H13	0.294700	0.831200	0.591700
H141	H14	0.135900	0.821600	0.734500
H151	H15	0.919100	0.224100	0.579400
H161	H16	0.065200	0.244600	0.441000
H171	H17	0.042100	0.828000	0.129300
H181	H18	0.352600	0.250100	0.896000
H191	H19	0.329900	0.633100	0.874700
H201	H20	0.121500	0.408700	0.104600
H211	H21	0.521600	0.414600	0.665500
H221	H22	0.418200	0.332900	0.734300
H231	H23	0.207700	0.170700	0.768800
H241	H24	0.358100	0.194900	0.630500
H251	H25	0.604400	0.788200	0.784000
H261	H26	0.446300	0.773000	0.920600
H271	H27	0.558100	0.108400	0.540100
H281	H28	0.750800	0.842100	0.655600
H291	H29	0.705300	0.168800	0.408300
H301	H30	0.864100	0.178400	0.265500
H311	H31	0.080900	0.775900	0.420600
H321	H32	0.934800	0.755400	0.559000
C11	C1	0.811300	0.815300	0.944200
C21	C2	0.771500	0.686700	0.994600
C31	C3	0.681900	0.676400	0.079000
C41	C4	0.642900	0.557400	0.126900
C51	C5	0.696200	0.448300	0.091700
C61	C6	0.787500	0.457800	0.007700
C71	C7	0.821700	0.580800	0.956000
C81	C8	0.502400	0.633800	0.260300
C91	C9	0.369200	0.761000	0.199800
C101	C10	0.845400	0.335700	0.973800
C111	C11	0.710500	0.908700	0.227500
C121	C12	0.621000	0.893600	0.310400
C131	C13	0.501100	0.005300	0.309000
C141	C14	0.476900	0.131400	0.220800
C151	C15	0.572000	0.139700	0.139300
C161	C16	0.408600	0.980000	0.400400
C171	C17	0.284800	0.070700	0.404700
C181	C18	0.194200	0.044700	0.500700
C191	C19	0.217600	0.913300	0.589200
C201	C20	0.122200	0.907900	0.674300
C211	C21	0.997600	0.142400	0.582900
C221	C22	0.083700	0.156100	0.499700
C231	C23	0.188700	0.184700	0.055800
C241	C24	0.228500	0.313300	0.005400
C251	C25	0.318100	0.323600	0.921000
C261	C26	0.357100	0.442600	0.873100
C271	C27	0.303800	0.551700	0.908300
C281	C28	0.212500	0.542200	0.992300
C291	C29	0.178300	0.419200	0.044000
C301	C30	0.497600	0.366200	0.739700
C311	C31	0.630800	0.239000	0.800200
C321	C32	0.154600	0.664300	0.026200
C331	C33	0.289500	0.091300	0.772500
C341	C34	0.379000	0.106400	0.689600
C351	C35	0.498900	0.994700	0.691000
C361	C36	0.523100	0.868600	0.779200
C371	C37	0.428000	0.860300	0.860700
C381	C38	0.591400	0.020000	0.599600
C391	C39	0.715200	0.929300	0.595300
C401	C40	0.805800	0.955300	0.499300
C411	C41	0.782400	0.086700	0.410800
C421	C42	0.877800	0.092100	0.325700
C431	C43	0.002400	0.857600	0.417100
C441	C44	0.916300	0.843900	0.500300
N11	N1	0.688700	0.029600	0.141500
N21	N2	0.013400	0.024400	0.669400
N31	N3	0.311300	0.970400	0.858500
N41	N4	0.986600	0.975600	0.330600
O11	O1	0.864200	0.840400	0.853300
O21	O2	0.790100	0.891400	0.996500
O31	O3	0.554100	0.534400	0.211200
O41	O4	0.295000	0.820000	0.259300
O51	O5	0.345300	0.794300	0.102300
O61	O6	0.841000	0.220300	0.042900
O71	O7	0.890300	0.354700	0.881800
O81	O8	0.977500	0.079400	0.890400
O91	O9	0.135800	0.159600	0.146700
O101	O10	0.209900	0.108600	0.003500
O111	O11	0.445900	0.465600	0.788800
O121	O12	0.705000	0.180000	0.740700
O131	O13	0.654700	0.205700	0.897700
O141	O14	0.159000	0.779700	0.957100
O151	O15	0.109700	0.645300	0.118200
O161	O16	0.022500	0.920600	0.109600
