data_PUQXUV_freeONLY_PM
_symmetry_space_group_name_H-M	'P1'
_cell_length_a	7.720000
_cell_length_b	21.250000
_cell_length_c	21.250000
_cell_angle_alpha	120.000000
_cell_angle_beta	90.000000
_cell_angle_gamma	90.000000
_symmetry_Int_Tables_number 1

loop_
_symmetry_equiv_pos_as_xyz
'x,y,z'

loop_
_atom_site_label
_atom_site_type_symbol
_atom_site_fract_x
_atom_site_fract_y
_atom_site_fract_z
Zn11	Zn1	0.833330	0.598060	0.299030
Zn21	Zn2	0.166670	0.700970	0.401940
Zn31	Zn3	0.500000	0.700970	0.299030
Zn41	Zn4	0.833330	0.401940	0.700970
Zn51	Zn5	0.166670	0.299030	0.598060
Zn61	Zn6	0.500000	0.299030	0.700970
H11	H1	0.724400	0.746400	0.154300
H21	H2	0.847100	0.764000	0.065000
H31	H3	0.140800	0.637600	0.156800
H41	H4	0.267400	0.656900	0.069600
H51	H5	0.057730	0.407900	0.253600
H61	H6	0.180430	0.301000	0.236000
H71	H7	0.474130	0.519200	0.362400
H81	H8	0.600730	0.412700	0.343100
H91	H9	0.391070	0.845700	0.592100
H101	H10	0.513770	0.935000	0.699000
H111	H11	0.807470	0.843200	0.480800
H121	H12	0.934070	0.930400	0.587300
H131	H13	0.724400	0.253600	0.845700
H141	H14	0.847100	0.236000	0.935000
H151	H15	0.140800	0.362400	0.843200
H161	H16	0.267400	0.343100	0.930400
H171	H17	0.057730	0.592100	0.746400
H181	H18	0.180430	0.699000	0.764000
H191	H19	0.474130	0.480800	0.637600
H201	H20	0.600730	0.587300	0.656900
H211	H21	0.391070	0.154300	0.407900
H221	H22	0.513770	0.065000	0.301000
H231	H23	0.807470	0.156800	0.519200
H241	H24	0.934070	0.069600	0.412700
H251	H25	0.608930	0.592100	0.845700
H261	H26	0.486230	0.699000	0.935000
H271	H27	0.192530	0.480800	0.843200
H281	H28	0.065930	0.587300	0.930400
H291	H29	0.275600	0.154300	0.746400
H301	H30	0.152900	0.065000	0.764000
H311	H31	0.859200	0.156800	0.637600
H321	H32	0.732600	0.069600	0.656900
H331	H33	0.942270	0.253600	0.407900
H341	H34	0.819570	0.236000	0.301000
H351	H35	0.525870	0.362400	0.519200
H361	H36	0.399270	0.343100	0.412700
H371	H37	0.608930	0.407900	0.154300
H381	H38	0.486230	0.301000	0.065000
H391	H39	0.192530	0.519200	0.156800
H401	H40	0.065930	0.412700	0.069600
H411	H41	0.275600	0.845700	0.253600
H421	H42	0.152900	0.935000	0.236000
H431	H43	0.859200	0.843200	0.362400
H441	H44	0.732600	0.930400	0.343100
H451	H45	0.942270	0.746400	0.592100
H461	H46	0.819570	0.764000	0.699000
H471	H47	0.525870	0.637600	0.480800
H481	H48	0.399270	0.656900	0.587300
C11	C1	0.828300	0.677000	0.219600
C21	C2	0.915400	0.689300	0.162800
C31	C3	0.833500	0.727300	0.136500
C41	C4	0.907700	0.738800	0.083300
C51	C5	0.081300	0.662900	0.138300
C61	C6	0.156600	0.674800	0.086000
C71	C7	0.073800	0.712000	0.057300
C81	C8	0.041100	0.744700	0.957200
C91	C9	0.161630	0.542600	0.323000
C101	C10	0.248730	0.473500	0.310700
C111	C11	0.166830	0.409200	0.272700
C121	C12	0.241030	0.344500	0.261200
C131	C13	0.414630	0.475400	0.337100
C141	C14	0.489930	0.411200	0.325200
C151	C15	0.407130	0.345300	0.288000
C161	C16	0.374430	0.212500	0.255300
C171	C17	0.494970	0.780400	0.457400
C181	C18	0.582070	0.837200	0.526500
C191	C19	0.500170	0.863500	0.590800
C201	C20	0.574370	0.916700	0.655500
C211	C21	0.747970	0.861700	0.524600
C221	C22	0.823270	0.914000	0.588800
C231	C23	0.740470	0.942700	0.654700
C241	C24	0.707770	0.042800	0.787500
C251	C25	0.828300	0.323000	0.780400
C261	C26	0.915400	0.310700	0.837200
C271	C27	0.833500	0.272700	0.863500
C281	C28	0.907700	0.261200	0.916700
C291	C29	0.081300	0.337100	0.861700
C301	C30	0.156600	0.325200	0.914000
C311	C31	0.073800	0.288000	0.942700
C321	C32	0.041100	0.255300	0.042800
C331	C33	0.161630	0.457400	0.677000
C341	C34	0.248730	0.526500	0.689300
C351	C35	0.166830	0.590800	0.727300
C361	C36	0.241030	0.655500	0.738800
C371	C37	0.414630	0.524600	0.662900
C381	C38	0.489930	0.588800	0.674800
C391	C39	0.407130	0.654700	0.712000
C401	C40	0.374430	0.787500	0.744700
C411	C41	0.494970	0.219600	0.542600
C421	C42	0.582070	0.162800	0.473500
C431	C43	0.500170	0.136500	0.409200
C441	C44	0.574370	0.083300	0.344500
C451	C45	0.747970	0.138300	0.475400
C461	C46	0.823270	0.086000	0.411200
C471	C47	0.740470	0.057300	0.345300
C481	C48	0.707770	0.957200	0.212500
C491	C49	0.505030	0.457400	0.780400
C501	C50	0.417930	0.526500	0.837200
C511	C51	0.499830	0.590800	0.863500
C521	C52	0.425630	0.655500	0.916700
C531	C53	0.252030	0.524600	0.861700
C541	C54	0.176730	0.588800	0.914000
C551	C55	0.259530	0.654700	0.942700
C561	C56	0.292230	0.787500	0.042800
C571	C57	0.171700	0.219600	0.677000
C581	C58	0.084600	0.162800	0.689300
C591	C59	0.166500	0.136500	0.727300
C601	C60	0.092300	0.083300	0.738800
C611	C61	0.918700	0.138300	0.662900
C621	C62	0.843400	0.086000	0.674800
C631	C63	0.926200	0.057300	0.712000
C641	C64	0.958900	0.957200	0.744700
C651	C65	0.838370	0.323000	0.542600
C661	C66	0.751270	0.310700	0.473500
C671	C67	0.833170	0.272700	0.409200
C681	C68	0.758970	0.261200	0.344500
C691	C69	0.585370	0.337100	0.475400
C701	C70	0.510070	0.325200	0.411200
C711	C71	0.592870	0.288000	0.345300
C721	C72	0.625570	0.255300	0.212500
C731	C73	0.505030	0.542600	0.219600
C741	C74	0.417930	0.473500	0.162800
C751	C75	0.499830	0.409200	0.136500
C761	C76	0.425630	0.344500	0.083300
C771	C77	0.252030	0.475400	0.138300
C781	C78	0.176730	0.411200	0.086000
C791	C79	0.259530	0.345300	0.057300
C801	C80	0.292230	0.212500	0.957200
C811	C81	0.171700	0.780400	0.323000
C821	C82	0.084600	0.837200	0.310700
C831	C83	0.166500	0.863500	0.272700
C841	C84	0.092300	0.916700	0.261200
C851	C85	0.918700	0.861700	0.337100
C861	C86	0.843400	0.914000	0.325200
C871	C87	0.926200	0.942700	0.288000
C881	C88	0.958900	0.042800	0.255300
C891	C89	0.838370	0.677000	0.457400
C901	C90	0.751270	0.689300	0.526500
C911	C91	0.833170	0.727300	0.590800
C921	C92	0.758970	0.738800	0.655500
C931	C93	0.585370	0.662900	0.524600
C941	C94	0.510070	0.674800	0.588800
C951	C95	0.592870	0.712000	0.654700
C961	C96	0.625570	0.744700	0.787500
C971	C97	0.166670	0.723100	0.000000
C981	C98	0.500000	0.276900	0.276900
C991	C99	0.833330	0.000000	0.723100
C1001	C100	0.166670	0.276900	0.000000
C1011	C101	0.500000	0.723100	0.723100
C1021	C102	0.833330	0.000000	0.276900
O11	O1	0.907300	0.637600	0.238900
O21	O2	0.685700	0.706600	0.242200
O31	O3	0.240630	0.601300	0.362400
O41	O4	0.019030	0.535600	0.293400
O51	O5	0.573970	0.761100	0.398700
O61	O6	0.352370	0.757800	0.464400
O71	O7	0.907300	0.362400	0.761100
O81	O8	0.685700	0.293400	0.757800
O91	O9	0.240630	0.398700	0.637600
O101	O10	0.019030	0.464400	0.706600
O111	O11	0.573970	0.238900	0.601300
O121	O12	0.352370	0.242200	0.535600
O131	O13	0.426030	0.398700	0.761100
O141	O14	0.647630	0.464400	0.757800
O151	O15	0.092700	0.238900	0.637600
O161	O16	0.314300	0.242200	0.706600
O171	O17	0.759370	0.362400	0.601300
O181	O18	0.980970	0.293400	0.535600
O191	O19	0.426030	0.601300	0.238900
O201	O20	0.647630	0.535600	0.242200
O211	O21	0.092700	0.761100	0.362400
O221	O22	0.314300	0.757800	0.293400
O231	O23	0.759370	0.637600	0.398700
O241	O24	0.980970	0.706600	0.464400
F11	F1	0.122500	0.746500	0.902400
F21	F2	0.912100	0.697700	0.928500
F31	F3	0.969700	0.810100	0.997100
F41	F4	0.455830	0.155900	0.253500
F51	F5	0.245430	0.230800	0.302300
F61	F6	0.303030	0.187000	0.189900
F71	F7	0.789170	0.097600	0.844100
F81	F8	0.578770	0.071500	0.769200
F91	F9	0.636370	0.002900	0.813000
F101	F10	0.122500	0.253500	0.097600
F111	F11	0.912100	0.302300	0.071500
F121	F12	0.969700	0.189900	0.002900
F131	F13	0.455830	0.844100	0.746500
F141	F14	0.245430	0.769200	0.697700
F151	F15	0.303030	0.813000	0.810100
F161	F16	0.789170	0.902400	0.155900
F171	F17	0.578770	0.928500	0.230800
F181	F18	0.636370	0.997100	0.187000
F191	F19	0.210830	0.844100	0.097600
F201	F20	0.421230	0.769200	0.071500
F211	F21	0.363630	0.813000	0.002900
F221	F22	0.877500	0.902400	0.746500
F231	F23	0.087900	0.928500	0.697700
F241	F24	0.030300	0.997100	0.810100
F251	F25	0.544170	0.253500	0.155900
F261	F26	0.754570	0.302300	0.230800
F271	F27	0.696970	0.189900	0.187000
F281	F28	0.210830	0.155900	0.902400
F291	F29	0.421230	0.230800	0.928500
F301	F30	0.363630	0.187000	0.997100
F311	F31	0.877500	0.097600	0.253500
F321	F32	0.087900	0.071500	0.302300
F331	F33	0.030300	0.002900	0.189900
F341	F34	0.544170	0.746500	0.844100
F351	F35	0.754570	0.697700	0.769200
F361	F36	0.696970	0.810100	0.813000
