data_PURJES_freeONLY_PM
_symmetry_space_group_name_H-M	'P1'
_cell_length_a	6.931400
_cell_length_b	12.382000
_cell_length_c	27.738000
_cell_angle_alpha	96.641000
_cell_angle_beta	91.231000
_cell_angle_gamma	104.221000
_symmetry_Int_Tables_number 1

loop_
_symmetry_equiv_pos_as_xyz
'x,y,z'

loop_
_atom_site_label
_atom_site_type_symbol
_atom_site_fract_x
_atom_site_fract_y
_atom_site_fract_z
Zn11	Zn1	0.296530	0.427690	0.496370
Zn21	Zn2	0.011100	0.635170	0.991010
Zn31	Zn3	0.703470	0.572310	0.503630
Zn41	Zn4	0.988900	0.364830	0.008990
H11	H1	0.953900	0.384300	0.602400
H21	H2	0.040100	0.275700	0.658800
H31	H3	0.460800	0.109500	0.660200
H41	H4	0.377600	0.213900	0.603300
H51	H5	0.091400	0.139900	0.698200
H61	H6	0.013600	0.212000	0.742000
H71	H7	0.910500	0.918100	0.695600
H81	H8	0.979900	0.875400	0.743900
H91	H9	0.538100	0.938300	0.680000
H101	H10	0.622800	0.808300	0.622800
H111	H11	0.049800	0.629100	0.608600
H121	H12	0.963100	0.760700	0.664500
H131	H13	0.296300	0.120300	0.772200
H141	H14	0.198500	0.030800	0.808000
H151	H15	0.124900	0.355200	0.877300
H161	H16	0.382400	0.476600	0.927500
H171	H17	0.742800	0.271400	0.893100
H181	H18	0.489300	0.152100	0.840800
H191	H19	0.685300	0.980800	0.758800
H201	H20	0.774300	0.086700	0.799100
H211	H21	0.447000	0.935500	0.807500
H221	H22	0.197500	0.838500	0.853100
H231	H23	0.604800	0.714200	0.920400
H241	H24	0.849200	0.805400	0.872800
H251	H25	0.698700	0.746000	0.006400
H261	H26	0.955000	0.055600	0.056800
H271	H27	0.928000	0.986600	0.102600
H281	H28	0.073600	0.961100	0.061100
H291	H29	0.484300	0.854900	0.020500
H301	H30	0.532800	0.931900	0.071800
H311	H31	0.583100	0.986600	0.022700
H321	H32	0.046100	0.615700	0.397600
H331	H33	0.959900	0.724300	0.341200
H341	H34	0.539200	0.890500	0.339800
H351	H35	0.622400	0.786100	0.396700
H361	H36	0.908600	0.860100	0.301800
H371	H37	0.986400	0.788000	0.258000
H381	H38	0.089500	0.081900	0.304400
H391	H39	0.020100	0.124600	0.256100
H401	H40	0.461900	0.061700	0.320000
H411	H41	0.377200	0.191700	0.377200
H421	H42	0.950200	0.370900	0.391400
H431	H43	0.036900	0.239300	0.335500
H441	H44	0.703700	0.879700	0.227800
H451	H45	0.801500	0.969200	0.192000
H461	H46	0.875100	0.644800	0.122700
H471	H47	0.617600	0.523400	0.072500
H481	H48	0.257200	0.728600	0.106900
H491	H49	0.510700	0.847900	0.159200
H501	H50	0.314700	0.019200	0.241200
H511	H51	0.225700	0.913300	0.200900
H521	H52	0.553000	0.064500	0.192500
H531	H53	0.802500	0.161500	0.146900
H541	H54	0.395200	0.285800	0.079600
H551	H55	0.150800	0.194600	0.127200
H561	H56	0.301300	0.254000	0.993600
H571	H57	0.045000	0.944400	0.943200
H581	H58	0.072000	0.013400	0.897400
H591	H59	0.926400	0.038900	0.938900
H601	H60	0.515700	0.145100	0.979500
H611	H61	0.467200	0.068100	0.928200
H621	H62	0.416900	0.013400	0.977300
C11	C1	0.601800	0.378400	0.560600
C21	C2	0.656900	0.309900	0.596600
C31	C3	0.853300	0.327500	0.613800
C41	C4	0.905000	0.263500	0.647700
C51	C5	0.760000	0.182900	0.664700
C61	C6	0.561700	0.165100	0.648100
C71	C7	0.512700	0.227200	0.614600
C81	C8	0.986700	0.137700	0.722000
C91	C9	0.988100	0.047300	0.754000
C101	C10	0.008600	0.937700	0.723700
C111	C11	0.239500	0.863600	0.676300
C121	C12	0.437900	0.876200	0.664700
C131	C13	0.487800	0.798300	0.631100
C141	C14	0.347600	0.706700	0.609300
C151	C15	0.149100	0.693000	0.622700
C161	C16	0.097500	0.770900	0.655800
C171	C17	0.402200	0.625900	0.570400
C181	C18	0.176000	0.091600	0.790100
C191	C19	0.290400	0.246500	0.852800
C201	C20	0.252200	0.339800	0.879700
C211	C21	0.404500	0.410200	0.910300
C221	C22	0.584000	0.386600	0.916100
C231	C23	0.617700	0.289000	0.889500
C241	C24	0.468300	0.218600	0.858200
C251	C25	0.755000	0.462700	0.947300
C261	C26	0.800800	0.018000	0.781500
C271	C27	0.671100	0.884400	0.838000
C281	C28	0.479000	0.891500	0.830900
C291	C29	0.331100	0.833900	0.858100
C301	C30	0.376400	0.770000	0.892500
C311	C31	0.572400	0.759600	0.897700
C321	C32	0.717600	0.814700	0.870000
C331	C33	0.222200	0.718500	0.925800
C341	C34	0.809000	0.799900	0.023000
C351	C35	0.949000	0.982300	0.067600
C361	C36	0.578000	0.919800	0.038800
C371	C37	0.398200	0.621600	0.439400
C381	C38	0.343100	0.690100	0.403400
C391	C39	0.146700	0.672500	0.386200
C401	C40	0.095000	0.736500	0.352300
C411	C41	0.240000	0.817100	0.335300
C421	C42	0.438300	0.834900	0.351900
C431	C43	0.487300	0.772800	0.385400
C441	C44	0.013300	0.862300	0.278000
C451	C45	0.011900	0.952700	0.246000
C461	C46	0.991400	0.062300	0.276300
C471	C47	0.760500	0.136400	0.323700
C481	C48	0.562100	0.123800	0.335300
C491	C49	0.512200	0.201700	0.368900
C501	C50	0.652400	0.293300	0.390700
C511	C51	0.850900	0.307000	0.377300
C521	C52	0.902500	0.229100	0.344200
C531	C53	0.597800	0.374100	0.429600
C541	C54	0.824000	0.908400	0.209900
C551	C55	0.709600	0.753500	0.147200
C561	C56	0.747800	0.660200	0.120300
C571	C57	0.595500	0.589800	0.089700
C581	C58	0.416000	0.613400	0.083900
C591	C59	0.382300	0.711000	0.110500
C601	C60	0.531700	0.781400	0.141800
C611	C61	0.245000	0.537300	0.052700
C621	C62	0.199200	0.982000	0.218500
C631	C63	0.328900	0.115600	0.162000
C641	C64	0.521000	0.108500	0.169100
C651	C65	0.668900	0.166100	0.141900
C661	C66	0.623600	0.230000	0.107500
C671	C67	0.427600	0.240400	0.102300
C681	C68	0.282400	0.185300	0.130000
C691	C69	0.777800	0.281500	0.074200
C701	C70	0.191000	0.200100	0.977000
C711	C71	0.051000	0.017700	0.932400
C721	C72	0.422000	0.080200	0.961200
N11	N1	0.783000	0.898000	0.041300
N21	N2	0.217000	0.102000	0.958700
O11	O1	0.013500	0.344000	0.492100
O21	O2	0.426100	0.353700	0.544400
O31	O3	0.732600	0.456800	0.548100
O41	O4	0.793800	0.112700	0.697200
O51	O5	0.204300	0.951700	0.706800
O61	O6	0.272000	0.546000	0.552500
O71	O7	0.580700	0.650000	0.558200
O81	O8	0.133800	0.180800	0.823200
O91	O9	0.731700	0.553000	0.967400
O101	O10	0.919400	0.433300	0.950700
O111	O11	0.832300	0.943100	0.815400
O121	O12	0.045700	0.716800	0.917900
O131	O13	0.278300	0.677200	0.962100
O141	O14	0.966500	0.775600	0.026600
O151	O15	0.986500	0.656000	0.507900
O161	O16	0.573900	0.646300	0.455600
O171	O17	0.267400	0.543200	0.451900
O181	O18	0.206200	0.887300	0.302800
O191	O19	0.795700	0.048300	0.293200
O201	O20	0.728000	0.454000	0.447500
O211	O21	0.419300	0.350000	0.441800
O221	O22	0.866200	0.819200	0.176800
O231	O23	0.268300	0.447000	0.032600
O241	O24	0.080600	0.566700	0.049300
O251	O25	0.167700	0.056900	0.184600
O261	O26	0.954300	0.283200	0.082100
O271	O27	0.721700	0.322800	0.037900
O281	O28	0.033500	0.224400	0.973400
