data_PURJIW_freeONLY_PM
_symmetry_space_group_name_H-M	'P1'
_cell_length_a	12.458000
_cell_length_b	17.208900
_cell_length_c	28.387300
_cell_angle_alpha	81.600400
_cell_angle_beta	77.324500
_cell_angle_gamma	68.779100
_symmetry_Int_Tables_number 1

loop_
_symmetry_equiv_pos_as_xyz
'x,y,z'

loop_
_atom_site_label
_atom_site_type_symbol
_atom_site_fract_x
_atom_site_fract_y
_atom_site_fract_z
Zn11	Zn1	0.720550	0.863690	0.828210
Zn21	Zn2	0.796280	0.430840	0.256220
Zn31	Zn3	0.587550	0.363690	0.328210
Zn41	Zn4	0.516660	0.930840	0.756220
H11	H1	0.881400	0.047300	0.760500
H21	H2	0.941000	0.157900	0.720500
H31	H3	0.641200	0.251600	0.664600
H41	H4	0.584400	0.139900	0.705100
H51	H5	0.957200	0.290900	0.685100
H61	H6	0.998700	0.225900	0.643900
H71	H7	0.634700	0.705800	0.687200
H81	H8	0.715600	0.578600	0.653000
H91	H9	0.971700	0.507200	0.734000
H101	H10	0.888200	0.635800	0.768200
H111	H11	0.363400	0.224800	0.429800
H121	H12	0.233800	0.200100	0.500100
H131	H13	0.226800	0.409200	0.550600
H141	H14	0.348400	0.433900	0.480900
H151	H15	0.719900	0.340700	0.441900
H161	H16	0.781500	0.329400	0.514800
H171	H17	0.013800	0.443000	0.449400
H181	H18	0.954300	0.452100	0.376100
H191	H19	0.819000	0.349700	0.579500
H201	H20	0.942000	0.276600	0.565000
H211	H21	0.104100	0.346600	0.632000
H221	H22	0.072300	0.406100	0.584300
H231	H23	0.784100	0.433900	0.645300
H241	H24	0.861100	0.479500	0.606500
H251	H25	0.895800	0.448700	0.157100
H261	H26	0.006800	0.467000	0.162400
H271	H27	0.990900	0.470600	0.074600
H281	H28	0.004300	0.560500	0.061100
H291	H29	0.884300	0.548400	0.058600
H301	H30	0.919400	0.606900	0.180900
H311	H31	0.931000	0.657900	0.129300
H321	H32	0.037500	0.576500	0.141900
H331	H33	0.310800	0.547300	0.260500
H341	H34	0.180600	0.657900	0.220500
H351	H35	0.442600	0.751600	0.164600
H361	H36	0.570600	0.639900	0.205100
H371	H37	0.066800	0.790900	0.185100
H381	H38	0.131500	0.725900	0.143900
H391	H39	0.972300	0.205800	0.187200
H401	H40	0.052800	0.078600	0.153000
H411	H41	0.787100	0.007200	0.234000
H421	H42	0.707800	0.135800	0.268200
H431	H43	0.982000	0.724800	0.929800
H441	H44	0.066000	0.700100	0.000100
H451	H45	0.813400	0.909200	0.050600
H461	H46	0.736800	0.933900	0.980900
H471	H47	0.497500	0.840700	0.941900
H481	H48	0.374300	0.829400	0.014800
H491	H49	0.093800	0.943000	0.949400
H501	H50	0.217500	0.952100	0.876100
H511	H51	0.251800	0.849700	0.079500
H521	H52	0.216400	0.776600	0.065000
H531	H53	0.917300	0.846600	0.132000
H541	H54	0.937300	0.906100	0.084300
H551	H55	0.136700	0.933900	0.145300
H561	H56	0.052900	0.979500	0.106500
H571	H57	0.498400	0.948700	0.657100
H581	H58	0.363800	0.967000	0.662400
H591	H59	0.463900	0.970600	0.574600
H601	H60	0.374100	0.060500	0.561100
H611	H61	0.508700	0.048400	0.558600
H621	H62	0.292800	0.106900	0.680900
H631	H63	0.281800	0.157900	0.629300
H641	H64	0.244100	0.076500	0.641900
C11	C1	0.688920	0.012040	0.761320
C21	C2	0.726690	0.083500	0.736920
C31	C3	0.832800	0.088790	0.741010
C41	C4	0.869150	0.153880	0.717020
C51	C5	0.798000	0.212940	0.687860
C61	C6	0.690510	0.209640	0.683740
C71	C7	0.656690	0.143630	0.708190
C81	C8	0.940810	0.279970	0.654610
C91	C9	0.946360	0.350740	0.615540
C101	C10	0.705180	0.767230	0.751610
C111	C11	0.754300	0.684870	0.730530
C121	C12	0.703660	0.665540	0.696540
C131	C13	0.751140	0.590000	0.676320
C141	C14	0.850280	0.530770	0.689870
C151	C15	0.903180	0.547710	0.724530
C161	C16	0.853760	0.624350	0.744530
C171	C17	0.449410	0.350410	0.402970
C181	C18	0.366590	0.332270	0.448550
C191	C19	0.334070	0.263050	0.454410
C201	C20	0.257470	0.247640	0.496420
C211	C21	0.218250	0.303060	0.531840
C221	C22	0.253380	0.371470	0.525770
C231	C23	0.325890	0.385870	0.484550
C241	C24	0.793300	0.401210	0.354790
C251	C25	0.780000	0.361460	0.443340
C261	C26	0.815630	0.355410	0.486730
C271	C27	0.901450	0.387320	0.489380
C281	C28	0.953570	0.422370	0.447890
C291	C29	0.918320	0.427630	0.404330
C301	C30	0.905030	0.336020	0.572320
C311	C31	0.072040	0.352270	0.602250
C321	C32	0.864240	0.435550	0.633370
C331	C33	0.831360	0.397680	0.401400
C341	C34	0.920400	0.491800	0.166800
C351	C35	0.949900	0.531000	0.076000
C361	C36	0.951800	0.602000	0.146400
C371	C37	0.537720	0.512040	0.261320
C381	C38	0.452890	0.583500	0.236920
C391	C39	0.337400	0.588790	0.241010
C401	C40	0.259950	0.653880	0.217020
C411	C41	0.301200	0.712940	0.187860
C421	C42	0.416110	0.709640	0.183740
C431	C43	0.491490	0.643630	0.208190
C441	C44	0.124610	0.779970	0.154610
C451	C45	0.087360	0.850740	0.115540
C461	C46	0.775980	0.267230	0.251610
C471	C47	0.830300	0.184870	0.230530
C481	C48	0.934260	0.165540	0.196540
C491	C49	0.982540	0.090000	0.176320
C501	C50	0.929080	0.030770	0.189870
C511	C51	0.824580	0.047710	0.224530
C521	C52	0.777360	0.124350	0.244530
C531	C53	0.797210	0.850410	0.902970
C541	C54	0.852590	0.832270	0.948550
C551	C55	0.948470	0.763050	0.954410
C561	C56	0.998470	0.747640	0.996420
C571	C57	0.946850	0.803060	0.031840
C581	C58	0.849380	0.871470	0.025770
C591	C59	0.803690	0.885870	0.984550
C601	C60	0.450700	0.901210	0.854790
C611	C61	0.415200	0.861460	0.943340
C621	C62	0.342230	0.855410	0.986730
C631	C63	0.221850	0.887320	0.989380
C641	C64	0.176170	0.922370	0.947890
C651	C65	0.249720	0.927630	0.904330
C661	C66	0.186630	0.836020	0.072320
C671	C67	0.973440	0.852270	0.102250
C681	C68	0.066840	0.935550	0.133370
C691	C69	0.369560	0.897680	0.901400
C701	C70	0.421000	0.991800	0.666800
C711	C71	0.443100	0.031000	0.576000
C721	C72	0.299800	0.102000	0.646400
N11	N1	0.905200	0.550900	0.127100
N21	N2	0.416800	0.050900	0.627100
O11	O1	0.893410	0.484890	0.209890
O21	O2	0.759080	0.780240	0.780400
O31	O3	0.752410	0.958570	0.788530
O41	O4	0.907340	0.453850	0.671650
O51	O5	0.718470	0.367850	0.354950
O61	O6	0.839290	0.435170	0.317630
O71	O7	0.143380	0.284220	0.572620
O81	O8	0.464560	0.418700	0.397580
O91	O9	0.937120	0.388980	0.531220
O101	O10	0.593900	0.010620	0.753180
O111	O11	0.497970	0.296280	0.373380
O121	O12	0.612300	0.820130	0.738070
O131	O13	0.824370	0.278580	0.661420
O141	O14	0.411810	0.984890	0.709890
O151	O15	0.680280	0.280240	0.280400
O161	O16	0.500490	0.458570	0.288530
O171	O17	0.967160	0.953850	0.171650
O181	O18	0.558730	0.867850	0.854950
O191	O19	0.407910	0.935170	0.817630
O201	O20	0.999780	0.784220	0.072620
O211	O21	0.719160	0.918700	0.897580
O221	O22	0.142680	0.888980	0.031220
O231	O23	0.642300	0.510620	0.253180
O241	O24	0.832370	0.796280	0.873380
O251	O25	0.829500	0.320130	0.238070
O261	O26	0.235630	0.778580	0.161420
Zn51	Zn5	0.412450	0.636310	0.671790
Zn61	Zn6	0.483340	0.069160	0.243780
Zn71	Zn7	0.279450	0.136310	0.171790
Zn81	Zn8	0.203720	0.569160	0.743780
H651	H65	0.689200	0.452700	0.739500
H661	H66	0.819400	0.342100	0.779500
H671	H67	0.557400	0.248400	0.835400
H681	H68	0.429400	0.360100	0.794900
H691	H69	0.933200	0.209100	0.814900
H701	H70	0.868500	0.274100	0.856100
H711	H71	0.027700	0.794200	0.812800
H721	H72	0.947200	0.921400	0.847000
H731	H73	0.212900	0.992800	0.766000
H741	H74	0.292200	0.864200	0.731800
H751	H75	0.018000	0.275200	0.070200
H761	H76	0.934000	0.299900	0.999900
H771	H77	0.186600	0.090800	0.949400
H781	H78	0.263200	0.066100	0.019100
H791	H79	0.502500	0.159300	0.058100
H801	H80	0.625700	0.170600	0.985200
H811	H81	0.906200	0.057000	0.050600
H821	H82	0.782500	0.047900	0.123900
H831	H83	0.748200	0.150300	0.920500
H841	H84	0.783600	0.223400	0.935000
H851	H85	0.082700	0.153400	0.868000
H861	H86	0.062700	0.093900	0.915700
H871	H87	0.863300	0.066100	0.854700
H881	H88	0.947100	0.020500	0.893500
H891	H89	0.501600	0.051300	0.342900
H901	H90	0.636200	0.033000	0.337600
H911	H91	0.536100	0.029400	0.425400
H921	H92	0.625900	0.939500	0.438900
H931	H93	0.491300	0.951600	0.441400
H941	H94	0.707200	0.893100	0.319100
H951	H95	0.718200	0.842100	0.370700
H961	H96	0.755900	0.923500	0.358100
H971	H97	0.118600	0.952700	0.239500
H981	H98	0.059000	0.842100	0.279500
H991	H99	0.358800	0.748400	0.335400
H1001	H100	0.415600	0.860100	0.294900
H1011	H101	0.042800	0.709100	0.314900
H1021	H102	0.001300	0.774100	0.356100
H1031	H103	0.365300	0.294200	0.312800
H1041	H104	0.284400	0.421400	0.347000
H1051	H105	0.028300	0.492800	0.266000
H1061	H106	0.111800	0.364200	0.231800
H1071	H107	0.636600	0.775200	0.570200
H1081	H108	0.766200	0.799900	0.499900
H1091	H109	0.773200	0.590800	0.449400
H1101	H110	0.651600	0.566100	0.519100
H1111	H111	0.280100	0.659300	0.558100
H1121	H112	0.218500	0.670600	0.485200
H1131	H113	0.986200	0.557000	0.550600
H1141	H114	0.045700	0.547900	0.623900
H1151	H115	0.181000	0.650300	0.420500
H1161	H116	0.058000	0.723400	0.435000
H1171	H117	0.895900	0.653400	0.368000
H1181	H118	0.927700	0.593900	0.415700
H1191	H119	0.215900	0.566100	0.354700
H1201	H120	0.138900	0.520500	0.393500
H1211	H121	0.104200	0.551300	0.842900
H1221	H122	0.993200	0.533000	0.837600
H1231	H123	0.009100	0.529400	0.925400
H1241	H124	0.995700	0.439500	0.938900
H1251	H125	0.115700	0.451600	0.941400
H1261	H126	0.080600	0.393100	0.819100
H1271	H127	0.069000	0.342100	0.870700
H1281	H128	0.962500	0.423500	0.858100
C731	C73	0.462280	0.487960	0.738680
C741	C74	0.547110	0.416500	0.763080
C751	C75	0.662600	0.411210	0.758990
C761	C76	0.740050	0.346120	0.782980
C771	C77	0.698800	0.287060	0.812140
C781	C78	0.583890	0.290360	0.816260
C791	C79	0.508510	0.356370	0.791810
C801	C80	0.875390	0.220030	0.845390
C811	C81	0.912640	0.149260	0.884460
C821	C82	0.224020	0.732770	0.748390
C831	C83	0.169700	0.815130	0.769470
C841	C84	0.065740	0.834460	0.803460
C851	C85	0.017460	0.910000	0.823680
C861	C86	0.070920	0.969230	0.810130
C871	C87	0.175420	0.952290	0.775470
C881	C88	0.222640	0.875650	0.755470
C891	C89	0.202790	0.149590	0.097030
C901	C90	0.147410	0.167730	0.051450
C911	C91	0.051530	0.236950	0.045590
C921	C92	0.001530	0.252360	0.003580
C931	C93	0.053150	0.196940	0.968160
C941	C94	0.150620	0.128530	0.974230
C951	C95	0.196310	0.114130	0.015450
C961	C96	0.549300	0.098790	0.145210
C971	C97	0.584800	0.138540	0.056660
C981	C98	0.657770	0.144590	0.013270
C991	C99	0.778150	0.112680	0.010620
C1001	C100	0.823830	0.077630	0.052110
C1011	C101	0.750280	0.072370	0.095670
C1021	C102	0.813370	0.163980	0.927680
C1031	C103	0.026560	0.147730	0.897750
C1041	C104	0.933160	0.064450	0.866630
C1051	C105	0.630440	0.102320	0.098600
C1061	C106	0.579000	0.008200	0.333200
C1071	C107	0.556900	0.969000	0.424000
C1081	C108	0.700200	0.898000	0.353600
C1091	C109	0.311080	0.987960	0.238680
C1101	C110	0.273310	0.916500	0.263080
C1111	C111	0.167200	0.911210	0.258990
C1121	C112	0.130850	0.846120	0.282980
C1131	C113	0.202000	0.787060	0.312140
C1141	C114	0.309490	0.790360	0.316260
C1151	C115	0.343310	0.856370	0.291810
C1161	C116	0.059190	0.720030	0.345390
C1171	C117	0.053640	0.649260	0.384460
C1181	C118	0.294820	0.232770	0.248390
C1191	C119	0.245700	0.315130	0.269470
C1201	C120	0.296340	0.334460	0.303460
C1211	C121	0.248860	0.410000	0.323680
C1221	C122	0.149720	0.469230	0.310130
C1231	C123	0.096820	0.452290	0.275470
C1241	C124	0.146240	0.375650	0.255470
C1251	C125	0.550590	0.649590	0.597030
C1261	C126	0.633410	0.667730	0.551450
C1271	C127	0.665930	0.736950	0.545590
C1281	C128	0.742530	0.752360	0.503580
C1291	C129	0.781750	0.696940	0.468160
C1301	C130	0.746620	0.628530	0.474230
C1311	C131	0.674110	0.614130	0.515450
C1321	C132	0.206700	0.598790	0.645210
C1331	C133	0.220000	0.638540	0.556660
C1341	C134	0.184370	0.644590	0.513270
C1351	C135	0.098550	0.612680	0.510620
C1361	C136	0.046430	0.577630	0.552110
C1371	C137	0.081680	0.572370	0.595670
C1381	C138	0.094970	0.663980	0.427680
C1391	C139	0.927960	0.647730	0.397750
C1401	C140	0.135760	0.564450	0.366630
C1411	C141	0.168640	0.602320	0.598600
C1421	C142	0.079600	0.508200	0.833200
C1431	C143	0.050100	0.469000	0.924000
C1441	C144	0.048200	0.398000	0.853600
N31	N3	0.583200	0.949100	0.372900
N41	N4	0.094800	0.449100	0.872900
O271	O27	0.588190	0.015110	0.290110
O281	O28	0.319720	0.719760	0.719600
O291	O29	0.499510	0.541430	0.711470
O301	O30	0.032840	0.046150	0.828350
O311	O31	0.441270	0.132150	0.145050
O321	O32	0.592090	0.064830	0.182370
O331	O33	0.000220	0.215780	0.927380
O341	O34	0.280840	0.081300	0.102420
O351	O35	0.857320	0.111020	0.968780
O361	O36	0.357700	0.489380	0.746820
O371	O37	0.167630	0.203720	0.126620
O381	O38	0.170500	0.679870	0.761930
O391	O39	0.764370	0.221420	0.838580
O401	O40	0.106590	0.515110	0.790110
O411	O41	0.240920	0.219760	0.219600
O421	O42	0.247590	0.041430	0.211470
O431	O43	0.092660	0.546150	0.328350
O441	O44	0.281530	0.632150	0.645050
O451	O45	0.160710	0.564830	0.682370
O461	O46	0.856620	0.715780	0.427380
O471	O47	0.535440	0.581300	0.602420
O481	O48	0.062880	0.611020	0.468780
O491	O49	0.406100	0.989380	0.246820
O501	O50	0.502030	0.703720	0.626620
O511	O51	0.387700	0.179870	0.261930
O521	O52	0.175630	0.721420	0.338580
