data_PURRIE_freeONLY_PM
_symmetry_space_group_name_H-M	'P1'
_cell_length_a	18.707700
_cell_length_b	21.526400
_cell_length_c	24.811400
_cell_angle_alpha	90.000000
_cell_angle_beta	90.000000
_cell_angle_gamma	90.000000
_symmetry_Int_Tables_number 1

loop_
_symmetry_equiv_pos_as_xyz
'x,y,z'

loop_
_atom_site_label
_atom_site_type_symbol
_atom_site_fract_x
_atom_site_fract_y
_atom_site_fract_z
Zn11	Zn1	0.761280	0.855890	0.964420
Zn21	Zn2	0.738720	0.355890	0.035580
Zn31	Zn3	0.238720	0.144110	0.464420
Zn41	Zn4	0.261280	0.644110	0.535580
Zn51	Zn5	0.238720	0.144110	0.035580
Zn61	Zn6	0.261280	0.644110	0.964420
Zn71	Zn7	0.761280	0.855890	0.535580
Zn81	Zn8	0.738720	0.355890	0.464420
Zn91	Zn9	0.271810	0.843980	0.250000
Zn101	Zn10	0.770610	0.029450	0.250000
Zn111	Zn11	0.228190	0.343980	0.750000
Zn121	Zn12	0.729390	0.529450	0.750000
Zn131	Zn13	0.728190	0.156020	0.750000
Zn141	Zn14	0.229390	0.970550	0.750000
Zn151	Zn15	0.771810	0.656020	0.250000
Zn161	Zn16	0.270610	0.470550	0.250000
H11	H1	0.155400	0.809700	0.022500
H21	H2	0.107200	0.768900	0.060200
H31	H3	0.074200	0.008800	0.044600
H41	H4	0.911500	0.936000	0.167700
H51	H5	0.919700	0.863400	0.167200
H61	H6	0.278600	0.763200	0.059500
H71	H7	0.340200	0.771900	0.145700
H81	H8	0.887600	0.876900	0.036800
H91	H9	0.764700	0.908200	0.162700
H101	H10	0.688900	0.889200	0.084800
H111	H11	0.375800	0.080200	0.416600
H121	H12	0.255700	0.975300	0.323900
H131	H13	0.178700	0.038900	0.380700
H141	H14	0.398900	0.954900	0.324000
H151	H15	0.412500	0.022400	0.302300
H161	H16	0.826500	0.132700	0.339400
H171	H17	0.620500	0.133700	0.447400
H181	H18	0.580600	0.157800	0.395700
H191	H19	0.554800	0.679700	0.820800
H201	H20	0.957000	0.794400	0.137400
H211	H21	0.993800	0.764000	0.087100
H221	H22	0.037200	0.773700	0.140500
H231	H23	0.915000	0.012600	0.121300
H241	H24	0.984000	0.053600	0.117300
H251	H25	0.939200	0.039200	0.065400
H261	H26	0.198900	0.891000	0.013400
H271	H27	0.162500	0.945500	0.981800
H281	H28	0.203500	0.959000	0.035600
H291	H29	0.409900	0.895200	0.377000
H301	H30	0.480300	0.860200	0.392800
H311	H31	0.427900	0.883400	0.437900
H321	H32	0.449900	0.099700	0.312000
H331	H33	0.477900	0.148100	0.354200
H341	H34	0.530500	0.119600	0.311800
H351	H35	0.649200	0.981800	0.499900
H361	H36	0.687100	0.027500	0.459900
H371	H37	0.637100	0.053500	0.505200
H381	H38	0.638000	0.047000	0.329100
H391	H39	0.502200	0.772100	0.981400
H401	H40	0.640000	0.739300	0.866600
H411	H41	0.443000	0.670000	0.854900
H421	H42	0.731000	0.173000	0.408000
H431	H43	0.153000	0.839000	0.162700
H441	H44	0.344600	0.309700	0.977500
H451	H45	0.392800	0.268900	0.939800
H461	H46	0.425800	0.508800	0.955400
H471	H47	0.588500	0.436000	0.832300
H481	H48	0.580300	0.363400	0.832800
H491	H49	0.221400	0.263200	0.940500
H501	H50	0.159800	0.271900	0.854300
H511	H51	0.612400	0.376900	0.963200
H521	H52	0.735300	0.408200	0.837300
H531	H53	0.811100	0.389200	0.915200
H541	H54	0.124200	0.580200	0.583400
H551	H55	0.244300	0.475300	0.676100
H561	H56	0.321300	0.538900	0.619300
H571	H57	0.101100	0.454900	0.676000
H581	H58	0.087500	0.522400	0.697700
H591	H59	0.673500	0.632700	0.660600
H601	H60	0.879500	0.633700	0.552600
H611	H61	0.919400	0.657800	0.604300
H621	H62	0.945200	0.179700	0.179200
H631	H63	0.543000	0.294400	0.862600
H641	H64	0.506200	0.264000	0.912900
H651	H65	0.462800	0.273700	0.859500
H661	H66	0.585000	0.512600	0.878700
H671	H67	0.516000	0.553600	0.882700
H681	H68	0.560800	0.539200	0.934600
H691	H69	0.301100	0.391000	0.986600
H701	H70	0.337500	0.445500	0.018200
H711	H71	0.296500	0.459000	0.964400
H721	H72	0.090100	0.395200	0.623000
H731	H73	0.019700	0.360200	0.607200
H741	H74	0.072100	0.383400	0.562100
H751	H75	0.050100	0.599700	0.688000
H761	H76	0.022100	0.648100	0.645800
H771	H77	0.969500	0.619600	0.688200
H781	H78	0.850800	0.481800	0.500100
H791	H79	0.812900	0.527500	0.540100
H801	H80	0.862900	0.553500	0.494800
H811	H81	0.862000	0.547000	0.670900
H821	H82	0.997800	0.272100	0.018600
H831	H83	0.860000	0.239300	0.133400
H841	H84	0.057000	0.170000	0.145100
H851	H85	0.769000	0.673000	0.592000
H861	H86	0.347000	0.339000	0.837300
H871	H87	0.844600	0.190300	0.522500
H881	H88	0.892800	0.231100	0.560200
H891	H89	0.925800	0.991200	0.544600
H901	H90	0.088500	0.064000	0.667700
H911	H91	0.080300	0.136600	0.667200
H921	H92	0.721400	0.236800	0.559500
H931	H93	0.659800	0.228100	0.645700
H941	H94	0.112400	0.123100	0.536800
H951	H95	0.235300	0.091800	0.662700
H961	H96	0.311100	0.110800	0.584800
H971	H97	0.624200	0.919800	0.916600
H981	H98	0.744300	0.024700	0.823900
H991	H99	0.821300	0.961100	0.880700
H1001	H100	0.601100	0.045100	0.824000
H1011	H101	0.587500	0.977600	0.802300
H1021	H102	0.173500	0.867300	0.839400
H1031	H103	0.379500	0.866300	0.947400
H1041	H104	0.419400	0.842200	0.895700
H1051	H105	0.445200	0.320300	0.320800
H1061	H106	0.043000	0.205600	0.637400
H1071	H107	0.006200	0.236000	0.587100
H1081	H108	0.962800	0.226300	0.640500
H1091	H109	0.085000	0.987400	0.621300
H1101	H110	0.016000	0.946400	0.617300
H1111	H111	0.060800	0.960800	0.565400
H1121	H112	0.801100	0.109000	0.513400
H1131	H113	0.837500	0.054500	0.481800
H1141	H114	0.796500	0.041000	0.535600
H1151	H115	0.590100	0.104800	0.877000
H1161	H116	0.519700	0.139800	0.892800
H1171	H117	0.572100	0.116600	0.937900
H1181	H118	0.550100	0.900300	0.812000
H1191	H119	0.522100	0.851900	0.854200
H1201	H120	0.469500	0.880400	0.811800
H1211	H121	0.350800	0.018200	0.999900
H1221	H122	0.312900	0.972500	0.959900
H1231	H123	0.362900	0.946500	0.005200
H1241	H124	0.362000	0.953000	0.829100
H1251	H125	0.497800	0.227900	0.481400
H1261	H126	0.360000	0.260700	0.366600
H1271	H127	0.557000	0.330000	0.354900
H1281	H128	0.269000	0.827000	0.908000
H1291	H129	0.847000	0.161000	0.662700
H1301	H130	0.655400	0.690300	0.477500
H1311	H131	0.607200	0.731100	0.439800
H1321	H132	0.574200	0.491200	0.455400
H1331	H133	0.411500	0.564000	0.332300
H1341	H134	0.419700	0.636600	0.332800
H1351	H135	0.778600	0.736800	0.440500
H1361	H136	0.840200	0.728100	0.354300
H1371	H137	0.387600	0.623100	0.463200
H1381	H138	0.264700	0.591800	0.337300
H1391	H139	0.188900	0.610800	0.415200
H1401	H140	0.875800	0.419800	0.083400
H1411	H141	0.755700	0.524700	0.176100
H1421	H142	0.678700	0.461100	0.119300
H1431	H143	0.898900	0.545100	0.176000
H1441	H144	0.912500	0.477600	0.197700
H1451	H145	0.326500	0.367300	0.160600
H1461	H146	0.120500	0.366300	0.052600
H1471	H147	0.080600	0.342200	0.104300
H1481	H148	0.054800	0.820300	0.679200
H1491	H149	0.457000	0.705600	0.362600
H1501	H150	0.493800	0.736000	0.412900
H1511	H151	0.537200	0.726300	0.359500
H1521	H152	0.415000	0.487400	0.378700
H1531	H153	0.484000	0.446400	0.382700
H1541	H154	0.439200	0.460800	0.434600
H1551	H155	0.698900	0.609000	0.486600
H1561	H156	0.662500	0.554500	0.518200
H1571	H157	0.703500	0.541000	0.464400
H1581	H158	0.909900	0.604800	0.123000
H1591	H159	0.980300	0.639800	0.107200
H1601	H160	0.927900	0.616600	0.062100
H1611	H161	0.949900	0.400300	0.188000
H1621	H162	0.977900	0.351900	0.145800
H1631	H163	0.030500	0.380400	0.188200
H1641	H164	0.149200	0.518200	0.000100
H1651	H165	0.187100	0.472500	0.040100
H1661	H166	0.137100	0.446500	0.994800
H1671	H167	0.138000	0.453000	0.170900
H1681	H168	0.002200	0.727900	0.518600
H1691	H169	0.140000	0.760700	0.633400
H1701	H170	0.943000	0.830000	0.645100
H1711	H171	0.231000	0.327000	0.092000
H1721	H172	0.653000	0.661000	0.337300
H1731	H173	0.844600	0.190300	0.977500
H1741	H174	0.892800	0.231100	0.939800
H1751	H175	0.925800	0.991200	0.955400
H1761	H176	0.088500	0.064000	0.832300
H1771	H177	0.080300	0.136600	0.832800
H1781	H178	0.721400	0.236800	0.940500
H1791	H179	0.659800	0.228100	0.854300
H1801	H180	0.112400	0.123100	0.963200
H1811	H181	0.235300	0.091800	0.837300
H1821	H182	0.311100	0.110800	0.915200
H1831	H183	0.624200	0.919800	0.583400
H1841	H184	0.744300	0.024700	0.676100
H1851	H185	0.821300	0.961100	0.619300
H1861	H186	0.601100	0.045100	0.676000
H1871	H187	0.587500	0.977600	0.697700
H1881	H188	0.173500	0.867300	0.660600
H1891	H189	0.379500	0.866300	0.552600
H1901	H190	0.419400	0.842200	0.604300
H1911	H191	0.445200	0.320300	0.179200
H1921	H192	0.043000	0.205600	0.862600
H1931	H193	0.006200	0.236000	0.912900
H1941	H194	0.962800	0.226300	0.859500
H1951	H195	0.085000	0.987400	0.878700
H1961	H196	0.016000	0.946400	0.882700
H1971	H197	0.060800	0.960800	0.934600
H1981	H198	0.801100	0.109000	0.986600
H1991	H199	0.837500	0.054500	0.018200
H2001	H200	0.796500	0.041000	0.964400
H2011	H201	0.590100	0.104800	0.623000
H2021	H202	0.519700	0.139800	0.607200
H2031	H203	0.572100	0.116600	0.562100
H2041	H204	0.550100	0.900300	0.688000
H2051	H205	0.522100	0.851900	0.645800
H2061	H206	0.469500	0.880400	0.688200
H2071	H207	0.350800	0.018200	0.500100
H2081	H208	0.312900	0.972500	0.540100
H2091	H209	0.362900	0.946500	0.494800
H2101	H210	0.362000	0.953000	0.670900
H2111	H211	0.497800	0.227900	0.018600
H2121	H212	0.360000	0.260700	0.133400
H2131	H213	0.557000	0.330000	0.145100
H2141	H214	0.269000	0.827000	0.592000
H2151	H215	0.847000	0.161000	0.837300
H2161	H216	0.655400	0.690300	0.022500
H2171	H217	0.607200	0.731100	0.060200
H2181	H218	0.574200	0.491200	0.044600
H2191	H219	0.411500	0.564000	0.167700
H2201	H220	0.419700	0.636600	0.167200
H2211	H221	0.778600	0.736800	0.059500
H2221	H222	0.840200	0.728100	0.145700
H2231	H223	0.387600	0.623100	0.036800
H2241	H224	0.264700	0.591800	0.162700
H2251	H225	0.188900	0.610800	0.084800
H2261	H226	0.875800	0.419800	0.416600
H2271	H227	0.755700	0.524700	0.323900
H2281	H228	0.678700	0.461100	0.380700
H2291	H229	0.898900	0.545100	0.324000
H2301	H230	0.912500	0.477600	0.302300
H2311	H231	0.326500	0.367300	0.339400
H2321	H232	0.120500	0.366300	0.447400
H2331	H233	0.080600	0.342200	0.395700
H2341	H234	0.054800	0.820300	0.820800
H2351	H235	0.457000	0.705600	0.137400
H2361	H236	0.493800	0.736000	0.087100
H2371	H237	0.537200	0.726300	0.140500
H2381	H238	0.415000	0.487400	0.121300
H2391	H239	0.484000	0.446400	0.117300
H2401	H240	0.439200	0.460800	0.065400
H2411	H241	0.698900	0.609000	0.013400
H2421	H242	0.662500	0.554500	0.981800
H2431	H243	0.703500	0.541000	0.035600
H2441	H244	0.909900	0.604800	0.377000
H2451	H245	0.980300	0.639800	0.392800
H2461	H246	0.927900	0.616600	0.437900
H2471	H247	0.949900	0.400300	0.312000
H2481	H248	0.977900	0.351900	0.354200
H2491	H249	0.030500	0.380400	0.311800
H2501	H250	0.149200	0.518200	0.499900
H2511	H251	0.187100	0.472500	0.459900
H2521	H252	0.137100	0.446500	0.505200
H2531	H253	0.138000	0.453000	0.329100
H2541	H254	0.002200	0.727900	0.981400
H2551	H255	0.140000	0.760700	0.866600
H2561	H256	0.943000	0.830000	0.854900
H2571	H257	0.231000	0.327000	0.408000
H2581	H258	0.653000	0.661000	0.162700
H2591	H259	0.155400	0.809700	0.477500
H2601	H260	0.107200	0.768900	0.439800
H2611	H261	0.074200	0.008800	0.455400
H2621	H262	0.911500	0.936000	0.332300
H2631	H263	0.919700	0.863400	0.332800
H2641	H264	0.278600	0.763200	0.440500
H2651	H265	0.340200	0.771900	0.354300
H2661	H266	0.887600	0.876900	0.463200
H2671	H267	0.764700	0.908200	0.337300
H2681	H268	0.688900	0.889200	0.415200
H2691	H269	0.375800	0.080200	0.083400
H2701	H270	0.255700	0.975300	0.176100
H2711	H271	0.178700	0.038900	0.119300
H2721	H272	0.398900	0.954900	0.176000
H2731	H273	0.412500	0.022400	0.197700
H2741	H274	0.826500	0.132700	0.160600
H2751	H275	0.620500	0.133700	0.052600
H2761	H276	0.580600	0.157800	0.104300
H2771	H277	0.554800	0.679700	0.679200
H2781	H278	0.957000	0.794400	0.362600
H2791	H279	0.993800	0.764000	0.412900
H2801	H280	0.037200	0.773700	0.359500
H2811	H281	0.915000	0.012600	0.378700
H2821	H282	0.984000	0.053600	0.382700
H2831	H283	0.939200	0.039200	0.434600
H2841	H284	0.198900	0.891000	0.486600
H2851	H285	0.162500	0.945500	0.518200
H2861	H286	0.203500	0.959000	0.464400
H2871	H287	0.409900	0.895200	0.123000
H2881	H288	0.480300	0.860200	0.107200
H2891	H289	0.427900	0.883400	0.062100
H2901	H290	0.449900	0.099700	0.188000
H2911	H291	0.477900	0.148100	0.145800
H2921	H292	0.530500	0.119600	0.188200
H2931	H293	0.649200	0.981800	0.000100
H2941	H294	0.687100	0.027500	0.040100
H2951	H295	0.637100	0.053500	0.994800
H2961	H296	0.638000	0.047000	0.170900
H2971	H297	0.502200	0.772100	0.518600
H2981	H298	0.640000	0.739300	0.633400
H2991	H299	0.443000	0.670000	0.645100
H3001	H300	0.731000	0.173000	0.092000
H3011	H301	0.153000	0.839000	0.337300
H3021	H302	0.344600	0.309700	0.522500
H3031	H303	0.392800	0.268900	0.560200
H3041	H304	0.425800	0.508800	0.544600
H3051	H305	0.588500	0.436000	0.667700
H3061	H306	0.580300	0.363400	0.667200
H3071	H307	0.221400	0.263200	0.559500
H3081	H308	0.159800	0.271900	0.645700
H3091	H309	0.612400	0.376900	0.536800
H3101	H310	0.735300	0.408200	0.662700
H3111	H311	0.811100	0.389200	0.584800
H3121	H312	0.124200	0.580200	0.916600
H3131	H313	0.244300	0.475300	0.823900
H3141	H314	0.321300	0.538900	0.880700
H3151	H315	0.101100	0.454900	0.824000
H3161	H316	0.087500	0.522400	0.802300
H3171	H317	0.673500	0.632700	0.839400
H3181	H318	0.879500	0.633700	0.947400
H3191	H319	0.919400	0.657800	0.895700
H3201	H320	0.945200	0.179700	0.320800
H3211	H321	0.543000	0.294400	0.637400
H3221	H322	0.506200	0.264000	0.587100
H3231	H323	0.462800	0.273700	0.640500
H3241	H324	0.585000	0.512600	0.621300
H3251	H325	0.516000	0.553600	0.617300
H3261	H326	0.560800	0.539200	0.565400
H3271	H327	0.301100	0.391000	0.513400
H3281	H328	0.337500	0.445500	0.481800
H3291	H329	0.296500	0.459000	0.535600
H3301	H330	0.090100	0.395200	0.877000
H3311	H331	0.019700	0.360200	0.892800
H3321	H332	0.072100	0.383400	0.937900
H3331	H333	0.050100	0.599700	0.812000
H3341	H334	0.022100	0.648100	0.854200
H3351	H335	0.969500	0.619600	0.811800
H3361	H336	0.850800	0.481800	0.999900
H3371	H337	0.812900	0.527500	0.959900
H3381	H338	0.862900	0.553500	0.005200
H3391	H339	0.862000	0.547000	0.829100
H3401	H340	0.997800	0.272100	0.481400
H3411	H341	0.860000	0.239300	0.366600
H3421	H342	0.057000	0.170000	0.354900
H3431	H343	0.769000	0.673000	0.908000
H3441	H344	0.347000	0.339000	0.662700
H3451	H345	0.688000	0.842000	0.250000
H3461	H346	0.120000	0.122000	0.250000
H3471	H347	0.007000	0.132000	0.250000
H3481	H348	0.187000	0.033000	0.250000
H3491	H349	0.995000	0.943000	0.250000
H3501	H350	0.634000	0.742000	0.250000
H3511	H351	0.506000	0.927000	0.250000
H3521	H352	0.508000	0.736000	0.250000
H3531	H353	0.812000	0.342000	0.750000
H3541	H354	0.380000	0.622000	0.750000
H3551	H355	0.493000	0.632000	0.750000
H3561	H356	0.313000	0.533000	0.750000
H3571	H357	0.505000	0.443000	0.750000
H3581	H358	0.866000	0.242000	0.750000
H3591	H359	0.994000	0.427000	0.750000
H3601	H360	0.992000	0.236000	0.750000
H3611	H361	0.312000	0.158000	0.750000
H3621	H362	0.880000	0.878000	0.750000
H3631	H363	0.993000	0.868000	0.750000
H3641	H364	0.813000	0.967000	0.750000
H3651	H365	0.005000	0.057000	0.750000
H3661	H366	0.366000	0.258000	0.750000
H3671	H367	0.494000	0.073000	0.750000
H3681	H368	0.492000	0.264000	0.750000
H3691	H369	0.188000	0.658000	0.250000
H3701	H370	0.620000	0.378000	0.250000
H3711	H371	0.507000	0.368000	0.250000
H3721	H372	0.687000	0.467000	0.250000
H3731	H373	0.495000	0.557000	0.250000
H3741	H374	0.134000	0.758000	0.250000
H3751	H375	0.006000	0.573000	0.250000
H3761	H376	0.008000	0.764000	0.250000
C11	C1	0.135000	0.806800	0.058400
C21	C2	0.087100	0.861400	0.067950
C31	C3	0.106100	0.919600	0.048300
C41	C4	0.062100	0.970100	0.058600
C51	C5	0.000600	0.964200	0.089400
C61	C6	0.981500	0.905900	0.110100
C71	C7	0.023900	0.854300	0.098290
C81	C8	0.915500	0.899900	0.144500
C91	C9	0.189800	0.821600	0.149800
C101	C10	0.260100	0.779700	0.091200
C111	C11	0.293500	0.784500	0.139000
C121	C12	0.847500	0.882400	0.058400
C131	C13	0.780200	0.899500	0.127900
C141	C14	0.738600	0.889300	0.084700
C151	C15	0.335900	0.062000	0.400950
C161	C16	0.270500	0.004300	0.349400
C171	C17	0.228400	0.039100	0.381300
C181	C18	0.404700	0.998000	0.334600
C191	C19	0.468500	0.004000	0.371460
C201	C20	0.487600	0.954500	0.405400
C211	C21	0.581600	0.015700	0.442800
C221	C22	0.543800	0.960800	0.440200
C231	C23	0.563100	0.065200	0.409700
C241	C24	0.507000	0.059400	0.372640
C251	C25	0.779500	0.120600	0.345500
C261	C26	0.736700	0.144200	0.383800
C271	C27	0.680200	0.074300	0.338400
C281	C28	0.607900	0.123400	0.410500
C291	C29	0.634600	0.798900	0.958700
C301	C30	0.579600	0.759850	0.930340
C311	C31	0.595300	0.731900	0.881600
C321	C32	0.544400	0.697000	0.854200
C331	C33	0.388700	0.706300	0.950500
C341	C34	0.461400	0.715980	0.925910
C351	C35	0.511200	0.752500	0.951500
C361	C36	0.477800	0.688400	0.877600
C371	C37	0.000900	0.790800	0.117600
C381	C38	0.955500	0.022900	0.099300
C391	C39	0.173900	0.929700	0.017000
C401	C40	0.447700	0.892600	0.403100
C411	C41	0.489800	0.111400	0.334200
C421	C42	0.644400	0.020000	0.480300
C431	C43	0.365000	0.306800	0.941600
C441	C44	0.412900	0.361400	0.932050
C451	C45	0.393900	0.419600	0.951700
C461	C46	0.437900	0.470100	0.941400
C471	C47	0.499400	0.464200	0.910600
C481	C48	0.518500	0.405900	0.889900
C491	C49	0.476100	0.354300	0.901710
C501	C50	0.584500	0.399900	0.855500
C511	C51	0.310200	0.321600	0.850200
C521	C52	0.239900	0.279700	0.908800
C531	C53	0.206500	0.284500	0.861000
C541	C54	0.652500	0.382400	0.941600
C551	C55	0.719800	0.399500	0.872100
C561	C56	0.761400	0.389300	0.915300
C571	C57	0.164100	0.562000	0.599050
C581	C58	0.229500	0.504300	0.650600
C591	C59	0.271600	0.539100	0.618700
C601	C60	0.095300	0.498000	0.665400
C611	C61	0.031500	0.504000	0.628540
C621	C62	0.012400	0.454500	0.594600
C631	C63	0.918400	0.515700	0.557200
C641	C64	0.956200	0.460800	0.559800
C651	C65	0.936900	0.565200	0.590300
C661	C66	0.993000	0.559400	0.627360
C671	C67	0.720500	0.620600	0.654500
C681	C68	0.763300	0.644200	0.616200
C691	C69	0.819800	0.574300	0.661600
C701	C70	0.892100	0.623400	0.589500
C711	C71	0.865400	0.298900	0.041300
C721	C72	0.920400	0.259850	0.069660
C731	C73	0.904700	0.231900	0.118400
C741	C74	0.955600	0.197000	0.145800
C751	C75	0.111300	0.206300	0.049500
C761	C76	0.038600	0.215980	0.074090
C771	C77	0.988800	0.252500	0.048500
C781	C78	0.022200	0.188400	0.122400
C791	C79	0.499100	0.290800	0.882400
C801	C80	0.544500	0.522900	0.900700
C811	C81	0.326100	0.429700	0.983000
C821	C82	0.052300	0.392600	0.596900
C831	C83	0.010200	0.611400	0.665800
C841	C84	0.855600	0.520000	0.519700
C851	C85	0.865000	0.193200	0.558400
C861	C86	0.912900	0.138600	0.567950
C871	C87	0.893900	0.080400	0.548300
C881	C88	0.937900	0.029900	0.558600
C891	C89	0.999400	0.035800	0.589400
C901	C90	0.018500	0.094100	0.610100
C911	C91	0.976100	0.145700	0.598290
C921	C92	0.084500	0.100100	0.644500
C931	C93	0.810200	0.178400	0.649800
C941	C94	0.739900	0.220300	0.591200
C951	C95	0.706500	0.215500	0.639000
C961	C96	0.152500	0.117600	0.558400
C971	C97	0.219800	0.100500	0.627900
C981	C98	0.261400	0.110700	0.584700
C991	C99	0.664100	0.938000	0.900950
C1001	C100	0.729500	0.995700	0.849400
C1011	C101	0.771600	0.960900	0.881300
C1021	C102	0.595300	0.002000	0.834600
C1031	C103	0.531500	0.996000	0.871460
C1041	C104	0.512400	0.045500	0.905400
C1051	C105	0.418400	0.984300	0.942800
C1061	C106	0.456200	0.039200	0.940200
C1071	C107	0.436900	0.934800	0.909700
C1081	C108	0.493000	0.940600	0.872640
C1091	C109	0.220500	0.879400	0.845500
C1101	C110	0.263300	0.855800	0.883800
C1111	C111	0.319800	0.925700	0.838400
C1121	C112	0.392100	0.876600	0.910500
C1131	C113	0.365400	0.201100	0.458700
C1141	C114	0.420400	0.240150	0.430340
C1151	C115	0.404700	0.268100	0.381600
C1161	C116	0.455600	0.303000	0.354200
C1171	C117	0.611300	0.293700	0.450500
C1181	C118	0.538600	0.284020	0.425910
C1191	C119	0.488800	0.247500	0.451500
C1201	C120	0.522200	0.311600	0.377600
C1211	C121	0.999100	0.209200	0.617600
C1221	C122	0.044500	0.977100	0.599300
C1231	C123	0.826100	0.070300	0.517000
C1241	C124	0.552300	0.107400	0.903100
C1251	C125	0.510200	0.888600	0.834200
C1261	C126	0.355600	0.980000	0.980300
C1271	C127	0.635000	0.693200	0.441600
C1281	C128	0.587100	0.638600	0.432050
C1291	C129	0.606100	0.580400	0.451700
C1301	C130	0.562100	0.529900	0.441400
C1311	C131	0.500600	0.535800	0.410600
C1321	C132	0.481500	0.594100	0.389900
C1331	C133	0.523900	0.645700	0.401710
C1341	C134	0.415500	0.600100	0.355500
C1351	C135	0.689800	0.678400	0.350200
C1361	C136	0.760100	0.720300	0.408800
C1371	C137	0.793500	0.715500	0.361000
C1381	C138	0.347500	0.617600	0.441600
C1391	C139	0.280200	0.600500	0.372100
C1401	C140	0.238600	0.610700	0.415300
C1411	C141	0.835900	0.438000	0.099050
C1421	C142	0.770500	0.495700	0.150600
C1431	C143	0.728400	0.460900	0.118700
C1441	C144	0.904700	0.502000	0.165400
C1451	C145	0.968500	0.496000	0.128540
C1461	C146	0.987600	0.545500	0.094600
C1471	C147	0.081600	0.484300	0.057200
C1481	C148	0.043800	0.539200	0.059800
C1491	C149	0.063100	0.434800	0.090300
C1501	C150	0.007000	0.440600	0.127360
C1511	C151	0.279500	0.379400	0.154500
C1521	C152	0.236700	0.355800	0.116200
C1531	C153	0.180200	0.425700	0.161600
C1541	C154	0.107900	0.376600	0.089500
C1551	C155	0.134600	0.701100	0.541300
C1561	C156	0.079600	0.740150	0.569660
C1571	C157	0.095300	0.768100	0.618400
C1581	C158	0.044400	0.803000	0.645800
C1591	C159	0.888700	0.793700	0.549500
C1601	C160	0.961400	0.784020	0.574090
C1611	C161	0.011200	0.747500	0.548500
C1621	C162	0.977800	0.811600	0.622400
C1631	C163	0.500900	0.709200	0.382400
C1641	C164	0.455500	0.477100	0.400700
C1651	C165	0.673900	0.570300	0.483000
C1661	C166	0.947700	0.607400	0.096900
C1671	C167	0.989800	0.388600	0.165800
C1681	C168	0.144400	0.480000	0.019700
C1691	C169	0.865000	0.193200	0.941600
C1701	C170	0.912900	0.138600	0.932050
C1711	C171	0.893900	0.080400	0.951700
C1721	C172	0.937900	0.029900	0.941400
C1731	C173	0.999400	0.035800	0.910600
C1741	C174	0.018500	0.094100	0.889900
C1751	C175	0.976100	0.145700	0.901710
C1761	C176	0.084500	0.100100	0.855500
C1771	C177	0.810200	0.178400	0.850200
C1781	C178	0.739900	0.220300	0.908800
C1791	C179	0.706500	0.215500	0.861000
C1801	C180	0.152500	0.117600	0.941600
C1811	C181	0.219800	0.100500	0.872100
C1821	C182	0.261400	0.110700	0.915300
C1831	C183	0.664100	0.938000	0.599050
C1841	C184	0.729500	0.995700	0.650600
C1851	C185	0.771600	0.960900	0.618700
C1861	C186	0.595300	0.002000	0.665400
C1871	C187	0.531500	0.996000	0.628540
C1881	C188	0.512400	0.045500	0.594600
C1891	C189	0.418400	0.984300	0.557200
C1901	C190	0.456200	0.039200	0.559800
C1911	C191	0.436900	0.934800	0.590300
C1921	C192	0.493000	0.940600	0.627360
C1931	C193	0.220500	0.879400	0.654500
C1941	C194	0.263300	0.855800	0.616200
C1951	C195	0.319800	0.925700	0.661600
C1961	C196	0.392100	0.876600	0.589500
C1971	C197	0.365400	0.201100	0.041300
C1981	C198	0.420400	0.240150	0.069660
C1991	C199	0.404700	0.268100	0.118400
C2001	C200	0.455600	0.303000	0.145800
C2011	C201	0.611300	0.293700	0.049500
C2021	C202	0.538600	0.284020	0.074090
C2031	C203	0.488800	0.247500	0.048500
C2041	C204	0.522200	0.311600	0.122400
C2051	C205	0.999100	0.209200	0.882400
C2061	C206	0.044500	0.977100	0.900700
C2071	C207	0.826100	0.070300	0.983000
C2081	C208	0.552300	0.107400	0.596900
C2091	C209	0.510200	0.888600	0.665800
C2101	C210	0.355600	0.980000	0.519700
C2111	C211	0.635000	0.693200	0.058400
C2121	C212	0.587100	0.638600	0.067950
C2131	C213	0.606100	0.580400	0.048300
C2141	C214	0.562100	0.529900	0.058600
C2151	C215	0.500600	0.535800	0.089400
C2161	C216	0.481500	0.594100	0.110100
C2171	C217	0.523900	0.645700	0.098290
C2181	C218	0.415500	0.600100	0.144500
C2191	C219	0.689800	0.678400	0.149800
C2201	C220	0.760100	0.720300	0.091200
C2211	C221	0.793500	0.715500	0.139000
C2221	C222	0.347500	0.617600	0.058400
C2231	C223	0.280200	0.600500	0.127900
C2241	C224	0.238600	0.610700	0.084700
C2251	C225	0.835900	0.438000	0.400950
C2261	C226	0.770500	0.495700	0.349400
C2271	C227	0.728400	0.460900	0.381300
C2281	C228	0.904700	0.502000	0.334600
C2291	C229	0.968500	0.496000	0.371460
C2301	C230	0.987600	0.545500	0.405400
C2311	C231	0.081600	0.484300	0.442800
C2321	C232	0.043800	0.539200	0.440200
C2331	C233	0.063100	0.434800	0.409700
C2341	C234	0.007000	0.440600	0.372640
C2351	C235	0.279500	0.379400	0.345500
C2361	C236	0.236700	0.355800	0.383800
C2371	C237	0.180200	0.425700	0.338400
C2381	C238	0.107900	0.376600	0.410500
C2391	C239	0.134600	0.701100	0.958700
C2401	C240	0.079600	0.740150	0.930340
C2411	C241	0.095300	0.768100	0.881600
C2421	C242	0.044400	0.803000	0.854200
C2431	C243	0.888700	0.793700	0.950500
C2441	C244	0.961400	0.784020	0.925910
C2451	C245	0.011200	0.747500	0.951500
C2461	C246	0.977800	0.811600	0.877600
C2471	C247	0.500900	0.709200	0.117600
C2481	C248	0.455500	0.477100	0.099300
C2491	C249	0.673900	0.570300	0.017000
C2501	C250	0.947700	0.607400	0.403100
C2511	C251	0.989800	0.388600	0.334200
C2521	C252	0.144400	0.480000	0.480300
C2531	C253	0.135000	0.806800	0.441600
C2541	C254	0.087100	0.861400	0.432050
C2551	C255	0.106100	0.919600	0.451700
C2561	C256	0.062100	0.970100	0.441400
C2571	C257	0.000600	0.964200	0.410600
C2581	C258	0.981500	0.905900	0.389900
C2591	C259	0.023900	0.854300	0.401710
C2601	C260	0.915500	0.899900	0.355500
C2611	C261	0.189800	0.821600	0.350200
C2621	C262	0.260100	0.779700	0.408800
C2631	C263	0.293500	0.784500	0.361000
C2641	C264	0.847500	0.882400	0.441600
C2651	C265	0.780200	0.899500	0.372100
C2661	C266	0.738600	0.889300	0.415300
C2671	C267	0.335900	0.062000	0.099050
C2681	C268	0.270500	0.004300	0.150600
C2691	C269	0.228400	0.039100	0.118700
C2701	C270	0.404700	0.998000	0.165400
C2711	C271	0.468500	0.004000	0.128540
C2721	C272	0.487600	0.954500	0.094600
C2731	C273	0.581600	0.015700	0.057200
C2741	C274	0.543800	0.960800	0.059800
C2751	C275	0.563100	0.065200	0.090300
C2761	C276	0.507000	0.059400	0.127360
C2771	C277	0.779500	0.120600	0.154500
C2781	C278	0.736700	0.144200	0.116200
C2791	C279	0.680200	0.074300	0.161600
C2801	C280	0.607900	0.123400	0.089500
C2811	C281	0.634600	0.798900	0.541300
C2821	C282	0.579600	0.759850	0.569660
C2831	C283	0.595300	0.731900	0.618400
C2841	C284	0.544400	0.697000	0.645800
C2851	C285	0.388700	0.706300	0.549500
C2861	C286	0.461400	0.715980	0.574090
C2871	C287	0.511200	0.752500	0.548500
C2881	C288	0.477800	0.688400	0.622400
C2891	C289	0.000900	0.790800	0.382400
C2901	C290	0.955500	0.022900	0.400700
C2911	C291	0.173900	0.929700	0.483000
C2921	C292	0.447700	0.892600	0.096900
C2931	C293	0.489800	0.111400	0.165800
C2941	C294	0.644400	0.020000	0.019700
C2951	C295	0.365000	0.306800	0.558400
C2961	C296	0.412900	0.361400	0.567950
C2971	C297	0.393900	0.419600	0.548300
C2981	C298	0.437900	0.470100	0.558600
C2991	C299	0.499400	0.464200	0.589400
C3001	C300	0.518500	0.405900	0.610100
C3011	C301	0.476100	0.354300	0.598290
C3021	C302	0.584500	0.399900	0.644500
C3031	C303	0.310200	0.321600	0.649800
C3041	C304	0.239900	0.279700	0.591200
C3051	C305	0.206500	0.284500	0.639000
C3061	C306	0.652500	0.382400	0.558400
C3071	C307	0.719800	0.399500	0.627900
C3081	C308	0.761400	0.389300	0.584700
C3091	C309	0.164100	0.562000	0.900950
C3101	C310	0.229500	0.504300	0.849400
C3111	C311	0.271600	0.539100	0.881300
C3121	C312	0.095300	0.498000	0.834600
C3131	C313	0.031500	0.504000	0.871460
C3141	C314	0.012400	0.454500	0.905400
C3151	C315	0.918400	0.515700	0.942800
C3161	C316	0.956200	0.460800	0.940200
C3171	C317	0.936900	0.565200	0.909700
C3181	C318	0.993000	0.559400	0.872640
C3191	C319	0.720500	0.620600	0.845500
C3201	C320	0.763300	0.644200	0.883800
C3211	C321	0.819800	0.574300	0.838400
C3221	C322	0.892100	0.623400	0.910500
C3231	C323	0.865400	0.298900	0.458700
C3241	C324	0.920400	0.259850	0.430340
C3251	C325	0.904700	0.231900	0.381600
C3261	C326	0.955600	0.197000	0.354200
C3271	C327	0.111300	0.206300	0.450500
C3281	C328	0.038600	0.215980	0.425910
C3291	C329	0.988800	0.252500	0.451500
C3301	C330	0.022200	0.188400	0.377600
C3311	C331	0.499100	0.290800	0.617600
C3321	C332	0.544500	0.522900	0.599300
C3331	C333	0.326100	0.429700	0.517000
C3341	C334	0.052300	0.392600	0.903100
C3351	C335	0.010200	0.611400	0.834200
C3361	C336	0.855600	0.520000	0.980300
C3371	C337	0.909900	0.044800	0.250000
C3381	C338	0.989400	0.037800	0.250000
C3391	C339	0.030500	0.091800	0.250000
C3401	C340	0.103700	0.088900	0.250000
C3411	C341	0.138100	0.033400	0.250000
C3421	C342	0.099700	0.978200	0.250000
C3431	C343	0.024600	0.980800	0.250000
C3441	C344	0.137600	0.916600	0.250000
C3451	C345	0.638500	0.955900	0.250000
C3461	C346	0.602100	0.894000	0.250000
C3471	C347	0.639500	0.839900	0.250000
C3481	C348	0.604500	0.783100	0.250000
C3491	C349	0.531300	0.781600	0.250000
C3501	C350	0.490700	0.835600	0.250000
C3511	C351	0.527300	0.892100	0.250000
C3521	C352	0.409700	0.830100	0.250000
C3531	C353	0.590100	0.544800	0.750000
C3541	C354	0.510600	0.537800	0.750000
C3551	C355	0.469500	0.591800	0.750000
C3561	C356	0.396300	0.588900	0.750000
C3571	C357	0.361900	0.533400	0.750000
C3581	C358	0.400300	0.478200	0.750000
C3591	C359	0.475400	0.480800	0.750000
C3601	C360	0.362400	0.416600	0.750000
C3611	C361	0.861500	0.455900	0.750000
C3621	C362	0.897900	0.394000	0.750000
C3631	C363	0.860500	0.339900	0.750000
C3641	C364	0.895500	0.283100	0.750000
C3651	C365	0.968700	0.281600	0.750000
C3661	C366	0.009300	0.335600	0.750000
C3671	C367	0.972700	0.392100	0.750000
C3681	C368	0.090300	0.330100	0.750000
C3691	C369	0.090100	0.955200	0.750000
C3701	C370	0.010600	0.962200	0.750000
C3711	C371	0.969500	0.908200	0.750000
C3721	C372	0.896300	0.911100	0.750000
C3731	C373	0.861900	0.966600	0.750000
C3741	C374	0.900300	0.021800	0.750000
C3751	C375	0.975400	0.019200	0.750000
C3761	C376	0.862400	0.083400	0.750000
C3771	C377	0.361500	0.044100	0.750000
C3781	C378	0.397900	0.106000	0.750000
C3791	C379	0.360500	0.160100	0.750000
C3801	C380	0.395500	0.216900	0.750000
C3811	C381	0.468700	0.218400	0.750000
C3821	C382	0.509300	0.164400	0.750000
C3831	C383	0.472700	0.107900	0.750000
C3841	C384	0.590300	0.169900	0.750000
C3851	C385	0.409900	0.455200	0.250000
C3861	C386	0.489400	0.462200	0.250000
C3871	C387	0.530500	0.408200	0.250000
C3881	C388	0.603700	0.411100	0.250000
C3891	C389	0.638100	0.466600	0.250000
C3901	C390	0.599700	0.521800	0.250000
C3911	C391	0.524600	0.519200	0.250000
C3921	C392	0.637600	0.583400	0.250000
C3931	C393	0.138500	0.544100	0.250000
C3941	C394	0.102100	0.606000	0.250000
C3951	C395	0.139500	0.660100	0.250000
C3961	C396	0.104500	0.716900	0.250000
C3971	C397	0.031300	0.718400	0.250000
C3981	C398	0.990700	0.664400	0.250000
C3991	C399	0.027300	0.607900	0.250000
C4001	C400	0.909700	0.669900	0.250000
N11	N1	0.249300	0.810300	0.176030
N21	N2	0.780910	0.879120	0.040670
N31	N3	0.744100	0.076600	0.317080
N41	N4	0.269470	0.074880	0.414740
N51	N5	0.193600	0.804000	0.098560
N61	N6	0.850100	0.894700	0.110900
N71	N7	0.338860	0.019700	0.361950
N81	N8	0.673200	0.114190	0.378600
N91	N9	0.250700	0.310300	0.823970
N101	N10	0.719090	0.379120	0.959330
N111	N11	0.755900	0.576600	0.682920
N121	N12	0.230530	0.574880	0.585260
N131	N13	0.306400	0.304000	0.901440
N141	N14	0.649900	0.394700	0.889100
N151	N15	0.161140	0.519700	0.638050
N161	N16	0.826800	0.614190	0.621400
N171	N17	0.750700	0.189700	0.676030
N181	N18	0.219090	0.120880	0.540670
N191	N19	0.255900	0.923400	0.817080
N201	N20	0.730530	0.925120	0.914740
N211	N21	0.806400	0.196000	0.598560
N221	N22	0.149900	0.105300	0.610900
N231	N23	0.661140	0.980300	0.861950
N241	N24	0.326800	0.885810	0.878600
N251	N25	0.749300	0.689700	0.323970
N261	N26	0.280910	0.620880	0.459330
N271	N27	0.244100	0.423400	0.182920
N281	N28	0.769470	0.425120	0.085260
N291	N29	0.693600	0.696000	0.401440
N301	N30	0.350100	0.605300	0.389100
N311	N31	0.838860	0.480300	0.138050
N321	N32	0.173200	0.385810	0.121400
N331	N33	0.750700	0.189700	0.823970
N341	N34	0.219090	0.120880	0.959330
N351	N35	0.255900	0.923400	0.682920
N361	N36	0.730530	0.925120	0.585260
N371	N37	0.806400	0.196000	0.901440
N381	N38	0.149900	0.105300	0.889100
N391	N39	0.661140	0.980300	0.638050
N401	N40	0.326800	0.885810	0.621400
N411	N41	0.749300	0.689700	0.176030
N421	N42	0.280910	0.620880	0.040670
N431	N43	0.244100	0.423400	0.317080
N441	N44	0.769470	0.425120	0.414740
N451	N45	0.693600	0.696000	0.098560
N461	N46	0.350100	0.605300	0.110900
N471	N47	0.838860	0.480300	0.361950
N481	N48	0.173200	0.385810	0.378600
N491	N49	0.249300	0.810300	0.323970
N501	N50	0.780910	0.879120	0.459330
N511	N51	0.744100	0.076600	0.182920
N521	N52	0.269470	0.074880	0.085260
N531	N53	0.193600	0.804000	0.401440
N541	N54	0.850100	0.894700	0.389100
N551	N55	0.338860	0.019700	0.138050
N561	N56	0.673200	0.114190	0.121400
N571	N57	0.250700	0.310300	0.676030
N581	N58	0.719090	0.379120	0.540670
N591	N59	0.755900	0.576600	0.817080
N601	N60	0.230530	0.574880	0.914740
N611	N61	0.306400	0.304000	0.598560
N621	N62	0.649900	0.394700	0.610900
N631	N63	0.161140	0.519700	0.861950
N641	N64	0.826800	0.614190	0.878600
O11	O1	0.698750	0.788020	0.943810
O21	O2	0.616780	0.837890	0.991760
O31	O3	0.355450	0.658040	0.932990
O41	O4	0.366070	0.742370	0.984670
O51	O5	0.801250	0.288020	0.056190
O61	O6	0.883220	0.337890	0.008240
O71	O7	0.144550	0.158040	0.067010
O81	O8	0.133930	0.242370	0.015330
O91	O9	0.301250	0.211980	0.443810
O101	O10	0.383220	0.162110	0.491760
O111	O11	0.644550	0.341960	0.432990
O121	O12	0.633930	0.257630	0.484670
O131	O13	0.198750	0.711980	0.556190
O141	O14	0.116780	0.662110	0.508240
O151	O15	0.855450	0.841960	0.567010
O161	O16	0.866070	0.757630	0.515330
O171	O17	0.301250	0.211980	0.056190
O181	O18	0.383220	0.162110	0.008240
O191	O19	0.644550	0.341960	0.067010
O201	O20	0.633930	0.257630	0.015330
O211	O21	0.198750	0.711980	0.943810
O221	O22	0.116780	0.662110	0.991760
O231	O23	0.855450	0.841960	0.932990
O241	O24	0.866070	0.757630	0.984670
O251	O25	0.698750	0.788020	0.556190
O261	O26	0.616780	0.837890	0.508240
O271	O27	0.355450	0.658040	0.567010
O281	O28	0.366070	0.742370	0.515330
O291	O29	0.801250	0.288020	0.443810
O301	O30	0.883220	0.337890	0.491760
O311	O31	0.144550	0.158040	0.432990
O321	O32	0.133930	0.242370	0.484670
O331	O33	0.883900	0.097800	0.250000
O341	O34	0.871000	0.995340	0.250000
O351	O35	0.102300	0.868470	0.250000
O361	O36	0.206300	0.918860	0.250000
O371	O37	0.708300	0.954360	0.250000
O381	O38	0.603400	0.004440	0.250000
O391	O39	0.372700	0.879660	0.250000
O401	O40	0.383600	0.777900	0.250000
O411	O41	0.616100	0.597800	0.750000
O421	O42	0.629000	0.495340	0.750000
O431	O43	0.397700	0.368470	0.750000
O441	O44	0.293700	0.418860	0.750000
O451	O45	0.791700	0.454360	0.750000
O461	O46	0.896600	0.504440	0.750000
O471	O47	0.127300	0.379660	0.750000
O481	O48	0.116400	0.277900	0.750000
O491	O49	0.116100	0.902200	0.750000
O501	O50	0.129000	0.004660	0.750000
O511	O51	0.897700	0.131530	0.750000
O521	O52	0.793700	0.081140	0.750000
O531	O53	0.291700	0.045640	0.750000
O541	O54	0.396600	0.995560	0.750000
O551	O55	0.627300	0.120340	0.750000
O561	O56	0.616400	0.222100	0.750000
O571	O57	0.383900	0.402200	0.250000
O581	O58	0.371000	0.504660	0.250000
O591	O59	0.602300	0.631530	0.250000
O601	O60	0.706300	0.581140	0.250000
O611	O61	0.208300	0.545640	0.250000
O621	O62	0.103400	0.495560	0.250000
O631	O63	0.872700	0.620340	0.250000
O641	O64	0.883600	0.722100	0.250000
