data_PUSXIL_charged_PM
_symmetry_space_group_name_H-M	'P1'
_cell_length_a	17.390900
_cell_length_b	17.390900
_cell_length_c	17.390900
_cell_angle_alpha	63.528400
_cell_angle_beta	83.771600
_cell_angle_gamma	116.472000
_symmetry_Int_Tables_number 1

loop_
_symmetry_equiv_pos_as_xyz
'x,y,z'

loop_
_atom_site_label
_atom_site_type_symbol
_atom_site_fract_x
_atom_site_fract_y
_atom_site_fract_z
Zn11	Zn1	0.552790	0.055630	0.941820
Zn21	Zn2	0.002550	0.944370	0.502840
Zn31	Zn3	0.502840	0.505390	0.552790
Zn41	Zn4	0.941820	0.494610	0.002550
Zn51	Zn5	0.247450	0.994610	0.308180
Zn61	Zn6	0.697210	0.005390	0.747160
Zn71	Zn7	0.308180	0.555630	0.697210
Zn81	Zn8	0.747160	0.444370	0.247450
Zn91	Zn9	0.625000	0.882070	0.992930
Zn101	Zn10	0.125000	0.117930	0.257070
Zn111	Zn11	0.257070	0.382070	0.625000
Zn121	Zn12	0.992930	0.617930	0.125000
P11	P1	0.496240	0.904860	0.883400
P21	P2	0.211740	0.095140	0.408620
P31	P3	0.408620	0.620360	0.496240
P41	P4	0.883400	0.379640	0.211740
P51	P5	0.038260	0.879640	0.366600
P61	P6	0.753760	0.120360	0.841380
P71	P7	0.366600	0.404860	0.753760
P81	P8	0.841380	0.595140	0.038260
H11	H1	0.464800	0.807600	0.786800
H21	H2	0.188000	0.634400	0.862400
H31	H3	0.297900	0.804300	0.967600
H41	H4	0.405600	0.192400	0.342800
H51	H5	0.503200	0.365600	0.446400
H61	H6	0.228100	0.195700	0.506400
H71	H7	0.342800	0.748400	0.464800
H81	H8	0.446400	0.949600	0.188000
H91	H9	0.506400	0.734500	0.297900
H101	H10	0.786800	0.251600	0.405600
H111	H11	0.862400	0.050400	0.503200
H121	H12	0.967600	0.265500	0.228100
H131	H13	0.844400	0.751600	0.463200
H141	H14	0.746800	0.550400	0.387600
H151	H15	0.021900	0.765500	0.282400
H161	H16	0.785200	0.248400	0.907200
H171	H17	0.062000	0.449600	0.803600
H181	H18	0.952100	0.234500	0.743600
H191	H19	0.463200	0.307600	0.785200
H201	H20	0.387600	0.134400	0.062000
H211	H21	0.282400	0.304300	0.952100
H221	H22	0.907200	0.692400	0.844400
H231	H23	0.803600	0.865600	0.746800
H241	H24	0.743600	0.695700	0.021900
C11	C1	0.395200	0.818800	0.878200
C21	C2	0.405600	0.784300	0.821300
C31	C3	0.327100	0.714300	0.815600
C41	C4	0.239500	0.679500	0.866600
C51	C5	0.228100	0.711800	0.924100
C61	C6	0.306500	0.782400	0.929300
C71	C7	0.342900	0.676300	0.756600
C81	C8	0.130800	0.667300	0.984300
C91	C9	0.303000	0.181200	0.423600
C101	C10	0.394400	0.215700	0.378700
C111	C11	0.470100	0.285700	0.387200
C121	C12	0.453900	0.320500	0.440000
C131	C13	0.364100	0.288200	0.483700
C141	C14	0.288300	0.217600	0.475900
C151	C15	0.567100	0.323700	0.333400
C161	C16	0.348400	0.332700	0.536500
C171	C17	0.423600	0.726600	0.395200
C181	C18	0.378700	0.773100	0.405600
C191	C19	0.387200	0.857300	0.327100
C201	C20	0.440000	0.893900	0.239500
C211	C21	0.483700	0.847800	0.228100
C221	C22	0.475900	0.764200	0.306500
C231	C23	0.333400	0.900500	0.342900
C241	C24	0.536500	0.884900	0.130800
C251	C25	0.878200	0.273400	0.303000
C261	C26	0.821300	0.226900	0.394400
C271	C27	0.815600	0.142700	0.470100
C281	C28	0.866600	0.106100	0.453900
C291	C29	0.924100	0.152200	0.364100
C301	C30	0.929300	0.235800	0.288300
C311	C31	0.756600	0.099500	0.567100
C321	C32	0.984300	0.115100	0.348400
C331	C33	0.947000	0.773400	0.371800
C341	C34	0.855600	0.726900	0.428700
C351	C35	0.779900	0.642700	0.434400
C361	C36	0.796100	0.606100	0.383400
C371	C37	0.885900	0.652200	0.325900
C381	C38	0.961700	0.735800	0.320700
C391	C39	0.682900	0.599500	0.493400
C401	C40	0.901600	0.615100	0.265700
C411	C41	0.854800	0.226600	0.826400
C421	C42	0.844400	0.273100	0.871300
C431	C43	0.922900	0.357300	0.862800
C441	C44	0.010500	0.393900	0.810000
C451	C45	0.021900	0.347800	0.766300
C461	C46	0.943500	0.264200	0.774100
C471	C47	0.907100	0.400500	0.916600
C481	C48	0.119200	0.384900	0.713500
C491	C49	0.371800	0.318800	0.854800
C501	C50	0.428700	0.284300	0.844400
C511	C51	0.434400	0.214300	0.922900
C521	C52	0.383400	0.179500	0.010500
C531	C53	0.325900	0.211800	0.021900
C541	C54	0.320700	0.282400	0.943500
C551	C55	0.493400	0.176300	0.907100
C561	C56	0.265700	0.167300	0.119200
C571	C57	0.826400	0.681200	0.947000
C581	C58	0.871300	0.715700	0.855600
C591	C59	0.862800	0.785700	0.779900
C601	C60	0.810000	0.820500	0.796100
C611	C61	0.766300	0.788200	0.885900
C621	C62	0.774100	0.717600	0.961700
C631	C63	0.916600	0.823700	0.682900
C641	C64	0.713500	0.832700	0.901600
O11	O1	0.472100	0.967400	0.906700
O21	O2	0.518300	0.839900	0.957800
O31	O3	0.573200	0.971600	0.788000
O41	O4	0.272300	0.614300	0.754200
O51	O5	0.421900	0.702600	0.718700
O61	O6	0.065800	0.613100	0.970700
O71	O7	0.122730	0.693100	0.041170
O81	O8	0.125900	0.032600	0.495300
O91	O9	0.202300	0.160100	0.321600
O101	O10	0.240400	0.028400	0.398400
O111	O11	0.631500	0.385700	0.342000
O121	O12	0.578700	0.297400	0.280700
O131	O13	0.416200	0.386900	0.547300
O141	O14	0.265730	0.306900	0.570370
O151	O15	0.495300	0.621200	0.472100
O161	O16	0.321600	0.523900	0.518300
O171	O17	0.398400	0.638800	0.573200
O181	O18	0.342000	0.973500	0.272300
O191	O19	0.280700	0.859400	0.421900
O201	O20	0.547300	0.963500	0.065800
O211	O21	0.570370	0.836100	0.122730
O221	O22	0.906700	0.378800	0.125900
O231	O23	0.957800	0.476100	0.202300
O241	O24	0.788000	0.361200	0.240400
O251	O25	0.754200	0.026500	0.631500
O261	O26	0.718700	0.140600	0.578700
O271	O27	0.970700	0.036500	0.416200
O281	O28	0.041170	0.163900	0.265730
O291	O29	0.124100	0.878800	0.343300
O301	O30	0.047700	0.976100	0.292200
O311	O31	0.009600	0.861200	0.462000
O321	O32	0.618500	0.526500	0.495800
O331	O33	0.671300	0.640600	0.531300
O341	O34	0.833800	0.536500	0.279300
O351	O35	0.984270	0.663900	0.208830
O361	O36	0.777900	0.121200	0.754700
O371	O37	0.731700	0.023900	0.928400
O381	O38	0.676800	0.138800	0.851600
O391	O39	0.977700	0.473500	0.908000
O401	O40	0.828100	0.359400	0.969300
O411	O41	0.184200	0.463500	0.702700
O421	O42	0.127270	0.336100	0.679630
O431	O43	0.343300	0.467400	0.777900
O441	O44	0.292200	0.339900	0.731700
O451	O45	0.462000	0.471600	0.676800
O461	O46	0.495800	0.114300	0.977700
O471	O47	0.531300	0.202600	0.828100
O481	O48	0.279300	0.113100	0.184200
O491	O49	0.208830	0.193100	0.127270
O501	O50	0.754700	0.532600	0.124100
O511	O51	0.928400	0.660100	0.047700
O521	O52	0.851600	0.528400	0.009600
O531	O53	0.908000	0.885700	0.618500
O541	O54	0.969300	0.797400	0.671300
O551	O55	0.702700	0.886900	0.833800
O561	O56	0.679630	0.806900	0.984270
