data_PUTYAE_charged_PM
_symmetry_space_group_name_H-M	'P1'
_cell_length_a	12.362000
_cell_length_b	12.652000
_cell_length_c	12.652000
_cell_angle_alpha	90.000000
_cell_angle_beta	90.000000
_cell_angle_gamma	90.000000
_symmetry_Int_Tables_number 1

loop_
_symmetry_equiv_pos_as_xyz
'x,y,z'

loop_
_atom_site_label
_atom_site_type_symbol
_atom_site_fract_x
_atom_site_fract_y
_atom_site_fract_z
Ag11	Ag1	0.000000	0.129120	0.129120
Ag21	Ag2	0.500000	0.870880	0.870880
Ag31	Ag3	0.250000	0.370880	0.629120
Ag41	Ag4	0.750000	0.629120	0.370880
H11	H1	0.971100	0.330400	0.957500
H21	H2	0.177100	0.920200	0.159000
H31	H3	0.037300	0.400100	0.803900
H41	H4	0.471100	0.669600	0.042500
H51	H5	0.677100	0.079800	0.841000
H61	H6	0.537300	0.599900	0.196100
H71	H7	0.221100	0.542500	0.830400
H81	H8	0.427100	0.341000	0.420200
H91	H9	0.287300	0.696100	0.900100
H101	H10	0.721100	0.457500	0.169600
H111	H11	0.927100	0.659000	0.579800
H121	H12	0.787300	0.303900	0.099900
H131	H13	0.278900	0.169600	0.457500
H141	H14	0.072900	0.579800	0.659000
H151	H15	0.212700	0.099900	0.303900
H161	H16	0.778900	0.830400	0.542500
H171	H17	0.572900	0.420200	0.341000
H181	H18	0.712700	0.900100	0.696100
H191	H19	0.028900	0.957500	0.330400
H201	H20	0.822900	0.159000	0.920200
H211	H21	0.962700	0.803900	0.400100
H221	H22	0.528900	0.042500	0.669600
H231	H23	0.322900	0.841000	0.079800
H241	H24	0.462700	0.196100	0.599900
C11	C1	0.030300	0.297900	0.925900
C21	C2	0.158300	0.170400	0.923400
C31	C3	0.204900	0.076600	0.970900
C41	C4	0.205900	0.950700	0.098400
C51	C5	0.071500	0.341800	0.833600
C61	C6	0.202200	0.213800	0.833500
C71	C7	0.530300	0.702100	0.074100
C81	C8	0.658300	0.829600	0.076600
C91	C9	0.704900	0.923400	0.029100
C101	C10	0.705900	0.049300	0.901600
C111	C11	0.571500	0.658200	0.166400
C121	C12	0.702200	0.786200	0.166500
C131	C13	0.280300	0.574100	0.797900
C141	C14	0.408300	0.576600	0.670400
C151	C15	0.454900	0.529100	0.576600
C161	C16	0.455900	0.401600	0.450700
C171	C17	0.321500	0.666400	0.841800
C181	C18	0.452200	0.666500	0.713800
C191	C19	0.780300	0.425900	0.202100
C201	C20	0.908300	0.423400	0.329600
C211	C21	0.954900	0.470900	0.423400
C221	C22	0.955900	0.598400	0.549300
C231	C23	0.821500	0.333600	0.158200
C241	C24	0.952200	0.333500	0.286200
C251	C25	0.219700	0.202100	0.425900
C261	C26	0.091700	0.329600	0.423400
C271	C27	0.045100	0.423400	0.470900
C281	C28	0.044100	0.549300	0.598400
C291	C29	0.178500	0.158200	0.333600
C301	C30	0.047800	0.286200	0.333500
C311	C31	0.719700	0.797900	0.574100
C321	C32	0.591700	0.670400	0.576600
C331	C33	0.545100	0.576600	0.529100
C341	C34	0.544100	0.450700	0.401600
C351	C35	0.678500	0.841800	0.666400
C361	C36	0.547800	0.713800	0.666500
C371	C37	0.969700	0.925900	0.297900
C381	C38	0.841700	0.923400	0.170400
C391	C39	0.795100	0.970900	0.076600
C401	C40	0.794100	0.098400	0.950700
C411	C41	0.928500	0.833600	0.341800
C421	C42	0.797800	0.833500	0.213800
C431	C43	0.469700	0.074100	0.702100
C441	C44	0.341700	0.076600	0.829600
C451	C45	0.295100	0.029100	0.923400
C461	C46	0.294100	0.901600	0.049300
C471	C47	0.428500	0.166400	0.658200
C481	C48	0.297800	0.166500	0.786200
N11	N1	0.070200	0.213800	0.970500
N21	N2	0.162300	0.038300	0.061900
N31	N3	0.159800	0.301600	0.786400
N41	N4	0.570200	0.786200	0.029500
N51	N5	0.662300	0.961700	0.938100
N61	N6	0.659800	0.698400	0.213600
N71	N7	0.320200	0.529500	0.713800
N81	N8	0.412300	0.438100	0.538300
N91	N9	0.409800	0.713600	0.801600
N101	N10	0.820200	0.470500	0.286200
N111	N11	0.912300	0.561900	0.461700
N121	N12	0.909800	0.286400	0.198400
N131	N13	0.179800	0.286200	0.470500
N141	N14	0.087700	0.461700	0.561900
N151	N15	0.090200	0.198400	0.286400
N161	N16	0.679800	0.713800	0.529500
N171	N17	0.587700	0.538300	0.438100
N181	N18	0.590200	0.801600	0.713600
N191	N19	0.929800	0.970500	0.213800
N201	N20	0.837700	0.061900	0.038300
N211	N21	0.840200	0.786400	0.301600
N221	N22	0.429800	0.029500	0.786200
N231	N23	0.337700	0.938100	0.961700
N241	N24	0.340200	0.213600	0.698400
Cl11	Cl1	0.000000	0.845800	0.845800
O11	O1	0.037300	0.738000	0.813000
O21	O2	0.996000	0.828000	0.958000
O31	O3	0.962700	0.813000	0.738000
O41	O4	0.004000	0.958000	0.828000
Cl21	Cl2	0.500000	0.154200	0.154200
O51	O5	0.537300	0.262000	0.187000
O61	O6	0.496000	0.172000	0.042000
O71	O7	0.462700	0.187000	0.262000
O81	O8	0.504000	0.042000	0.172000
Cl31	Cl3	0.250000	0.654200	0.345800
O91	O9	0.287300	0.687000	0.238000
O101	O10	0.246000	0.542000	0.328000
O111	O11	0.212700	0.762000	0.313000
O121	O12	0.254000	0.672000	0.458000
Cl41	Cl4	0.750000	0.345800	0.654200
O131	O13	0.787300	0.313000	0.762000
O141	O14	0.746000	0.458000	0.672000
O151	O15	0.712700	0.238000	0.687000
O161	O16	0.754000	0.328000	0.542000
