data_PUWDOA_freeONLY_PM
_symmetry_space_group_name_H-M	'P1'
_cell_length_a	17.158000
_cell_length_b	21.591000
_cell_length_c	25.308000
_cell_angle_alpha	90.000000
_cell_angle_beta	90.000000
_cell_angle_gamma	90.000000
_symmetry_Int_Tables_number 1

loop_
_symmetry_equiv_pos_as_xyz
'x,y,z'

loop_
_atom_site_label
_atom_site_type_symbol
_atom_site_fract_x
_atom_site_fract_y
_atom_site_fract_z
Zn11	Zn1	0.495000	0.665000	0.613100
Zn21	Zn2	0.005000	0.335000	0.113100
Zn31	Zn3	0.495000	0.835000	0.613100
Zn41	Zn4	0.005000	0.165000	0.113100
Zn51	Zn5	0.383200	0.750000	0.682900
Zn61	Zn6	0.116800	0.250000	0.182900
H11	H1	0.965800	0.434900	0.033300
H21	H2	0.390500	0.628600	0.812200
H31	H3	0.401300	0.562300	0.883700
H41	H4	0.572000	0.468100	0.808500
H51	H5	0.556000	0.532200	0.735500
H61	H6	0.382400	0.459200	0.917900
H71	H7	0.520500	0.374100	0.025100
H81	H8	0.616400	0.464000	0.901100
H91	H9	0.296400	0.393400	0.944900
H101	H10	0.184600	0.363200	0.988900
H111	H11	0.306800	0.361800	0.125400
H121	H12	0.417700	0.394500	0.079700
H131	H13	0.641900	0.326700	0.022100
H141	H14	0.774100	0.315500	0.060700
H151	H15	0.826000	0.483500	0.008000
H161	H16	0.704200	0.494000	0.970800
H171	H17	0.534200	0.565100	0.533300
H181	H18	0.109500	0.371400	0.312200
H191	H19	0.098700	0.437700	0.383700
H201	H20	0.928000	0.531900	0.308500
H211	H21	0.944000	0.467800	0.235500
H221	H22	0.117600	0.540800	0.417900
H231	H23	0.979500	0.625900	0.525100
H241	H24	0.883600	0.536000	0.401100
H251	H25	0.203600	0.606600	0.444900
H261	H26	0.315400	0.636800	0.488900
H271	H27	0.193200	0.638200	0.625400
H281	H28	0.082300	0.605500	0.579700
H291	H29	0.858100	0.673300	0.522100
H301	H30	0.725900	0.684500	0.560700
H311	H31	0.674000	0.516500	0.508000
H321	H32	0.795800	0.506000	0.470800
H331	H33	0.965800	0.065100	0.033300
H341	H34	0.390500	0.871400	0.812200
H351	H35	0.401300	0.937700	0.883700
H361	H36	0.572000	0.031900	0.808500
H371	H37	0.556000	0.967800	0.735500
H381	H38	0.382400	0.040800	0.917900
H391	H39	0.520500	0.125900	0.025100
H401	H40	0.616400	0.036000	0.901100
H411	H41	0.296400	0.106600	0.944900
H421	H42	0.184600	0.136800	0.988900
H431	H43	0.306800	0.138200	0.125400
H441	H44	0.417700	0.105500	0.079700
H451	H45	0.641900	0.173300	0.022100
H461	H46	0.774100	0.184500	0.060700
H471	H47	0.826000	0.016500	0.008000
H481	H48	0.704200	0.006000	0.970800
H491	H49	0.534200	0.934900	0.533300
H501	H50	0.109500	0.128600	0.312200
H511	H51	0.098700	0.062300	0.383700
H521	H52	0.928000	0.968100	0.308500
H531	H53	0.944000	0.032200	0.235500
H541	H54	0.117600	0.959200	0.417900
H551	H55	0.979500	0.874100	0.525100
H561	H56	0.883600	0.964000	0.401100
H571	H57	0.203600	0.893400	0.444900
H581	H58	0.315400	0.863200	0.488900
H591	H59	0.193200	0.861800	0.625400
H601	H60	0.082300	0.894500	0.579700
H611	H61	0.858100	0.826700	0.522100
H621	H62	0.725900	0.815500	0.560700
H631	H63	0.674000	0.983500	0.508000
H641	H64	0.795800	0.994000	0.470800
C11	C1	0.462800	0.631600	0.721800
C21	C2	0.472800	0.587200	0.768100
C31	C3	0.427300	0.595800	0.811400
C41	C4	0.434700	0.556700	0.854200
C51	C5	0.488200	0.510500	0.855500
C61	C6	0.534900	0.500800	0.809400
C71	C7	0.525800	0.538900	0.766500
C81	C8	0.498900	0.470100	0.903200
C91	C9	0.432700	0.449100	0.930900
C101	C10	0.439400	0.413900	0.976800
C111	C11	0.514600	0.399200	0.994500
C121	C12	0.580600	0.420200	0.968500
C131	C13	0.571600	0.453200	0.921200
C141	C14	0.367300	0.393000	0.006100
C151	C15	0.299100	0.386000	0.981900
C161	C16	0.231900	0.368400	0.008000
C171	C17	0.233400	0.358500	0.061000
C181	C18	0.304500	0.368000	0.088300
C191	C19	0.370700	0.386400	0.061200
C201	C20	0.162100	0.338300	0.091600
C211	C21	0.661600	0.407700	0.988900
C221	C22	0.679600	0.358300	0.017000
C231	C23	0.760200	0.351500	0.041300
C241	C24	0.810800	0.397900	0.034500
C251	C25	0.790100	0.450100	0.010000
C261	C26	0.717400	0.456100	0.987700
C271	C27	0.893800	0.393800	0.061200
C281	C28	0.037200	0.368400	0.221800
C291	C29	0.027200	0.412800	0.268100
C301	C30	0.072700	0.404200	0.311400
C311	C31	0.065300	0.443300	0.354200
C321	C32	0.011800	0.489500	0.355500
C331	C33	0.965100	0.499200	0.309400
C341	C34	0.974200	0.461100	0.266500
C351	C35	0.001100	0.529900	0.403200
C361	C36	0.067300	0.550900	0.430900
C371	C37	0.060600	0.586100	0.476800
C381	C38	0.985400	0.600800	0.494500
C391	C39	0.919400	0.579800	0.468500
C401	C40	0.928400	0.546800	0.421200
C411	C41	0.132700	0.607000	0.506100
C421	C42	0.200900	0.614000	0.481900
C431	C43	0.268100	0.631600	0.508000
C441	C44	0.266600	0.641500	0.561000
C451	C45	0.195500	0.632000	0.588300
C461	C46	0.129300	0.613600	0.561200
C471	C47	0.337900	0.661700	0.591600
C481	C48	0.838400	0.592300	0.488900
C491	C49	0.820400	0.641700	0.517000
C501	C50	0.739800	0.648500	0.541300
C511	C51	0.689200	0.602100	0.534500
C521	C52	0.709900	0.549900	0.510000
C531	C53	0.782600	0.543900	0.487700
C541	C54	0.606200	0.606200	0.561200
C551	C55	0.462800	0.868400	0.721800
C561	C56	0.472800	0.912800	0.768100
C571	C57	0.427300	0.904200	0.811400
C581	C58	0.434700	0.943300	0.854200
C591	C59	0.488200	0.989500	0.855500
C601	C60	0.534900	0.999200	0.809400
C611	C61	0.525800	0.961100	0.766500
C621	C62	0.498900	0.029900	0.903200
C631	C63	0.432700	0.050900	0.930900
C641	C64	0.439400	0.086100	0.976800
C651	C65	0.514600	0.100800	0.994500
C661	C66	0.580600	0.079800	0.968500
C671	C67	0.571600	0.046800	0.921200
C681	C68	0.367300	0.107000	0.006100
C691	C69	0.299100	0.114000	0.981900
C701	C70	0.231900	0.131600	0.008000
C711	C71	0.233400	0.141500	0.061000
C721	C72	0.304500	0.132000	0.088300
C731	C73	0.370700	0.113600	0.061200
C741	C74	0.162100	0.161700	0.091600
C751	C75	0.661600	0.092300	0.988900
C761	C76	0.679600	0.141700	0.017000
C771	C77	0.760200	0.148500	0.041300
C781	C78	0.810800	0.102100	0.034500
C791	C79	0.790100	0.049900	0.010000
C801	C80	0.717400	0.043900	0.987700
C811	C81	0.893800	0.106200	0.061200
C821	C82	0.037200	0.131600	0.221800
C831	C83	0.027200	0.087200	0.268100
C841	C84	0.072700	0.095800	0.311400
C851	C85	0.065300	0.056700	0.354200
C861	C86	0.011800	0.010500	0.355500
C871	C87	0.965100	0.000800	0.309400
C881	C88	0.974200	0.038900	0.266500
C891	C89	0.001100	0.970100	0.403200
C901	C90	0.067300	0.949100	0.430900
C911	C91	0.060600	0.913900	0.476800
C921	C92	0.985400	0.899200	0.494500
C931	C93	0.919400	0.920200	0.468500
C941	C94	0.928400	0.953200	0.421200
C951	C95	0.132700	0.893000	0.506100
C961	C96	0.200900	0.886000	0.481900
C971	C97	0.268100	0.868400	0.508000
C981	C98	0.266600	0.858500	0.561000
C991	C99	0.195500	0.868000	0.588300
C1001	C100	0.129300	0.886400	0.561200
C1011	C101	0.337900	0.838300	0.591600
C1021	C102	0.838400	0.907700	0.488900
C1031	C103	0.820400	0.858300	0.517000
C1041	C104	0.739800	0.851500	0.541300
C1051	C105	0.689200	0.897900	0.534500
C1061	C106	0.709900	0.950100	0.510000
C1071	C107	0.782600	0.956100	0.487700
C1081	C108	0.606200	0.893800	0.561200
O11	O1	0.427600	0.681200	0.730000
O21	O2	0.494300	0.614600	0.678100
O31	O3	0.097100	0.347500	0.069100
O41	O4	0.170900	0.317600	0.136400
O51	O5	0.906800	0.344400	0.078200
O61	O6	0.938900	0.436100	0.061000
O71	O7	0.072400	0.318800	0.230000
O81	O8	0.005700	0.385400	0.178100
O91	O9	0.402900	0.652500	0.569100
O101	O10	0.329100	0.682400	0.636400
O111	O11	0.593200	0.655600	0.578200
O121	O12	0.561100	0.563900	0.561000
O131	O13	0.427600	0.818800	0.730000
O141	O14	0.494300	0.885400	0.678100
O151	O15	0.097100	0.152500	0.069100
O161	O16	0.170900	0.182400	0.136400
O171	O17	0.906800	0.155600	0.078200
O181	O18	0.938900	0.063900	0.061000
O191	O19	0.072400	0.181200	0.230000
O201	O20	0.005700	0.114600	0.178100
O211	O21	0.402900	0.847500	0.569100
O221	O22	0.329100	0.817600	0.636400
O231	O23	0.593200	0.844400	0.578200
O241	O24	0.561100	0.936100	0.561000
O251	O25	0.286200	0.750000	0.731000
O261	O26	0.486800	0.750000	0.641500
O271	O27	0.213800	0.250000	0.231000
O281	O28	0.013200	0.250000	0.141500
Zn71	Zn7	0.505000	0.165000	0.386900
Zn81	Zn8	0.995000	0.835000	0.886900
Zn91	Zn9	0.505000	0.335000	0.386900
Zn101	Zn10	0.995000	0.665000	0.886900
Zn111	Zn11	0.616800	0.250000	0.317100
Zn121	Zn12	0.883200	0.750000	0.817100
H651	H65	0.034200	0.934900	0.966700
H661	H66	0.609500	0.128600	0.187800
H671	H67	0.598700	0.062300	0.116300
H681	H68	0.428000	0.968100	0.191500
H691	H69	0.444000	0.032200	0.264500
H701	H70	0.617600	0.959200	0.082100
H711	H71	0.479500	0.874100	0.974900
H721	H72	0.383600	0.964000	0.098900
H731	H73	0.703600	0.893400	0.055100
H741	H74	0.815400	0.863200	0.011100
H751	H75	0.693200	0.861800	0.874600
H761	H76	0.582300	0.894500	0.920300
H771	H77	0.358100	0.826700	0.977900
H781	H78	0.225900	0.815500	0.939300
H791	H79	0.174000	0.983500	0.992000
H801	H80	0.295800	0.994000	0.029200
H811	H81	0.465800	0.065100	0.466700
H821	H82	0.890500	0.871400	0.687800
H831	H83	0.901300	0.937700	0.616300
H841	H84	0.072000	0.031900	0.691500
H851	H85	0.056000	0.967800	0.764500
H861	H86	0.882400	0.040800	0.582100
H871	H87	0.020500	0.125900	0.474900
H881	H88	0.116400	0.036000	0.598900
H891	H89	0.796400	0.106600	0.555100
H901	H90	0.684600	0.136800	0.511100
H911	H91	0.806800	0.138200	0.374600
H921	H92	0.917700	0.105500	0.420300
H931	H93	0.141900	0.173300	0.477900
H941	H94	0.274100	0.184500	0.439300
H951	H95	0.326000	0.016500	0.492000
H961	H96	0.204200	0.006000	0.529200
H971	H97	0.034200	0.565100	0.966700
H981	H98	0.609500	0.371400	0.187800
H991	H99	0.598700	0.437700	0.116300
H1001	H100	0.428000	0.531900	0.191500
H1011	H101	0.444000	0.467800	0.264500
H1021	H102	0.617600	0.540800	0.082100
H1031	H103	0.479500	0.625900	0.974900
H1041	H104	0.383600	0.536000	0.098900
H1051	H105	0.703600	0.606600	0.055100
H1061	H106	0.815400	0.636800	0.011100
H1071	H107	0.693200	0.638200	0.874600
H1081	H108	0.582300	0.605500	0.920300
H1091	H109	0.358100	0.673300	0.977900
H1101	H110	0.225900	0.684500	0.939300
H1111	H111	0.174000	0.516500	0.992000
H1121	H112	0.295800	0.506000	0.029200
H1131	H113	0.465800	0.434900	0.466700
H1141	H114	0.890500	0.628600	0.687800
H1151	H115	0.901300	0.562300	0.616300
H1161	H116	0.072000	0.468100	0.691500
H1171	H117	0.056000	0.532200	0.764500
H1181	H118	0.882400	0.459200	0.582100
H1191	H119	0.020500	0.374100	0.474900
H1201	H120	0.116400	0.464000	0.598900
H1211	H121	0.796400	0.393400	0.555100
H1221	H122	0.684600	0.363200	0.511100
H1231	H123	0.806800	0.361800	0.374600
H1241	H124	0.917700	0.394500	0.420300
H1251	H125	0.141900	0.326700	0.477900
H1261	H126	0.274100	0.315500	0.439300
H1271	H127	0.326000	0.483500	0.492000
H1281	H128	0.204200	0.494000	0.529200
C1091	C109	0.537200	0.131600	0.278200
C1101	C110	0.527200	0.087200	0.231900
C1111	C111	0.572700	0.095800	0.188600
C1121	C112	0.565300	0.056700	0.145800
C1131	C113	0.511800	0.010500	0.144500
C1141	C114	0.465100	0.000800	0.190600
C1151	C115	0.474200	0.038900	0.233500
C1161	C116	0.501100	0.970100	0.096800
C1171	C117	0.567300	0.949100	0.069100
C1181	C118	0.560600	0.913900	0.023200
C1191	C119	0.485400	0.899200	0.005500
C1201	C120	0.419400	0.920200	0.031500
C1211	C121	0.428400	0.953200	0.078800
C1221	C122	0.632700	0.893000	0.993900
C1231	C123	0.700900	0.886000	0.018100
C1241	C124	0.768100	0.868400	0.992000
C1251	C125	0.766600	0.858500	0.939000
C1261	C126	0.695500	0.868000	0.911700
C1271	C127	0.629300	0.886400	0.938800
C1281	C128	0.837900	0.838300	0.908400
C1291	C129	0.338400	0.907700	0.011100
C1301	C130	0.320400	0.858300	0.983000
C1311	C131	0.239800	0.851500	0.958700
C1321	C132	0.189200	0.897900	0.965500
C1331	C133	0.209900	0.950100	0.990000
C1341	C134	0.282600	0.956100	0.012300
C1351	C135	0.106200	0.893800	0.938800
C1361	C136	0.962800	0.868400	0.778200
C1371	C137	0.972800	0.912800	0.731900
C1381	C138	0.927300	0.904200	0.688600
C1391	C139	0.934700	0.943300	0.645800
C1401	C140	0.988200	0.989500	0.644500
C1411	C141	0.034900	0.999200	0.690600
C1421	C142	0.025800	0.961100	0.733500
C1431	C143	0.998900	0.029900	0.596800
C1441	C144	0.932700	0.050900	0.569100
C1451	C145	0.939400	0.086100	0.523200
C1461	C146	0.014600	0.100800	0.505500
C1471	C147	0.080600	0.079800	0.531500
C1481	C148	0.071600	0.046800	0.578800
C1491	C149	0.867300	0.107000	0.493900
C1501	C150	0.799100	0.114000	0.518100
C1511	C151	0.731900	0.131600	0.492000
C1521	C152	0.733400	0.141500	0.439000
C1531	C153	0.804500	0.132000	0.411700
C1541	C154	0.870700	0.113600	0.438800
C1551	C155	0.662100	0.161700	0.408400
C1561	C156	0.161600	0.092300	0.511100
C1571	C157	0.179600	0.141700	0.483000
C1581	C158	0.260200	0.148500	0.458700
C1591	C159	0.310800	0.102100	0.465500
C1601	C160	0.290100	0.049900	0.490000
C1611	C161	0.217400	0.043900	0.512300
C1621	C162	0.393800	0.106200	0.438800
C1631	C163	0.537200	0.368400	0.278200
C1641	C164	0.527200	0.412800	0.231900
C1651	C165	0.572700	0.404200	0.188600
C1661	C166	0.565300	0.443300	0.145800
C1671	C167	0.511800	0.489500	0.144500
C1681	C168	0.465100	0.499200	0.190600
C1691	C169	0.474200	0.461100	0.233500
C1701	C170	0.501100	0.529900	0.096800
C1711	C171	0.567300	0.550900	0.069100
C1721	C172	0.560600	0.586100	0.023200
C1731	C173	0.485400	0.600800	0.005500
C1741	C174	0.419400	0.579800	0.031500
C1751	C175	0.428400	0.546800	0.078800
C1761	C176	0.632700	0.607000	0.993900
C1771	C177	0.700900	0.614000	0.018100
C1781	C178	0.768100	0.631600	0.992000
C1791	C179	0.766600	0.641500	0.939000
C1801	C180	0.695500	0.632000	0.911700
C1811	C181	0.629300	0.613600	0.938800
C1821	C182	0.837900	0.661700	0.908400
C1831	C183	0.338400	0.592300	0.011100
C1841	C184	0.320400	0.641700	0.983000
C1851	C185	0.239800	0.648500	0.958700
C1861	C186	0.189200	0.602100	0.965500
C1871	C187	0.209900	0.549900	0.990000
C1881	C188	0.282600	0.543900	0.012300
C1891	C189	0.106200	0.606200	0.938800
C1901	C190	0.962800	0.631600	0.778200
C1911	C191	0.972800	0.587200	0.731900
C1921	C192	0.927300	0.595800	0.688600
C1931	C193	0.934700	0.556700	0.645800
C1941	C194	0.988200	0.510500	0.644500
C1951	C195	0.034900	0.500800	0.690600
C1961	C196	0.025800	0.538900	0.733500
C1971	C197	0.998900	0.470100	0.596800
C1981	C198	0.932700	0.449100	0.569100
C1991	C199	0.939400	0.413900	0.523200
C2001	C200	0.014600	0.399200	0.505500
C2011	C201	0.080600	0.420200	0.531500
C2021	C202	0.071600	0.453200	0.578800
C2031	C203	0.867300	0.393000	0.493900
C2041	C204	0.799100	0.386000	0.518100
C2051	C205	0.731900	0.368400	0.492000
C2061	C206	0.733400	0.358500	0.439000
C2071	C207	0.804500	0.368000	0.411700
C2081	C208	0.870700	0.386400	0.438800
C2091	C209	0.662100	0.338300	0.408400
C2101	C210	0.161600	0.407700	0.511100
C2111	C211	0.179600	0.358300	0.483000
C2121	C212	0.260200	0.351500	0.458700
C2131	C213	0.310800	0.397900	0.465500
C2141	C214	0.290100	0.450100	0.490000
C2151	C215	0.217400	0.456100	0.512300
C2161	C216	0.393800	0.393800	0.438800
O291	O29	0.572400	0.181200	0.270000
O301	O30	0.505700	0.114600	0.321900
O311	O31	0.902900	0.847500	0.930900
O321	O32	0.829100	0.817600	0.863600
O331	O33	0.093200	0.844400	0.921800
O341	O34	0.061100	0.936100	0.939000
O351	O35	0.927600	0.818800	0.770000
O361	O36	0.994300	0.885400	0.821900
O371	O37	0.597100	0.152500	0.430900
O381	O38	0.670900	0.182400	0.363600
O391	O39	0.406800	0.155600	0.421800
O401	O40	0.438900	0.063900	0.439000
O411	O41	0.572400	0.318800	0.270000
O421	O42	0.505700	0.385400	0.321900
O431	O43	0.902900	0.652500	0.930900
O441	O44	0.829100	0.682400	0.863600
O451	O45	0.093200	0.655600	0.921800
O461	O46	0.061100	0.563900	0.939000
O471	O47	0.927600	0.681200	0.770000
O481	O48	0.994300	0.614600	0.821900
O491	O49	0.597100	0.347500	0.430900
O501	O50	0.670900	0.317600	0.363600
O511	O51	0.406800	0.344400	0.421800
O521	O52	0.438900	0.436100	0.439000
O531	O53	0.713800	0.250000	0.269000
O541	O54	0.513200	0.250000	0.358500
O551	O55	0.786200	0.750000	0.769000
O561	O56	0.986800	0.750000	0.858500
