data_PUZKOM_freeONLY_PM
_symmetry_space_group_name_H-M	'P1'
_cell_length_a	34.681000
_cell_length_b	15.367800
_cell_length_c	13.714100
_cell_angle_alpha	90.000000
_cell_angle_beta	112.169000
_cell_angle_gamma	90.000000
_symmetry_Int_Tables_number 1

loop_
_symmetry_equiv_pos_as_xyz
'x,y,z'

loop_
_atom_site_label
_atom_site_type_symbol
_atom_site_fract_x
_atom_site_fract_y
_atom_site_fract_z
Zn11	Zn1	0.111970	0.220690	0.065840
Zn21	Zn2	0.201460	0.279790	0.144870
S11	S1	0.167370	0.512490	0.345550
S21	S2	0.145700	0.017950	0.371870
O11	O1	0.177430	0.369100	0.214900
O21	O2	0.110710	0.330300	0.146900
O31	O3	0.181680	0.644100	0.513000
O41	O4	0.116730	0.695800	0.452600
O51	O5	0.197760	0.189000	0.250200
O61	O6	0.130680	0.152500	0.202600
O71	O7	0.201890	0.824100	0.553700
O81	O8	0.136760	0.874700	0.505200
N11	N1	0.262890	0.308500	0.210600
N21	N2	0.550490	0.302200	0.489800
C11	C1	0.139900	0.378200	0.201300
C21	C2	0.129540	0.452200	0.254400
C31	C3	0.090200	0.481200	0.242200
H11	H1	0.065600	0.456100	0.196300
C41	C4	0.091600	0.553200	0.307300
H21	H2	0.068100	0.581400	0.308400
C51	C5	0.131500	0.576900	0.368700
C61	C6	0.144200	0.644700	0.451600
C71	C7	0.290200	0.263800	0.182600
H31	H3	0.280100	0.221800	0.130300
C81	C8	0.332600	0.277100	0.227600
H41	H4	0.350300	0.244100	0.205600
C91	C9	0.348700	0.338200	0.304200
C101	C10	0.320700	0.385700	0.331100
H51	H5	0.330200	0.429400	0.381500
C111	C11	0.278700	0.369300	0.284100
H61	H6	0.260500	0.402100	0.304500
C121	C12	0.394800	0.351800	0.358700
H71	H7	0.399700	0.413000	0.376600
H81	H8	0.404200	0.319300	0.424100
C131	C13	0.420100	0.326600	0.299600
H91	H9	0.415900	0.368600	0.243700
H101	H10	0.410600	0.270500	0.267000
C141	C14	0.169000	0.144600	0.258000
C151	C15	0.181400	0.074600	0.338300
C161	C16	0.173700	0.877200	0.508000
C171	C17	0.184030	0.950600	0.452300
C181	C18	0.220600	0.041600	0.387200
H111	H11	0.244000	0.064000	0.378300
C191	C19	0.221900	0.971100	0.451400
H121	H12	0.246200	0.941000	0.489800
C201	C20	0.535100	0.373400	0.444400
H131	H13	0.552900	0.420500	0.453000
C211	C21	0.493600	0.384400	0.383100
H141	H14	0.484400	0.438300	0.352200
C221	C22	0.466600	0.320900	0.367000
C231	C23	0.483500	0.242100	0.411200
H151	H15	0.466100	0.194100	0.400800
C241	C24	0.524900	0.232700	0.469700
H161	H16	0.535600	0.178200	0.495700
Zn31	Zn3	0.611970	0.720690	0.065840
Zn41	Zn4	0.701460	0.779790	0.144870
S31	S3	0.667370	0.012490	0.345550
S41	S4	0.645700	0.517950	0.371870
O91	O9	0.677430	0.869100	0.214900
O101	O10	0.610710	0.830300	0.146900
O111	O11	0.681680	0.144100	0.513000
O121	O12	0.616730	0.195800	0.452600
O131	O13	0.697760	0.689000	0.250200
O141	O14	0.630680	0.652500	0.202600
O151	O15	0.701890	0.324100	0.553700
O161	O16	0.636760	0.374700	0.505200
N31	N3	0.762890	0.808500	0.210600
N41	N4	0.050490	0.802200	0.489800
C251	C25	0.639900	0.878200	0.201300
C261	C26	0.629540	0.952200	0.254400
C271	C27	0.590200	0.981200	0.242200
H171	H17	0.565600	0.956100	0.196300
C281	C28	0.591600	0.053200	0.307300
H181	H18	0.568100	0.081400	0.308400
C291	C29	0.631500	0.076900	0.368700
C301	C30	0.644200	0.144700	0.451600
C311	C31	0.790200	0.763800	0.182600
H191	H19	0.780100	0.721800	0.130300
C321	C32	0.832600	0.777100	0.227600
H201	H20	0.850300	0.744100	0.205600
C331	C33	0.848700	0.838200	0.304200
C341	C34	0.820700	0.885700	0.331100
H211	H21	0.830200	0.929400	0.381500
C351	C35	0.778700	0.869300	0.284100
H221	H22	0.760500	0.902100	0.304500
C361	C36	0.894800	0.851800	0.358700
H231	H23	0.899700	0.913000	0.376600
H241	H24	0.904200	0.819300	0.424100
C371	C37	0.920100	0.826600	0.299600
H251	H25	0.915900	0.868600	0.243700
H261	H26	0.910600	0.770500	0.267000
C381	C38	0.669000	0.644600	0.258000
C391	C39	0.681400	0.574600	0.338300
C401	C40	0.673700	0.377200	0.508000
C411	C41	0.684030	0.450600	0.452300
C421	C42	0.720600	0.541600	0.387200
H271	H27	0.744000	0.564000	0.378300
C431	C43	0.721900	0.471100	0.451400
H281	H28	0.746200	0.441000	0.489800
C441	C44	0.035100	0.873400	0.444400
H291	H29	0.052900	0.920500	0.453000
C451	C45	0.993600	0.884400	0.383100
H301	H30	0.984400	0.938300	0.352200
C461	C46	0.966600	0.820900	0.367000
C471	C47	0.983500	0.742100	0.411200
H311	H31	0.966100	0.694100	0.400800
C481	C48	0.024900	0.732700	0.469700
H321	H32	0.035600	0.678200	0.495700
Zn51	Zn5	0.111970	0.779310	0.565840
Zn61	Zn6	0.201460	0.720210	0.644870
S51	S5	0.167370	0.487510	0.845550
S61	S6	0.145700	0.982050	0.871870
O171	O17	0.177430	0.630900	0.714900
O181	O18	0.110710	0.669700	0.646900
O191	O19	0.181680	0.355900	0.013000
O201	O20	0.116730	0.304200	0.952600
O211	O21	0.197760	0.811000	0.750200
O221	O22	0.130680	0.847500	0.702600
O231	O23	0.201890	0.175900	0.053700
O241	O24	0.136760	0.125300	0.005200
N51	N5	0.262890	0.691500	0.710600
N61	N6	0.550490	0.697800	0.989800
C491	C49	0.139900	0.621800	0.701300
C501	C50	0.129540	0.547800	0.754400
C511	C51	0.090200	0.518800	0.742200
H331	H33	0.065600	0.543900	0.696300
C521	C52	0.091600	0.446800	0.807300
H341	H34	0.068100	0.418600	0.808400
C531	C53	0.131500	0.423100	0.868700
C541	C54	0.144200	0.355300	0.951600
C551	C55	0.290200	0.736200	0.682600
H351	H35	0.280100	0.778200	0.630300
C561	C56	0.332600	0.722900	0.727600
H361	H36	0.350300	0.755900	0.705600
C571	C57	0.348700	0.661800	0.804200
C581	C58	0.320700	0.614300	0.831100
H371	H37	0.330200	0.570600	0.881500
C591	C59	0.278700	0.630700	0.784100
H381	H38	0.260500	0.597900	0.804500
C601	C60	0.394800	0.648200	0.858700
H391	H39	0.399700	0.587000	0.876600
H401	H40	0.404200	0.680700	0.924100
C611	C61	0.420100	0.673400	0.799600
H411	H41	0.415900	0.631400	0.743700
H421	H42	0.410600	0.729500	0.767000
C621	C62	0.169000	0.855400	0.758000
C631	C63	0.181400	0.925400	0.838300
C641	C64	0.173700	0.122800	0.008000
C651	C65	0.184030	0.049400	0.952300
C661	C66	0.220600	0.958400	0.887200
H431	H43	0.244000	0.936000	0.878300
C671	C67	0.221900	0.028900	0.951400
H441	H44	0.246200	0.059000	0.989800
C681	C68	0.535100	0.626600	0.944400
H451	H45	0.552900	0.579500	0.953000
C691	C69	0.493600	0.615600	0.883100
H461	H46	0.484400	0.561700	0.852200
C701	C70	0.466600	0.679100	0.867000
C711	C71	0.483500	0.757900	0.911200
H471	H47	0.466100	0.805900	0.900800
C721	C72	0.524900	0.767300	0.969700
H481	H48	0.535600	0.821800	0.995700
Zn71	Zn7	0.611970	0.279310	0.565840
Zn81	Zn8	0.701460	0.220210	0.644870
S71	S7	0.667370	0.987510	0.845550
S81	S8	0.645700	0.482050	0.871870
O251	O25	0.677430	0.130900	0.714900
O261	O26	0.610710	0.169700	0.646900
O271	O27	0.681680	0.855900	0.013000
O281	O28	0.616730	0.804200	0.952600
O291	O29	0.697760	0.311000	0.750200
O301	O30	0.630680	0.347500	0.702600
O311	O31	0.701890	0.675900	0.053700
O321	O32	0.636760	0.625300	0.005200
N71	N7	0.762890	0.191500	0.710600
N81	N8	0.050490	0.197800	0.989800
C731	C73	0.639900	0.121800	0.701300
C741	C74	0.629540	0.047800	0.754400
C751	C75	0.590200	0.018800	0.742200
H491	H49	0.565600	0.043900	0.696300
C761	C76	0.591600	0.946800	0.807300
H501	H50	0.568100	0.918600	0.808400
C771	C77	0.631500	0.923100	0.868700
C781	C78	0.644200	0.855300	0.951600
C791	C79	0.790200	0.236200	0.682600
H511	H51	0.780100	0.278200	0.630300
C801	C80	0.832600	0.222900	0.727600
H521	H52	0.850300	0.255900	0.705600
C811	C81	0.848700	0.161800	0.804200
C821	C82	0.820700	0.114300	0.831100
H531	H53	0.830200	0.070600	0.881500
C831	C83	0.778700	0.130700	0.784100
H541	H54	0.760500	0.097900	0.804500
C841	C84	0.894800	0.148200	0.858700
H551	H55	0.899700	0.087000	0.876600
H561	H56	0.904200	0.180700	0.924100
C851	C85	0.920100	0.173400	0.799600
H571	H57	0.915900	0.131400	0.743700
H581	H58	0.910600	0.229500	0.767000
C861	C86	0.669000	0.355400	0.758000
C871	C87	0.681400	0.425400	0.838300
C881	C88	0.673700	0.622800	0.008000
C891	C89	0.684030	0.549400	0.952300
C901	C90	0.720600	0.458400	0.887200
H591	H59	0.744000	0.436000	0.878300
C911	C91	0.721900	0.528900	0.951400
H601	H60	0.746200	0.559000	0.989800
C921	C92	0.035100	0.126600	0.944400
H611	H61	0.052900	0.079500	0.953000
C931	C93	0.993600	0.115600	0.883100
H621	H62	0.984400	0.061700	0.852200
C941	C94	0.966600	0.179100	0.867000
C951	C95	0.983500	0.257900	0.911200
H631	H63	0.966100	0.305900	0.900800
C961	C96	0.024900	0.267300	0.969700
H641	H64	0.035600	0.321800	0.995700
Zn91	Zn9	0.888030	0.220690	0.434160
Zn101	Zn10	0.798540	0.279790	0.355130
S91	S9	0.832630	0.512490	0.154450
S101	S10	0.854300	0.017950	0.128130
O331	O33	0.822570	0.369100	0.285100
O341	O34	0.889290	0.330300	0.353100
O351	O35	0.818320	0.644100	0.987000
O361	O36	0.883270	0.695800	0.047400
O371	O37	0.802240	0.189000	0.249800
O381	O38	0.869320	0.152500	0.297400
O391	O39	0.798110	0.824100	0.946300
O401	O40	0.863240	0.874700	0.994800
N91	N9	0.737110	0.308500	0.289400
N101	N10	0.449510	0.302200	0.010200
C971	C97	0.860100	0.378200	0.298700
C981	C98	0.870460	0.452200	0.245600
C991	C99	0.909800	0.481200	0.257800
H651	H65	0.934400	0.456100	0.303700
C1001	C100	0.908400	0.553200	0.192700
H661	H66	0.931900	0.581400	0.191600
C1011	C101	0.868500	0.576900	0.131300
C1021	C102	0.855800	0.644700	0.048400
C1031	C103	0.709800	0.263800	0.317400
H671	H67	0.719900	0.221800	0.369700
C1041	C104	0.667400	0.277100	0.272400
H681	H68	0.649700	0.244100	0.294400
C1051	C105	0.651300	0.338200	0.195800
C1061	C106	0.679300	0.385700	0.168900
H691	H69	0.669800	0.429400	0.118500
C1071	C107	0.721300	0.369300	0.215900
H701	H70	0.739500	0.402100	0.195500
C1081	C108	0.605200	0.351800	0.141300
H711	H71	0.600300	0.413000	0.123400
H721	H72	0.595800	0.319300	0.075900
C1091	C109	0.579900	0.326600	0.200400
H731	H73	0.584100	0.368600	0.256300
H741	H74	0.589400	0.270500	0.233000
C1101	C110	0.831000	0.144600	0.242000
C1111	C111	0.818600	0.074600	0.161700
C1121	C112	0.826300	0.877200	0.992000
C1131	C113	0.815970	0.950600	0.047700
C1141	C114	0.779400	0.041600	0.112800
H751	H75	0.756000	0.064000	0.121700
C1151	C115	0.778100	0.971100	0.048600
H761	H76	0.753800	0.941000	0.010200
C1161	C116	0.464900	0.373400	0.055600
H771	H77	0.447100	0.420500	0.047000
C1171	C117	0.506400	0.384400	0.116900
H781	H78	0.515600	0.438300	0.147800
C1181	C118	0.533400	0.320900	0.133000
C1191	C119	0.516500	0.242100	0.088800
H791	H79	0.533900	0.194100	0.099200
C1201	C120	0.475100	0.232700	0.030300
H801	H80	0.464400	0.178200	0.004300
Zn111	Zn11	0.388030	0.720690	0.434160
Zn121	Zn12	0.298540	0.779790	0.355130
S111	S11	0.332630	0.012490	0.154450
S121	S12	0.354300	0.517950	0.128130
O411	O41	0.322570	0.869100	0.285100
O421	O42	0.389290	0.830300	0.353100
O431	O43	0.318320	0.144100	0.987000
O441	O44	0.383270	0.195800	0.047400
O451	O45	0.302240	0.689000	0.249800
O461	O46	0.369320	0.652500	0.297400
O471	O47	0.298110	0.324100	0.946300
O481	O48	0.363240	0.374700	0.994800
N111	N11	0.237110	0.808500	0.289400
N121	N12	0.949510	0.802200	0.010200
C1211	C121	0.360100	0.878200	0.298700
C1221	C122	0.370460	0.952200	0.245600
C1231	C123	0.409800	0.981200	0.257800
H811	H81	0.434400	0.956100	0.303700
C1241	C124	0.408400	0.053200	0.192700
H821	H82	0.431900	0.081400	0.191600
C1251	C125	0.368500	0.076900	0.131300
C1261	C126	0.355800	0.144700	0.048400
C1271	C127	0.209800	0.763800	0.317400
H831	H83	0.219900	0.721800	0.369700
C1281	C128	0.167400	0.777100	0.272400
H841	H84	0.149700	0.744100	0.294400
C1291	C129	0.151300	0.838200	0.195800
C1301	C130	0.179300	0.885700	0.168900
H851	H85	0.169800	0.929400	0.118500
C1311	C131	0.221300	0.869300	0.215900
H861	H86	0.239500	0.902100	0.195500
C1321	C132	0.105200	0.851800	0.141300
H871	H87	0.100300	0.913000	0.123400
H881	H88	0.095800	0.819300	0.075900
C1331	C133	0.079900	0.826600	0.200400
H891	H89	0.084100	0.868600	0.256300
H901	H90	0.089400	0.770500	0.233000
C1341	C134	0.331000	0.644600	0.242000
C1351	C135	0.318600	0.574600	0.161700
C1361	C136	0.326300	0.377200	0.992000
C1371	C137	0.315970	0.450600	0.047700
C1381	C138	0.279400	0.541600	0.112800
H911	H91	0.256000	0.564000	0.121700
C1391	C139	0.278100	0.471100	0.048600
H921	H92	0.253800	0.441000	0.010200
C1401	C140	0.964900	0.873400	0.055600
H931	H93	0.947100	0.920500	0.047000
C1411	C141	0.006400	0.884400	0.116900
H941	H94	0.015600	0.938300	0.147800
C1421	C142	0.033400	0.820900	0.133000
C1431	C143	0.016500	0.742100	0.088800
H951	H95	0.033900	0.694100	0.099200
C1441	C144	0.975100	0.732700	0.030300
H961	H96	0.964400	0.678200	0.004300
Zn131	Zn13	0.888030	0.779310	0.934160
Zn141	Zn14	0.798540	0.720210	0.855130
S131	S13	0.832630	0.487510	0.654450
S141	S14	0.854300	0.982050	0.628130
O491	O49	0.822570	0.630900	0.785100
O501	O50	0.889290	0.669700	0.853100
O511	O51	0.818320	0.355900	0.487000
O521	O52	0.883270	0.304200	0.547400
O531	O53	0.802240	0.811000	0.749800
O541	O54	0.869320	0.847500	0.797400
O551	O55	0.798110	0.175900	0.446300
O561	O56	0.863240	0.125300	0.494800
N131	N13	0.737110	0.691500	0.789400
N141	N14	0.449510	0.697800	0.510200
C1451	C145	0.860100	0.621800	0.798700
C1461	C146	0.870460	0.547800	0.745600
C1471	C147	0.909800	0.518800	0.757800
H971	H97	0.934400	0.543900	0.803700
C1481	C148	0.908400	0.446800	0.692700
H981	H98	0.931900	0.418600	0.691600
C1491	C149	0.868500	0.423100	0.631300
C1501	C150	0.855800	0.355300	0.548400
C1511	C151	0.709800	0.736200	0.817400
H991	H99	0.719900	0.778200	0.869700
C1521	C152	0.667400	0.722900	0.772400
H1001	H100	0.649700	0.755900	0.794400
C1531	C153	0.651300	0.661800	0.695800
C1541	C154	0.679300	0.614300	0.668900
H1011	H101	0.669800	0.570600	0.618500
C1551	C155	0.721300	0.630700	0.715900
H1021	H102	0.739500	0.597900	0.695500
C1561	C156	0.605200	0.648200	0.641300
H1031	H103	0.600300	0.587000	0.623400
H1041	H104	0.595800	0.680700	0.575900
C1571	C157	0.579900	0.673400	0.700400
H1051	H105	0.584100	0.631400	0.756300
H1061	H106	0.589400	0.729500	0.733000
C1581	C158	0.831000	0.855400	0.742000
C1591	C159	0.818600	0.925400	0.661700
C1601	C160	0.826300	0.122800	0.492000
C1611	C161	0.815970	0.049400	0.547700
C1621	C162	0.779400	0.958400	0.612800
H1071	H107	0.756000	0.936000	0.621700
C1631	C163	0.778100	0.028900	0.548600
H1081	H108	0.753800	0.059000	0.510200
C1641	C164	0.464900	0.626600	0.555600
H1091	H109	0.447100	0.579500	0.547000
C1651	C165	0.506400	0.615600	0.616900
H1101	H110	0.515600	0.561700	0.647800
C1661	C166	0.533400	0.679100	0.633000
C1671	C167	0.516500	0.757900	0.588800
H1111	H111	0.533900	0.805900	0.599200
C1681	C168	0.475100	0.767300	0.530300
H1121	H112	0.464400	0.821800	0.504300
Zn151	Zn15	0.388030	0.279310	0.934160
Zn161	Zn16	0.298540	0.220210	0.855130
S151	S15	0.332630	0.987510	0.654450
S161	S16	0.354300	0.482050	0.628130
O571	O57	0.322570	0.130900	0.785100
O581	O58	0.389290	0.169700	0.853100
O591	O59	0.318320	0.855900	0.487000
O601	O60	0.383270	0.804200	0.547400
O611	O61	0.302240	0.311000	0.749800
O621	O62	0.369320	0.347500	0.797400
O631	O63	0.298110	0.675900	0.446300
O641	O64	0.363240	0.625300	0.494800
N151	N15	0.237110	0.191500	0.789400
N161	N16	0.949510	0.197800	0.510200
C1691	C169	0.360100	0.121800	0.798700
C1701	C170	0.370460	0.047800	0.745600
C1711	C171	0.409800	0.018800	0.757800
H1131	H113	0.434400	0.043900	0.803700
C1721	C172	0.408400	0.946800	0.692700
H1141	H114	0.431900	0.918600	0.691600
C1731	C173	0.368500	0.923100	0.631300
C1741	C174	0.355800	0.855300	0.548400
C1751	C175	0.209800	0.236200	0.817400
H1151	H115	0.219900	0.278200	0.869700
C1761	C176	0.167400	0.222900	0.772400
H1161	H116	0.149700	0.255900	0.794400
C1771	C177	0.151300	0.161800	0.695800
C1781	C178	0.179300	0.114300	0.668900
H1171	H117	0.169800	0.070600	0.618500
C1791	C179	0.221300	0.130700	0.715900
H1181	H118	0.239500	0.097900	0.695500
C1801	C180	0.105200	0.148200	0.641300
H1191	H119	0.100300	0.087000	0.623400
H1201	H120	0.095800	0.180700	0.575900
C1811	C181	0.079900	0.173400	0.700400
H1211	H121	0.084100	0.131400	0.756300
H1221	H122	0.089400	0.229500	0.733000
C1821	C182	0.331000	0.355400	0.742000
C1831	C183	0.318600	0.425400	0.661700
C1841	C184	0.326300	0.622800	0.492000
C1851	C185	0.315970	0.549400	0.547700
C1861	C186	0.279400	0.458400	0.612800
H1231	H123	0.256000	0.436000	0.621700
C1871	C187	0.278100	0.528900	0.548600
H1241	H124	0.253800	0.559000	0.510200
C1881	C188	0.964900	0.126600	0.555600
H1251	H125	0.947100	0.079500	0.547000
C1891	C189	0.006400	0.115600	0.616900
H1261	H126	0.015600	0.061700	0.647800
C1901	C190	0.033400	0.179100	0.633000
C1911	C191	0.016500	0.257900	0.588800
H1271	H127	0.033900	0.305900	0.599200
C1921	C192	0.975100	0.267300	0.530300
H1281	H128	0.964400	0.321800	0.504300
