data_PUZMAZ_manual_PM
_symmetry_space_group_name_H-M	'P1'
_cell_length_a	53.013200
_cell_length_b	53.013200
_cell_length_c	53.013200
_cell_angle_alpha	60.000000
_cell_angle_beta	60.000000
_cell_angle_gamma	60.000000
_symmetry_Int_Tables_number 1

loop_
_symmetry_equiv_pos_as_xyz
'x,y,z'

loop_
_atom_site_label
_atom_site_type_symbol
_atom_site_fract_x
_atom_site_fract_y
_atom_site_fract_z
N11	N1	0.701950	0.483170	0.657030
C11	C1	0.686610	0.483050	0.686270
N21	N2	0.730330	0.492490	0.728390
C21	C2	0.746360	0.483680	0.703760
H11	H1	0.768100	0.479300	0.695700
C31	C3	0.733430	0.480470	0.688970
H21	H2	0.745800	0.475000	0.670800
C41	C4	0.702670	0.485230	0.700850
C51	C5	0.685220	0.494540	0.726740
H31	H3	0.663600	0.498400	0.735400
C61	C6	0.700010	0.498050	0.739550
H41	H4	0.688000	0.504800	0.757000
N31	N3	0.790140	0.500980	0.711320
C71	C7	0.808740	0.510380	0.689920
S11	S1	0.834260	0.525760	0.659340
N41	N4	0.772660	0.450300	0.769280
C81	C8	0.795940	0.434020	0.751000
H51	H5	0.801900	0.444300	0.729300
C91	C9	0.811760	0.403000	0.762000
H61	H6	0.828400	0.392400	0.748200
C101	C10	0.802990	0.387790	0.793330
C111	C11	0.777930	0.404230	0.812930
H71	H7	0.770600	0.394200	0.834600
C121	C12	0.764380	0.435020	0.799980
H81	H8	0.748100	0.446500	0.813300
C131	C13	0.820220	0.310320	0.846860
N51	N5	0.803720	0.339200	0.834480
C141	C14	0.819660	0.355060	0.807140
N61	N6	0.849870	0.343890	0.791790
C151	C15	0.863740	0.314340	0.806360
N71	N7	0.850260	0.296520	0.833520
N81	N8	0.773900	0.265260	0.939680
C161	C16	0.758180	0.290340	0.921520
H91	H9	0.736400	0.298600	0.930200
C171	C17	0.772400	0.304620	0.890820
H101	H10	0.760600	0.322400	0.878600
C181	C18	0.804140	0.292740	0.878080
C191	C19	0.820170	0.265850	0.896190
H111	H11	0.841800	0.256400	0.887800
C201	C20	0.804250	0.252950	0.926570
H121	H12	0.815400	0.234400	0.938800
N91	N9	0.960710	0.273150	0.765870
C211	C21	0.942390	0.256250	0.787790
H131	H13	0.951600	0.234400	0.794200
C221	C22	0.911330	0.268530	0.801430
H141	H14	0.899500	0.255500	0.817300
C231	C23	0.897400	0.300360	0.791740
C241	C24	0.915770	0.318410	0.767670
H151	H15	0.906800	0.340200	0.759600
C251	C25	0.947030	0.303950	0.755950
H161	H16	0.959500	0.316300	0.740100
N101	N10	0.714680	0.292280	0.986480
C261	C26	0.709220	0.319120	0.976920
S21	S2	0.702470	0.356050	0.963770
N111	N11	0.483170	0.701950	0.657850
C271	C27	0.483050	0.686610	0.644070
N121	N12	0.492490	0.730330	0.548790
C281	C28	0.483680	0.746360	0.566200
H171	H17	0.479300	0.768100	0.556900
C291	C29	0.480470	0.733430	0.597130
H181	H18	0.475000	0.745800	0.608400
C301	C30	0.485230	0.702670	0.611250
C311	C31	0.494540	0.685220	0.593500
H191	H19	0.498400	0.663600	0.602600
C321	C32	0.498050	0.700010	0.562390
H201	H20	0.504800	0.688000	0.550200
N131	N13	0.500980	0.790140	0.497560
C331	C33	0.510380	0.808740	0.490960
S31	S3	0.525760	0.834260	0.480640
N141	N14	0.450300	0.772660	0.507760
C341	C34	0.434020	0.795940	0.519040
H211	H21	0.444300	0.801900	0.524500
C351	C35	0.403000	0.811760	0.523240
H221	H22	0.392400	0.828400	0.531000
C361	C36	0.387790	0.802990	0.515890
C371	C37	0.404230	0.777930	0.504910
H231	H23	0.394200	0.770600	0.500600
C381	C38	0.435020	0.764380	0.500620
H241	H24	0.446500	0.748100	0.492100
C391	C39	0.310320	0.820220	0.522600
N151	N15	0.339200	0.803720	0.522600
C401	C40	0.355060	0.819660	0.518140
N161	N16	0.343890	0.849870	0.514450
C411	C41	0.314340	0.863740	0.515560
N171	N17	0.296520	0.850260	0.519700
N181	N18	0.265260	0.773900	0.521160
C421	C42	0.290340	0.758180	0.529960
H251	H25	0.298600	0.736400	0.534800
C431	C43	0.304620	0.772400	0.532160
H261	H26	0.322400	0.760600	0.538400
C441	C44	0.292740	0.804140	0.525040
C451	C45	0.265850	0.820170	0.517790
H271	H27	0.256400	0.841800	0.514000
C461	C46	0.252950	0.804250	0.516230
H281	H28	0.234400	0.815400	0.511400
N191	N19	0.273150	0.960710	0.500270
C471	C47	0.256250	0.942390	0.513570
H291	H29	0.234400	0.951600	0.519800
C481	C48	0.268530	0.911330	0.518710
H301	H30	0.255500	0.899500	0.527700
C491	C49	0.300360	0.897400	0.510500
C501	C50	0.318410	0.915770	0.498150
H311	H31	0.340200	0.906800	0.493400
C511	C51	0.303950	0.947030	0.493070
H321	H32	0.316300	0.959500	0.484100
N201	N20	0.292280	0.714680	0.506560
C521	C52	0.319120	0.709220	0.494740
S41	S4	0.356050	0.702470	0.477710
N211	N21	0.657030	0.657850	0.701950
C531	C53	0.686270	0.644070	0.686610
N221	N22	0.728390	0.548790	0.730330
C541	C54	0.703760	0.566200	0.746360
H331	H33	0.695700	0.556900	0.768100
C551	C55	0.688970	0.597130	0.733430
H341	H34	0.670800	0.608400	0.745800
C561	C56	0.700850	0.611250	0.702670
C571	C57	0.726740	0.593500	0.685220
H351	H35	0.735400	0.602600	0.663600
C581	C58	0.739550	0.562390	0.700010
H361	H36	0.757000	0.550200	0.688000
N231	N23	0.711320	0.497560	0.790140
C591	C59	0.689920	0.490960	0.808740
S51	S5	0.659340	0.480640	0.834260
N241	N24	0.769280	0.507760	0.772660
C601	C60	0.751000	0.519040	0.795940
H371	H37	0.729300	0.524500	0.801900
C611	C61	0.762000	0.523240	0.811760
H381	H38	0.748200	0.531000	0.828400
C621	C62	0.793330	0.515890	0.802990
C631	C63	0.812930	0.504910	0.777930
H391	H39	0.834600	0.500600	0.770600
C641	C64	0.799980	0.500620	0.764380
H401	H40	0.813300	0.492100	0.748100
C651	C65	0.846860	0.522600	0.820220
N251	N25	0.834480	0.522600	0.803720
C661	C66	0.807140	0.518140	0.819660
N261	N26	0.791790	0.514450	0.849870
C671	C67	0.806360	0.515560	0.863740
N271	N27	0.833520	0.519700	0.850260
N281	N28	0.939680	0.521160	0.773900
C681	C68	0.921520	0.529960	0.758180
H411	H41	0.930200	0.534800	0.736400
C691	C69	0.890820	0.532160	0.772400
H421	H42	0.878600	0.538400	0.760600
C701	C70	0.878080	0.525040	0.804140
C711	C71	0.896190	0.517790	0.820170
H431	H43	0.887800	0.514000	0.841800
C721	C72	0.926570	0.516230	0.804250
H441	H44	0.938800	0.511400	0.815400
N291	N29	0.765870	0.500270	0.960710
C731	C73	0.787790	0.513570	0.942390
H451	H45	0.794200	0.519800	0.951600
C741	C74	0.801430	0.518710	0.911330
H461	H46	0.817300	0.527700	0.899500
C751	C75	0.791740	0.510500	0.897400
C761	C76	0.767670	0.498150	0.915770
H471	H47	0.759600	0.493400	0.906800
C771	C77	0.755950	0.493070	0.947030
H481	H48	0.740100	0.484100	0.959500
N301	N30	0.986480	0.506560	0.714680
C781	C78	0.976920	0.494740	0.709220
S61	S6	0.963770	0.477710	0.702470
N311	N31	0.657850	0.657030	0.483170
C791	C79	0.644070	0.686270	0.483050
N321	N32	0.548790	0.728390	0.492490
C801	C80	0.566200	0.703760	0.483680
H491	H49	0.556900	0.695700	0.479300
C811	C81	0.597130	0.688970	0.480470
H501	H50	0.608400	0.670800	0.475000
C821	C82	0.611250	0.700850	0.485230
C831	C83	0.593500	0.726740	0.494540
H511	H51	0.602600	0.735400	0.498400
C841	C84	0.562390	0.739550	0.498050
H521	H52	0.550200	0.757000	0.504800
N331	N33	0.497560	0.711320	0.500980
C851	C85	0.490960	0.689920	0.510380
S71	S7	0.480640	0.659340	0.525760
N341	N34	0.507760	0.769280	0.450300
C861	C86	0.519040	0.751000	0.434020
H531	H53	0.524500	0.729300	0.444300
C871	C87	0.523240	0.762000	0.403000
H541	H54	0.531000	0.748200	0.392400
C881	C88	0.515890	0.793330	0.387790
C891	C89	0.504910	0.812930	0.404230
H551	H55	0.500600	0.834600	0.394200
C901	C90	0.500620	0.799980	0.435020
H561	H56	0.492100	0.813300	0.446500
C911	C91	0.522600	0.846860	0.310320
N351	N35	0.522600	0.834480	0.339200
C921	C92	0.518140	0.807140	0.355060
N361	N36	0.514450	0.791790	0.343890
C931	C93	0.515560	0.806360	0.314340
N371	N37	0.519700	0.833520	0.296520
N381	N38	0.521160	0.939680	0.265260
C941	C94	0.529960	0.921520	0.290340
H571	H57	0.534800	0.930200	0.298600
C951	C95	0.532160	0.890820	0.304620
H581	H58	0.538400	0.878600	0.322400
C961	C96	0.525040	0.878080	0.292740
C971	C97	0.517790	0.896190	0.265850
H591	H59	0.514000	0.887800	0.256400
C981	C98	0.516230	0.926570	0.252950
H601	H60	0.511400	0.938800	0.234400
N391	N39	0.500270	0.765870	0.273150
C991	C99	0.513570	0.787790	0.256250
H611	H61	0.519800	0.794200	0.234400
C1001	C100	0.518710	0.801430	0.268530
H621	H62	0.527700	0.817300	0.255500
C1011	C101	0.510500	0.791740	0.300360
C1021	C102	0.498150	0.767670	0.318410
H631	H63	0.493400	0.759600	0.340200
C1031	C103	0.493070	0.755950	0.303950
H641	H64	0.484100	0.740100	0.316300
N401	N40	0.506560	0.986480	0.292280
C1041	C104	0.494740	0.976920	0.319120
S81	S8	0.477710	0.963770	0.356050
N411	N41	0.657030	0.701950	0.483170
C1051	C105	0.686270	0.686610	0.483050
N421	N42	0.728390	0.730330	0.492490
C1061	C106	0.703760	0.746360	0.483680
H651	H65	0.695700	0.768100	0.479300
C1071	C107	0.688970	0.733430	0.480470
H661	H66	0.670800	0.745800	0.475000
C1081	C108	0.700850	0.702670	0.485230
C1091	C109	0.726740	0.685220	0.494540
H671	H67	0.735400	0.663600	0.498400
C1101	C110	0.739550	0.700010	0.498050
H681	H68	0.757000	0.688000	0.504800
N431	N43	0.711320	0.790140	0.500980
C1111	C111	0.689920	0.808740	0.510380
S91	S9	0.659340	0.834260	0.525760
N441	N44	0.769280	0.772660	0.450300
C1121	C112	0.751000	0.795940	0.434020
H691	H69	0.729300	0.801900	0.444300
C1131	C113	0.762000	0.811760	0.403000
H701	H70	0.748200	0.828400	0.392400
C1141	C114	0.793330	0.802990	0.387790
C1151	C115	0.812930	0.777930	0.404230
H711	H71	0.834600	0.770600	0.394200
C1161	C116	0.799980	0.764380	0.435020
H721	H72	0.813300	0.748100	0.446500
C1171	C117	0.846860	0.820220	0.310320
N451	N45	0.834480	0.803720	0.339200
C1181	C118	0.807140	0.819660	0.355060
N461	N46	0.791790	0.849870	0.343890
C1191	C119	0.806360	0.863740	0.314340
N471	N47	0.833520	0.850260	0.296520
N481	N48	0.939680	0.773900	0.265260
C1201	C120	0.921520	0.758180	0.290340
H731	H73	0.930200	0.736400	0.298600
C1211	C121	0.890820	0.772400	0.304620
H741	H74	0.878600	0.760600	0.322400
C1221	C122	0.878080	0.804140	0.292740
C1231	C123	0.896190	0.820170	0.265850
H751	H75	0.887800	0.841800	0.256400
C1241	C124	0.926570	0.804250	0.252950
H761	H76	0.938800	0.815400	0.234400
N491	N49	0.765870	0.960710	0.273150
C1251	C125	0.787790	0.942390	0.256250
H771	H77	0.794200	0.951600	0.234400
C1261	C126	0.801430	0.911330	0.268530
H781	H78	0.817300	0.899500	0.255500
C1271	C127	0.791740	0.897400	0.300360
C1281	C128	0.767670	0.915770	0.318410
H791	H79	0.759600	0.906800	0.340200
C1291	C129	0.755950	0.947030	0.303950
H801	H80	0.740100	0.959500	0.316300
N501	N50	0.986480	0.714680	0.292280
C1301	C130	0.976920	0.709220	0.319120
S101	S10	0.963770	0.702470	0.356050
N511	N51	0.657850	0.483170	0.701950
C1311	C131	0.644070	0.483050	0.686610
N521	N52	0.548790	0.492490	0.730330
C1321	C132	0.566200	0.483680	0.746360
H811	H81	0.556900	0.479300	0.768100
C1331	C133	0.597130	0.480470	0.733430
H821	H82	0.608400	0.475000	0.745800
C1341	C134	0.611250	0.485230	0.702670
C1351	C135	0.593500	0.494540	0.685220
H831	H83	0.602600	0.498400	0.663600
C1361	C136	0.562390	0.498050	0.700010
H841	H84	0.550200	0.504800	0.688000
N531	N53	0.497560	0.500980	0.790140
C1371	C137	0.490960	0.510380	0.808740
S111	S11	0.480640	0.525760	0.834260
N541	N54	0.507760	0.450300	0.772660
C1381	C138	0.519040	0.434020	0.795940
H851	H85	0.524500	0.444300	0.801900
C1391	C139	0.523240	0.403000	0.811760
H861	H86	0.531000	0.392400	0.828400
C1401	C140	0.515890	0.387790	0.802990
C1411	C141	0.504910	0.404230	0.777930
H871	H87	0.500600	0.394200	0.770600
C1421	C142	0.500620	0.435020	0.764380
H881	H88	0.492100	0.446500	0.748100
C1431	C143	0.522600	0.310320	0.820220
N551	N55	0.522600	0.339200	0.803720
C1441	C144	0.518140	0.355060	0.819660
N561	N56	0.514450	0.343890	0.849870
C1451	C145	0.515560	0.314340	0.863740
N571	N57	0.519700	0.296520	0.850260
N581	N58	0.521160	0.265260	0.773900
C1461	C146	0.529960	0.290340	0.758180
H891	H89	0.534800	0.298600	0.736400
C1471	C147	0.532160	0.304620	0.772400
H901	H90	0.538400	0.322400	0.760600
C1481	C148	0.525040	0.292740	0.804140
C1491	C149	0.517790	0.265850	0.820170
H911	H91	0.514000	0.256400	0.841800
C1501	C150	0.516230	0.252950	0.804250
H921	H92	0.511400	0.234400	0.815400
N591	N59	0.500270	0.273150	0.960710
C1511	C151	0.513570	0.256250	0.942390
H931	H93	0.519800	0.234400	0.951600
C1521	C152	0.518710	0.268530	0.911330
H941	H94	0.527700	0.255500	0.899500
C1531	C153	0.510500	0.300360	0.897400
C1541	C154	0.498150	0.318410	0.915770
H951	H95	0.493400	0.340200	0.906800
C1551	C155	0.493070	0.303950	0.947030
H961	H96	0.484100	0.316300	0.959500
N601	N60	0.506560	0.292280	0.714680
C1561	C156	0.494740	0.319120	0.709220
S121	S12	0.477710	0.356050	0.702470
N611	N61	0.701950	0.657030	0.657850
C1571	C157	0.686610	0.686270	0.644070
N621	N62	0.730330	0.728390	0.548790
C1581	C158	0.746360	0.703760	0.566200
H971	H97	0.768100	0.695700	0.556900
C1591	C159	0.733430	0.688970	0.597130
H981	H98	0.745800	0.670800	0.608400
C1601	C160	0.702670	0.700850	0.611250
C1611	C161	0.685220	0.726740	0.593500
H991	H99	0.663600	0.735400	0.602600
C1621	C162	0.700010	0.739550	0.562390
H1001	H100	0.688000	0.757000	0.550200
N631	N63	0.790140	0.711320	0.497560
C1631	C163	0.808740	0.689920	0.490960
S131	S13	0.834260	0.659340	0.480640
N641	N64	0.772660	0.769280	0.507760
C1641	C164	0.795940	0.751000	0.519040
H1011	H101	0.801900	0.729300	0.524500
C1651	C165	0.811760	0.762000	0.523240
H1021	H102	0.828400	0.748200	0.531000
C1661	C166	0.802990	0.793330	0.515890
C1671	C167	0.777930	0.812930	0.504910
H1031	H103	0.770600	0.834600	0.500600
C1681	C168	0.764380	0.799980	0.500620
H1041	H104	0.748100	0.813300	0.492100
C1691	C169	0.820220	0.846860	0.522600
N651	N65	0.803720	0.834480	0.522600
C1701	C170	0.819660	0.807140	0.518140
N661	N66	0.849870	0.791790	0.514450
C1711	C171	0.863740	0.806360	0.515560
N671	N67	0.850260	0.833520	0.519700
N681	N68	0.773900	0.939680	0.521160
C1721	C172	0.758180	0.921520	0.529960
H1051	H105	0.736400	0.930200	0.534800
C1731	C173	0.772400	0.890820	0.532160
H1061	H106	0.760600	0.878600	0.538400
C1741	C174	0.804140	0.878080	0.525040
C1751	C175	0.820170	0.896190	0.517790
H1071	H107	0.841800	0.887800	0.514000
C1761	C176	0.804250	0.926570	0.516230
H1081	H108	0.815400	0.938800	0.511400
N691	N69	0.960710	0.765870	0.500270
C1771	C177	0.942390	0.787790	0.513570
H1091	H109	0.951600	0.794200	0.519800
C1781	C178	0.911330	0.801430	0.518710
H1101	H110	0.899500	0.817300	0.527700
C1791	C179	0.897400	0.791740	0.510500
C1801	C180	0.915770	0.767670	0.498150
H1111	H111	0.906800	0.759600	0.493400
C1811	C181	0.947030	0.755950	0.493070
H1121	H112	0.959500	0.740100	0.484100
N701	N70	0.714680	0.986480	0.506560
C1821	C182	0.709220	0.976920	0.494740
S141	S14	0.702470	0.963770	0.477710
N711	N71	0.483170	0.657850	0.657030
C1831	C183	0.483050	0.644070	0.686270
N721	N72	0.492490	0.548790	0.728390
C1841	C184	0.483680	0.566200	0.703760
H1131	H113	0.479300	0.556900	0.695700
C1851	C185	0.480470	0.597130	0.688970
H1141	H114	0.475000	0.608400	0.670800
C1861	C186	0.485230	0.611250	0.700850
C1871	C187	0.494540	0.593500	0.726740
H1151	H115	0.498400	0.602600	0.735400
C1881	C188	0.498050	0.562390	0.739550
H1161	H116	0.504800	0.550200	0.757000
N731	N73	0.500980	0.497560	0.711320
C1891	C189	0.510380	0.490960	0.689920
S151	S15	0.525760	0.480640	0.659340
N741	N74	0.450300	0.507760	0.769280
C1901	C190	0.434020	0.519040	0.751000
H1171	H117	0.444300	0.524500	0.729300
C1911	C191	0.403000	0.523240	0.762000
H1181	H118	0.392400	0.531000	0.748200
C1921	C192	0.387790	0.515890	0.793330
C1931	C193	0.404230	0.504910	0.812930
H1191	H119	0.394200	0.500600	0.834600
C1941	C194	0.435020	0.500620	0.799980
H1201	H120	0.446500	0.492100	0.813300
C1951	C195	0.310320	0.522600	0.846860
N751	N75	0.339200	0.522600	0.834480
C1961	C196	0.355060	0.518140	0.807140
N761	N76	0.343890	0.514450	0.791790
C1971	C197	0.314340	0.515560	0.806360
N771	N77	0.296520	0.519700	0.833520
N781	N78	0.265260	0.521160	0.939680
C1981	C198	0.290340	0.529960	0.921520
H1211	H121	0.298600	0.534800	0.930200
C1991	C199	0.304620	0.532160	0.890820
H1221	H122	0.322400	0.538400	0.878600
C2001	C200	0.292740	0.525040	0.878080
C2011	C201	0.265850	0.517790	0.896190
H1231	H123	0.256400	0.514000	0.887800
C2021	C202	0.252950	0.516230	0.926570
H1241	H124	0.234400	0.511400	0.938800
N791	N79	0.273150	0.500270	0.765870
C2031	C203	0.256250	0.513570	0.787790
H1251	H125	0.234400	0.519800	0.794200
C2041	C204	0.268530	0.518710	0.801430
H1261	H126	0.255500	0.527700	0.817300
C2051	C205	0.300360	0.510500	0.791740
C2061	C206	0.318410	0.498150	0.767670
H1271	H127	0.340200	0.493400	0.759600
C2071	C207	0.303950	0.493070	0.755950
H1281	H128	0.316300	0.484100	0.740100
N801	N80	0.292280	0.506560	0.986480
C2081	C208	0.319120	0.494740	0.976920
S161	S16	0.356050	0.477710	0.963770
N811	N81	0.483170	0.657030	0.701950
C2091	C209	0.483050	0.686270	0.686610
N821	N82	0.492490	0.728390	0.730330
C2101	C210	0.483680	0.703760	0.746360
H1291	H129	0.479300	0.695700	0.768100
C2111	C211	0.480470	0.688970	0.733430
H1301	H130	0.475000	0.670800	0.745800
C2121	C212	0.485230	0.700850	0.702670
C2131	C213	0.494540	0.726740	0.685220
H1311	H131	0.498400	0.735400	0.663600
C2141	C214	0.498050	0.739550	0.700010
H1321	H132	0.504800	0.757000	0.688000
N831	N83	0.500980	0.711320	0.790140
C2151	C215	0.510380	0.689920	0.808740
S171	S17	0.525760	0.659340	0.834260
N841	N84	0.450300	0.769280	0.772660
C2161	C216	0.434020	0.751000	0.795940
H1331	H133	0.444300	0.729300	0.801900
C2171	C217	0.403000	0.762000	0.811760
H1341	H134	0.392400	0.748200	0.828400
C2181	C218	0.387790	0.793330	0.802990
C2191	C219	0.404230	0.812930	0.777930
H1351	H135	0.394200	0.834600	0.770600
C2201	C220	0.435020	0.799980	0.764380
H1361	H136	0.446500	0.813300	0.748100
C2211	C221	0.310320	0.846860	0.820220
N851	N85	0.339200	0.834480	0.803720
C2221	C222	0.355060	0.807140	0.819660
N861	N86	0.343890	0.791790	0.849870
C2231	C223	0.314340	0.806360	0.863740
N871	N87	0.296520	0.833520	0.850260
N881	N88	0.265260	0.939680	0.773900
C2241	C224	0.290340	0.921520	0.758180
H1371	H137	0.298600	0.930200	0.736400
C2251	C225	0.304620	0.890820	0.772400
H1381	H138	0.322400	0.878600	0.760600
C2261	C226	0.292740	0.878080	0.804140
C2271	C227	0.265850	0.896190	0.820170
H1391	H139	0.256400	0.887800	0.841800
C2281	C228	0.252950	0.926570	0.804250
H1401	H140	0.234400	0.938800	0.815400
N891	N89	0.273150	0.765870	0.960710
C2291	C229	0.256250	0.787790	0.942390
H1411	H141	0.234400	0.794200	0.951600
C2301	C230	0.268530	0.801430	0.911330
H1421	H142	0.255500	0.817300	0.899500
C2311	C231	0.300360	0.791740	0.897400
C2321	C232	0.318410	0.767670	0.915770
H1431	H143	0.340200	0.759600	0.906800
C2331	C233	0.303950	0.755950	0.947030
H1441	H144	0.316300	0.740100	0.959500
N901	N90	0.292280	0.986480	0.714680
C2341	C234	0.319120	0.976920	0.709220
S181	S18	0.356050	0.963770	0.702470
N911	N91	0.701950	0.657850	0.483170
C2351	C235	0.686610	0.644070	0.483050
N921	N92	0.730330	0.548790	0.492490
C2361	C236	0.746360	0.566200	0.483680
H1451	H145	0.768100	0.556900	0.479300
C2371	C237	0.733430	0.597130	0.480470
H1461	H146	0.745800	0.608400	0.475000
C2381	C238	0.702670	0.611250	0.485230
C2391	C239	0.685220	0.593500	0.494540
H1471	H147	0.663600	0.602600	0.498400
C2401	C240	0.700010	0.562390	0.498050
H1481	H148	0.688000	0.550200	0.504800
N931	N93	0.790140	0.497560	0.500980
C2411	C241	0.808740	0.490960	0.510380
S191	S19	0.834260	0.480640	0.525760
N941	N94	0.772660	0.507760	0.450300
C2421	C242	0.795940	0.519040	0.434020
H1491	H149	0.801900	0.524500	0.444300
C2431	C243	0.811760	0.523240	0.403000
H1501	H150	0.828400	0.531000	0.392400
C2441	C244	0.802990	0.515890	0.387790
C2451	C245	0.777930	0.504910	0.404230
H1511	H151	0.770600	0.500600	0.394200
C2461	C246	0.764380	0.500620	0.435020
H1521	H152	0.748100	0.492100	0.446500
C2471	C247	0.820220	0.522600	0.310320
N951	N95	0.803720	0.522600	0.339200
C2481	C248	0.819660	0.518140	0.355060
N961	N96	0.849870	0.514450	0.343890
C2491	C249	0.863740	0.515560	0.314340
N971	N97	0.850260	0.519700	0.296520
N981	N98	0.773900	0.521160	0.265260
C2501	C250	0.758180	0.529960	0.290340
H1531	H153	0.736400	0.534800	0.298600
C2511	C251	0.772400	0.532160	0.304620
H1541	H154	0.760600	0.538400	0.322400
C2521	C252	0.804140	0.525040	0.292740
C2531	C253	0.820170	0.517790	0.265850
H1551	H155	0.841800	0.514000	0.256400
C2541	C254	0.804250	0.516230	0.252950
H1561	H156	0.815400	0.511400	0.234400
N991	N99	0.960710	0.500270	0.273150
C2551	C255	0.942390	0.513570	0.256250
H1571	H157	0.951600	0.519800	0.234400
C2561	C256	0.911330	0.518710	0.268530
H1581	H158	0.899500	0.527700	0.255500
C2571	C257	0.897400	0.510500	0.300360
C2581	C258	0.915770	0.498150	0.318410
H1591	H159	0.906800	0.493400	0.340200
C2591	C259	0.947030	0.493070	0.303950
H1601	H160	0.959500	0.484100	0.316300
N1001	N100	0.714680	0.506560	0.292280
C2601	C260	0.709220	0.494740	0.319120
S201	S20	0.702470	0.477710	0.356050
N1011	N101	0.657850	0.701950	0.657030
C2611	C261	0.644070	0.686610	0.686270
N1021	N102	0.548790	0.730330	0.728390
C2621	C262	0.566200	0.746360	0.703760
H1611	H161	0.556900	0.768100	0.695700
C2631	C263	0.597130	0.733430	0.688970
H1621	H162	0.608400	0.745800	0.670800
C2641	C264	0.611250	0.702670	0.700850
C2651	C265	0.593500	0.685220	0.726740
H1631	H163	0.602600	0.663600	0.735400
C2661	C266	0.562390	0.700010	0.739550
H1641	H164	0.550200	0.688000	0.757000
N1031	N103	0.497560	0.790140	0.711320
C2671	C267	0.490960	0.808740	0.689920
S211	S21	0.480640	0.834260	0.659340
N1041	N104	0.507760	0.772660	0.769280
C2681	C268	0.519040	0.795940	0.751000
H1651	H165	0.524500	0.801900	0.729300
C2691	C269	0.523240	0.811760	0.762000
H1661	H166	0.531000	0.828400	0.748200
C2701	C270	0.515890	0.802990	0.793330
C2711	C271	0.504910	0.777930	0.812930
H1671	H167	0.500600	0.770600	0.834600
C2721	C272	0.500620	0.764380	0.799980
H1681	H168	0.492100	0.748100	0.813300
C2731	C273	0.522600	0.820220	0.846860
N1051	N105	0.522600	0.803720	0.834480
C2741	C274	0.518140	0.819660	0.807140
N1061	N106	0.514450	0.849870	0.791790
C2751	C275	0.515560	0.863740	0.806360
N1071	N107	0.519700	0.850260	0.833520
N1081	N108	0.521160	0.773900	0.939680
C2761	C276	0.529960	0.758180	0.921520
H1691	H169	0.534800	0.736400	0.930200
C2771	C277	0.532160	0.772400	0.890820
H1701	H170	0.538400	0.760600	0.878600
C2781	C278	0.525040	0.804140	0.878080
C2791	C279	0.517790	0.820170	0.896190
H1711	H171	0.514000	0.841800	0.887800
C2801	C280	0.516230	0.804250	0.926570
H1721	H172	0.511400	0.815400	0.938800
N1091	N109	0.500270	0.960710	0.765870
C2811	C281	0.513570	0.942390	0.787790
H1731	H173	0.519800	0.951600	0.794200
C2821	C282	0.518710	0.911330	0.801430
H1741	H174	0.527700	0.899500	0.817300
C2831	C283	0.510500	0.897400	0.791740
C2841	C284	0.498150	0.915770	0.767670
H1751	H175	0.493400	0.906800	0.759600
C2851	C285	0.493070	0.947030	0.755950
H1761	H176	0.484100	0.959500	0.740100
N1101	N110	0.506560	0.714680	0.986480
C2861	C286	0.494740	0.709220	0.976920
S221	S22	0.477710	0.702470	0.963770
N1111	N111	0.657030	0.483170	0.657850
C2871	C287	0.686270	0.483050	0.644070
N1121	N112	0.728390	0.492490	0.548790
C2881	C288	0.703760	0.483680	0.566200
H1771	H177	0.695700	0.479300	0.556900
C2891	C289	0.688970	0.480470	0.597130
H1781	H178	0.670800	0.475000	0.608400
C2901	C290	0.700850	0.485230	0.611250
C2911	C291	0.726740	0.494540	0.593500
H1791	H179	0.735400	0.498400	0.602600
C2921	C292	0.739550	0.498050	0.562390
H1801	H180	0.757000	0.504800	0.550200
N1131	N113	0.711320	0.500980	0.497560
C2931	C293	0.689920	0.510380	0.490960
S231	S23	0.659340	0.525760	0.480640
N1141	N114	0.769280	0.450300	0.507760
C2941	C294	0.751000	0.434020	0.519040
H1811	H181	0.729300	0.444300	0.524500
C2951	C295	0.762000	0.403000	0.523240
H1821	H182	0.748200	0.392400	0.531000
C2961	C296	0.793330	0.387790	0.515890
C2971	C297	0.812930	0.404230	0.504910
H1831	H183	0.834600	0.394200	0.500600
C2981	C298	0.799980	0.435020	0.500620
H1841	H184	0.813300	0.446500	0.492100
C2991	C299	0.846860	0.310320	0.522600
N1151	N115	0.834480	0.339200	0.522600
C3001	C300	0.807140	0.355060	0.518140
N1161	N116	0.791790	0.343890	0.514450
C3011	C301	0.806360	0.314340	0.515560
N1171	N117	0.833520	0.296520	0.519700
N1181	N118	0.939680	0.265260	0.521160
C3021	C302	0.921520	0.290340	0.529960
H1851	H185	0.930200	0.298600	0.534800
C3031	C303	0.890820	0.304620	0.532160
H1861	H186	0.878600	0.322400	0.538400
C3041	C304	0.878080	0.292740	0.525040
C3051	C305	0.896190	0.265850	0.517790
H1871	H187	0.887800	0.256400	0.514000
C3061	C306	0.926570	0.252950	0.516230
H1881	H188	0.938800	0.234400	0.511400
N1191	N119	0.765870	0.273150	0.500270
C3071	C307	0.787790	0.256250	0.513570
H1891	H189	0.794200	0.234400	0.519800
C3081	C308	0.801430	0.268530	0.518710
H1901	H190	0.817300	0.255500	0.527700
C3091	C309	0.791740	0.300360	0.510500
C3101	C310	0.767670	0.318410	0.498150
H1911	H191	0.759600	0.340200	0.493400
C3111	C311	0.755950	0.303950	0.493070
H1921	H192	0.740100	0.316300	0.484100
N1201	N120	0.986480	0.292280	0.506560
C3121	C312	0.976920	0.319120	0.494740
S241	S24	0.963770	0.356050	0.477710
N1211	N121	0.798050	0.016830	0.842150
C3131	C313	0.813390	0.016950	0.855930
N1221	N122	0.769670	0.007510	0.951210
C3141	C314	0.753640	0.016320	0.933800
H1931	H193	0.731900	0.020700	0.943100
C3151	C315	0.766570	0.019530	0.902870
H1941	H194	0.754200	0.025000	0.891600
C3161	C316	0.797330	0.014770	0.888750
C3171	C317	0.814780	0.005460	0.906500
H1951	H195	0.836400	0.001600	0.897400
C3181	C318	0.799990	0.001950	0.937610
H1961	H196	0.812000	0.995200	0.949800
N1231	N123	0.709860	0.999020	0.002440
C3191	C319	0.691260	0.989620	0.009040
S251	S25	0.665740	0.974240	0.019360
N1241	N124	0.727340	0.049700	0.992240
C3201	C320	0.704060	0.065980	0.980960
H1971	H197	0.698100	0.055700	0.975500
C3211	C321	0.688240	0.097000	0.976760
H1981	H198	0.671600	0.107600	0.969000
C3221	C322	0.697010	0.112210	0.984110
C3231	C323	0.722070	0.095770	0.995090
H1991	H199	0.729400	0.105800	0.999400
C3241	C324	0.735620	0.064980	0.999380
H2001	H200	0.751900	0.053500	0.007900
C3251	C325	0.679780	0.189680	0.977400
N1251	N125	0.696280	0.160800	0.977400
C3261	C326	0.680340	0.144940	0.981860
N1261	N126	0.650130	0.156110	0.985550
C3271	C327	0.636260	0.185660	0.984440
N1271	N127	0.649740	0.203480	0.980300
N1281	N128	0.726100	0.234740	0.978840
C3281	C328	0.741820	0.209660	0.970040
H2011	H201	0.763600	0.201400	0.965200
C3291	C329	0.727600	0.195380	0.967840
H2021	H202	0.739400	0.177600	0.961600
C3301	C330	0.695860	0.207260	0.974960
C3311	C331	0.679830	0.234150	0.982210
H2031	H203	0.658200	0.243600	0.986000
C3321	C332	0.695750	0.247050	0.983770
H2041	H204	0.684600	0.265600	0.988600
N1291	N129	0.539290	0.226850	0.999730
C3331	C333	0.557610	0.243750	0.986430
H2051	H205	0.548400	0.265600	0.980200
C3341	C334	0.588670	0.231470	0.981290
H2061	H206	0.600500	0.244500	0.972300
C3351	C335	0.602600	0.199640	0.989500
C3361	C336	0.584230	0.181590	0.001850
H2071	H207	0.593200	0.159800	0.006600
C3371	C337	0.552970	0.196050	0.006930
H2081	H208	0.540500	0.183700	0.015900
N1301	N130	0.785320	0.207720	0.993440
C3381	C338	0.790780	0.180880	0.005260
S261	S26	0.797530	0.143950	0.022290
N1311	N131	0.016830	0.798050	0.842970
C3391	C339	0.016950	0.813390	0.813730
N1321	N132	0.007510	0.769670	0.771610
C3401	C340	0.016320	0.753640	0.796240
H2091	H209	0.020700	0.731900	0.804300
C3411	C341	0.019530	0.766570	0.811030
H2101	H210	0.025000	0.754200	0.829200
C3421	C342	0.014770	0.797330	0.799150
C3431	C343	0.005460	0.814780	0.773260
H2111	H211	0.001600	0.836400	0.764600
C3441	C344	0.001950	0.799990	0.760450
H2121	H212	0.995200	0.812000	0.743000
N1331	N133	0.999020	0.709860	0.788680
C3451	C345	0.989620	0.691260	0.810080
S271	S27	0.974240	0.665740	0.840660
N1341	N134	0.049700	0.727340	0.730720
C3461	C346	0.065980	0.704060	0.749000
H2131	H213	0.055700	0.698100	0.770700
C3471	C347	0.097000	0.688240	0.738000
H2141	H214	0.107600	0.671600	0.751800
C3481	C348	0.112210	0.697010	0.706670
C3491	C349	0.095770	0.722070	0.687070
H2151	H215	0.105800	0.729400	0.665400
C3501	C350	0.064980	0.735620	0.700020
H2161	H216	0.053500	0.751900	0.686700
C3511	C351	0.189680	0.679780	0.653140
N1351	N135	0.160800	0.696280	0.665520
C3521	C352	0.144940	0.680340	0.692860
N1361	N136	0.156110	0.650130	0.708210
C3531	C353	0.185660	0.636260	0.693640
N1371	N137	0.203480	0.649740	0.666480
N1381	N138	0.234740	0.726100	0.560320
C3541	C354	0.209660	0.741820	0.578480
H2171	H217	0.201400	0.763600	0.569800
C3551	C355	0.195380	0.727600	0.609180
H2181	H218	0.177600	0.739400	0.621400
C3561	C356	0.207260	0.695860	0.621920
C3571	C357	0.234150	0.679830	0.603810
H2191	H219	0.243600	0.658200	0.612200
C3581	C358	0.247050	0.695750	0.573430
H2201	H220	0.265600	0.684600	0.561200
N1391	N139	0.226850	0.539290	0.734130
C3591	C359	0.243750	0.557610	0.712210
H2211	H221	0.265600	0.548400	0.705800
C3601	C360	0.231470	0.588670	0.698570
H2221	H222	0.244500	0.600500	0.682700
C3611	C361	0.199640	0.602600	0.708260
C3621	C362	0.181590	0.584230	0.732330
H2231	H223	0.159800	0.593200	0.740400
C3631	C363	0.196050	0.552970	0.744050
H2241	H224	0.183700	0.540500	0.759900
N1401	N140	0.207720	0.785320	0.513520
C3641	C364	0.180880	0.790780	0.523080
S281	S28	0.143950	0.797530	0.536230
N1411	N141	0.842970	0.842150	0.016830
C3651	C365	0.813730	0.855930	0.016950
N1421	N142	0.771610	0.951210	0.007510
C3661	C366	0.796240	0.933800	0.016320
H2251	H225	0.804300	0.943100	0.020700
C3671	C367	0.811030	0.902870	0.019530
H2261	H226	0.829200	0.891600	0.025000
C3681	C368	0.799150	0.888750	0.014770
C3691	C369	0.773260	0.906500	0.005460
H2271	H227	0.764600	0.897400	0.001600
C3701	C370	0.760450	0.937610	0.001950
H2281	H228	0.743000	0.949800	0.995200
N1431	N143	0.788680	0.002440	0.999020
C3711	C371	0.810080	0.009040	0.989620
S291	S29	0.840660	0.019360	0.974240
N1441	N144	0.730720	0.992240	0.049700
C3721	C372	0.749000	0.980960	0.065980
H2291	H229	0.770700	0.975500	0.055700
C3731	C373	0.738000	0.976760	0.097000
H2301	H230	0.751800	0.969000	0.107600
C3741	C374	0.706670	0.984110	0.112210
C3751	C375	0.687070	0.995090	0.095770
H2311	H231	0.665400	0.999400	0.105800
C3761	C376	0.700020	0.999380	0.064980
H2321	H232	0.686700	0.007900	0.053500
C3771	C377	0.653140	0.977400	0.189680
N1451	N145	0.665520	0.977400	0.160800
C3781	C378	0.692860	0.981860	0.144940
N1461	N146	0.708210	0.985550	0.156110
C3791	C379	0.693640	0.984440	0.185660
N1471	N147	0.666480	0.980300	0.203480
N1481	N148	0.560320	0.978840	0.234740
C3801	C380	0.578480	0.970040	0.209660
H2331	H233	0.569800	0.965200	0.201400
C3811	C381	0.609180	0.967840	0.195380
H2341	H234	0.621400	0.961600	0.177600
C3821	C382	0.621920	0.974960	0.207260
C3831	C383	0.603810	0.982210	0.234150
H2351	H235	0.612200	0.986000	0.243600
C3841	C384	0.573430	0.983770	0.247050
H2361	H236	0.561200	0.988600	0.265600
N1491	N149	0.734130	0.999730	0.226850
C3851	C385	0.712210	0.986430	0.243750
H2371	H237	0.705800	0.980200	0.265600
C3861	C386	0.698570	0.981290	0.231470
H2381	H238	0.682700	0.972300	0.244500
C3871	C387	0.708260	0.989500	0.199640
C3881	C388	0.732330	0.001850	0.181590
H2391	H239	0.740400	0.006600	0.159800
C3891	C389	0.744050	0.006930	0.196050
H2401	H240	0.759900	0.015900	0.183700
N1501	N150	0.513520	0.993440	0.207720
C3901	C390	0.523080	0.005260	0.180880
S301	S30	0.536230	0.022290	0.143950
N1511	N151	0.842150	0.842970	0.798050
C3911	C391	0.855930	0.813730	0.813390
N1521	N152	0.951210	0.771610	0.769670
C3921	C392	0.933800	0.796240	0.753640
H2411	H241	0.943100	0.804300	0.731900
C3931	C393	0.902870	0.811030	0.766570
H2421	H242	0.891600	0.829200	0.754200
C3941	C394	0.888750	0.799150	0.797330
C3951	C395	0.906500	0.773260	0.814780
H2431	H243	0.897400	0.764600	0.836400
C3961	C396	0.937610	0.760450	0.799990
H2441	H244	0.949800	0.743000	0.812000
N1531	N153	0.002440	0.788680	0.709860
C3971	C397	0.009040	0.810080	0.691260
S311	S31	0.019360	0.840660	0.665740
N1541	N154	0.992240	0.730720	0.727340
C3981	C398	0.980960	0.749000	0.704060
H2451	H245	0.975500	0.770700	0.698100
C3991	C399	0.976760	0.738000	0.688240
H2461	H246	0.969000	0.751800	0.671600
C4001	C400	0.984110	0.706670	0.697010
C4011	C401	0.995090	0.687070	0.722070
H2471	H247	0.999400	0.665400	0.729400
C4021	C402	0.999380	0.700020	0.735620
H2481	H248	0.007900	0.686700	0.751900
C4031	C403	0.977400	0.653140	0.679780
N1551	N155	0.977400	0.665520	0.696280
C4041	C404	0.981860	0.692860	0.680340
N1561	N156	0.985550	0.708210	0.650130
C4051	C405	0.984440	0.693640	0.636260
N1571	N157	0.980300	0.666480	0.649740
N1581	N158	0.978840	0.560320	0.726100
C4061	C406	0.970040	0.578480	0.741820
H2491	H249	0.965200	0.569800	0.763600
C4071	C407	0.967840	0.609180	0.727600
H2501	H250	0.961600	0.621400	0.739400
C4081	C408	0.974960	0.621920	0.695860
C4091	C409	0.982210	0.603810	0.679830
H2511	H251	0.986000	0.612200	0.658200
C4101	C410	0.983770	0.573430	0.695750
H2521	H252	0.988600	0.561200	0.684600
N1591	N159	0.999730	0.734130	0.539290
C4111	C411	0.986430	0.712210	0.557610
H2531	H253	0.980200	0.705800	0.548400
C4121	C412	0.981290	0.698570	0.588670
H2541	H254	0.972300	0.682700	0.600500
C4131	C413	0.989500	0.708260	0.602600
C4141	C414	0.001850	0.732330	0.584230
H2551	H255	0.006600	0.740400	0.593200
C4151	C415	0.006930	0.744050	0.552970
H2561	H256	0.015900	0.759900	0.540500
N1601	N160	0.993440	0.513520	0.785320
C4161	C416	0.005260	0.523080	0.790780
S321	S32	0.022290	0.536230	0.797530
N1611	N161	0.842970	0.798050	0.842150
C4171	C417	0.813730	0.813390	0.855930
N1621	N162	0.771610	0.769670	0.951210
C4181	C418	0.796240	0.753640	0.933800
H2571	H257	0.804300	0.731900	0.943100
C4191	C419	0.811030	0.766570	0.902870
H2581	H258	0.829200	0.754200	0.891600
C4201	C420	0.799150	0.797330	0.888750
C4211	C421	0.773260	0.814780	0.906500
H2591	H259	0.764600	0.836400	0.897400
C4221	C422	0.760450	0.799990	0.937610
H2601	H260	0.743000	0.812000	0.949800
N1631	N163	0.788680	0.709860	0.002440
C4231	C423	0.810080	0.691260	0.009040
S331	S33	0.840660	0.665740	0.019360
N1641	N164	0.730720	0.727340	0.992240
C4241	C424	0.749000	0.704060	0.980960
H2611	H261	0.770700	0.698100	0.975500
C4251	C425	0.738000	0.688240	0.976760
H2621	H262	0.751800	0.671600	0.969000
C4261	C426	0.706670	0.697010	0.984110
C4271	C427	0.687070	0.722070	0.995090
H2631	H263	0.665400	0.729400	0.999400
C4281	C428	0.700020	0.735620	0.999380
H2641	H264	0.686700	0.751900	0.007900
C4291	C429	0.653140	0.679780	0.977400
N1651	N165	0.665520	0.696280	0.977400
C4301	C430	0.692860	0.680340	0.981860
N1661	N166	0.708210	0.650130	0.985550
C4311	C431	0.693640	0.636260	0.984440
N1671	N167	0.666480	0.649740	0.980300
N1681	N168	0.560320	0.726100	0.978840
C4321	C432	0.578480	0.741820	0.970040
H2651	H265	0.569800	0.763600	0.965200
C4331	C433	0.609180	0.727600	0.967840
H2661	H266	0.621400	0.739400	0.961600
C4341	C434	0.621920	0.695860	0.974960
C4351	C435	0.603810	0.679830	0.982210
H2671	H267	0.612200	0.658200	0.986000
C4361	C436	0.573430	0.695750	0.983770
H2681	H268	0.561200	0.684600	0.988600
N1691	N169	0.734130	0.539290	0.999730
C4371	C437	0.712210	0.557610	0.986430
H2691	H269	0.705800	0.548400	0.980200
C4381	C438	0.698570	0.588670	0.981290
H2701	H270	0.682700	0.600500	0.972300
C4391	C439	0.708260	0.602600	0.989500
C4401	C440	0.732330	0.584230	0.001850
H2711	H271	0.740400	0.593200	0.006600
C4411	C441	0.744050	0.552970	0.006930
H2721	H272	0.759900	0.540500	0.015900
N1701	N170	0.513520	0.785320	0.993440
C4421	C442	0.523080	0.790780	0.005260
S341	S34	0.536230	0.797530	0.022290
N1711	N171	0.842150	0.016830	0.842970
C4431	C443	0.855930	0.016950	0.813730
N1721	N172	0.951210	0.007510	0.771610
C4441	C444	0.933800	0.016320	0.796240
H2731	H273	0.943100	0.020700	0.804300
C4451	C445	0.902870	0.019530	0.811030
H2741	H274	0.891600	0.025000	0.829200
C4461	C446	0.888750	0.014770	0.799150
C4471	C447	0.906500	0.005460	0.773260
H2751	H275	0.897400	0.001600	0.764600
C4481	C448	0.937610	0.001950	0.760450
H2761	H276	0.949800	0.995200	0.743000
N1731	N173	0.002440	0.999020	0.788680
C4491	C449	0.009040	0.989620	0.810080
S351	S35	0.019360	0.974240	0.840660
N1741	N174	0.992240	0.049700	0.730720
C4501	C450	0.980960	0.065980	0.749000
H2771	H277	0.975500	0.055700	0.770700
C4511	C451	0.976760	0.097000	0.738000
H2781	H278	0.969000	0.107600	0.751800
C4521	C452	0.984110	0.112210	0.706670
C4531	C453	0.995090	0.095770	0.687070
H2791	H279	0.999400	0.105800	0.665400
C4541	C454	0.999380	0.064980	0.700020
H2801	H280	0.007900	0.053500	0.686700
C4551	C455	0.977400	0.189680	0.653140
N1751	N175	0.977400	0.160800	0.665520
C4561	C456	0.981860	0.144940	0.692860
N1761	N176	0.985550	0.156110	0.708210
C4571	C457	0.984440	0.185660	0.693640
N1771	N177	0.980300	0.203480	0.666480
N1781	N178	0.978840	0.234740	0.560320
C4581	C458	0.970040	0.209660	0.578480
H2811	H281	0.965200	0.201400	0.569800
C4591	C459	0.967840	0.195380	0.609180
H2821	H282	0.961600	0.177600	0.621400
C4601	C460	0.974960	0.207260	0.621920
C4611	C461	0.982210	0.234150	0.603810
H2831	H283	0.986000	0.243600	0.612200
C4621	C462	0.983770	0.247050	0.573430
H2841	H284	0.988600	0.265600	0.561200
N1791	N179	0.999730	0.226850	0.734130
C4631	C463	0.986430	0.243750	0.712210
H2851	H285	0.980200	0.265600	0.705800
C4641	C464	0.981290	0.231470	0.698570
H2861	H286	0.972300	0.244500	0.682700
C4651	C465	0.989500	0.199640	0.708260
C4661	C466	0.001850	0.181590	0.732330
H2871	H287	0.006600	0.159800	0.740400
C4671	C467	0.006930	0.196050	0.744050
H2881	H288	0.015900	0.183700	0.759900
N1801	N180	0.993440	0.207720	0.513520
C4681	C468	0.005260	0.180880	0.523080
S361	S36	0.022290	0.143950	0.536230
N1811	N181	0.798050	0.842970	0.016830
C4691	C469	0.813390	0.813730	0.016950
N1821	N182	0.769670	0.771610	0.007510
C4701	C470	0.753640	0.796240	0.016320
H2891	H289	0.731900	0.804300	0.020700
C4711	C471	0.766570	0.811030	0.019530
H2901	H290	0.754200	0.829200	0.025000
C4721	C472	0.797330	0.799150	0.014770
C4731	C473	0.814780	0.773260	0.005460
H2911	H291	0.836400	0.764600	0.001600
C4741	C474	0.799990	0.760450	0.001950
H2921	H292	0.812000	0.743000	0.995200
N1831	N183	0.709860	0.788680	0.999020
C4751	C475	0.691260	0.810080	0.989620
S371	S37	0.665740	0.840660	0.974240
N1841	N184	0.727340	0.730720	0.049700
C4761	C476	0.704060	0.749000	0.065980
H2931	H293	0.698100	0.770700	0.055700
C4771	C477	0.688240	0.738000	0.097000
H2941	H294	0.671600	0.751800	0.107600
C4781	C478	0.697010	0.706670	0.112210
C4791	C479	0.722070	0.687070	0.095770
H2951	H295	0.729400	0.665400	0.105800
C4801	C480	0.735620	0.700020	0.064980
H2961	H296	0.751900	0.686700	0.053500
C4811	C481	0.679780	0.653140	0.189680
N1851	N185	0.696280	0.665520	0.160800
C4821	C482	0.680340	0.692860	0.144940
N1861	N186	0.650130	0.708210	0.156110
C4831	C483	0.636260	0.693640	0.185660
N1871	N187	0.649740	0.666480	0.203480
N1881	N188	0.726100	0.560320	0.234740
C4841	C484	0.741820	0.578480	0.209660
H2971	H297	0.763600	0.569800	0.201400
C4851	C485	0.727600	0.609180	0.195380
H2981	H298	0.739400	0.621400	0.177600
C4861	C486	0.695860	0.621920	0.207260
C4871	C487	0.679830	0.603810	0.234150
H2991	H299	0.658200	0.612200	0.243600
C4881	C488	0.695750	0.573430	0.247050
H3001	H300	0.684600	0.561200	0.265600
N1891	N189	0.539290	0.734130	0.226850
C4891	C489	0.557610	0.712210	0.243750
H3011	H301	0.548400	0.705800	0.265600
C4901	C490	0.588670	0.698570	0.231470
H3021	H302	0.600500	0.682700	0.244500
C4911	C491	0.602600	0.708260	0.199640
C4921	C492	0.584230	0.732330	0.181590
H3031	H303	0.593200	0.740400	0.159800
C4931	C493	0.552970	0.744050	0.196050
H3041	H304	0.540500	0.759900	0.183700
N1901	N190	0.785320	0.513520	0.207720
C4941	C494	0.790780	0.523080	0.180880
S381	S38	0.797530	0.536230	0.143950
N1911	N191	0.016830	0.842150	0.798050
C4951	C495	0.016950	0.855930	0.813390
N1921	N192	0.007510	0.951210	0.769670
C4961	C496	0.016320	0.933800	0.753640
H3051	H305	0.020700	0.943100	0.731900
C4971	C497	0.019530	0.902870	0.766570
H3061	H306	0.025000	0.891600	0.754200
C4981	C498	0.014770	0.888750	0.797330
C4991	C499	0.005460	0.906500	0.814780
H3071	H307	0.001600	0.897400	0.836400
C5001	C500	0.001950	0.937610	0.799990
H3081	H308	0.995200	0.949800	0.812000
N1931	N193	0.999020	0.002440	0.709860
C5011	C501	0.989620	0.009040	0.691260
S391	S39	0.974240	0.019360	0.665740
N1941	N194	0.049700	0.992240	0.727340
C5021	C502	0.065980	0.980960	0.704060
H3091	H309	0.055700	0.975500	0.698100
C5031	C503	0.097000	0.976760	0.688240
H3101	H310	0.107600	0.969000	0.671600
C5041	C504	0.112210	0.984110	0.697010
C5051	C505	0.095770	0.995090	0.722070
H3111	H311	0.105800	0.999400	0.729400
C5061	C506	0.064980	0.999380	0.735620
H3121	H312	0.053500	0.007900	0.751900
C5071	C507	0.189680	0.977400	0.679780
N1951	N195	0.160800	0.977400	0.696280
C5081	C508	0.144940	0.981860	0.680340
N1961	N196	0.156110	0.985550	0.650130
C5091	C509	0.185660	0.984440	0.636260
N1971	N197	0.203480	0.980300	0.649740
N1981	N198	0.234740	0.978840	0.726100
C5101	C510	0.209660	0.970040	0.741820
H3131	H313	0.201400	0.965200	0.763600
C5111	C511	0.195380	0.967840	0.727600
H3141	H314	0.177600	0.961600	0.739400
C5121	C512	0.207260	0.974960	0.695860
C5131	C513	0.234150	0.982210	0.679830
H3151	H315	0.243600	0.986000	0.658200
C5141	C514	0.247050	0.983770	0.695750
H3161	H316	0.265600	0.988600	0.684600
N1991	N199	0.226850	0.999730	0.539290
C5151	C515	0.243750	0.986430	0.557610
H3171	H317	0.265600	0.980200	0.548400
C5161	C516	0.231470	0.981290	0.588670
H3181	H318	0.244500	0.972300	0.600500
C5171	C517	0.199640	0.989500	0.602600
C5181	C518	0.181590	0.001850	0.584230
H3191	H319	0.159800	0.006600	0.593200
C5191	C519	0.196050	0.006930	0.552970
H3201	H320	0.183700	0.015900	0.540500
N2001	N200	0.207720	0.993440	0.785320
C5201	C520	0.180880	0.005260	0.790780
S401	S40	0.143950	0.022290	0.797530
N2011	N201	0.016830	0.842970	0.842150
C5211	C521	0.016950	0.813730	0.855930
N2021	N202	0.007510	0.771610	0.951210
C5221	C522	0.016320	0.796240	0.933800
H3211	H321	0.020700	0.804300	0.943100
C5231	C523	0.019530	0.811030	0.902870
H3221	H322	0.025000	0.829200	0.891600
C5241	C524	0.014770	0.799150	0.888750
C5251	C525	0.005460	0.773260	0.906500
H3231	H323	0.001600	0.764600	0.897400
C5261	C526	0.001950	0.760450	0.937610
H3241	H324	0.995200	0.743000	0.949800
N2031	N203	0.999020	0.788680	0.002440
C5271	C527	0.989620	0.810080	0.009040
S411	S41	0.974240	0.840660	0.019360
N2041	N204	0.049700	0.730720	0.992240
C5281	C528	0.065980	0.749000	0.980960
H3251	H325	0.055700	0.770700	0.975500
C5291	C529	0.097000	0.738000	0.976760
H3261	H326	0.107600	0.751800	0.969000
C5301	C530	0.112210	0.706670	0.984110
C5311	C531	0.095770	0.687070	0.995090
H3271	H327	0.105800	0.665400	0.999400
C5321	C532	0.064980	0.700020	0.999380
H3281	H328	0.053500	0.686700	0.007900
C5331	C533	0.189680	0.653140	0.977400
N2051	N205	0.160800	0.665520	0.977400
C5341	C534	0.144940	0.692860	0.981860
N2061	N206	0.156110	0.708210	0.985550
C5351	C535	0.185660	0.693640	0.984440
N2071	N207	0.203480	0.666480	0.980300
N2081	N208	0.234740	0.560320	0.978840
C5361	C536	0.209660	0.578480	0.970040
H3291	H329	0.201400	0.569800	0.965200
C5371	C537	0.195380	0.609180	0.967840
H3301	H330	0.177600	0.621400	0.961600
C5381	C538	0.207260	0.621920	0.974960
C5391	C539	0.234150	0.603810	0.982210
H3311	H331	0.243600	0.612200	0.986000
C5401	C540	0.247050	0.573430	0.983770
H3321	H332	0.265600	0.561200	0.988600
N2091	N209	0.226850	0.734130	0.999730
C5411	C541	0.243750	0.712210	0.986430
H3331	H333	0.265600	0.705800	0.980200
C5421	C542	0.231470	0.698570	0.981290
H3341	H334	0.244500	0.682700	0.972300
C5431	C543	0.199640	0.708260	0.989500
C5441	C544	0.181590	0.732330	0.001850
H3351	H335	0.159800	0.740400	0.006600
C5451	C545	0.196050	0.744050	0.006930
H3361	H336	0.183700	0.759900	0.015900
N2101	N210	0.207720	0.513520	0.993440
C5461	C546	0.180880	0.523080	0.005260
S421	S42	0.143950	0.536230	0.022290
N2111	N211	0.798050	0.842150	0.842970
C5471	C547	0.813390	0.855930	0.813730
N2121	N212	0.769670	0.951210	0.771610
C5481	C548	0.753640	0.933800	0.796240
H3371	H337	0.731900	0.943100	0.804300
C5491	C549	0.766570	0.902870	0.811030
H3381	H338	0.754200	0.891600	0.829200
C5501	C550	0.797330	0.888750	0.799150
C5511	C551	0.814780	0.906500	0.773260
H3391	H339	0.836400	0.897400	0.764600
C5521	C552	0.799990	0.937610	0.760450
H3401	H340	0.812000	0.949800	0.743000
N2131	N213	0.709860	0.002440	0.788680
C5531	C553	0.691260	0.009040	0.810080
S431	S43	0.665740	0.019360	0.840660
N2141	N214	0.727340	0.992240	0.730720
C5541	C554	0.704060	0.980960	0.749000
H3411	H341	0.698100	0.975500	0.770700
C5551	C555	0.688240	0.976760	0.738000
H3421	H342	0.671600	0.969000	0.751800
C5561	C556	0.697010	0.984110	0.706670
C5571	C557	0.722070	0.995090	0.687070
H3431	H343	0.729400	0.999400	0.665400
C5581	C558	0.735620	0.999380	0.700020
H3441	H344	0.751900	0.007900	0.686700
C5591	C559	0.679780	0.977400	0.653140
N2151	N215	0.696280	0.977400	0.665520
C5601	C560	0.680340	0.981860	0.692860
N2161	N216	0.650130	0.985550	0.708210
C5611	C561	0.636260	0.984440	0.693640
N2171	N217	0.649740	0.980300	0.666480
N2181	N218	0.726100	0.978840	0.560320
C5621	C562	0.741820	0.970040	0.578480
H3451	H345	0.763600	0.965200	0.569800
C5631	C563	0.727600	0.967840	0.609180
H3461	H346	0.739400	0.961600	0.621400
C5641	C564	0.695860	0.974960	0.621920
C5651	C565	0.679830	0.982210	0.603810
H3471	H347	0.658200	0.986000	0.612200
C5661	C566	0.695750	0.983770	0.573430
H3481	H348	0.684600	0.988600	0.561200
N2191	N219	0.539290	0.999730	0.734130
C5671	C567	0.557610	0.986430	0.712210
H3491	H349	0.548400	0.980200	0.705800
C5681	C568	0.588670	0.981290	0.698570
H3501	H350	0.600500	0.972300	0.682700
C5691	C569	0.602600	0.989500	0.708260
C5701	C570	0.584230	0.001850	0.732330
H3511	H351	0.593200	0.006600	0.740400
C5711	C571	0.552970	0.006930	0.744050
H3521	H352	0.540500	0.015900	0.759900
N2201	N220	0.785320	0.993440	0.513520
C5721	C572	0.790780	0.005260	0.523080
S441	S44	0.797530	0.022290	0.536230
N2211	N221	0.842150	0.798050	0.016830
C5731	C573	0.855930	0.813390	0.016950
N2221	N222	0.951210	0.769670	0.007510
C5741	C574	0.933800	0.753640	0.016320
H3531	H353	0.943100	0.731900	0.020700
C5751	C575	0.902870	0.766570	0.019530
H3541	H354	0.891600	0.754200	0.025000
C5761	C576	0.888750	0.797330	0.014770
C5771	C577	0.906500	0.814780	0.005460
H3551	H355	0.897400	0.836400	0.001600
C5781	C578	0.937610	0.799990	0.001950
H3561	H356	0.949800	0.812000	0.995200
N2231	N223	0.002440	0.709860	0.999020
C5791	C579	0.009040	0.691260	0.989620
S451	S45	0.019360	0.665740	0.974240
N2241	N224	0.992240	0.727340	0.049700
C5801	C580	0.980960	0.704060	0.065980
H3571	H357	0.975500	0.698100	0.055700
C5811	C581	0.976760	0.688240	0.097000
H3581	H358	0.969000	0.671600	0.107600
C5821	C582	0.984110	0.697010	0.112210
C5831	C583	0.995090	0.722070	0.095770
H3591	H359	0.999400	0.729400	0.105800
C5841	C584	0.999380	0.735620	0.064980
H3601	H360	0.007900	0.751900	0.053500
C5851	C585	0.977400	0.679780	0.189680
N2251	N225	0.977400	0.696280	0.160800
C5861	C586	0.981860	0.680340	0.144940
N2261	N226	0.985550	0.650130	0.156110
C5871	C587	0.984440	0.636260	0.185660
N2271	N227	0.980300	0.649740	0.203480
N2281	N228	0.978840	0.726100	0.234740
C5881	C588	0.970040	0.741820	0.209660
H3611	H361	0.965200	0.763600	0.201400
C5891	C589	0.967840	0.727600	0.195380
H3621	H362	0.961600	0.739400	0.177600
C5901	C590	0.974960	0.695860	0.207260
C5911	C591	0.982210	0.679830	0.234150
H3631	H363	0.986000	0.658200	0.243600
C5921	C592	0.983770	0.695750	0.247050
H3641	H364	0.988600	0.684600	0.265600
N2291	N229	0.999730	0.539290	0.226850
C5931	C593	0.986430	0.557610	0.243750
H3651	H365	0.980200	0.548400	0.265600
C5941	C594	0.981290	0.588670	0.231470
H3661	H366	0.972300	0.600500	0.244500
C5951	C595	0.989500	0.602600	0.199640
C5961	C596	0.001850	0.584230	0.181590
H3671	H367	0.006600	0.593200	0.159800
C5971	C597	0.006930	0.552970	0.196050
H3681	H368	0.015900	0.540500	0.183700
N2301	N230	0.993440	0.785320	0.207720
C5981	C598	0.005260	0.790780	0.180880
S461	S46	0.022290	0.797530	0.143950
N2311	N231	0.842970	0.016830	0.798050
C5991	C599	0.813730	0.016950	0.813390
N2321	N232	0.771610	0.007510	0.769670
C6001	C600	0.796240	0.016320	0.753640
H3691	H369	0.804300	0.020700	0.731900
C6011	C601	0.811030	0.019530	0.766570
H3701	H370	0.829200	0.025000	0.754200
C6021	C602	0.799150	0.014770	0.797330
C6031	C603	0.773260	0.005460	0.814780
H3711	H371	0.764600	0.001600	0.836400
C6041	C604	0.760450	0.001950	0.799990
H3721	H372	0.743000	0.995200	0.812000
N2331	N233	0.788680	0.999020	0.709860
C6051	C605	0.810080	0.989620	0.691260
S471	S47	0.840660	0.974240	0.665740
N2341	N234	0.730720	0.049700	0.727340
C6061	C606	0.749000	0.065980	0.704060
H3731	H373	0.770700	0.055700	0.698100
C6071	C607	0.738000	0.097000	0.688240
H3741	H374	0.751800	0.107600	0.671600
C6081	C608	0.706670	0.112210	0.697010
C6091	C609	0.687070	0.095770	0.722070
H3751	H375	0.665400	0.105800	0.729400
C6101	C610	0.700020	0.064980	0.735620
H3761	H376	0.686700	0.053500	0.751900
C6111	C611	0.653140	0.189680	0.679780
N2351	N235	0.665520	0.160800	0.696280
C6121	C612	0.692860	0.144940	0.680340
N2361	N236	0.708210	0.156110	0.650130
C6131	C613	0.693640	0.185660	0.636260
N2371	N237	0.666480	0.203480	0.649740
N2381	N238	0.560320	0.234740	0.726100
C6141	C614	0.578480	0.209660	0.741820
H3771	H377	0.569800	0.201400	0.763600
C6151	C615	0.609180	0.195380	0.727600
H3781	H378	0.621400	0.177600	0.739400
C6161	C616	0.621920	0.207260	0.695860
C6171	C617	0.603810	0.234150	0.679830
H3791	H379	0.612200	0.243600	0.658200
C6181	C618	0.573430	0.247050	0.695750
H3801	H380	0.561200	0.265600	0.684600
N2391	N239	0.734130	0.226850	0.539290
C6191	C619	0.712210	0.243750	0.557610
H3811	H381	0.705800	0.265600	0.548400
C6201	C620	0.698570	0.231470	0.588670
H3821	H382	0.682700	0.244500	0.600500
C6211	C621	0.708260	0.199640	0.602600
C6221	C622	0.732330	0.181590	0.584230
H3831	H383	0.740400	0.159800	0.593200
C6231	C623	0.744050	0.196050	0.552970
H3841	H384	0.759900	0.183700	0.540500
N2401	N240	0.513520	0.207720	0.785320
C6241	C624	0.523080	0.180880	0.790780
S481	S48	0.536230	0.143950	0.797530
N2411	N241	0.298050	0.516830	0.342970
C6251	C625	0.313390	0.516950	0.313730
N2421	N242	0.269670	0.507510	0.271610
C6261	C626	0.253640	0.516320	0.296240
H3851	H385	0.231900	0.520700	0.304300
C6271	C627	0.266570	0.519530	0.311030
H3861	H386	0.254200	0.525000	0.329200
C6281	C628	0.297330	0.514770	0.299150
C6291	C629	0.314780	0.505460	0.273260
H3871	H387	0.336400	0.501600	0.264600
C6301	C630	0.299990	0.501950	0.260450
H3881	H388	0.312000	0.495200	0.243000
N2431	N243	0.209860	0.499020	0.288680
C6311	C631	0.191260	0.489620	0.310080
S491	S49	0.165740	0.474240	0.340660
N2441	N244	0.227340	0.549700	0.230720
C6321	C632	0.204060	0.565980	0.249000
H3891	H389	0.198100	0.555700	0.270700
C6331	C633	0.188240	0.597000	0.238000
H3901	H390	0.171600	0.607600	0.251800
C6341	C634	0.197010	0.612210	0.206670
C6351	C635	0.222070	0.595770	0.187070
H3911	H391	0.229400	0.605800	0.165400
C6361	C636	0.235620	0.564980	0.200020
H3921	H392	0.251900	0.553500	0.186700
C6371	C637	0.179780	0.689680	0.153140
N2451	N245	0.196280	0.660800	0.165520
C6381	C638	0.180340	0.644940	0.192860
N2461	N246	0.150130	0.656110	0.208210
C6391	C639	0.136260	0.685660	0.193640
N2471	N247	0.149740	0.703480	0.166480
N2481	N248	0.226100	0.734740	0.060320
C6401	C640	0.241820	0.709660	0.078480
H3931	H393	0.263600	0.701400	0.069800
C6411	C641	0.227600	0.695380	0.109180
H3941	H394	0.239400	0.677600	0.121400
C6421	C642	0.195860	0.707260	0.121920
C6431	C643	0.179830	0.734150	0.103810
H3951	H395	0.158200	0.743600	0.112200
C6441	C644	0.195750	0.747050	0.073430
H3961	H396	0.184600	0.765600	0.061200
N2491	N249	0.039290	0.726850	0.234130
C6451	C645	0.057610	0.743750	0.212210
H3971	H397	0.048400	0.765600	0.205800
C6461	C646	0.088670	0.731470	0.198570
H3981	H398	0.100500	0.744500	0.182700
C6471	C647	0.102600	0.699640	0.208260
C6481	C648	0.084230	0.681590	0.232330
H3991	H399	0.093200	0.659800	0.240400
C6491	C649	0.052970	0.696050	0.244050
H4001	H400	0.040500	0.683700	0.259900
N2501	N250	0.285320	0.707720	0.013520
C6501	C650	0.290780	0.680880	0.023080
S501	S50	0.297530	0.643950	0.036230
N2511	N251	0.516830	0.298050	0.342150
C6511	C651	0.516950	0.313390	0.355930
N2521	N252	0.507510	0.269670	0.451210
C6521	C652	0.516320	0.253640	0.433800
H4011	H401	0.520700	0.231900	0.443100
C6531	C653	0.519530	0.266570	0.402870
H4021	H402	0.525000	0.254200	0.391600
C6541	C654	0.514770	0.297330	0.388750
C6551	C655	0.505460	0.314780	0.406500
H4031	H403	0.501600	0.336400	0.397400
C6561	C656	0.501950	0.299990	0.437610
H4041	H404	0.495200	0.312000	0.449800
N2531	N253	0.499020	0.209860	0.502440
C6571	C657	0.489620	0.191260	0.509040
S511	S51	0.474240	0.165740	0.519360
N2541	N254	0.549700	0.227340	0.492240
C6581	C658	0.565980	0.204060	0.480960
H4051	H405	0.555700	0.198100	0.475500
C6591	C659	0.597000	0.188240	0.476760
H4061	H406	0.607600	0.171600	0.469000
C6601	C660	0.612210	0.197010	0.484110
C6611	C661	0.595770	0.222070	0.495090
H4071	H407	0.605800	0.229400	0.499400
C6621	C662	0.564980	0.235620	0.499380
H4081	H408	0.553500	0.251900	0.507900
C6631	C663	0.689680	0.179780	0.477400
N2551	N255	0.660800	0.196280	0.477400
C6641	C664	0.644940	0.180340	0.481860
N2561	N256	0.656110	0.150130	0.485550
C6651	C665	0.685660	0.136260	0.484440
N2571	N257	0.703480	0.149740	0.480300
N2581	N258	0.734740	0.226100	0.478840
C6661	C666	0.709660	0.241820	0.470040
H4091	H409	0.701400	0.263600	0.465200
C6671	C667	0.695380	0.227600	0.467840
H4101	H410	0.677600	0.239400	0.461600
C6681	C668	0.707260	0.195860	0.474960
C6691	C669	0.734150	0.179830	0.482210
H4111	H411	0.743600	0.158200	0.486000
C6701	C670	0.747050	0.195750	0.483770
H4121	H412	0.765600	0.184600	0.488600
N2591	N259	0.726850	0.039290	0.499730
C6711	C671	0.743750	0.057610	0.486430
H4131	H413	0.765600	0.048400	0.480200
C6721	C672	0.731470	0.088670	0.481290
H4141	H414	0.744500	0.100500	0.472300
C6731	C673	0.699640	0.102600	0.489500
C6741	C674	0.681590	0.084230	0.501850
H4151	H415	0.659800	0.093200	0.506600
C6751	C675	0.696050	0.052970	0.506930
H4161	H416	0.683700	0.040500	0.515900
N2601	N260	0.707720	0.285320	0.493440
C6761	C676	0.680880	0.290780	0.505260
S521	S52	0.643950	0.297530	0.522290
N2611	N261	0.342970	0.342150	0.298050
C6771	C677	0.313730	0.355930	0.313390
N2621	N262	0.271610	0.451210	0.269670
C6781	C678	0.296240	0.433800	0.253640
H4171	H417	0.304300	0.443100	0.231900
C6791	C679	0.311030	0.402870	0.266570
H4181	H418	0.329200	0.391600	0.254200
C6801	C680	0.299150	0.388750	0.297330
C6811	C681	0.273260	0.406500	0.314780
H4191	H419	0.264600	0.397400	0.336400
C6821	C682	0.260450	0.437610	0.299990
H4201	H420	0.243000	0.449800	0.312000
N2631	N263	0.288680	0.502440	0.209860
C6831	C683	0.310080	0.509040	0.191260
S531	S53	0.340660	0.519360	0.165740
N2641	N264	0.230720	0.492240	0.227340
C6841	C684	0.249000	0.480960	0.204060
H4211	H421	0.270700	0.475500	0.198100
C6851	C685	0.238000	0.476760	0.188240
H4221	H422	0.251800	0.469000	0.171600
C6861	C686	0.206670	0.484110	0.197010
C6871	C687	0.187070	0.495090	0.222070
H4231	H423	0.165400	0.499400	0.229400
C6881	C688	0.200020	0.499380	0.235620
H4241	H424	0.186700	0.507900	0.251900
C6891	C689	0.153140	0.477400	0.179780
N2651	N265	0.165520	0.477400	0.196280
C6901	C690	0.192860	0.481860	0.180340
N2661	N266	0.208210	0.485550	0.150130
C6911	C691	0.193640	0.484440	0.136260
N2671	N267	0.166480	0.480300	0.149740
N2681	N268	0.060320	0.478840	0.226100
C6921	C692	0.078480	0.470040	0.241820
H4251	H425	0.069800	0.465200	0.263600
C6931	C693	0.109180	0.467840	0.227600
H4261	H426	0.121400	0.461600	0.239400
C6941	C694	0.121920	0.474960	0.195860
C6951	C695	0.103810	0.482210	0.179830
H4271	H427	0.112200	0.486000	0.158200
C6961	C696	0.073430	0.483770	0.195750
H4281	H428	0.061200	0.488600	0.184600
N2691	N269	0.234130	0.499730	0.039290
C6971	C697	0.212210	0.486430	0.057610
H4291	H429	0.205800	0.480200	0.048400
C6981	C698	0.198570	0.481290	0.088670
H4301	H430	0.182700	0.472300	0.100500
C6991	C699	0.208260	0.489500	0.102600
C7001	C700	0.232330	0.501850	0.084230
H4311	H431	0.240400	0.506600	0.093200
C7011	C701	0.244050	0.506930	0.052970
H4321	H432	0.259900	0.515900	0.040500
N2701	N270	0.013520	0.493440	0.285320
C7021	C702	0.023080	0.505260	0.290780
S541	S54	0.036230	0.522290	0.297530
N2711	N271	0.342150	0.342970	0.516830
C7031	C703	0.355930	0.313730	0.516950
N2721	N272	0.451210	0.271610	0.507510
C7041	C704	0.433800	0.296240	0.516320
H4331	H433	0.443100	0.304300	0.520700
C7051	C705	0.402870	0.311030	0.519530
H4341	H434	0.391600	0.329200	0.525000
C7061	C706	0.388750	0.299150	0.514770
C7071	C707	0.406500	0.273260	0.505460
H4351	H435	0.397400	0.264600	0.501600
C7081	C708	0.437610	0.260450	0.501950
H4361	H436	0.449800	0.243000	0.495200
N2731	N273	0.502440	0.288680	0.499020
C7091	C709	0.509040	0.310080	0.489620
S551	S55	0.519360	0.340660	0.474240
N2741	N274	0.492240	0.230720	0.549700
C7101	C710	0.480960	0.249000	0.565980
H4371	H437	0.475500	0.270700	0.555700
C7111	C711	0.476760	0.238000	0.597000
H4381	H438	0.469000	0.251800	0.607600
C7121	C712	0.484110	0.206670	0.612210
C7131	C713	0.495090	0.187070	0.595770
H4391	H439	0.499400	0.165400	0.605800
C7141	C714	0.499380	0.200020	0.564980
H4401	H440	0.507900	0.186700	0.553500
C7151	C715	0.477400	0.153140	0.689680
N2751	N275	0.477400	0.165520	0.660800
C7161	C716	0.481860	0.192860	0.644940
N2761	N276	0.485550	0.208210	0.656110
C7171	C717	0.484440	0.193640	0.685660
N2771	N277	0.480300	0.166480	0.703480
N2781	N278	0.478840	0.060320	0.734740
C7181	C718	0.470040	0.078480	0.709660
H4411	H441	0.465200	0.069800	0.701400
C7191	C719	0.467840	0.109180	0.695380
H4421	H442	0.461600	0.121400	0.677600
C7201	C720	0.474960	0.121920	0.707260
C7211	C721	0.482210	0.103810	0.734150
H4431	H443	0.486000	0.112200	0.743600
C7221	C722	0.483770	0.073430	0.747050
H4441	H444	0.488600	0.061200	0.765600
N2791	N279	0.499730	0.234130	0.726850
C7231	C723	0.486430	0.212210	0.743750
H4451	H445	0.480200	0.205800	0.765600
C7241	C724	0.481290	0.198570	0.731470
H4461	H446	0.472300	0.182700	0.744500
C7251	C725	0.489500	0.208260	0.699640
C7261	C726	0.501850	0.232330	0.681590
H4471	H447	0.506600	0.240400	0.659800
C7271	C727	0.506930	0.244050	0.696050
H4481	H448	0.515900	0.259900	0.683700
N2801	N280	0.493440	0.013520	0.707720
C7281	C728	0.505260	0.023080	0.680880
S561	S56	0.522290	0.036230	0.643950
N2811	N281	0.342970	0.298050	0.516830
C7291	C729	0.313730	0.313390	0.516950
N2821	N282	0.271610	0.269670	0.507510
C7301	C730	0.296240	0.253640	0.516320
H4491	H449	0.304300	0.231900	0.520700
C7311	C731	0.311030	0.266570	0.519530
H4501	H450	0.329200	0.254200	0.525000
C7321	C732	0.299150	0.297330	0.514770
C7331	C733	0.273260	0.314780	0.505460
H4511	H451	0.264600	0.336400	0.501600
C7341	C734	0.260450	0.299990	0.501950
H4521	H452	0.243000	0.312000	0.495200
N2831	N283	0.288680	0.209860	0.499020
C7351	C735	0.310080	0.191260	0.489620
S571	S57	0.340660	0.165740	0.474240
N2841	N284	0.230720	0.227340	0.549700
C7361	C736	0.249000	0.204060	0.565980
H4531	H453	0.270700	0.198100	0.555700
C7371	C737	0.238000	0.188240	0.597000
H4541	H454	0.251800	0.171600	0.607600
C7381	C738	0.206670	0.197010	0.612210
C7391	C739	0.187070	0.222070	0.595770
H4551	H455	0.165400	0.229400	0.605800
C7401	C740	0.200020	0.235620	0.564980
H4561	H456	0.186700	0.251900	0.553500
C7411	C741	0.153140	0.179780	0.689680
N2851	N285	0.165520	0.196280	0.660800
C7421	C742	0.192860	0.180340	0.644940
N2861	N286	0.208210	0.150130	0.656110
C7431	C743	0.193640	0.136260	0.685660
N2871	N287	0.166480	0.149740	0.703480
N2881	N288	0.060320	0.226100	0.734740
C7441	C744	0.078480	0.241820	0.709660
H4571	H457	0.069800	0.263600	0.701400
C7451	C745	0.109180	0.227600	0.695380
H4581	H458	0.121400	0.239400	0.677600
C7461	C746	0.121920	0.195860	0.707260
C7471	C747	0.103810	0.179830	0.734150
H4591	H459	0.112200	0.158200	0.743600
C7481	C748	0.073430	0.195750	0.747050
H4601	H460	0.061200	0.184600	0.765600
N2891	N289	0.234130	0.039290	0.726850
C7491	C749	0.212210	0.057610	0.743750
H4611	H461	0.205800	0.048400	0.765600
C7501	C750	0.198570	0.088670	0.731470
H4621	H462	0.182700	0.100500	0.744500
C7511	C751	0.208260	0.102600	0.699640
C7521	C752	0.232330	0.084230	0.681590
H4631	H463	0.240400	0.093200	0.659800
C7531	C753	0.244050	0.052970	0.696050
H4641	H464	0.259900	0.040500	0.683700
N2901	N290	0.013520	0.285320	0.707720
C7541	C754	0.023080	0.290780	0.680880
S581	S58	0.036230	0.297530	0.643950
N2911	N291	0.342150	0.516830	0.298050
C7551	C755	0.355930	0.516950	0.313390
N2921	N292	0.451210	0.507510	0.269670
C7561	C756	0.433800	0.516320	0.253640
H4651	H465	0.443100	0.520700	0.231900
C7571	C757	0.402870	0.519530	0.266570
H4661	H466	0.391600	0.525000	0.254200
C7581	C758	0.388750	0.514770	0.297330
C7591	C759	0.406500	0.505460	0.314780
H4671	H467	0.397400	0.501600	0.336400
C7601	C760	0.437610	0.501950	0.299990
H4681	H468	0.449800	0.495200	0.312000
N2931	N293	0.502440	0.499020	0.209860
C7611	C761	0.509040	0.489620	0.191260
S591	S59	0.519360	0.474240	0.165740
N2941	N294	0.492240	0.549700	0.227340
C7621	C762	0.480960	0.565980	0.204060
H4691	H469	0.475500	0.555700	0.198100
C7631	C763	0.476760	0.597000	0.188240
H4701	H470	0.469000	0.607600	0.171600
C7641	C764	0.484110	0.612210	0.197010
C7651	C765	0.495090	0.595770	0.222070
H4711	H471	0.499400	0.605800	0.229400
C7661	C766	0.499380	0.564980	0.235620
H4721	H472	0.507900	0.553500	0.251900
C7671	C767	0.477400	0.689680	0.179780
N2951	N295	0.477400	0.660800	0.196280
C7681	C768	0.481860	0.644940	0.180340
N2961	N296	0.485550	0.656110	0.150130
C7691	C769	0.484440	0.685660	0.136260
N2971	N297	0.480300	0.703480	0.149740
N2981	N298	0.478840	0.734740	0.226100
C7701	C770	0.470040	0.709660	0.241820
H4731	H473	0.465200	0.701400	0.263600
C7711	C771	0.467840	0.695380	0.227600
H4741	H474	0.461600	0.677600	0.239400
C7721	C772	0.474960	0.707260	0.195860
C7731	C773	0.482210	0.734150	0.179830
H4751	H475	0.486000	0.743600	0.158200
C7741	C774	0.483770	0.747050	0.195750
H4761	H476	0.488600	0.765600	0.184600
N2991	N299	0.499730	0.726850	0.039290
C7751	C775	0.486430	0.743750	0.057610
H4771	H477	0.480200	0.765600	0.048400
C7761	C776	0.481290	0.731470	0.088670
H4781	H478	0.472300	0.744500	0.100500
C7771	C777	0.489500	0.699640	0.102600
C7781	C778	0.501850	0.681590	0.084230
H4791	H479	0.506600	0.659800	0.093200
C7791	C779	0.506930	0.696050	0.052970
H4801	H480	0.515900	0.683700	0.040500
N3001	N300	0.493440	0.707720	0.285320
C7801	C780	0.505260	0.680880	0.290780
S601	S60	0.522290	0.643950	0.297530
N3011	N301	0.298050	0.342970	0.342150
C7811	C781	0.313390	0.313730	0.355930
N3021	N302	0.269670	0.271610	0.451210
C7821	C782	0.253640	0.296240	0.433800
H4811	H481	0.231900	0.304300	0.443100
C7831	C783	0.266570	0.311030	0.402870
H4821	H482	0.254200	0.329200	0.391600
C7841	C784	0.297330	0.299150	0.388750
C7851	C785	0.314780	0.273260	0.406500
H4831	H483	0.336400	0.264600	0.397400
C7861	C786	0.299990	0.260450	0.437610
H4841	H484	0.312000	0.243000	0.449800
N3031	N303	0.209860	0.288680	0.502440
C7871	C787	0.191260	0.310080	0.509040
S611	S61	0.165740	0.340660	0.519360
N3041	N304	0.227340	0.230720	0.492240
C7881	C788	0.204060	0.249000	0.480960
H4851	H485	0.198100	0.270700	0.475500
C7891	C789	0.188240	0.238000	0.476760
H4861	H486	0.171600	0.251800	0.469000
C7901	C790	0.197010	0.206670	0.484110
C7911	C791	0.222070	0.187070	0.495090
H4871	H487	0.229400	0.165400	0.499400
C7921	C792	0.235620	0.200020	0.499380
H4881	H488	0.251900	0.186700	0.507900
C7931	C793	0.179780	0.153140	0.477400
N3051	N305	0.196280	0.165520	0.477400
C7941	C794	0.180340	0.192860	0.481860
N3061	N306	0.150130	0.208210	0.485550
C7951	C795	0.136260	0.193640	0.484440
N3071	N307	0.149740	0.166480	0.480300
N3081	N308	0.226100	0.060320	0.478840
C7961	C796	0.241820	0.078480	0.470040
H4891	H489	0.263600	0.069800	0.465200
C7971	C797	0.227600	0.109180	0.467840
H4901	H490	0.239400	0.121400	0.461600
C7981	C798	0.195860	0.121920	0.474960
C7991	C799	0.179830	0.103810	0.482210
H4911	H491	0.158200	0.112200	0.486000
C8001	C800	0.195750	0.073430	0.483770
H4921	H492	0.184600	0.061200	0.488600
N3091	N309	0.039290	0.234130	0.499730
C8011	C801	0.057610	0.212210	0.486430
H4931	H493	0.048400	0.205800	0.480200
C8021	C802	0.088670	0.198570	0.481290
H4941	H494	0.100500	0.182700	0.472300
C8031	C803	0.102600	0.208260	0.489500
C8041	C804	0.084230	0.232330	0.501850
H4951	H495	0.093200	0.240400	0.506600
C8051	C805	0.052970	0.244050	0.506930
H4961	H496	0.040500	0.259900	0.515900
N3101	N310	0.285320	0.013520	0.493440
C8061	C806	0.290780	0.023080	0.505260
S621	S62	0.297530	0.036230	0.522290
N3111	N311	0.516830	0.342150	0.342970
C8071	C807	0.516950	0.355930	0.313730
N3121	N312	0.507510	0.451210	0.271610
C8081	C808	0.516320	0.433800	0.296240
H4971	H497	0.520700	0.443100	0.304300
C8091	C809	0.519530	0.402870	0.311030
H4981	H498	0.525000	0.391600	0.329200
C8101	C810	0.514770	0.388750	0.299150
C8111	C811	0.505460	0.406500	0.273260
H4991	H499	0.501600	0.397400	0.264600
C8121	C812	0.501950	0.437610	0.260450
H5001	H500	0.495200	0.449800	0.243000
N3131	N313	0.499020	0.502440	0.288680
C8131	C813	0.489620	0.509040	0.310080
S631	S63	0.474240	0.519360	0.340660
N3141	N314	0.549700	0.492240	0.230720
C8141	C814	0.565980	0.480960	0.249000
H5011	H501	0.555700	0.475500	0.270700
C8151	C815	0.597000	0.476760	0.238000
H5021	H502	0.607600	0.469000	0.251800
C8161	C816	0.612210	0.484110	0.206670
C8171	C817	0.595770	0.495090	0.187070
H5031	H503	0.605800	0.499400	0.165400
C8181	C818	0.564980	0.499380	0.200020
H5041	H504	0.553500	0.507900	0.186700
C8191	C819	0.689680	0.477400	0.153140
N3151	N315	0.660800	0.477400	0.165520
C8201	C820	0.644940	0.481860	0.192860
N3161	N316	0.656110	0.485550	0.208210
C8211	C821	0.685660	0.484440	0.193640
N3171	N317	0.703480	0.480300	0.166480
N3181	N318	0.734740	0.478840	0.060320
C8221	C822	0.709660	0.470040	0.078480
H5051	H505	0.701400	0.465200	0.069800
C8231	C823	0.695380	0.467840	0.109180
H5061	H506	0.677600	0.461600	0.121400
C8241	C824	0.707260	0.474960	0.121920
C8251	C825	0.734150	0.482210	0.103810
H5071	H507	0.743600	0.486000	0.112200
C8261	C826	0.747050	0.483770	0.073430
H5081	H508	0.765600	0.488600	0.061200
N3191	N319	0.726850	0.499730	0.234130
C8271	C827	0.743750	0.486430	0.212210
H5091	H509	0.765600	0.480200	0.205800
C8281	C828	0.731470	0.481290	0.198570
H5101	H510	0.744500	0.472300	0.182700
C8291	C829	0.699640	0.489500	0.208260
C8301	C830	0.681590	0.501850	0.232330
H5111	H511	0.659800	0.506600	0.240400
C8311	C831	0.696050	0.506930	0.244050
H5121	H512	0.683700	0.515900	0.259900
N3201	N320	0.707720	0.493440	0.013520
C8321	C832	0.680880	0.505260	0.023080
S641	S64	0.643950	0.522290	0.036230
N3211	N321	0.516830	0.342970	0.298050
C8331	C833	0.516950	0.313730	0.313390
N3221	N322	0.507510	0.271610	0.269670
C8341	C834	0.516320	0.296240	0.253640
H5131	H513	0.520700	0.304300	0.231900
C8351	C835	0.519530	0.311030	0.266570
H5141	H514	0.525000	0.329200	0.254200
C8361	C836	0.514770	0.299150	0.297330
C8371	C837	0.505460	0.273260	0.314780
H5151	H515	0.501600	0.264600	0.336400
C8381	C838	0.501950	0.260450	0.299990
H5161	H516	0.495200	0.243000	0.312000
N3231	N323	0.499020	0.288680	0.209860
C8391	C839	0.489620	0.310080	0.191260
S651	S65	0.474240	0.340660	0.165740
N3241	N324	0.549700	0.230720	0.227340
C8401	C840	0.565980	0.249000	0.204060
H5171	H517	0.555700	0.270700	0.198100
C8411	C841	0.597000	0.238000	0.188240
H5181	H518	0.607600	0.251800	0.171600
C8421	C842	0.612210	0.206670	0.197010
C8431	C843	0.595770	0.187070	0.222070
H5191	H519	0.605800	0.165400	0.229400
C8441	C844	0.564980	0.200020	0.235620
H5201	H520	0.553500	0.186700	0.251900
C8451	C845	0.689680	0.153140	0.179780
N3251	N325	0.660800	0.165520	0.196280
C8461	C846	0.644940	0.192860	0.180340
N3261	N326	0.656110	0.208210	0.150130
C8471	C847	0.685660	0.193640	0.136260
N3271	N327	0.703480	0.166480	0.149740
N3281	N328	0.734740	0.060320	0.226100
C8481	C848	0.709660	0.078480	0.241820
H5211	H521	0.701400	0.069800	0.263600
C8491	C849	0.695380	0.109180	0.227600
H5221	H522	0.677600	0.121400	0.239400
C8501	C850	0.707260	0.121920	0.195860
C8511	C851	0.734150	0.103810	0.179830
H5231	H523	0.743600	0.112200	0.158200
C8521	C852	0.747050	0.073430	0.195750
H5241	H524	0.765600	0.061200	0.184600
N3291	N329	0.726850	0.234130	0.039290
C8531	C853	0.743750	0.212210	0.057610
H5251	H525	0.765600	0.205800	0.048400
C8541	C854	0.731470	0.198570	0.088670
H5261	H526	0.744500	0.182700	0.100500
C8551	C855	0.699640	0.208260	0.102600
C8561	C856	0.681590	0.232330	0.084230
H5271	H527	0.659800	0.240400	0.093200
C8571	C857	0.696050	0.244050	0.052970
H5281	H528	0.683700	0.259900	0.040500
N3301	N330	0.707720	0.013520	0.285320
C8581	C858	0.680880	0.023080	0.290780
S661	S66	0.643950	0.036230	0.297530
N3311	N331	0.298050	0.342150	0.516830
C8591	C859	0.313390	0.355930	0.516950
N3321	N332	0.269670	0.451210	0.507510
C8601	C860	0.253640	0.433800	0.516320
H5291	H529	0.231900	0.443100	0.520700
C8611	C861	0.266570	0.402870	0.519530
H5301	H530	0.254200	0.391600	0.525000
C8621	C862	0.297330	0.388750	0.514770
C8631	C863	0.314780	0.406500	0.505460
H5311	H531	0.336400	0.397400	0.501600
C8641	C864	0.299990	0.437610	0.501950
H5321	H532	0.312000	0.449800	0.495200
N3331	N333	0.209860	0.502440	0.499020
C8651	C865	0.191260	0.509040	0.489620
S671	S67	0.165740	0.519360	0.474240
N3341	N334	0.227340	0.492240	0.549700
C8661	C866	0.204060	0.480960	0.565980
H5331	H533	0.198100	0.475500	0.555700
C8671	C867	0.188240	0.476760	0.597000
H5341	H534	0.171600	0.469000	0.607600
C8681	C868	0.197010	0.484110	0.612210
C8691	C869	0.222070	0.495090	0.595770
H5351	H535	0.229400	0.499400	0.605800
C8701	C870	0.235620	0.499380	0.564980
H5361	H536	0.251900	0.507900	0.553500
C8711	C871	0.179780	0.477400	0.689680
N3351	N335	0.196280	0.477400	0.660800
C8721	C872	0.180340	0.481860	0.644940
N3361	N336	0.150130	0.485550	0.656110
C8731	C873	0.136260	0.484440	0.685660
N3371	N337	0.149740	0.480300	0.703480
N3381	N338	0.226100	0.478840	0.734740
C8741	C874	0.241820	0.470040	0.709660
H5371	H537	0.263600	0.465200	0.701400
C8751	C875	0.227600	0.467840	0.695380
H5381	H538	0.239400	0.461600	0.677600
C8761	C876	0.195860	0.474960	0.707260
C8771	C877	0.179830	0.482210	0.734150
H5391	H539	0.158200	0.486000	0.743600
C8781	C878	0.195750	0.483770	0.747050
H5401	H540	0.184600	0.488600	0.765600
N3391	N339	0.039290	0.499730	0.726850
C8791	C879	0.057610	0.486430	0.743750
H5411	H541	0.048400	0.480200	0.765600
C8801	C880	0.088670	0.481290	0.731470
H5421	H542	0.100500	0.472300	0.744500
C8811	C881	0.102600	0.489500	0.699640
C8821	C882	0.084230	0.501850	0.681590
H5431	H543	0.093200	0.506600	0.659800
C8831	C883	0.052970	0.506930	0.696050
H5441	H544	0.040500	0.515900	0.683700
N3401	N340	0.285320	0.493440	0.707720
C8841	C884	0.290780	0.505260	0.680880
S681	S68	0.297530	0.522290	0.643950
N3411	N341	0.342150	0.298050	0.342970
C8851	C885	0.355930	0.313390	0.313730
N3421	N342	0.451210	0.269670	0.271610
C8861	C886	0.433800	0.253640	0.296240
H5451	H545	0.443100	0.231900	0.304300
C8871	C887	0.402870	0.266570	0.311030
H5461	H546	0.391600	0.254200	0.329200
C8881	C888	0.388750	0.297330	0.299150
C8891	C889	0.406500	0.314780	0.273260
H5471	H547	0.397400	0.336400	0.264600
C8901	C890	0.437610	0.299990	0.260450
H5481	H548	0.449800	0.312000	0.243000
N3431	N343	0.502440	0.209860	0.288680
C8911	C891	0.509040	0.191260	0.310080
S691	S69	0.519360	0.165740	0.340660
N3441	N344	0.492240	0.227340	0.230720
C8921	C892	0.480960	0.204060	0.249000
H5491	H549	0.475500	0.198100	0.270700
C8931	C893	0.476760	0.188240	0.238000
H5501	H550	0.469000	0.171600	0.251800
C8941	C894	0.484110	0.197010	0.206670
C8951	C895	0.495090	0.222070	0.187070
H5511	H551	0.499400	0.229400	0.165400
C8961	C896	0.499380	0.235620	0.200020
H5521	H552	0.507900	0.251900	0.186700
C8971	C897	0.477400	0.179780	0.153140
N3451	N345	0.477400	0.196280	0.165520
C8981	C898	0.481860	0.180340	0.192860
N3461	N346	0.485550	0.150130	0.208210
C8991	C899	0.484440	0.136260	0.193640
N3471	N347	0.480300	0.149740	0.166480
N3481	N348	0.478840	0.226100	0.060320
C9001	C900	0.470040	0.241820	0.078480
H5531	H553	0.465200	0.263600	0.069800
C9011	C901	0.467840	0.227600	0.109180
H5541	H554	0.461600	0.239400	0.121400
C9021	C902	0.474960	0.195860	0.121920
C9031	C903	0.482210	0.179830	0.103810
H5551	H555	0.486000	0.158200	0.112200
C9041	C904	0.483770	0.195750	0.073430
H5561	H556	0.488600	0.184600	0.061200
N3491	N349	0.499730	0.039290	0.234130
C9051	C905	0.486430	0.057610	0.212210
H5571	H557	0.480200	0.048400	0.205800
C9061	C906	0.481290	0.088670	0.198570
H5581	H558	0.472300	0.100500	0.182700
C9071	C907	0.489500	0.102600	0.208260
C9081	C908	0.501850	0.084230	0.232330
H5591	H559	0.506600	0.093200	0.240400
C9091	C909	0.506930	0.052970	0.244050
H5601	H560	0.515900	0.040500	0.259900
N3501	N350	0.493440	0.285320	0.013520
C9101	C910	0.505260	0.290780	0.023080
S701	S70	0.522290	0.297530	0.036230
N3511	N351	0.342970	0.516830	0.342150
C9111	C911	0.313730	0.516950	0.355930
N3521	N352	0.271610	0.507510	0.451210
C9121	C912	0.296240	0.516320	0.433800
H5611	H561	0.304300	0.520700	0.443100
C9131	C913	0.311030	0.519530	0.402870
H5621	H562	0.329200	0.525000	0.391600
C9141	C914	0.299150	0.514770	0.388750
C9151	C915	0.273260	0.505460	0.406500
H5631	H563	0.264600	0.501600	0.397400
C9161	C916	0.260450	0.501950	0.437610
H5641	H564	0.243000	0.495200	0.449800
N3531	N353	0.288680	0.499020	0.502440
C9171	C917	0.310080	0.489620	0.509040
S711	S71	0.340660	0.474240	0.519360
N3541	N354	0.230720	0.549700	0.492240
C9181	C918	0.249000	0.565980	0.480960
H5651	H565	0.270700	0.555700	0.475500
C9191	C919	0.238000	0.597000	0.476760
H5661	H566	0.251800	0.607600	0.469000
C9201	C920	0.206670	0.612210	0.484110
C9211	C921	0.187070	0.595770	0.495090
H5671	H567	0.165400	0.605800	0.499400
C9221	C922	0.200020	0.564980	0.499380
H5681	H568	0.186700	0.553500	0.507900
C9231	C923	0.153140	0.689680	0.477400
N3551	N355	0.165520	0.660800	0.477400
C9241	C924	0.192860	0.644940	0.481860
N3561	N356	0.208210	0.656110	0.485550
C9251	C925	0.193640	0.685660	0.484440
N3571	N357	0.166480	0.703480	0.480300
N3581	N358	0.060320	0.734740	0.478840
C9261	C926	0.078480	0.709660	0.470040
H5691	H569	0.069800	0.701400	0.465200
C9271	C927	0.109180	0.695380	0.467840
H5701	H570	0.121400	0.677600	0.461600
C9281	C928	0.121920	0.707260	0.474960
C9291	C929	0.103810	0.734150	0.482210
H5711	H571	0.112200	0.743600	0.486000
C9301	C930	0.073430	0.747050	0.483770
H5721	H572	0.061200	0.765600	0.488600
N3591	N359	0.234130	0.726850	0.499730
C9311	C931	0.212210	0.743750	0.486430
H5731	H573	0.205800	0.765600	0.480200
C9321	C932	0.198570	0.731470	0.481290
H5741	H574	0.182700	0.744500	0.472300
C9331	C933	0.208260	0.699640	0.489500
C9341	C934	0.232330	0.681590	0.501850
H5751	H575	0.240400	0.659800	0.506600
C9351	C935	0.244050	0.696050	0.506930
H5761	H576	0.259900	0.683700	0.515900
N3601	N360	0.013520	0.707720	0.493440
C9361	C936	0.023080	0.680880	0.505260
S721	S72	0.036230	0.643950	0.522290
N3611	N361	0.201950	0.983170	0.157850
C9371	C937	0.186610	0.983050	0.144070
N3621	N362	0.230330	0.992490	0.048790
C9381	C938	0.246360	0.983680	0.066200
H5771	H577	0.268100	0.979300	0.056900
C9391	C939	0.233430	0.980470	0.097130
H5781	H578	0.245800	0.975000	0.108400
C9401	C940	0.202670	0.985230	0.111250
C9411	C941	0.185220	0.994540	0.093500
H5791	H579	0.163600	0.998400	0.102600
C9421	C942	0.200010	0.998050	0.062390
H5801	H580	0.188000	0.004800	0.050200
N3631	N363	0.290140	0.000980	0.997560
C9431	C943	0.308740	0.010380	0.990960
S731	S73	0.334260	0.025760	0.980640
N3641	N364	0.272660	0.950300	0.007760
C9441	C944	0.295940	0.934020	0.019040
H5811	H581	0.301900	0.944300	0.024500
C9451	C945	0.311760	0.903000	0.023240
H5821	H582	0.328400	0.892400	0.031000
C9461	C946	0.302990	0.887790	0.015890
C9471	C947	0.277930	0.904230	0.004910
H5831	H583	0.270600	0.894200	0.000600
C9481	C948	0.264380	0.935020	0.000620
H5841	H584	0.248100	0.946500	0.992100
C9491	C949	0.320220	0.810320	0.022600
N3651	N365	0.303720	0.839200	0.022600
C9501	C950	0.319660	0.855060	0.018140
N3661	N366	0.349870	0.843890	0.014450
C9511	C951	0.363740	0.814340	0.015560
N3671	N367	0.350260	0.796520	0.019700
N3681	N368	0.273900	0.765260	0.021160
C9521	C952	0.258180	0.790340	0.029960
H5851	H585	0.236400	0.798600	0.034800
C9531	C953	0.272400	0.804620	0.032160
H5861	H586	0.260600	0.822400	0.038400
C9541	C954	0.304140	0.792740	0.025040
C9551	C955	0.320170	0.765850	0.017790
H5871	H587	0.341800	0.756400	0.014000
C9561	C956	0.304250	0.752950	0.016230
H5881	H588	0.315400	0.734400	0.011400
N3691	N369	0.460710	0.773150	0.000270
C9571	C957	0.442390	0.756250	0.013570
H5891	H589	0.451600	0.734400	0.019800
C9581	C958	0.411330	0.768530	0.018710
H5901	H590	0.399500	0.755500	0.027700
C9591	C959	0.397400	0.800360	0.010500
C9601	C960	0.415770	0.818410	0.998150
H5911	H591	0.406800	0.840200	0.993400
C9611	C961	0.447030	0.803950	0.993070
H5921	H592	0.459500	0.816300	0.984100
N3701	N370	0.214680	0.792280	0.006560
C9621	C962	0.209220	0.819120	0.994740
S741	S74	0.202470	0.856050	0.977710
N3711	N371	0.983170	0.201950	0.157030
C9631	C963	0.983050	0.186610	0.186270
N3721	N372	0.992490	0.230330	0.228390
C9641	C964	0.983680	0.246360	0.203760
H5931	H593	0.979300	0.268100	0.195700
C9651	C965	0.980470	0.233430	0.188970
H5941	H594	0.975000	0.245800	0.170800
C9661	C966	0.985230	0.202670	0.200850
C9671	C967	0.994540	0.185220	0.226740
H5951	H595	0.998400	0.163600	0.235400
C9681	C968	0.998050	0.200010	0.239550
H5961	H596	0.004800	0.188000	0.257000
N3731	N373	0.000980	0.290140	0.211320
C9691	C969	0.010380	0.308740	0.189920
S751	S75	0.025760	0.334260	0.159340
N3741	N374	0.950300	0.272660	0.269280
C9701	C970	0.934020	0.295940	0.251000
H5971	H597	0.944300	0.301900	0.229300
C9711	C971	0.903000	0.311760	0.262000
H5981	H598	0.892400	0.328400	0.248200
C9721	C972	0.887790	0.302990	0.293330
C9731	C973	0.904230	0.277930	0.312930
H5991	H599	0.894200	0.270600	0.334600
C9741	C974	0.935020	0.264380	0.299980
H6001	H600	0.946500	0.248100	0.313300
C9751	C975	0.810320	0.320220	0.346860
N3751	N375	0.839200	0.303720	0.334480
C9761	C976	0.855060	0.319660	0.307140
N3761	N376	0.843890	0.349870	0.291790
C9771	C977	0.814340	0.363740	0.306360
N3771	N377	0.796520	0.350260	0.333520
N3781	N378	0.765260	0.273900	0.439680
C9781	C978	0.790340	0.258180	0.421520
H6011	H601	0.798600	0.236400	0.430200
C9791	C979	0.804620	0.272400	0.390820
H6021	H602	0.822400	0.260600	0.378600
C9801	C980	0.792740	0.304140	0.378080
C9811	C981	0.765850	0.320170	0.396190
H6031	H603	0.756400	0.341800	0.387800
C9821	C982	0.752950	0.304250	0.426570
H6041	H604	0.734400	0.315400	0.438800
N3791	N379	0.773150	0.460710	0.265870
C9831	C983	0.756250	0.442390	0.287790
H6051	H605	0.734400	0.451600	0.294200
C9841	C984	0.768530	0.411330	0.301430
H6061	H606	0.755500	0.399500	0.317300
C9851	C985	0.800360	0.397400	0.291740
C9861	C986	0.818410	0.415770	0.267670
H6071	H607	0.840200	0.406800	0.259600
C9871	C987	0.803950	0.447030	0.255950
H6081	H608	0.816300	0.459500	0.240100
N3801	N380	0.792280	0.214680	0.486480
C9881	C988	0.819120	0.209220	0.476920
S761	S76	0.856050	0.202470	0.463770
N3811	N381	0.157030	0.157850	0.983170
C9891	C989	0.186270	0.144070	0.983050
N3821	N382	0.228390	0.048790	0.992490
C9901	C990	0.203760	0.066200	0.983680
H6091	H609	0.195700	0.056900	0.979300
C9911	C991	0.188970	0.097130	0.980470
H6101	H610	0.170800	0.108400	0.975000
C9921	C992	0.200850	0.111250	0.985230
C9931	C993	0.226740	0.093500	0.994540
H6111	H611	0.235400	0.102600	0.998400
C9941	C994	0.239550	0.062390	0.998050
H6121	H612	0.257000	0.050200	0.004800
N3831	N383	0.211320	0.997560	0.000980
C9951	C995	0.189920	0.990960	0.010380
S771	S77	0.159340	0.980640	0.025760
N3841	N384	0.269280	0.007760	0.950300
C9961	C996	0.251000	0.019040	0.934020
H6131	H613	0.229300	0.024500	0.944300
C9971	C997	0.262000	0.023240	0.903000
H6141	H614	0.248200	0.031000	0.892400
C9981	C998	0.293330	0.015890	0.887790
C9991	C999	0.312930	0.004910	0.904230
H6151	H615	0.334600	0.000600	0.894200
C10001	C1000	0.299980	0.000620	0.935020
H6161	H616	0.313300	0.992100	0.946500
C10011	C1001	0.346860	0.022600	0.810320
N3851	N385	0.334480	0.022600	0.839200
C10021	C1002	0.307140	0.018140	0.855060
N3861	N386	0.291790	0.014450	0.843890
C10031	C1003	0.306360	0.015560	0.814340
N3871	N387	0.333520	0.019700	0.796520
N3881	N388	0.439680	0.021160	0.765260
C10041	C1004	0.421520	0.029960	0.790340
H6171	H617	0.430200	0.034800	0.798600
C10051	C1005	0.390820	0.032160	0.804620
H6181	H618	0.378600	0.038400	0.822400
C10061	C1006	0.378080	0.025040	0.792740
C10071	C1007	0.396190	0.017790	0.765850
H6191	H619	0.387800	0.014000	0.756400
C10081	C1008	0.426570	0.016230	0.752950
H6201	H620	0.438800	0.011400	0.734400
N3891	N389	0.265870	0.000270	0.773150
C10091	C1009	0.287790	0.013570	0.756250
H6211	H621	0.294200	0.019800	0.734400
C10101	C1010	0.301430	0.018710	0.768530
H6221	H622	0.317300	0.027700	0.755500
C10111	C1011	0.291740	0.010500	0.800360
C10121	C1012	0.267670	0.998150	0.818410
H6231	H623	0.259600	0.993400	0.840200
C10131	C1013	0.255950	0.993070	0.803950
H6241	H624	0.240100	0.984100	0.816300
N3901	N390	0.486480	0.006560	0.792280
C10141	C1014	0.476920	0.994740	0.819120
S781	S78	0.463770	0.977710	0.856050
N3911	N391	0.157850	0.157030	0.201950
C10151	C1015	0.144070	0.186270	0.186610
N3921	N392	0.048790	0.228390	0.230330
C10161	C1016	0.066200	0.203760	0.246360
H6251	H625	0.056900	0.195700	0.268100
C10171	C1017	0.097130	0.188970	0.233430
H6261	H626	0.108400	0.170800	0.245800
C10181	C1018	0.111250	0.200850	0.202670
C10191	C1019	0.093500	0.226740	0.185220
H6271	H627	0.102600	0.235400	0.163600
C10201	C1020	0.062390	0.239550	0.200010
H6281	H628	0.050200	0.257000	0.188000
N3931	N393	0.997560	0.211320	0.290140
C10211	C1021	0.990960	0.189920	0.308740
S791	S79	0.980640	0.159340	0.334260
N3941	N394	0.007760	0.269280	0.272660
C10221	C1022	0.019040	0.251000	0.295940
H6291	H629	0.024500	0.229300	0.301900
C10231	C1023	0.023240	0.262000	0.311760
H6301	H630	0.031000	0.248200	0.328400
C10241	C1024	0.015890	0.293330	0.302990
C10251	C1025	0.004910	0.312930	0.277930
H6311	H631	0.000600	0.334600	0.270600
C10261	C1026	0.000620	0.299980	0.264380
H6321	H632	0.992100	0.313300	0.248100
C10271	C1027	0.022600	0.346860	0.320220
N3951	N395	0.022600	0.334480	0.303720
C10281	C1028	0.018140	0.307140	0.319660
N3961	N396	0.014450	0.291790	0.349870
C10291	C1029	0.015560	0.306360	0.363740
N3971	N397	0.019700	0.333520	0.350260
N3981	N398	0.021160	0.439680	0.273900
C10301	C1030	0.029960	0.421520	0.258180
H6331	H633	0.034800	0.430200	0.236400
C10311	C1031	0.032160	0.390820	0.272400
H6341	H634	0.038400	0.378600	0.260600
C10321	C1032	0.025040	0.378080	0.304140
C10331	C1033	0.017790	0.396190	0.320170
H6351	H635	0.014000	0.387800	0.341800
C10341	C1034	0.016230	0.426570	0.304250
H6361	H636	0.011400	0.438800	0.315400
N3991	N399	0.000270	0.265870	0.460710
C10351	C1035	0.013570	0.287790	0.442390
H6371	H637	0.019800	0.294200	0.451600
C10361	C1036	0.018710	0.301430	0.411330
H6381	H638	0.027700	0.317300	0.399500
C10371	C1037	0.010500	0.291740	0.397400
C10381	C1038	0.998150	0.267670	0.415770
H6391	H639	0.993400	0.259600	0.406800
C10391	C1039	0.993070	0.255950	0.447030
H6401	H640	0.984100	0.240100	0.459500
N4001	N400	0.006560	0.486480	0.214680
C10401	C1040	0.994740	0.476920	0.209220
S801	S80	0.977710	0.463770	0.202470
N4011	N401	0.157030	0.201950	0.157850
C10411	C1041	0.186270	0.186610	0.144070
N4021	N402	0.228390	0.230330	0.048790
C10421	C1042	0.203760	0.246360	0.066200
H6411	H641	0.195700	0.268100	0.056900
C10431	C1043	0.188970	0.233430	0.097130
H6421	H642	0.170800	0.245800	0.108400
C10441	C1044	0.200850	0.202670	0.111250
C10451	C1045	0.226740	0.185220	0.093500
H6431	H643	0.235400	0.163600	0.102600
C10461	C1046	0.239550	0.200010	0.062390
H6441	H644	0.257000	0.188000	0.050200
N4031	N403	0.211320	0.290140	0.997560
C10471	C1047	0.189920	0.308740	0.990960
S811	S81	0.159340	0.334260	0.980640
N4041	N404	0.269280	0.272660	0.007760
C10481	C1048	0.251000	0.295940	0.019040
H6451	H645	0.229300	0.301900	0.024500
C10491	C1049	0.262000	0.311760	0.023240
H6461	H646	0.248200	0.328400	0.031000
C10501	C1050	0.293330	0.302990	0.015890
C10511	C1051	0.312930	0.277930	0.004910
H6471	H647	0.334600	0.270600	0.000600
C10521	C1052	0.299980	0.264380	0.000620
H6481	H648	0.313300	0.248100	0.992100
C10531	C1053	0.346860	0.320220	0.022600
N4051	N405	0.334480	0.303720	0.022600
C10541	C1054	0.307140	0.319660	0.018140
N4061	N406	0.291790	0.349870	0.014450
C10551	C1055	0.306360	0.363740	0.015560
N4071	N407	0.333520	0.350260	0.019700
N4081	N408	0.439680	0.273900	0.021160
C10561	C1056	0.421520	0.258180	0.029960
H6491	H649	0.430200	0.236400	0.034800
C10571	C1057	0.390820	0.272400	0.032160
H6501	H650	0.378600	0.260600	0.038400
C10581	C1058	0.378080	0.304140	0.025040
C10591	C1059	0.396190	0.320170	0.017790
H6511	H651	0.387800	0.341800	0.014000
C10601	C1060	0.426570	0.304250	0.016230
H6521	H652	0.438800	0.315400	0.011400
N4091	N409	0.265870	0.460710	0.000270
C10611	C1061	0.287790	0.442390	0.013570
H6531	H653	0.294200	0.451600	0.019800
C10621	C1062	0.301430	0.411330	0.018710
H6541	H654	0.317300	0.399500	0.027700
C10631	C1063	0.291740	0.397400	0.010500
C10641	C1064	0.267670	0.415770	0.998150
H6551	H655	0.259600	0.406800	0.993400
C10651	C1065	0.255950	0.447030	0.993070
H6561	H656	0.240100	0.459500	0.984100
N4101	N410	0.486480	0.214680	0.006560
C10661	C1066	0.476920	0.209220	0.994740
S821	S82	0.463770	0.202470	0.977710
N4111	N411	0.157850	0.983170	0.157030
C10671	C1067	0.144070	0.983050	0.186270
N4121	N412	0.048790	0.992490	0.228390
C10681	C1068	0.066200	0.983680	0.203760
H6571	H657	0.056900	0.979300	0.195700
C10691	C1069	0.097130	0.980470	0.188970
H6581	H658	0.108400	0.975000	0.170800
C10701	C1070	0.111250	0.985230	0.200850
C10711	C1071	0.093500	0.994540	0.226740
H6591	H659	0.102600	0.998400	0.235400
C10721	C1072	0.062390	0.998050	0.239550
H6601	H660	0.050200	0.004800	0.257000
N4131	N413	0.997560	0.000980	0.211320
C10731	C1073	0.990960	0.010380	0.189920
S831	S83	0.980640	0.025760	0.159340
N4141	N414	0.007760	0.950300	0.269280
C10741	C1074	0.019040	0.934020	0.251000
H6611	H661	0.024500	0.944300	0.229300
C10751	C1075	0.023240	0.903000	0.262000
H6621	H662	0.031000	0.892400	0.248200
C10761	C1076	0.015890	0.887790	0.293330
C10771	C1077	0.004910	0.904230	0.312930
H6631	H663	0.000600	0.894200	0.334600
C10781	C1078	0.000620	0.935020	0.299980
H6641	H664	0.992100	0.946500	0.313300
C10791	C1079	0.022600	0.810320	0.346860
N4151	N415	0.022600	0.839200	0.334480
C10801	C1080	0.018140	0.855060	0.307140
N4161	N416	0.014450	0.843890	0.291790
C10811	C1081	0.015560	0.814340	0.306360
N4171	N417	0.019700	0.796520	0.333520
N4181	N418	0.021160	0.765260	0.439680
C10821	C1082	0.029960	0.790340	0.421520
H6651	H665	0.034800	0.798600	0.430200
C10831	C1083	0.032160	0.804620	0.390820
H6661	H666	0.038400	0.822400	0.378600
C10841	C1084	0.025040	0.792740	0.378080
C10851	C1085	0.017790	0.765850	0.396190
H6671	H667	0.014000	0.756400	0.387800
C10861	C1086	0.016230	0.752950	0.426570
H6681	H668	0.011400	0.734400	0.438800
N4191	N419	0.000270	0.773150	0.265870
C10871	C1087	0.013570	0.756250	0.287790
H6691	H669	0.019800	0.734400	0.294200
C10881	C1088	0.018710	0.768530	0.301430
H6701	H670	0.027700	0.755500	0.317300
C10891	C1089	0.010500	0.800360	0.291740
C10901	C1090	0.998150	0.818410	0.267670
H6711	H671	0.993400	0.840200	0.259600
C10911	C1091	0.993070	0.803950	0.255950
H6721	H672	0.984100	0.816300	0.240100
N4201	N420	0.006560	0.792280	0.486480
C10921	C1092	0.994740	0.819120	0.476920
S841	S84	0.977710	0.856050	0.463770
N4211	N421	0.201950	0.157030	0.983170
C10931	C1093	0.186610	0.186270	0.983050
N4221	N422	0.230330	0.228390	0.992490
C10941	C1094	0.246360	0.203760	0.983680
H6731	H673	0.268100	0.195700	0.979300
C10951	C1095	0.233430	0.188970	0.980470
H6741	H674	0.245800	0.170800	0.975000
C10961	C1096	0.202670	0.200850	0.985230
C10971	C1097	0.185220	0.226740	0.994540
H6751	H675	0.163600	0.235400	0.998400
C10981	C1098	0.200010	0.239550	0.998050
H6761	H676	0.188000	0.257000	0.004800
N4231	N423	0.290140	0.211320	0.000980
C10991	C1099	0.308740	0.189920	0.010380
S851	S85	0.334260	0.159340	0.025760
N4241	N424	0.272660	0.269280	0.950300
C11001	C1100	0.295940	0.251000	0.934020
H6771	H677	0.301900	0.229300	0.944300
C11011	C1101	0.311760	0.262000	0.903000
H6781	H678	0.328400	0.248200	0.892400
C11021	C1102	0.302990	0.293330	0.887790
C11031	C1103	0.277930	0.312930	0.904230
H6791	H679	0.270600	0.334600	0.894200
C11041	C1104	0.264380	0.299980	0.935020
H6801	H680	0.248100	0.313300	0.946500
C11051	C1105	0.320220	0.346860	0.810320
N4251	N425	0.303720	0.334480	0.839200
C11061	C1106	0.319660	0.307140	0.855060
N4261	N426	0.349870	0.291790	0.843890
C11071	C1107	0.363740	0.306360	0.814340
N4271	N427	0.350260	0.333520	0.796520
N4281	N428	0.273900	0.439680	0.765260
C11081	C1108	0.258180	0.421520	0.790340
H6811	H681	0.236400	0.430200	0.798600
C11091	C1109	0.272400	0.390820	0.804620
H6821	H682	0.260600	0.378600	0.822400
C11101	C1110	0.304140	0.378080	0.792740
C11111	C1111	0.320170	0.396190	0.765850
H6831	H683	0.341800	0.387800	0.756400
C11121	C1112	0.304250	0.426570	0.752950
H6841	H684	0.315400	0.438800	0.734400
N4291	N429	0.460710	0.265870	0.773150
C11131	C1113	0.442390	0.287790	0.756250
H6851	H685	0.451600	0.294200	0.734400
C11141	C1114	0.411330	0.301430	0.768530
H6861	H686	0.399500	0.317300	0.755500
C11151	C1115	0.397400	0.291740	0.800360
C11161	C1116	0.415770	0.267670	0.818410
H6871	H687	0.406800	0.259600	0.840200
C11171	C1117	0.447030	0.255950	0.803950
H6881	H688	0.459500	0.240100	0.816300
N4301	N430	0.214680	0.486480	0.792280
C11181	C1118	0.209220	0.476920	0.819120
S861	S86	0.202470	0.463770	0.856050
N4311	N431	0.983170	0.157850	0.201950
C11191	C1119	0.983050	0.144070	0.186610
N4321	N432	0.992490	0.048790	0.230330
C11201	C1120	0.983680	0.066200	0.246360
H6891	H689	0.979300	0.056900	0.268100
C11211	C1121	0.980470	0.097130	0.233430
H6901	H690	0.975000	0.108400	0.245800
C11221	C1122	0.985230	0.111250	0.202670
C11231	C1123	0.994540	0.093500	0.185220
H6911	H691	0.998400	0.102600	0.163600
C11241	C1124	0.998050	0.062390	0.200010
H6921	H692	0.004800	0.050200	0.188000
N4331	N433	0.000980	0.997560	0.290140
C11251	C1125	0.010380	0.990960	0.308740
S871	S87	0.025760	0.980640	0.334260
N4341	N434	0.950300	0.007760	0.272660
C11261	C1126	0.934020	0.019040	0.295940
H6931	H693	0.944300	0.024500	0.301900
C11271	C1127	0.903000	0.023240	0.311760
H6941	H694	0.892400	0.031000	0.328400
C11281	C1128	0.887790	0.015890	0.302990
C11291	C1129	0.904230	0.004910	0.277930
H6951	H695	0.894200	0.000600	0.270600
C11301	C1130	0.935020	0.000620	0.264380
H6961	H696	0.946500	0.992100	0.248100
C11311	C1131	0.810320	0.022600	0.320220
N4351	N435	0.839200	0.022600	0.303720
C11321	C1132	0.855060	0.018140	0.319660
N4361	N436	0.843890	0.014450	0.349870
C11331	C1133	0.814340	0.015560	0.363740
N4371	N437	0.796520	0.019700	0.350260
N4381	N438	0.765260	0.021160	0.273900
C11341	C1134	0.790340	0.029960	0.258180
H6971	H697	0.798600	0.034800	0.236400
C11351	C1135	0.804620	0.032160	0.272400
H6981	H698	0.822400	0.038400	0.260600
C11361	C1136	0.792740	0.025040	0.304140
C11371	C1137	0.765850	0.017790	0.320170
H6991	H699	0.756400	0.014000	0.341800
C11381	C1138	0.752950	0.016230	0.304250
H7001	H700	0.734400	0.011400	0.315400
N4391	N439	0.773150	0.000270	0.460710
C11391	C1139	0.756250	0.013570	0.442390
H7011	H701	0.734400	0.019800	0.451600
C11401	C1140	0.768530	0.018710	0.411330
H7021	H702	0.755500	0.027700	0.399500
C11411	C1141	0.800360	0.010500	0.397400
C11421	C1142	0.818410	0.998150	0.415770
H7031	H703	0.840200	0.993400	0.406800
C11431	C1143	0.803950	0.993070	0.447030
H7041	H704	0.816300	0.984100	0.459500
N4401	N440	0.792280	0.006560	0.214680
C11441	C1144	0.819120	0.994740	0.209220
S881	S88	0.856050	0.977710	0.202470
N4411	N441	0.983170	0.157030	0.157850
C11451	C1145	0.983050	0.186270	0.144070
N4421	N442	0.992490	0.228390	0.048790
C11461	C1146	0.983680	0.203760	0.066200
H7051	H705	0.979300	0.195700	0.056900
C11471	C1147	0.980470	0.188970	0.097130
H7061	H706	0.975000	0.170800	0.108400
C11481	C1148	0.985230	0.200850	0.111250
C11491	C1149	0.994540	0.226740	0.093500
H7071	H707	0.998400	0.235400	0.102600
C11501	C1150	0.998050	0.239550	0.062390
H7081	H708	0.004800	0.257000	0.050200
N4431	N443	0.000980	0.211320	0.997560
C11511	C1151	0.010380	0.189920	0.990960
S891	S89	0.025760	0.159340	0.980640
N4441	N444	0.950300	0.269280	0.007760
C11521	C1152	0.934020	0.251000	0.019040
H7091	H709	0.944300	0.229300	0.024500
C11531	C1153	0.903000	0.262000	0.023240
H7101	H710	0.892400	0.248200	0.031000
C11541	C1154	0.887790	0.293330	0.015890
C11551	C1155	0.904230	0.312930	0.004910
H7111	H711	0.894200	0.334600	0.000600
C11561	C1156	0.935020	0.299980	0.000620
H7121	H712	0.946500	0.313300	0.992100
C11571	C1157	0.810320	0.346860	0.022600
N4451	N445	0.839200	0.334480	0.022600
C11581	C1158	0.855060	0.307140	0.018140
N4461	N446	0.843890	0.291790	0.014450
C11591	C1159	0.814340	0.306360	0.015560
N4471	N447	0.796520	0.333520	0.019700
N4481	N448	0.765260	0.439680	0.021160
C11601	C1160	0.790340	0.421520	0.029960
H7131	H713	0.798600	0.430200	0.034800
C11611	C1161	0.804620	0.390820	0.032160
H7141	H714	0.822400	0.378600	0.038400
C11621	C1162	0.792740	0.378080	0.025040
C11631	C1163	0.765850	0.396190	0.017790
H7151	H715	0.756400	0.387800	0.014000
C11641	C1164	0.752950	0.426570	0.016230
H7161	H716	0.734400	0.438800	0.011400
N4491	N449	0.773150	0.265870	0.000270
C11651	C1165	0.756250	0.287790	0.013570
H7171	H717	0.734400	0.294200	0.019800
C11661	C1166	0.768530	0.301430	0.018710
H7181	H718	0.755500	0.317300	0.027700
C11671	C1167	0.800360	0.291740	0.010500
C11681	C1168	0.818410	0.267670	0.998150
H7191	H719	0.840200	0.259600	0.993400
C11691	C1169	0.803950	0.255950	0.993070
H7201	H720	0.816300	0.240100	0.984100
N4501	N450	0.792280	0.486480	0.006560
C11701	C1170	0.819120	0.476920	0.994740
S901	S90	0.856050	0.463770	0.977710
N4511	N451	0.201950	0.157850	0.157030
C11711	C1171	0.186610	0.144070	0.186270
N4521	N452	0.230330	0.048790	0.228390
C11721	C1172	0.246360	0.066200	0.203760
H7211	H721	0.268100	0.056900	0.195700
C11731	C1173	0.233430	0.097130	0.188970
H7221	H722	0.245800	0.108400	0.170800
C11741	C1174	0.202670	0.111250	0.200850
C11751	C1175	0.185220	0.093500	0.226740
H7231	H723	0.163600	0.102600	0.235400
C11761	C1176	0.200010	0.062390	0.239550
H7241	H724	0.188000	0.050200	0.257000
N4531	N453	0.290140	0.997560	0.211320
C11771	C1177	0.308740	0.990960	0.189920
S911	S91	0.334260	0.980640	0.159340
N4541	N454	0.272660	0.007760	0.269280
C11781	C1178	0.295940	0.019040	0.251000
H7251	H725	0.301900	0.024500	0.229300
C11791	C1179	0.311760	0.023240	0.262000
H7261	H726	0.328400	0.031000	0.248200
C11801	C1180	0.302990	0.015890	0.293330
C11811	C1181	0.277930	0.004910	0.312930
H7271	H727	0.270600	0.000600	0.334600
C11821	C1182	0.264380	0.000620	0.299980
H7281	H728	0.248100	0.992100	0.313300
C11831	C1183	0.320220	0.022600	0.346860
N4551	N455	0.303720	0.022600	0.334480
C11841	C1184	0.319660	0.018140	0.307140
N4561	N456	0.349870	0.014450	0.291790
C11851	C1185	0.363740	0.015560	0.306360
N4571	N457	0.350260	0.019700	0.333520
N4581	N458	0.273900	0.021160	0.439680
C11861	C1186	0.258180	0.029960	0.421520
H7291	H729	0.236400	0.034800	0.430200
C11871	C1187	0.272400	0.032160	0.390820
H7301	H730	0.260600	0.038400	0.378600
C11881	C1188	0.304140	0.025040	0.378080
C11891	C1189	0.320170	0.017790	0.396190
H7311	H731	0.341800	0.014000	0.387800
C11901	C1190	0.304250	0.016230	0.426570
H7321	H732	0.315400	0.011400	0.438800
N4591	N459	0.460710	0.000270	0.265870
C11911	C1191	0.442390	0.013570	0.287790
H7331	H733	0.451600	0.019800	0.294200
C11921	C1192	0.411330	0.018710	0.301430
H7341	H734	0.399500	0.027700	0.317300
C11931	C1193	0.397400	0.010500	0.291740
C11941	C1194	0.415770	0.998150	0.267670
H7351	H735	0.406800	0.993400	0.259600
C11951	C1195	0.447030	0.993070	0.255950
H7361	H736	0.459500	0.984100	0.240100
N4601	N460	0.214680	0.006560	0.486480
C11961	C1196	0.209220	0.994740	0.476920
S921	S92	0.202470	0.977710	0.463770
N4611	N461	0.157850	0.201950	0.983170
C11971	C1197	0.144070	0.186610	0.983050
N4621	N462	0.048790	0.230330	0.992490
C11981	C1198	0.066200	0.246360	0.983680
H7371	H737	0.056900	0.268100	0.979300
C11991	C1199	0.097130	0.233430	0.980470
H7381	H738	0.108400	0.245800	0.975000
C12001	C1200	0.111250	0.202670	0.985230
C12011	C1201	0.093500	0.185220	0.994540
H7391	H739	0.102600	0.163600	0.998400
C12021	C1202	0.062390	0.200010	0.998050
H7401	H740	0.050200	0.188000	0.004800
N4631	N463	0.997560	0.290140	0.000980
C12031	C1203	0.990960	0.308740	0.010380
S931	S93	0.980640	0.334260	0.025760
N4641	N464	0.007760	0.272660	0.950300
C12041	C1204	0.019040	0.295940	0.934020
H7411	H741	0.024500	0.301900	0.944300
C12051	C1205	0.023240	0.311760	0.903000
H7421	H742	0.031000	0.328400	0.892400
C12061	C1206	0.015890	0.302990	0.887790
C12071	C1207	0.004910	0.277930	0.904230
H7431	H743	0.000600	0.270600	0.894200
C12081	C1208	0.000620	0.264380	0.935020
H7441	H744	0.992100	0.248100	0.946500
C12091	C1209	0.022600	0.320220	0.810320
N4651	N465	0.022600	0.303720	0.839200
C12101	C1210	0.018140	0.319660	0.855060
N4661	N466	0.014450	0.349870	0.843890
C12111	C1211	0.015560	0.363740	0.814340
N4671	N467	0.019700	0.350260	0.796520
N4681	N468	0.021160	0.273900	0.765260
C12121	C1212	0.029960	0.258180	0.790340
H7451	H745	0.034800	0.236400	0.798600
C12131	C1213	0.032160	0.272400	0.804620
H7461	H746	0.038400	0.260600	0.822400
C12141	C1214	0.025040	0.304140	0.792740
C12151	C1215	0.017790	0.320170	0.765850
H7471	H747	0.014000	0.341800	0.756400
C12161	C1216	0.016230	0.304250	0.752950
H7481	H748	0.011400	0.315400	0.734400
N4691	N469	0.000270	0.460710	0.773150
C12171	C1217	0.013570	0.442390	0.756250
H7491	H749	0.019800	0.451600	0.734400
C12181	C1218	0.018710	0.411330	0.768530
H7501	H750	0.027700	0.399500	0.755500
C12191	C1219	0.010500	0.397400	0.800360
C12201	C1220	0.998150	0.415770	0.818410
H7511	H751	0.993400	0.406800	0.840200
C12211	C1221	0.993070	0.447030	0.803950
H7521	H752	0.984100	0.459500	0.816300
N4701	N470	0.006560	0.214680	0.792280
C12221	C1222	0.994740	0.209220	0.819120
S941	S94	0.977710	0.202470	0.856050
N4711	N471	0.157030	0.983170	0.201950
C12231	C1223	0.186270	0.983050	0.186610
N4721	N472	0.228390	0.992490	0.230330
C12241	C1224	0.203760	0.983680	0.246360
H7531	H753	0.195700	0.979300	0.268100
C12251	C1225	0.188970	0.980470	0.233430
H7541	H754	0.170800	0.975000	0.245800
C12261	C1226	0.200850	0.985230	0.202670
C12271	C1227	0.226740	0.994540	0.185220
H7551	H755	0.235400	0.998400	0.163600
C12281	C1228	0.239550	0.998050	0.200010
H7561	H756	0.257000	0.004800	0.188000
N4731	N473	0.211320	0.000980	0.290140
C12291	C1229	0.189920	0.010380	0.308740
S951	S95	0.159340	0.025760	0.334260
N4741	N474	0.269280	0.950300	0.272660
C12301	C1230	0.251000	0.934020	0.295940
H7571	H757	0.229300	0.944300	0.301900
C12311	C1231	0.262000	0.903000	0.311760
H7581	H758	0.248200	0.892400	0.328400
C12321	C1232	0.293330	0.887790	0.302990
C12331	C1233	0.312930	0.904230	0.277930
H7591	H759	0.334600	0.894200	0.270600
C12341	C1234	0.299980	0.935020	0.264380
H7601	H760	0.313300	0.946500	0.248100
C12351	C1235	0.346860	0.810320	0.320220
N4751	N475	0.334480	0.839200	0.303720
C12361	C1236	0.307140	0.855060	0.319660
N4761	N476	0.291790	0.843890	0.349870
C12371	C1237	0.306360	0.814340	0.363740
N4771	N477	0.333520	0.796520	0.350260
N4781	N478	0.439680	0.765260	0.273900
C12381	C1238	0.421520	0.790340	0.258180
H7611	H761	0.430200	0.798600	0.236400
C12391	C1239	0.390820	0.804620	0.272400
H7621	H762	0.378600	0.822400	0.260600
C12401	C1240	0.378080	0.792740	0.304140
C12411	C1241	0.396190	0.765850	0.320170
H7631	H763	0.387800	0.756400	0.341800
C12421	C1242	0.426570	0.752950	0.304250
H7641	H764	0.438800	0.734400	0.315400
N4791	N479	0.265870	0.773150	0.460710
C12431	C1243	0.287790	0.756250	0.442390
H7651	H765	0.294200	0.734400	0.451600
C12441	C1244	0.301430	0.768530	0.411330
H7661	H766	0.317300	0.755500	0.399500
C12451	C1245	0.291740	0.800360	0.397400
C12461	C1246	0.267670	0.818410	0.415770
H7671	H767	0.259600	0.840200	0.406800
C12471	C1247	0.255950	0.803950	0.447030
H7681	H768	0.240100	0.816300	0.459500
N4801	N480	0.486480	0.792280	0.214680
C12481	C1248	0.476920	0.819120	0.209220
S961	S96	0.463770	0.856050	0.202470
Co11	Co1	0.750400	0.499600	0.750400
Co21	Co2	0.499600	0.750400	0.499600
Co31	Co3	0.750400	0.750400	0.499600
Co41	Co4	0.499600	0.499600	0.750400
Co51	Co5	0.499600	0.750400	0.750400
Co61	Co6	0.750400	0.499600	0.499600
Co71	Co7	0.749600	0.000400	0.000400
Co81	Co8	0.000400	0.749600	0.749600
Co91	Co9	0.749600	0.749600	0.000400
Co101	Co10	0.000400	0.000400	0.749600
Co111	Co11	0.000400	0.749600	0.000400
Co121	Co12	0.749600	0.000400	0.749600
Co131	Co13	0.249600	0.500400	0.249600
Co141	Co14	0.500400	0.249600	0.500400
Co151	Co15	0.249600	0.249600	0.500400
Co161	Co16	0.500400	0.500400	0.249600
Co171	Co17	0.500400	0.249600	0.249600
Co181	Co18	0.249600	0.500400	0.500400
Co191	Co19	0.250400	0.999600	0.999600
Co201	Co20	0.999600	0.250400	0.250400
Co211	Co21	0.250400	0.250400	0.999600
Co221	Co22	0.999600	0.999600	0.250400
Co231	Co23	0.999600	0.250400	0.999600
Co241	Co24	0.250400	0.999600	0.250400
Co251	Co25	0.750000	0.250000	0.989240
Co261	Co26	0.250000	0.750000	0.510760
Co271	Co27	0.989240	0.510760	0.750000
Co281	Co28	0.510760	0.989240	0.250000
Co291	Co29	0.989240	0.750000	0.250000
Co301	Co30	0.510760	0.250000	0.750000
Co311	Co31	0.750000	0.989240	0.510760
Co321	Co32	0.250000	0.510760	0.989240
Co331	Co33	0.250000	0.989240	0.750000
Co341	Co34	0.750000	0.510760	0.250000
Co351	Co35	0.510760	0.750000	0.989240
Co361	Co36	0.989240	0.250000	0.510760
Co371	Co37	0.250000	0.750000	0.010760
Co381	Co38	0.750000	0.250000	0.489240
Co391	Co39	0.010760	0.489240	0.250000
Co401	Co40	0.489240	0.010760	0.750000
Co411	Co41	0.010760	0.250000	0.750000
Co421	Co42	0.489240	0.750000	0.250000
Co431	Co43	0.250000	0.010760	0.489240
Co441	Co44	0.750000	0.489240	0.010760
Co451	Co45	0.750000	0.010760	0.250000
Co461	Co46	0.250000	0.489240	0.750000
Co471	Co47	0.489240	0.250000	0.010760
Co481	Co48	0.010760	0.750000	0.489240
