data_PYDCUT_freeONLY_PM
_symmetry_space_group_name_H-M	'P1'
_cell_length_a	11.238000
_cell_length_b	11.644000
_cell_length_c	10.020000
_cell_angle_alpha	90.000000
_cell_angle_beta	102.670000
_cell_angle_gamma	90.000000
_symmetry_Int_Tables_number 1

loop_
_symmetry_equiv_pos_as_xyz
'x,y,z'

loop_
_atom_site_label
_atom_site_type_symbol
_atom_site_fract_x
_atom_site_fract_y
_atom_site_fract_z
Cu11	Cu1	0.250000	0.574500	0.250000
Cu21	Cu2	0.431000	0.404800	0.293400
S11	S1	0.158400	0.674800	0.054500
C11	C1	0.071900	0.758200	0.123900
N11	N1	0.013500	0.817500	0.174600
S21	S2	0.208500	0.372700	0.203200
C21	C2	0.212700	0.380100	0.038600
N21	N2	0.216200	0.385700	0.924600
S31	S3	0.468100	0.608500	0.269400
C31	C3	0.464000	0.616000	0.103100
N31	N3	0.463500	0.620100	0.989000
Cu31	Cu3	0.750000	0.074500	0.250000
Cu41	Cu4	0.931000	0.904800	0.293400
S41	S4	0.658400	0.174800	0.054500
C41	C4	0.571900	0.258200	0.123900
N41	N4	0.513500	0.317500	0.174600
S51	S5	0.708500	0.872700	0.203200
C51	C5	0.712700	0.880100	0.038600
N51	N5	0.716200	0.885700	0.924600
S61	S6	0.968100	0.108500	0.269400
C61	C6	0.964000	0.116000	0.103100
N61	N6	0.963500	0.120100	0.989000
Cu51	Cu5	0.250000	0.425500	0.750000
Cu61	Cu6	0.431000	0.595200	0.793400
S71	S7	0.158400	0.325200	0.554500
C71	C7	0.071900	0.241800	0.623900
N71	N7	0.013500	0.182500	0.674600
S81	S8	0.208500	0.627300	0.703200
C81	C8	0.212700	0.619900	0.538600
N81	N8	0.216200	0.614300	0.424600
S91	S9	0.468100	0.391500	0.769400
C91	C9	0.464000	0.384000	0.603100
N91	N9	0.463500	0.379900	0.489000
Cu71	Cu7	0.750000	0.925500	0.750000
Cu81	Cu8	0.931000	0.095200	0.793400
S101	S10	0.658400	0.825200	0.554500
C101	C10	0.571900	0.741800	0.623900
N101	N10	0.513500	0.682500	0.674600
S111	S11	0.708500	0.127300	0.703200
C111	C11	0.712700	0.119900	0.538600
N111	N11	0.716200	0.114300	0.424600
S121	S12	0.968100	0.891500	0.769400
C121	C12	0.964000	0.884000	0.603100
N121	N12	0.963500	0.879900	0.489000
