data_QACRES_freeONLY_PM
_symmetry_space_group_name_H-M	'P1'
_cell_length_a	8.861000
_cell_length_b	18.624000
_cell_length_c	9.329000
_cell_angle_alpha	90.000000
_cell_angle_beta	118.270000
_cell_angle_gamma	90.000000
_symmetry_Int_Tables_number 1

loop_
_symmetry_equiv_pos_as_xyz
'x,y,z'

loop_
_atom_site_label
_atom_site_type_symbol
_atom_site_fract_x
_atom_site_fract_y
_atom_site_fract_z
Ga11	Ga1	0.494600	0.220100	0.855400
Ga21	Ga2	0.399700	0.441900	0.877100
Ga31	Ga3	0.987200	0.179400	0.816100
P11	P1	0.219900	0.098700	0.699600
P21	P2	0.239000	0.306500	0.952300
P31	P3	0.880900	0.162800	0.095600
F11	F1	0.575000	0.513700	0.914100
O11	O1	0.703900	0.197900	0.020200
O21	O2	0.155000	0.123200	0.819200
O31	O3	0.224400	0.378000	0.867800
O41	O4	0.284400	0.319900	0.130700
O51	O5	0.885300	0.093300	0.181100
O61	O6	0.264900	0.018000	0.724400
O71	O7	0.390700	0.138600	0.746100
O81	O8	0.090800	0.118000	0.525000
O91	O9	0.010400	0.217500	0.213700
O101	O10	0.062100	0.271400	0.867400
O111	O11	0.932700	0.143500	0.965400
O121	O12	0.374700	0.256300	0.952000
Ga41	Ga4	0.005400	0.720100	0.644600
Ga51	Ga5	0.100300	0.941900	0.622900
Ga61	Ga6	0.512800	0.679400	0.683900
P41	P4	0.280100	0.598700	0.800400
P51	P5	0.261000	0.806500	0.547700
P61	P6	0.619100	0.662800	0.404400
F21	F2	0.925000	0.013700	0.585900
O131	O13	0.796100	0.697900	0.479800
O141	O14	0.345000	0.623200	0.680800
O151	O15	0.275600	0.878000	0.632200
O161	O16	0.215600	0.819900	0.369300
O171	O17	0.614700	0.593300	0.318900
O181	O18	0.235100	0.518000	0.775600
O191	O19	0.109300	0.638600	0.753900
O201	O20	0.409200	0.618000	0.975000
O211	O21	0.489600	0.717500	0.286300
O221	O22	0.437900	0.771400	0.632600
O231	O23	0.567300	0.643500	0.534600
O241	O24	0.125300	0.756300	0.548000
Ga71	Ga7	0.505400	0.779900	0.144600
Ga81	Ga8	0.600300	0.558100	0.122900
Ga91	Ga9	0.012800	0.820600	0.183900
P71	P7	0.780100	0.901300	0.300400
P81	P8	0.761000	0.693500	0.047700
P91	P9	0.119100	0.837200	0.904400
F31	F3	0.425000	0.486300	0.085900
O251	O25	0.296100	0.802100	0.979800
O261	O26	0.845000	0.876800	0.180800
O271	O27	0.775600	0.622000	0.132200
O281	O28	0.715600	0.680100	0.869300
O291	O29	0.114700	0.906700	0.818900
O301	O30	0.735100	0.982000	0.275600
O311	O31	0.609300	0.861400	0.253900
O321	O32	0.909200	0.882000	0.475000
O331	O33	0.989600	0.782500	0.786300
O341	O34	0.937900	0.728600	0.132600
O351	O35	0.067300	0.856500	0.034600
O361	O36	0.625300	0.743700	0.048000
Ga101	Ga10	0.994600	0.279900	0.355400
Ga111	Ga11	0.899700	0.058100	0.377100
Ga121	Ga12	0.487200	0.320600	0.316100
P101	P10	0.719900	0.401300	0.199600
P111	P11	0.739000	0.193500	0.452300
P121	P12	0.380900	0.337200	0.595600
F41	F4	0.075000	0.986300	0.414100
O371	O37	0.203900	0.302100	0.520200
O381	O38	0.655000	0.376800	0.319200
O391	O39	0.724400	0.122000	0.367800
O401	O40	0.784400	0.180100	0.630700
O411	O41	0.385300	0.406700	0.681100
O421	O42	0.764900	0.482000	0.224400
O431	O43	0.890700	0.361400	0.246100
O441	O44	0.590800	0.382000	0.025000
O451	O45	0.510400	0.282500	0.713700
O461	O46	0.562100	0.228600	0.367400
O471	O47	0.432700	0.356500	0.465400
O481	O48	0.874700	0.243700	0.452000
