data_QADBII_freeONLY_PM
_symmetry_space_group_name_H-M	'P1'
_cell_length_a	10.072500
_cell_length_b	10.229700
_cell_length_c	23.500000
_cell_angle_alpha	90.000000
_cell_angle_beta	90.000000
_cell_angle_gamma	90.000000
_symmetry_Int_Tables_number 1

loop_
_symmetry_equiv_pos_as_xyz
'x,y,z'

loop_
_atom_site_label
_atom_site_type_symbol
_atom_site_fract_x
_atom_site_fract_y
_atom_site_fract_z
Sn11	Sn1	0.547260	0.678070	0.235390
Sn21	Sn2	0.326010	0.800320	0.025130
H11	H1	0.318700	0.626500	0.191500
H21	H2	0.298700	0.737700	0.236600
H31	H3	0.354100	0.771400	0.176000
H41	H4	0.541700	0.768700	0.340300
H51	H5	0.680100	0.701700	0.331400
H61	H6	0.655100	0.843000	0.308000
H71	H7	0.691700	0.562300	0.161800
H81	H8	0.752400	0.535100	0.222100
H91	H9	0.628600	0.455400	0.201200
H101	H10	0.612800	0.092800	0.125400
H111	H11	0.788100	0.886800	0.094300
H121	H12	0.759800	0.010100	0.056700
H131	H13	0.872800	0.932100	0.198800
H141	H14	0.048600	0.040700	0.240100
H151	H15	0.099400	0.255900	0.213100
H161	H16	0.934400	0.378300	0.168900
H171	H17	0.745300	0.273500	0.135300
H181	H18	0.108800	0.917100	0.058400
H191	H19	0.165100	0.839500	0.110700
H201	H20	0.226400	0.975100	0.094100
H211	H21	0.276700	0.868500	0.924200
H221	H22	0.379500	0.967500	0.949700
H231	H23	0.427200	0.830600	0.927900
H241	H24	0.487300	0.612900	0.061300
H251	H25	0.343300	0.575100	0.080700
H261	H26	0.388700	0.549000	0.017900
C11	C1	0.353500	0.707000	0.205900
C21	C2	0.616000	0.759000	0.314800
C31	C3	0.672000	0.539000	0.200500
C41	C4	0.616000	0.945000	0.180200
C51	C5	0.677000	0.026000	0.137000
C61	C6	0.720000	0.949000	0.083600
C71	C7	0.610000	0.879000	0.054900
C81	C8	0.799000	0.092700	0.159400
C91	C9	0.886000	0.021000	0.192400
C101	C10	0.992000	0.085000	0.215400
C111	C11	0.019000	0.218000	0.202600
C121	C12	0.924000	0.289000	0.174200
C131	C13	0.812000	0.225600	0.153400
C141	C14	0.188000	0.896000	0.079600
C151	C15	0.356000	0.877000	0.946300
C161	C16	0.396000	0.607000	0.049700
O11	O1	0.533200	0.990000	0.215500
O21	O2	0.644500	0.819800	0.180000
O31	O3	0.491100	0.905000	0.069300
O41	O4	0.635200	0.804200	0.011600
Sn31	Sn3	0.673990	0.300320	0.474870
Sn41	Sn4	0.452740	0.178070	0.264610
H271	H27	0.387200	0.592800	0.374600
H281	H28	0.211900	0.386800	0.405700
H291	H29	0.240200	0.510100	0.443300
H301	H30	0.127200	0.432100	0.301200
H311	H31	0.951400	0.540700	0.259900
H321	H32	0.900600	0.755900	0.286900
H331	H33	0.065600	0.878300	0.331100
H341	H34	0.254700	0.773500	0.364700
H351	H35	0.891200	0.417100	0.441600
H361	H36	0.834900	0.339500	0.389300
H371	H37	0.773600	0.475100	0.405900
H381	H38	0.723300	0.368500	0.575800
H391	H39	0.620500	0.467500	0.550300
H401	H40	0.572800	0.330600	0.572100
H411	H41	0.512700	0.112900	0.438700
H421	H42	0.656700	0.075100	0.419300
H431	H43	0.611300	0.049000	0.482100
H441	H44	0.681300	0.126500	0.308500
H451	H45	0.701300	0.237700	0.263400
H461	H46	0.645900	0.271400	0.324000
H471	H47	0.458300	0.268700	0.159700
H481	H48	0.319900	0.201700	0.168600
H491	H49	0.344900	0.343000	0.192000
H501	H50	0.308300	0.062300	0.338200
H511	H51	0.247600	0.035100	0.277900
H521	H52	0.371400	0.955400	0.298800
C171	C17	0.384000	0.445000	0.319800
C181	C18	0.323000	0.526000	0.363000
C191	C19	0.280000	0.449000	0.416400
C201	C20	0.390000	0.379000	0.445100
C211	C21	0.201000	0.592700	0.340600
C221	C22	0.114000	0.521000	0.307600
C231	C23	0.008000	0.585000	0.284600
C241	C24	0.981000	0.718000	0.297400
C251	C25	0.076000	0.789000	0.325800
C261	C26	0.188000	0.725600	0.346600
C271	C27	0.812000	0.396000	0.420400
C281	C28	0.644000	0.377000	0.553700
C291	C29	0.604000	0.107000	0.450300
C301	C30	0.646500	0.207000	0.294100
C311	C31	0.384000	0.259000	0.185200
C321	C32	0.328000	0.039000	0.299500
O51	O5	0.466800	0.490000	0.284500
O61	O6	0.355500	0.319800	0.320000
O71	O7	0.508900	0.405000	0.430700
O81	O8	0.364800	0.304200	0.488400
Sn51	Sn5	0.952740	0.321930	0.735390
Sn61	Sn6	0.173990	0.199680	0.525130
H531	H53	0.181300	0.373500	0.691500
H541	H54	0.201300	0.262300	0.736600
H551	H55	0.145900	0.228600	0.676000
H561	H56	0.958300	0.231300	0.840300
H571	H57	0.819900	0.298300	0.831400
H581	H58	0.844900	0.157000	0.808000
H591	H59	0.808300	0.437700	0.661800
H601	H60	0.747600	0.464900	0.722100
H611	H61	0.871400	0.544600	0.701200
H621	H62	0.887200	0.907200	0.625400
H631	H63	0.711900	0.113200	0.594300
H641	H64	0.740200	0.989900	0.556700
H651	H65	0.627200	0.067900	0.698800
H661	H66	0.451400	0.959300	0.740100
H671	H67	0.400600	0.744100	0.713100
H681	H68	0.565600	0.621700	0.668900
H691	H69	0.754700	0.726500	0.635300
H701	H70	0.391200	0.082900	0.558400
H711	H71	0.334900	0.160500	0.610700
H721	H72	0.273600	0.024900	0.594100
H731	H73	0.223300	0.131500	0.424200
H741	H74	0.120500	0.032500	0.449700
H751	H75	0.072800	0.169400	0.427900
H761	H76	0.012700	0.387100	0.561300
H771	H77	0.156700	0.424900	0.580700
H781	H78	0.111300	0.451000	0.517900
C331	C33	0.146500	0.293000	0.705900
C341	C34	0.884000	0.241000	0.814800
C351	C35	0.828000	0.461000	0.700500
C361	C36	0.884000	0.055000	0.680200
C371	C37	0.823000	0.974000	0.637000
C381	C38	0.780000	0.051000	0.583600
C391	C39	0.890000	0.121000	0.554900
C401	C40	0.701000	0.907300	0.659400
C411	C41	0.614000	0.979000	0.692400
C421	C42	0.508000	0.915000	0.715400
C431	C43	0.481000	0.782000	0.702600
C441	C44	0.576000	0.711000	0.674200
C451	C45	0.688000	0.774400	0.653400
C461	C46	0.312000	0.104000	0.579600
C471	C47	0.144000	0.123000	0.446300
C481	C48	0.104000	0.393000	0.549700
O91	O9	0.966800	0.010000	0.715500
O101	O10	0.855500	0.180200	0.680000
O111	O11	0.008900	0.095000	0.569300
O121	O12	0.864800	0.195800	0.511600
Sn71	Sn7	0.826010	0.699680	0.974870
Sn81	Sn8	0.047260	0.821930	0.764610
H791	H79	0.112800	0.407200	0.874600
H801	H80	0.288100	0.613200	0.905700
H811	H81	0.259800	0.489900	0.943300
H821	H82	0.372800	0.567900	0.801200
H831	H83	0.548600	0.459300	0.759900
H841	H84	0.599400	0.244100	0.786900
H851	H85	0.434400	0.121700	0.831100
H861	H86	0.245300	0.226500	0.864700
H871	H87	0.608800	0.582900	0.941600
H881	H88	0.665100	0.660500	0.889300
H891	H89	0.726400	0.524900	0.905900
H901	H90	0.776700	0.631500	0.075800
H911	H91	0.879500	0.532500	0.050300
H921	H92	0.927200	0.669400	0.072100
H931	H93	0.987300	0.887100	0.938700
H941	H94	0.843300	0.924900	0.919300
H951	H95	0.888700	0.951000	0.982100
H961	H96	0.818700	0.873500	0.808500
H971	H97	0.798700	0.762300	0.763400
H981	H98	0.854100	0.728600	0.824000
H991	H99	0.041700	0.731300	0.659700
H1001	H100	0.180100	0.798300	0.668600
H1011	H101	0.155100	0.657000	0.692000
H1021	H102	0.191700	0.937700	0.838200
H1031	H103	0.252400	0.964900	0.777900
H1041	H104	0.128600	0.044600	0.798800
C491	C49	0.116000	0.555000	0.819800
C501	C50	0.177000	0.474000	0.863000
C511	C51	0.220000	0.551000	0.916400
C521	C52	0.110000	0.621000	0.945100
C531	C53	0.299000	0.407300	0.840600
C541	C54	0.386000	0.479000	0.807600
C551	C55	0.492000	0.415000	0.784600
C561	C56	0.519000	0.282000	0.797400
C571	C57	0.424000	0.211000	0.825800
C581	C58	0.312000	0.274400	0.846600
C591	C59	0.688000	0.604000	0.920400
C601	C60	0.856000	0.623000	0.053700
C611	C61	0.896000	0.893000	0.950300
C621	C62	0.853500	0.793000	0.794100
C631	C63	0.116000	0.741000	0.685200
C641	C64	0.172000	0.961000	0.799500
O131	O13	0.033200	0.510000	0.784500
O141	O14	0.144500	0.680200	0.820000
O151	O15	0.991100	0.595000	0.930700
O161	O16	0.135200	0.695800	0.988400
