data_QADVUN_freeONLY_PM
_symmetry_space_group_name_H-M	'P1'
_cell_length_a	5.098600
_cell_length_b	10.494300
_cell_length_c	12.445700
_cell_angle_alpha	87.614000
_cell_angle_beta	87.258000
_cell_angle_gamma	89.994000
_symmetry_Int_Tables_number 1

loop_
_symmetry_equiv_pos_as_xyz
'x,y,z'

loop_
_atom_site_label
_atom_site_type_symbol
_atom_site_fract_x
_atom_site_fract_y
_atom_site_fract_z
Zn11	Zn1	0.211690	0.357990	0.998390
Zn21	Zn2	0.719710	0.145340	0.997550
Zn31	Zn3	0.805210	0.394100	0.392340
P11	P1	0.248200	0.113240	0.862110
P21	P2	0.711900	0.393380	0.138200
P31	P3	0.297800	0.328390	0.522990
O11	O1	0.421500	0.399600	0.116200
O21	O2	0.839400	0.525000	0.122500
O31	O3	0.369800	0.196900	0.948600
O41	O4	0.854000	0.306100	0.054400
O51	O5	0.337600	0.976900	0.886100
O61	O6	0.950500	0.127500	0.873600
O71	O7	0.589300	0.305200	0.502700
O81	O8	0.251700	0.424700	0.609200
O91	O9	0.750700	0.335400	0.249800
O101	O10	0.170900	0.364000	0.418700
O111	O11	0.353600	0.157500	0.752600
O121	O12	0.169100	0.201600	0.569400
H11	H1	0.235100	0.180300	0.626200
Zn41	Zn4	0.788310	0.642010	0.001610
Zn51	Zn5	0.280290	0.854660	0.002450
Zn61	Zn6	0.194790	0.605900	0.607660
P41	P4	0.751800	0.886760	0.137890
P51	P5	0.288100	0.606620	0.861800
P61	P6	0.702200	0.671610	0.477010
O131	O13	0.578500	0.600400	0.883800
O141	O14	0.160600	0.475000	0.877500
O151	O15	0.630200	0.803100	0.051400
O161	O16	0.146000	0.693900	0.945600
O171	O17	0.662400	0.023100	0.113900
O181	O18	0.049500	0.872500	0.126400
O191	O19	0.410700	0.694800	0.497300
O201	O20	0.748300	0.575300	0.390800
O211	O21	0.249300	0.664600	0.750200
O221	O22	0.829100	0.636000	0.581300
O231	O23	0.646400	0.842500	0.247400
O241	O24	0.830900	0.798400	0.430600
H21	H2	0.764900	0.819700	0.373800
