data_QADWIE_freeONLY_PM
_symmetry_space_group_name_H-M	'P1'
_cell_length_a	9.730600
_cell_length_b	10.530000
_cell_length_c	16.416000
_cell_angle_alpha	90.000000
_cell_angle_beta	112.130000
_cell_angle_gamma	90.000000
_symmetry_Int_Tables_number 1

loop_
_symmetry_equiv_pos_as_xyz
'x,y,z'

loop_
_atom_site_label
_atom_site_type_symbol
_atom_site_fract_x
_atom_site_fract_y
_atom_site_fract_z
C11	C1	0.677100	0.053900	0.969300
H11	H1	0.607400	0.110200	0.932700
C21	C2	0.642100	0.927100	0.970500
H21	H2	0.549400	0.897200	0.933900
C31	C3	0.744200	0.845800	0.025700
H31	H3	0.720200	0.760600	0.027600
C41	C4	0.881700	0.889100	0.078300
H41	H4	0.951100	0.833200	0.115600
C51	C5	0.918300	0.017100	0.076000
C61	C6	0.066000	0.071400	0.128000
H51	H5	0.090300	0.134900	0.092800
H61	H6	0.139800	0.004600	0.141000
C71	C7	0.928500	0.967400	0.468000
C81	C8	0.516500	0.939900	0.529100
Gd11	Gd1	0.180220	0.888040	0.393420
N11	N1	0.813300	0.096200	0.021500
O11	O1	0.062000	0.042000	0.290660
O21	O2	0.237100	0.203200	0.267980
H71	H7	0.284000	0.173000	0.316600
O31	O3	0.961500	0.246300	0.210480
O41	O4	0.845400	0.217900	0.017070
O51	O5	0.814300	0.979400	0.485410
O61	O6	0.938100	0.909000	0.404760
O71	O7	0.426200	0.852000	0.507170
O81	O8	0.637300	0.943200	0.594880
O91	O9	0.321200	0.816000	0.309900
H81	H8	0.277100	0.759300	0.272300
H91	H9	0.394700	0.861000	0.311400
P11	P1	0.075880	0.143540	0.230210
C91	C9	0.322900	0.553900	0.530700
H101	H10	0.392600	0.610200	0.567300
C101	C10	0.357900	0.427100	0.529500
H111	H11	0.450600	0.397200	0.566100
C111	C11	0.255800	0.345800	0.474300
H121	H12	0.279800	0.260600	0.472400
C121	C12	0.118300	0.389100	0.421700
H131	H13	0.048900	0.333200	0.384400
C131	C13	0.081700	0.517100	0.424000
C141	C14	0.934000	0.571400	0.372000
H141	H14	0.909700	0.634900	0.407200
H151	H15	0.860200	0.504600	0.359000
C151	C15	0.071500	0.467400	0.032000
C161	C16	0.483500	0.439900	0.970900
Gd21	Gd2	0.819780	0.388040	0.106580
N21	N2	0.186700	0.596200	0.478500
O101	O10	0.938000	0.542000	0.209340
O111	O11	0.762900	0.703200	0.232020
H161	H16	0.716000	0.673000	0.183400
O121	O12	0.038500	0.746300	0.289520
O131	O13	0.154600	0.717900	0.482930
O141	O14	0.185700	0.479400	0.014590
O151	O15	0.061900	0.409000	0.095240
O161	O16	0.573800	0.352000	0.992830
O171	O17	0.362700	0.443200	0.905120
O181	O18	0.678800	0.316000	0.190100
H171	H17	0.722900	0.259300	0.227700
H181	H18	0.605300	0.361000	0.188600
P21	P2	0.924120	0.643540	0.269790
C171	C17	0.322900	0.946100	0.030700
H191	H19	0.392600	0.889800	0.067300
C181	C18	0.357900	0.072900	0.029500
H201	H20	0.450600	0.102800	0.066100
C191	C19	0.255800	0.154200	0.974300
H211	H21	0.279800	0.239400	0.972400
C201	C20	0.118300	0.110900	0.921700
H221	H22	0.048900	0.166800	0.884400
C211	C21	0.081700	0.982900	0.924000
C221	C22	0.934000	0.928600	0.872000
H231	H23	0.909700	0.865100	0.907200
H241	H24	0.860200	0.995400	0.859000
C231	C23	0.071500	0.032600	0.532000
C241	C24	0.483500	0.060100	0.470900
Gd31	Gd3	0.819780	0.111960	0.606580
N31	N3	0.186700	0.903800	0.978500
O191	O19	0.938000	0.958000	0.709340
O201	O20	0.762900	0.796800	0.732020
H251	H25	0.716000	0.827000	0.683400
O211	O21	0.038500	0.753700	0.789520
O221	O22	0.154600	0.782100	0.982930
O231	O23	0.185700	0.020600	0.514590
O241	O24	0.061900	0.091000	0.595240
O251	O25	0.573800	0.148000	0.492830
O261	O26	0.362700	0.056800	0.405120
O271	O27	0.678800	0.184000	0.690100
H261	H26	0.722900	0.240700	0.727700
H271	H27	0.605300	0.139000	0.688600
P31	P3	0.924120	0.856460	0.769790
C251	C25	0.677100	0.446100	0.469300
H281	H28	0.607400	0.389800	0.432700
C261	C26	0.642100	0.572900	0.470500
H291	H29	0.549400	0.602800	0.433900
C271	C27	0.744200	0.654200	0.525700
H301	H30	0.720200	0.739400	0.527600
C281	C28	0.881700	0.610900	0.578300
H311	H31	0.951100	0.666800	0.615600
C291	C29	0.918300	0.482900	0.576000
C301	C30	0.066000	0.428600	0.628000
H321	H32	0.090300	0.365100	0.592800
H331	H33	0.139800	0.495400	0.641000
C311	C31	0.928500	0.532600	0.968000
C321	C32	0.516500	0.560100	0.029100
Gd41	Gd4	0.180220	0.611960	0.893420
N41	N4	0.813300	0.403800	0.521500
O281	O28	0.062000	0.458000	0.790660
O291	O29	0.237100	0.296800	0.767980
H341	H34	0.284000	0.327000	0.816600
O301	O30	0.961500	0.253700	0.710480
O311	O31	0.845400	0.282100	0.517070
O321	O32	0.814300	0.520600	0.985410
O331	O33	0.938100	0.591000	0.904760
O341	O34	0.426200	0.648000	0.007170
O351	O35	0.637300	0.556800	0.094880
O361	O36	0.321200	0.684000	0.809900
H351	H35	0.277100	0.740700	0.772300
H361	H36	0.394700	0.639000	0.811400
P41	P4	0.075880	0.356460	0.730210
