data_QAGTOH_freeONLY_PM
_symmetry_space_group_name_H-M	'P1'
_cell_length_a	7.369500
_cell_length_b	13.099000
_cell_length_c	13.448000
_cell_angle_alpha	80.353000
_cell_angle_beta	84.930000
_cell_angle_gamma	82.795000
_symmetry_Int_Tables_number 1

loop_
_symmetry_equiv_pos_as_xyz
'x,y,z'

loop_
_atom_site_label
_atom_site_type_symbol
_atom_site_fract_x
_atom_site_fract_y
_atom_site_fract_z
Cu11	Cu1	0.795660	0.309290	0.793130
N11	N1	0.986500	0.384500	0.701300
C11	C1	0.132900	0.327000	0.665000
H11	H1	0.138600	0.253300	0.682100
C21	C2	0.275100	0.367400	0.604700
H21	H2	0.374200	0.322200	0.580600
C31	C3	0.273300	0.475100	0.579000
C41	C4	0.120000	0.534900	0.614400
H31	H3	0.110600	0.608700	0.598100
C51	C5	0.981900	0.487900	0.672900
H41	H4	0.877400	0.531000	0.694400
C61	C6	0.425500	0.524500	0.520600
H51	H5	0.416600	0.598400	0.511500
N21	N2	0.681900	0.222200	0.704300
C71	C7	0.545100	0.165600	0.743400
H61	H6	0.494300	0.172300	0.809800
C81	C8	0.475100	0.098600	0.692400
H71	H7	0.379200	0.059800	0.724100
C91	C9	0.543200	0.087100	0.595200
C101	C10	0.683700	0.146400	0.553500
H81	H8	0.734700	0.142100	0.486700
C111	C11	0.748600	0.211500	0.609800
H91	H9	0.845300	0.250600	0.580300
C121	C12	0.467300	0.013500	0.543900
H101	H10	0.362900	0.982800	0.576200
N31	N3	0.588500	0.381200	0.871160
C131	C13	0.551500	0.350100	0.970100
H111	H11	0.641300	0.304300	0.007000
C141	C14	0.387800	0.381800	0.021200
H121	H12	0.368300	0.358400	0.091700
C151	C15	0.252100	0.447800	0.969600
C161	C16	0.294600	0.483600	0.867300
H131	H13	0.209400	0.531600	0.829200
C171	C17	0.460900	0.448700	0.822100
H141	H14	0.486800	0.473800	0.752400
C181	C18	0.074600	0.476400	0.022000
H151	H15	0.065600	0.459800	0.093600
N41	N4	0.953300	0.189900	0.884500
C191	C19	0.995500	0.095100	0.857100
H161	H16	0.919000	0.074300	0.812600
C201	C20	0.143900	0.026400	0.890000
H171	H17	0.165800	0.959800	0.869300
C211	C21	0.261200	0.054700	0.953500
C221	C22	0.212400	0.150800	0.986300
H181	H18	0.283600	0.172400	0.032900
C231	C23	0.060800	0.214000	0.950700
H191	H19	0.030200	0.278700	0.974500
C241	C24	0.428700	0.986100	0.980300
H201	H20	0.436200	0.916200	0.968500
Cu21	Cu2	0.204340	0.690710	0.206870
N51	N5	0.013500	0.615500	0.298700
C251	C25	0.867100	0.673000	0.335000
H211	H21	0.861400	0.746700	0.317900
C261	C26	0.724900	0.632600	0.395300
H221	H22	0.625800	0.677800	0.419400
C271	C27	0.726700	0.524900	0.421000
C281	C28	0.880000	0.465100	0.385600
H231	H23	0.889400	0.391300	0.401900
C291	C29	0.018100	0.512100	0.327100
H241	H24	0.122600	0.469000	0.305600
C301	C30	0.574500	0.475500	0.479400
H251	H25	0.583400	0.401600	0.488500
N61	N6	0.318100	0.777800	0.295700
C311	C31	0.454900	0.834400	0.256600
H261	H26	0.505700	0.827700	0.190200
C321	C32	0.524900	0.901400	0.307600
H271	H27	0.620800	0.940200	0.275900
C331	C33	0.456800	0.912900	0.404800
C341	C34	0.316300	0.853600	0.446500
H281	H28	0.265300	0.857900	0.513300
C351	C35	0.251400	0.788500	0.390200
H291	H29	0.154700	0.749400	0.419700
C361	C36	0.532700	0.986500	0.456100
H301	H30	0.637100	0.017200	0.423800
N71	N7	0.411500	0.618800	0.128840
C371	C37	0.448500	0.649900	0.029900
H311	H31	0.358700	0.695700	0.993000
C381	C38	0.612200	0.618200	0.978800
H321	H32	0.631700	0.641600	0.908300
C391	C39	0.747900	0.552200	0.030400
C401	C40	0.705400	0.516400	0.132700
H331	H33	0.790600	0.468400	0.170800
C411	C41	0.539100	0.551300	0.177900
H341	H34	0.513200	0.526200	0.247600
C421	C42	0.925400	0.523600	0.978000
H351	H35	0.934400	0.540200	0.906400
N81	N8	0.046700	0.810100	0.115500
C431	C43	0.004500	0.904900	0.142900
H361	H36	0.081000	0.925700	0.187400
C441	C44	0.856100	0.973600	0.110000
H371	H37	0.834200	0.040200	0.130700
C451	C45	0.738800	0.945300	0.046500
C461	C46	0.787600	0.849200	0.013700
H381	H38	0.716400	0.827600	0.967100
C471	C47	0.939200	0.786000	0.049300
H391	H39	0.969800	0.721300	0.025500
C481	C48	0.571300	0.013900	0.019700
H401	H40	0.563800	0.083800	0.031500
