data_QAJJOB_freeONLY_PM
_symmetry_space_group_name_H-M	'P1'
_cell_length_a	10.316100
_cell_length_b	12.749000
_cell_length_c	17.912700
_cell_angle_alpha	90.000000
_cell_angle_beta	102.476000
_cell_angle_gamma	90.000000
_symmetry_Int_Tables_number 1

loop_
_symmetry_equiv_pos_as_xyz
'x,y,z'

loop_
_atom_site_label
_atom_site_type_symbol
_atom_site_fract_x
_atom_site_fract_y
_atom_site_fract_z
In11	In1	0.754000	0.572560	0.222340
In21	In2	0.030990	0.383530	0.292130
In31	In3	0.556730	0.521460	0.374110
In41	In4	0.132900	0.647670	0.077800
P11	P1	0.434800	0.616220	0.192380
P21	P2	0.779580	0.840160	0.200840
P31	P3	0.297450	0.410370	0.441590
P41	P4	0.919120	0.453750	0.107850
F11	F1	0.712700	0.593900	0.332150
F21	F2	0.951800	0.537700	0.282220
O11	O1	0.326300	0.295000	0.466800
O21	O2	0.319100	0.583200	0.127100
O31	O3	0.442200	0.540400	0.260000
O41	O4	0.386400	0.441700	0.386500
O51	O5	0.821000	0.542000	0.120600
O61	O6	0.150800	0.420800	0.400500
O71	O7	0.562400	0.612200	0.161600
O81	O8	0.925900	0.705100	0.063600
O91	O9	0.632400	0.840700	0.160700
O101	O10	0.861100	0.401600	0.031900
O111	O11	0.825400	0.729000	0.230100
O121	O12	0.864500	0.871100	0.142500
O131	O13	0.939200	0.371700	0.172300
O141	O14	0.326000	0.479700	0.513200
O151	O15	0.807600	0.915800	0.268700
O161	O16	0.407700	0.727700	0.218600
O171	O17	0.054900	0.503700	0.107700
O181	O18	0.498800	0.683800	0.396700
O191	O19	0.141800	0.726900	0.193300
O201	O20	0.201000	0.431000	0.241500
In51	In5	0.746000	0.072560	0.277660
In61	In6	0.469010	0.883530	0.207870
In71	In7	0.943270	0.021460	0.125890
In81	In8	0.367100	0.147670	0.422200
P51	P5	0.065200	0.116220	0.307620
P61	P6	0.720420	0.340160	0.299160
P71	P7	0.202550	0.910370	0.058410
P81	P8	0.580880	0.953750	0.392150
F31	F3	0.787300	0.093900	0.167850
F41	F4	0.548200	0.037700	0.217780
O211	O21	0.173700	0.795000	0.033200
O221	O22	0.180900	0.083200	0.372900
O231	O23	0.057800	0.040400	0.240000
O241	O24	0.113600	0.941700	0.113500
O251	O25	0.679000	0.042000	0.379400
O261	O26	0.349200	0.920800	0.099500
O271	O27	0.937600	0.112200	0.338400
O281	O28	0.574100	0.205100	0.436400
O291	O29	0.867600	0.340700	0.339300
O301	O30	0.638900	0.901600	0.468100
O311	O31	0.674600	0.229000	0.269900
O321	O32	0.635500	0.371100	0.357500
O331	O33	0.560800	0.871700	0.327700
O341	O34	0.174000	0.979700	0.986800
O351	O35	0.692400	0.415800	0.231300
O361	O36	0.092300	0.227700	0.281400
O371	O37	0.445100	0.003700	0.392300
O381	O38	0.001200	0.183800	0.103300
O391	O39	0.358200	0.226900	0.306700
O401	O40	0.299000	0.931000	0.258500
In91	In9	0.246000	0.427440	0.777660
In101	In10	0.969010	0.616470	0.707870
In111	In11	0.443270	0.478540	0.625890
In121	In12	0.867100	0.352330	0.922200
P91	P9	0.565200	0.383780	0.807620
P101	P10	0.220420	0.159840	0.799160
P111	P11	0.702550	0.589630	0.558410
P121	P12	0.080880	0.546250	0.892150
F51	F5	0.287300	0.406100	0.667850
F61	F6	0.048200	0.462300	0.717780
O411	O41	0.673700	0.705000	0.533200
O421	O42	0.680900	0.416800	0.872900
O431	O43	0.557800	0.459600	0.740000
O441	O44	0.613600	0.558300	0.613500
O451	O45	0.179000	0.458000	0.879400
O461	O46	0.849200	0.579200	0.599500
O471	O47	0.437600	0.387800	0.838400
O481	O48	0.074100	0.294900	0.936400
O491	O49	0.367600	0.159300	0.839300
O501	O50	0.138900	0.598400	0.968100
O511	O51	0.174600	0.271000	0.769900
O521	O52	0.135500	0.128900	0.857500
O531	O53	0.060800	0.628300	0.827700
O541	O54	0.674000	0.520300	0.486800
O551	O55	0.192400	0.084200	0.731300
O561	O56	0.592300	0.272300	0.781400
O571	O57	0.945100	0.496300	0.892300
O581	O58	0.501200	0.316200	0.603300
O591	O59	0.858200	0.273100	0.806700
O601	O60	0.799000	0.569000	0.758500
In131	In13	0.254000	0.927440	0.722340
In141	In14	0.530990	0.116470	0.792130
In151	In15	0.056730	0.978540	0.874110
In161	In16	0.632900	0.852330	0.577800
P131	P13	0.934800	0.883780	0.692380
P141	P14	0.279580	0.659840	0.700840
P151	P15	0.797450	0.089630	0.941590
P161	P16	0.419120	0.046250	0.607850
F71	F7	0.212700	0.906100	0.832150
F81	F8	0.451800	0.962300	0.782220
O611	O61	0.826300	0.205000	0.966800
O621	O62	0.819100	0.916800	0.627100
O631	O63	0.942200	0.959600	0.760000
O641	O64	0.886400	0.058300	0.886500
O651	O65	0.321000	0.958000	0.620600
O661	O66	0.650800	0.079200	0.900500
O671	O67	0.062400	0.887800	0.661600
O681	O68	0.425900	0.794900	0.563600
O691	O69	0.132400	0.659300	0.660700
O701	O70	0.361100	0.098400	0.531900
O711	O71	0.325400	0.771000	0.730100
O721	O72	0.364500	0.628900	0.642500
O731	O73	0.439200	0.128300	0.672300
O741	O74	0.826000	0.020300	0.013200
O751	O75	0.307600	0.584200	0.768700
O761	O76	0.907700	0.772300	0.718600
O771	O77	0.554900	0.996300	0.607700
O781	O78	0.998800	0.816200	0.896700
O791	O79	0.641800	0.773100	0.693300
O801	O80	0.701000	0.069000	0.741500
