data_QALGUH_SL_PM
_symmetry_space_group_name_H-M	'P1'
_cell_length_a	14.873100
_cell_length_b	6.836500
_cell_length_c	15.244900
_cell_angle_alpha	90.000000
_cell_angle_beta	90.000000
_cell_angle_gamma	90.000000
_symmetry_Int_Tables_number 1

loop_
_symmetry_equiv_pos_as_xyz
'x,y,z'

loop_
_atom_site_label
_atom_site_type_symbol
_atom_site_fract_x
_atom_site_fract_y
_atom_site_fract_z
H11	H1	0.196800	0.452300	0.693000
C21	C2	0.219000	0.576500	0.716800
O31	O3	0.093000	0.591800	0.582100
H41	H4	0.500000	0.750000	0.117100
H51	H5	0.696800	0.952300	0.193000
C61	C6	0.719000	0.076500	0.216800
O71	O7	0.593000	0.091800	0.082100
H91	H9	0.803200	0.047700	0.693000
C101	C10	0.781000	0.923500	0.716800
O111	O11	0.907000	0.908200	0.582100
H131	H13	0.303200	0.547700	0.193000
C141	C14	0.281000	0.423500	0.216800
O151	O15	0.407000	0.408200	0.082100
H161	H16	0.000000	0.250000	0.617100
H171	H17	0.803200	0.952300	0.307000
C181	C18	0.781000	0.076500	0.283200
O191	O19	0.907000	0.091800	0.417900
H201	H20	0.500000	0.250000	0.882900
H211	H21	0.303200	0.452300	0.807000
C221	C22	0.281000	0.576500	0.783200
O231	O23	0.407000	0.591800	0.917900
H241	H24	0.000000	0.750000	0.382900
H251	H25	0.196800	0.547700	0.307000
C261	C26	0.219000	0.423500	0.283200
O271	O27	0.093000	0.408200	0.417900
H291	H29	0.696800	0.047700	0.807000
C301	C30	0.719000	0.923500	0.783200
O311	O31	0.593000	0.908200	0.917900
H331	H33	0.803200	0.547700	0.307000
C341	C34	0.781000	0.423500	0.283200
O351	O35	0.907000	0.408200	0.417900
H371	H37	0.303200	0.047700	0.807000
C381	C38	0.281000	0.923500	0.783200
O391	O39	0.407000	0.908200	0.917900
H411	H41	0.196800	0.952300	0.307000
C421	C42	0.219000	0.076500	0.283200
O431	O43	0.093000	0.091800	0.417900
H451	H45	0.696800	0.452300	0.807000
C461	C46	0.719000	0.576500	0.783200
O471	O47	0.593000	0.591800	0.917900
H491	H49	0.196800	0.047700	0.693000
C501	C50	0.219000	0.923500	0.716800
O511	O51	0.093000	0.908200	0.582100
H531	H53	0.696800	0.547700	0.193000
C541	C54	0.719000	0.423500	0.216800
O551	O55	0.593000	0.408200	0.082100
H571	H57	0.803200	0.452300	0.693000
C581	C58	0.781000	0.576500	0.716800
O591	O59	0.907000	0.591800	0.582100
H611	H61	0.303200	0.952300	0.193000
C621	C62	0.281000	0.076500	0.216800
O631	O63	0.407000	0.091800	0.082100
Cr651	Cr65	0.000000	0.500000	0.500000
Cr661	Cr66	0.500000	0.000000	0.000000
Cr671	Cr67	0.000000	0.000000	0.500000
Cr681	Cr68	0.500000	0.500000	0.000000
C691	C69	0.187900	0.750000	0.683600
C701	C70	0.121300	0.750000	0.612300
C711	C71	0.687900	0.250000	0.183600
C721	C72	0.621300	0.250000	0.112300
C731	C73	0.812100	0.750000	0.683600
C741	C74	0.878700	0.750000	0.612300
C751	C75	0.312100	0.250000	0.183600
C761	C76	0.378700	0.250000	0.112300
C771	C77	0.812100	0.250000	0.316400
C781	C78	0.878700	0.250000	0.387700
C791	C79	0.312100	0.750000	0.816400
C801	C80	0.378700	0.750000	0.887700
C811	C81	0.187900	0.250000	0.316400
C821	C82	0.121300	0.250000	0.387700
C831	C83	0.687900	0.750000	0.816400
C841	C84	0.621300	0.750000	0.887700
O851	O85	0.000000	0.750000	0.448500
O861	O86	0.500000	0.250000	0.948500
O871	O87	0.000000	0.250000	0.551500
O881	O88	0.500000	0.750000	0.051500
