data_QALHIX_freeONLY_PM
_symmetry_space_group_name_H-M	'P1'
_cell_length_a	32.967600
_cell_length_b	32.967600
_cell_length_c	26.695600
_cell_angle_alpha	90.000000
_cell_angle_beta	90.000000
_cell_angle_gamma	90.000000
_symmetry_Int_Tables_number 1

loop_
_symmetry_equiv_pos_as_xyz
'x,y,z'

loop_
_atom_site_label
_atom_site_type_symbol
_atom_site_fract_x
_atom_site_fract_y
_atom_site_fract_z
Cd11	Cd1	0.358140	0.370580	0.062760
O11	O1	0.320350	0.372250	0.708100
O21	O2	0.458240	0.474160	0.272910
O31	O3	0.177620	0.194220	0.545410
O41	O4	0.333090	0.371270	0.144980
O51	O5	0.439070	0.461750	0.674990
O61	O6	0.438740	0.462190	0.349950
O71	O7	0.457090	0.473950	0.598040
O81	O8	0.288460	0.343400	0.646380
O91	O9	0.388100	0.407440	0.131070
O101	O10	0.210120	0.261220	0.294090
O111	O11	0.167010	0.211000	0.310570
O121	O12	0.153070	0.158840	0.483470
O131	O13	0.427130	0.363710	0.034400
O141	O14	0.400610	0.316080	0.081730
C11	C1	0.434330	0.457740	0.304420
C21	C2	0.314990	0.368280	0.661800
N11	N1	0.316670	0.365700	0.330320
H11	H1	0.299200	0.351400	0.314200
O151	O15	0.620850	0.227830	0.262600
N21	N2	0.289900	0.334300	0.396700
C31	C3	0.362430	0.392880	0.159590
N31	N3	0.355900	0.404700	0.489140
H21	H2	0.369200	0.422800	0.472800
C41	C4	0.174760	0.187790	0.499400
C51	C5	0.343860	0.388900	0.300000
N41	N4	0.336900	0.387600	0.410320
C61	C6	0.194500	0.215250	0.463300
C71	C7	0.434380	0.457610	0.629190
C81	C8	0.391720	0.429400	0.558590
H31	H3	0.409000	0.442300	0.536100
C91	C9	0.193960	0.237000	0.324400
O161	O16	0.669290	0.197680	0.303340
C101	C10	0.373600	0.413800	0.318000
H41	H4	0.376200	0.418200	0.352300
N51	N5	0.308400	0.353000	0.479980
C111	C11	0.429640	0.330400	0.055900
C121	C12	0.400250	0.432830	0.284100
C131	C13	0.202440	0.240060	0.378800
C141	C14	0.359500	0.406600	0.541090
C151	C15	0.396100	0.426480	0.233260
H51	H5	0.414000	0.438700	0.211000
C161	C16	0.398640	0.433260	0.611460
C171	C17	0.333800	0.386300	0.574600
C181	C18	0.634600	0.196100	0.283000
C191	C19	0.364910	0.401560	0.215330
C201	C20	0.340670	0.390460	0.626490
C211	C21	0.220800	0.245000	0.480000
H61	H6	0.226600	0.246800	0.514000
C221	C22	0.314400	0.363000	0.383400
C231	C23	0.185100	0.212490	0.413700
H71	H7	0.167300	0.192500	0.402600
C241	C24	0.339170	0.383140	0.248900
H81	H8	0.318400	0.366600	0.237200
C251	C25	0.333700	0.377600	0.459900
C261	C26	0.230200	0.269000	0.395640
H91	H9	0.243000	0.286100	0.372800
C271	C27	0.238800	0.272500	0.446700
C281	C28	0.610000	0.158100	0.282200
C291	C29	0.467900	0.306300	0.053700
C301	C30	0.498900	0.318300	0.020900
H101	H10	0.496000	0.341500	0.001600
O171	O17	0.220600	0.173570	0.235000
O181	O18	0.248790	0.224850	0.194100
C311	C31	0.288400	0.329500	0.446600
N61	N6	0.264100	0.301100	0.467850
H111	H11	0.264500	0.300800	0.500100
C321	C32	0.373480	0.414710	0.643450
H121	H12	0.377600	0.417800	0.677700
O191	O19	0.567700	0.344400	0.969300
N71	N7	0.520060	0.218800	0.115000
H131	H13	0.545200	0.211800	0.115800
N81	N8	0.393460	0.184300	0.171100
H141	H14	0.385800	0.202200	0.149700
N91	N9	0.506900	0.126700	0.243900
H151	H15	0.490400	0.109900	0.257700
C331	C33	0.539900	0.263000	0.048300
H161	H16	0.564500	0.249200	0.046700
C341	C34	0.546600	0.125400	0.260900
C351	C35	0.434800	0.177700	0.174200
N101	N10	0.455880	0.201700	0.141400
C361	C36	0.495000	0.198300	0.145800
C371	C37	0.570600	0.159600	0.259600
H171	H17	0.561500	0.183200	0.244200
C381	C38	0.473710	0.273100	0.082800
H181	H18	0.452800	0.265200	0.104000
C391	C39	0.510300	0.249700	0.082600
N111	N11	0.514520	0.171400	0.177000
C401	C40	0.366500	0.133700	0.229200
H191	H19	0.391500	0.120800	0.232700
C411	C41	0.290700	0.170500	0.220000
N121	N12	0.449600	0.151900	0.206200
C421	C42	0.324200	0.184200	0.192500
H201	H20	0.321400	0.205700	0.170300
C431	C43	0.249950	0.191700	0.213700
C441	C44	0.296000	0.137500	0.249200
H211	H21	0.273600	0.126300	0.265300
C451	C45	0.623400	0.122900	0.303000
H221	H22	0.649000	0.122200	0.317700
C461	C46	0.362300	0.165300	0.198800
C471	C47	0.534000	0.295400	0.017300
C481	C48	0.600400	0.088700	0.302800
O201	O20	0.649100	0.047200	0.338400
C491	C49	0.615100	0.049200	0.323200
O211	O21	0.596100	0.020100	0.325200
O221	O22	0.373200	0.066200	0.295800
C501	C50	0.560500	0.089500	0.281400
H231	H23	0.544300	0.066300	0.281300
O231	O23	0.309800	0.074300	0.321000
C511	C51	0.490400	0.151900	0.207000
C521	C52	0.333000	0.120200	0.255700
C531	C53	0.339400	0.085600	0.295000
O241	O24	0.590400	0.278900	0.964200
C541	C54	0.566800	0.306900	0.980700
Cd21	Cd2	0.650890	0.980060	0.353130
O251	O25	0.714100	0.992200	0.393600
Cd31	Cd3	0.267140	0.320370	0.722940
Cd41	Cd4	0.641850	0.629420	0.062760
O261	O26	0.679650	0.627750	0.708100
O271	O27	0.541760	0.525840	0.272910
O281	O28	0.822380	0.805780	0.545410
O291	O29	0.666910	0.628730	0.144980
O301	O30	0.560930	0.538250	0.674990
O311	O31	0.561260	0.537810	0.349950
O321	O32	0.542910	0.526050	0.598040
O331	O33	0.711540	0.656600	0.646380
O341	O34	0.611900	0.592560	0.131070
O351	O35	0.789880	0.738780	0.294090
O361	O36	0.832990	0.789000	0.310570
O371	O37	0.846930	0.841160	0.483470
O381	O38	0.572870	0.636290	0.034400
O391	O39	0.599390	0.683920	0.081730
C551	C55	0.565670	0.542260	0.304420
C561	C56	0.685010	0.631720	0.661800
N131	N13	0.683330	0.634300	0.330320
H241	H24	0.700800	0.648600	0.314200
O401	O40	0.379150	0.772170	0.262600
N141	N14	0.710100	0.665700	0.396700
C571	C57	0.637570	0.607120	0.159590
N151	N15	0.644100	0.595300	0.489140
H251	H25	0.630800	0.577200	0.472800
C581	C58	0.825240	0.812210	0.499400
C591	C59	0.656140	0.611100	0.300000
N161	N16	0.663100	0.612400	0.410320
C601	C60	0.805500	0.784750	0.463300
C611	C61	0.565620	0.542390	0.629190
C621	C62	0.608280	0.570600	0.558590
H261	H26	0.591000	0.557700	0.536100
C631	C63	0.806040	0.763000	0.324400
O411	O41	0.330710	0.802320	0.303340
C641	C64	0.626400	0.586200	0.318000
H271	H27	0.623800	0.581800	0.352300
N171	N17	0.691600	0.647000	0.479980
C651	C65	0.570360	0.669600	0.055900
C661	C66	0.599750	0.567170	0.284100
C671	C67	0.797560	0.759940	0.378800
C681	C68	0.640500	0.593400	0.541090
C691	C69	0.603900	0.573520	0.233260
H281	H28	0.586000	0.561300	0.211000
C701	C70	0.601360	0.566740	0.611460
C711	C71	0.666200	0.613700	0.574600
C721	C72	0.365400	0.803900	0.283000
C731	C73	0.635090	0.598440	0.215330
C741	C74	0.659330	0.609540	0.626490
C751	C75	0.779200	0.755000	0.480000
H291	H29	0.773400	0.753200	0.514000
C761	C76	0.685600	0.637000	0.383400
C771	C77	0.814900	0.787510	0.413700
H301	H30	0.832700	0.807500	0.402600
C781	C78	0.660830	0.616860	0.248900
H311	H31	0.681600	0.633400	0.237200
C791	C79	0.666300	0.622400	0.459900
C801	C80	0.769800	0.731000	0.395640
H321	H32	0.757000	0.713900	0.372800
C811	C81	0.761200	0.727500	0.446700
C821	C82	0.390000	0.841900	0.282200
C831	C83	0.532100	0.693700	0.053700
C841	C84	0.501100	0.681700	0.020900
H331	H33	0.504000	0.658500	0.001600
O421	O42	0.779400	0.826430	0.235000
O431	O43	0.751210	0.775150	0.194100
C851	C85	0.711600	0.670500	0.446600
N181	N18	0.735900	0.698900	0.467850
H341	H34	0.735500	0.699200	0.500100
C861	C86	0.626520	0.585290	0.643450
H351	H35	0.622400	0.582200	0.677700
O441	O44	0.432300	0.655600	0.969300
N191	N19	0.479940	0.781200	0.115000
H361	H36	0.454800	0.788200	0.115800
N201	N20	0.606540	0.815700	0.171100
H371	H37	0.614200	0.797800	0.149700
N211	N21	0.493100	0.873300	0.243900
H381	H38	0.509600	0.890100	0.257700
C871	C87	0.460100	0.737000	0.048300
H391	H39	0.435500	0.750800	0.046700
C881	C88	0.453400	0.874600	0.260900
C891	C89	0.565200	0.822300	0.174200
N221	N22	0.544120	0.798300	0.141400
C901	C90	0.505000	0.801700	0.145800
C911	C91	0.429400	0.840400	0.259600
H401	H40	0.438500	0.816800	0.244200
C921	C92	0.526290	0.726900	0.082800
H411	H41	0.547200	0.734800	0.104000
C931	C93	0.489700	0.750300	0.082600
N231	N23	0.485480	0.828600	0.177000
C941	C94	0.633500	0.866300	0.229200
H421	H42	0.608500	0.879200	0.232700
C951	C95	0.709300	0.829500	0.220000
N241	N24	0.550400	0.848100	0.206200
C961	C96	0.675800	0.815800	0.192500
H431	H43	0.678600	0.794300	0.170300
C971	C97	0.750050	0.808300	0.213700
C981	C98	0.704000	0.862500	0.249200
H441	H44	0.726400	0.873700	0.265300
C991	C99	0.376600	0.877100	0.303000
H451	H45	0.351000	0.877800	0.317700
C1001	C100	0.637700	0.834700	0.198800
C1011	C101	0.466000	0.704600	0.017300
C1021	C102	0.399600	0.911300	0.302800
O451	O45	0.350900	0.952800	0.338400
C1031	C103	0.384900	0.950800	0.323200
O461	O46	0.403900	0.979900	0.325200
O471	O47	0.626800	0.933800	0.295800
C1041	C104	0.439500	0.910500	0.281400
H461	H46	0.455700	0.933700	0.281300
O481	O48	0.690200	0.925700	0.321000
C1051	C105	0.509600	0.848100	0.207000
C1061	C106	0.667000	0.879800	0.255700
C1071	C107	0.660600	0.914400	0.295000
O491	O49	0.409600	0.721100	0.964200
C1081	C108	0.433200	0.693100	0.980700
Cd51	Cd5	0.349110	0.019940	0.353130
O501	O50	0.285900	0.007800	0.393600
Cd61	Cd6	0.732860	0.679630	0.722940
Cd71	Cd7	0.370580	0.641860	0.937240
O511	O51	0.372250	0.679650	0.291900
O521	O52	0.474160	0.541760	0.727090
O531	O53	0.194220	0.822380	0.454590
O541	O54	0.371270	0.666910	0.855020
O551	O55	0.461750	0.560930	0.325010
O561	O56	0.462190	0.561260	0.650050
O571	O57	0.473950	0.542910	0.401960
O581	O58	0.343400	0.711540	0.353620
O591	O59	0.407440	0.611900	0.868930
O601	O60	0.261220	0.789880	0.705910
O611	O61	0.211000	0.832990	0.689430
O621	O62	0.158840	0.846930	0.516530
O631	O63	0.363710	0.572870	0.965600
O641	O64	0.316080	0.599390	0.918270
C1091	C109	0.457740	0.565670	0.695580
C1101	C110	0.368280	0.685010	0.338200
N251	N25	0.365700	0.683330	0.669680
H471	H47	0.351400	0.700800	0.685800
O651	O65	0.227830	0.379150	0.737400
N261	N26	0.334300	0.710100	0.603300
C1111	C111	0.392880	0.637570	0.840410
N271	N27	0.404700	0.644100	0.510860
H481	H48	0.422800	0.630800	0.527200
C1121	C112	0.187790	0.825240	0.500600
C1131	C113	0.388900	0.656140	0.700000
N281	N28	0.387600	0.663100	0.589680
C1141	C114	0.215250	0.805500	0.536700
C1151	C115	0.457610	0.565620	0.370810
C1161	C116	0.429400	0.608280	0.441410
H491	H49	0.442300	0.591000	0.463900
C1171	C117	0.237000	0.806040	0.675600
O661	O66	0.197680	0.330710	0.696660
C1181	C118	0.413800	0.626400	0.682000
H501	H50	0.418200	0.623800	0.647700
N291	N29	0.353000	0.691600	0.520020
C1191	C119	0.330400	0.570360	0.944100
C1201	C120	0.432830	0.599750	0.715900
C1211	C121	0.240060	0.797560	0.621200
C1221	C122	0.406600	0.640500	0.458910
C1231	C123	0.426480	0.603900	0.766740
H511	H51	0.438700	0.586000	0.789000
C1241	C124	0.433260	0.601360	0.388540
C1251	C125	0.386300	0.666200	0.425400
C1261	C126	0.196100	0.365400	0.717000
C1271	C127	0.401560	0.635090	0.784670
C1281	C128	0.390460	0.659330	0.373510
C1291	C129	0.245000	0.779200	0.520000
H521	H52	0.246800	0.773400	0.486000
C1301	C130	0.363000	0.685600	0.616600
C1311	C131	0.212490	0.814900	0.586300
H531	H53	0.192500	0.832700	0.597400
C1321	C132	0.383140	0.660830	0.751100
H541	H54	0.366600	0.681600	0.762800
C1331	C133	0.377600	0.666300	0.540100
C1341	C134	0.269000	0.769800	0.604360
H551	H55	0.286100	0.757000	0.627200
C1351	C135	0.272500	0.761200	0.553300
C1361	C136	0.158100	0.390000	0.717800
C1371	C137	0.306300	0.532100	0.946300
C1381	C138	0.318300	0.501100	0.979100
H561	H56	0.341500	0.504000	0.998400
O671	O67	0.173570	0.779400	0.765000
O681	O68	0.224850	0.751210	0.805900
C1391	C139	0.329500	0.711600	0.553400
N301	N30	0.301100	0.735900	0.532150
H571	H57	0.300800	0.735500	0.499900
C1401	C140	0.414710	0.626520	0.356550
H581	H58	0.417800	0.622400	0.322300
O691	O69	0.344400	0.432300	0.030700
N311	N31	0.218800	0.479940	0.885000
H591	H59	0.211800	0.454800	0.884200
N321	N32	0.184300	0.606540	0.828900
H601	H60	0.202200	0.614200	0.850300
N331	N33	0.126700	0.493100	0.756100
H611	H61	0.109900	0.509600	0.742300
C1411	C141	0.263000	0.460100	0.951700
H621	H62	0.249200	0.435500	0.953300
C1421	C142	0.125400	0.453400	0.739100
C1431	C143	0.177700	0.565200	0.825800
N341	N34	0.201700	0.544120	0.858600
C1441	C144	0.198300	0.505000	0.854200
C1451	C145	0.159600	0.429400	0.740400
H631	H63	0.183200	0.438500	0.755800
C1461	C146	0.273100	0.526290	0.917200
H641	H64	0.265200	0.547200	0.896000
C1471	C147	0.249700	0.489700	0.917400
N351	N35	0.171400	0.485480	0.823000
C1481	C148	0.133700	0.633500	0.770800
H651	H65	0.120800	0.608500	0.767300
C1491	C149	0.170500	0.709300	0.780000
N361	N36	0.151900	0.550400	0.793800
C1501	C150	0.184200	0.675800	0.807500
H661	H66	0.205700	0.678600	0.829700
C1511	C151	0.191700	0.750050	0.786300
C1521	C152	0.137500	0.704000	0.750800
H671	H67	0.126300	0.726400	0.734700
C1531	C153	0.122900	0.376600	0.697000
H681	H68	0.122200	0.351000	0.682300
C1541	C154	0.165300	0.637700	0.801200
C1551	C155	0.295400	0.466000	0.982700
C1561	C156	0.088700	0.399600	0.697200
O701	O70	0.047200	0.350900	0.661600
C1571	C157	0.049200	0.384900	0.676800
O711	O71	0.020100	0.403900	0.674800
O721	O72	0.066200	0.626800	0.704200
C1581	C158	0.089500	0.439500	0.718600
H691	H69	0.066300	0.455700	0.718700
O731	O73	0.074300	0.690200	0.679000
C1591	C159	0.151900	0.509600	0.793000
C1601	C160	0.120200	0.667000	0.744300
C1611	C161	0.085600	0.660600	0.705000
O741	O74	0.278900	0.409600	0.035800
C1621	C162	0.306900	0.433200	0.019300
Cd81	Cd8	0.980060	0.349110	0.646870
O751	O75	0.992200	0.285900	0.606400
Cd91	Cd9	0.320370	0.732860	0.277060
Cd101	Cd10	0.629420	0.358140	0.937240
O761	O76	0.627750	0.320350	0.291900
O771	O77	0.525840	0.458240	0.727090
O781	O78	0.805780	0.177620	0.454590
O791	O79	0.628730	0.333090	0.855020
O801	O80	0.538250	0.439070	0.325010
O811	O81	0.537810	0.438740	0.650050
O821	O82	0.526050	0.457090	0.401960
O831	O83	0.656600	0.288460	0.353620
O841	O84	0.592560	0.388100	0.868930
O851	O85	0.738780	0.210120	0.705910
O861	O86	0.789000	0.167010	0.689430
O871	O87	0.841160	0.153070	0.516530
O881	O88	0.636290	0.427130	0.965600
O891	O89	0.683920	0.400610	0.918270
C1631	C163	0.542260	0.434330	0.695580
C1641	C164	0.631720	0.314990	0.338200
N371	N37	0.634300	0.316670	0.669680
H701	H70	0.648600	0.299200	0.685800
O901	O90	0.772170	0.620850	0.737400
N381	N38	0.665700	0.289900	0.603300
C1651	C165	0.607120	0.362430	0.840410
N391	N39	0.595300	0.355900	0.510860
H711	H71	0.577200	0.369200	0.527200
C1661	C166	0.812210	0.174760	0.500600
C1671	C167	0.611100	0.343860	0.700000
N401	N40	0.612400	0.336900	0.589680
C1681	C168	0.784750	0.194500	0.536700
C1691	C169	0.542390	0.434380	0.370810
C1701	C170	0.570600	0.391720	0.441410
H721	H72	0.557700	0.409000	0.463900
C1711	C171	0.763000	0.193960	0.675600
O911	O91	0.802320	0.669290	0.696660
C1721	C172	0.586200	0.373600	0.682000
H731	H73	0.581800	0.376200	0.647700
N411	N41	0.647000	0.308400	0.520020
C1731	C173	0.669600	0.429640	0.944100
C1741	C174	0.567170	0.400250	0.715900
C1751	C175	0.759940	0.202440	0.621200
C1761	C176	0.593400	0.359500	0.458910
C1771	C177	0.573520	0.396100	0.766740
H741	H74	0.561300	0.414000	0.789000
C1781	C178	0.566740	0.398640	0.388540
C1791	C179	0.613700	0.333800	0.425400
C1801	C180	0.803900	0.634600	0.717000
C1811	C181	0.598440	0.364910	0.784670
C1821	C182	0.609540	0.340670	0.373510
C1831	C183	0.755000	0.220800	0.520000
H751	H75	0.753200	0.226600	0.486000
C1841	C184	0.637000	0.314400	0.616600
C1851	C185	0.787510	0.185100	0.586300
H761	H76	0.807500	0.167300	0.597400
C1861	C186	0.616860	0.339170	0.751100
H771	H77	0.633400	0.318400	0.762800
C1871	C187	0.622400	0.333700	0.540100
C1881	C188	0.731000	0.230200	0.604360
H781	H78	0.713900	0.243000	0.627200
C1891	C189	0.727500	0.238800	0.553300
C1901	C190	0.841900	0.610000	0.717800
C1911	C191	0.693700	0.467900	0.946300
C1921	C192	0.681700	0.498900	0.979100
H791	H79	0.658500	0.496000	0.998400
O921	O92	0.826430	0.220600	0.765000
O931	O93	0.775150	0.248790	0.805900
C1931	C193	0.670500	0.288400	0.553400
N421	N42	0.698900	0.264100	0.532150
H801	H80	0.699200	0.264500	0.499900
C1941	C194	0.585290	0.373480	0.356550
H811	H81	0.582200	0.377600	0.322300
O941	O94	0.655600	0.567700	0.030700
N431	N43	0.781200	0.520060	0.885000
H821	H82	0.788200	0.545200	0.884200
N441	N44	0.815700	0.393460	0.828900
H831	H83	0.797800	0.385800	0.850300
N451	N45	0.873300	0.506900	0.756100
H841	H84	0.890100	0.490400	0.742300
C1951	C195	0.737000	0.539900	0.951700
H851	H85	0.750800	0.564500	0.953300
C1961	C196	0.874600	0.546600	0.739100
C1971	C197	0.822300	0.434800	0.825800
N461	N46	0.798300	0.455880	0.858600
C1981	C198	0.801700	0.495000	0.854200
C1991	C199	0.840400	0.570600	0.740400
H861	H86	0.816800	0.561500	0.755800
C2001	C200	0.726900	0.473710	0.917200
H871	H87	0.734800	0.452800	0.896000
C2011	C201	0.750300	0.510300	0.917400
N471	N47	0.828600	0.514520	0.823000
C2021	C202	0.866300	0.366500	0.770800
H881	H88	0.879200	0.391500	0.767300
C2031	C203	0.829500	0.290700	0.780000
N481	N48	0.848100	0.449600	0.793800
C2041	C204	0.815800	0.324200	0.807500
H891	H89	0.794300	0.321400	0.829700
C2051	C205	0.808300	0.249950	0.786300
C2061	C206	0.862500	0.296000	0.750800
H901	H90	0.873700	0.273600	0.734700
C2071	C207	0.877100	0.623400	0.697000
H911	H91	0.877800	0.649000	0.682300
C2081	C208	0.834700	0.362300	0.801200
C2091	C209	0.704600	0.534000	0.982700
C2101	C210	0.911300	0.600400	0.697200
O951	O95	0.952800	0.649100	0.661600
C2111	C211	0.950800	0.615100	0.676800
O961	O96	0.979900	0.596100	0.674800
O971	O97	0.933800	0.373200	0.704200
C2121	C212	0.910500	0.560500	0.718600
H921	H92	0.933700	0.544300	0.718700
O981	O98	0.925700	0.309800	0.679000
C2131	C213	0.848100	0.490400	0.793000
C2141	C214	0.879800	0.333000	0.744300
C2151	C215	0.914400	0.339400	0.705000
O991	O99	0.721100	0.590400	0.035800
C2161	C216	0.693100	0.566800	0.019300
Cd111	Cd11	0.019940	0.650890	0.646870
O1001	O100	0.007800	0.714100	0.606400
Cd121	Cd12	0.679630	0.267140	0.277060
Cd131	Cd13	0.141860	0.870580	0.437240
O1011	O101	0.179650	0.872250	0.791900
O1021	O102	0.041760	0.974160	0.227090
O1031	O103	0.322380	0.694220	0.954590
O1041	O104	0.166910	0.871270	0.355020
O1051	O105	0.060930	0.961750	0.825010
O1061	O106	0.061260	0.962190	0.150050
O1071	O107	0.042910	0.973950	0.901960
O1081	O108	0.211540	0.843400	0.853620
O1091	O109	0.111900	0.907440	0.368930
O1101	O110	0.289880	0.761220	0.205910
O1111	O111	0.332990	0.711000	0.189430
O1121	O112	0.346930	0.658840	0.016530
O1131	O113	0.072870	0.863710	0.465600
O1141	O114	0.099390	0.816080	0.418270
C2171	C217	0.065670	0.957740	0.195580
C2181	C218	0.185010	0.868280	0.838200
N491	N49	0.183330	0.865700	0.169680
H931	H93	0.200800	0.851400	0.185800
O1151	O115	0.879150	0.727830	0.237400
N501	N50	0.210100	0.834300	0.103300
C2191	C219	0.137570	0.892880	0.340410
N511	N51	0.144100	0.904700	0.010860
H941	H94	0.130800	0.922800	0.027200
C2201	C220	0.325240	0.687790	0.000600
C2211	C221	0.156140	0.888900	0.200000
N521	N52	0.163100	0.887600	0.089680
C2221	C222	0.305500	0.715250	0.036700
C2231	C223	0.065620	0.957610	0.870810
C2241	C224	0.108280	0.929400	0.941410
H951	H95	0.091000	0.942300	0.963900
C2251	C225	0.306040	0.737000	0.175600
O1161	O116	0.830710	0.697680	0.196660
C2261	C226	0.126400	0.913800	0.182000
H961	H96	0.123800	0.918200	0.147700
N531	N53	0.191600	0.853000	0.020020
C2271	C227	0.070360	0.830400	0.444100
C2281	C228	0.099750	0.932830	0.215900
C2291	C229	0.297560	0.740060	0.121200
C2301	C230	0.140500	0.906600	0.958910
C2311	C231	0.103900	0.926480	0.266740
H971	H97	0.086000	0.938700	0.289000
C2321	C232	0.101360	0.933260	0.888540
C2331	C233	0.166200	0.886300	0.925400
C2341	C234	0.865400	0.696100	0.217000
C2351	C235	0.135090	0.901560	0.284670
C2361	C236	0.159330	0.890460	0.873510
C2371	C237	0.279200	0.745000	0.020000
H981	H98	0.273400	0.746800	0.986000
C2381	C238	0.185600	0.863000	0.116600
C2391	C239	0.314900	0.712490	0.086300
H991	H99	0.332700	0.692500	0.097400
C2401	C240	0.160830	0.883140	0.251100
H1001	H100	0.181600	0.866600	0.262800
C2411	C241	0.166300	0.877600	0.040100
C2421	C242	0.269800	0.769000	0.104360
H1011	H101	0.257000	0.786100	0.127200
C2431	C243	0.261200	0.772500	0.053300
C2441	C244	0.890000	0.658100	0.217800
C2451	C245	0.032100	0.806300	0.446300
C2461	C246	0.001100	0.818300	0.479100
H1021	H102	0.004000	0.841500	0.498400
O1171	O117	0.279400	0.673570	0.265000
O1181	O118	0.251210	0.724850	0.305900
C2471	C247	0.211600	0.829500	0.053400
N541	N54	0.235900	0.801100	0.032150
H1031	H103	0.235500	0.800800	0.999900
C2481	C248	0.126520	0.914710	0.856550
H1041	H104	0.122400	0.917800	0.822300
O1191	O119	0.932300	0.844400	0.530700
N551	N55	0.979940	0.718800	0.385000
H1051	H105	0.954800	0.711800	0.384200
N561	N56	0.106540	0.684300	0.328900
H1061	H106	0.114200	0.702200	0.350300
N571	N57	0.993100	0.626700	0.256100
H1071	H107	0.009600	0.609900	0.242300
C2491	C249	0.960100	0.763000	0.451700
H1081	H108	0.935500	0.749200	0.453300
C2501	C250	0.953400	0.625400	0.239100
C2511	C251	0.065200	0.677700	0.325800
N581	N58	0.044120	0.701700	0.358600
C2521	C252	0.005000	0.698300	0.354200
C2531	C253	0.929400	0.659600	0.240400
H1091	H109	0.938500	0.683200	0.255800
C2541	C254	0.026290	0.773100	0.417200
H1101	H110	0.047200	0.765200	0.396000
C2551	C255	0.989700	0.749700	0.417400
N591	N59	0.985480	0.671400	0.323000
C2561	C256	0.133500	0.633700	0.270800
H1111	H111	0.108500	0.620800	0.267300
C2571	C257	0.209300	0.670500	0.280000
N601	N60	0.050400	0.651900	0.293800
C2581	C258	0.175800	0.684200	0.307500
H1121	H112	0.178600	0.705700	0.329700
C2591	C259	0.250050	0.691700	0.286300
C2601	C260	0.204000	0.637500	0.250800
H1131	H113	0.226400	0.626300	0.234700
C2611	C261	0.876600	0.622900	0.197000
H1141	H114	0.851000	0.622200	0.182300
C2621	C262	0.137700	0.665300	0.301200
C2631	C263	0.966000	0.795400	0.482700
C2641	C264	0.899600	0.588700	0.197200
O1201	O120	0.850900	0.547200	0.161600
C2651	C265	0.884900	0.549200	0.176800
O1211	O121	0.903900	0.520100	0.174800
O1221	O122	0.126800	0.566200	0.204200
C2661	C266	0.939500	0.589500	0.218600
H1151	H115	0.955700	0.566300	0.218700
O1231	O123	0.190200	0.574300	0.179000
C2671	C267	0.009600	0.651900	0.293000
C2681	C268	0.167000	0.620200	0.244300
C2691	C269	0.160600	0.585600	0.205000
O1241	O124	0.909600	0.778900	0.535800
C2701	C270	0.933200	0.806900	0.519300
Cd141	Cd14	0.849110	0.480060	0.146870
O1251	O125	0.785900	0.492200	0.106400
Cd151	Cd15	0.232860	0.820370	0.777060
Cd161	Cd16	0.858140	0.129420	0.437240
O1261	O126	0.820350	0.127750	0.791900
O1271	O127	0.958240	0.025840	0.227090
O1281	O128	0.677620	0.305780	0.954590
O1291	O129	0.833090	0.128730	0.355020
O1301	O130	0.939070	0.038250	0.825010
O1311	O131	0.938740	0.037810	0.150050
O1321	O132	0.957090	0.026050	0.901960
O1331	O133	0.788460	0.156600	0.853620
O1341	O134	0.888100	0.092560	0.368930
O1351	O135	0.710120	0.238780	0.205910
O1361	O136	0.667010	0.289000	0.189430
O1371	O137	0.653070	0.341160	0.016530
O1381	O138	0.927130	0.136290	0.465600
O1391	O139	0.900610	0.183920	0.418270
C2711	C271	0.934330	0.042260	0.195580
C2721	C272	0.814990	0.131720	0.838200
N611	N61	0.816670	0.134300	0.169680
H1161	H116	0.799200	0.148600	0.185800
O1401	O140	0.120850	0.272170	0.237400
N621	N62	0.789900	0.165700	0.103300
C2731	C273	0.862430	0.107120	0.340410
N631	N63	0.855900	0.095300	0.010860
H1171	H117	0.869200	0.077200	0.027200
C2741	C274	0.674760	0.312210	0.000600
C2751	C275	0.843860	0.111100	0.200000
N641	N64	0.836900	0.112400	0.089680
C2761	C276	0.694500	0.284750	0.036700
C2771	C277	0.934380	0.042390	0.870810
C2781	C278	0.891720	0.070600	0.941410
H1181	H118	0.909000	0.057700	0.963900
C2791	C279	0.693960	0.263000	0.175600
O1411	O141	0.169290	0.302320	0.196660
C2801	C280	0.873600	0.086200	0.182000
H1191	H119	0.876200	0.081800	0.147700
N651	N65	0.808400	0.147000	0.020020
C2811	C281	0.929640	0.169600	0.444100
C2821	C282	0.900250	0.067170	0.215900
C2831	C283	0.702440	0.259940	0.121200
C2841	C284	0.859500	0.093400	0.958910
C2851	C285	0.896100	0.073520	0.266740
H1201	H120	0.914000	0.061300	0.289000
C2861	C286	0.898640	0.066740	0.888540
C2871	C287	0.833800	0.113700	0.925400
C2881	C288	0.134600	0.303900	0.217000
C2891	C289	0.864910	0.098440	0.284670
C2901	C290	0.840670	0.109540	0.873510
C2911	C291	0.720800	0.255000	0.020000
H1211	H121	0.726600	0.253200	0.986000
C2921	C292	0.814400	0.137000	0.116600
C2931	C293	0.685100	0.287510	0.086300
H1221	H122	0.667300	0.307500	0.097400
C2941	C294	0.839170	0.116860	0.251100
H1231	H123	0.818400	0.133400	0.262800
C2951	C295	0.833700	0.122400	0.040100
C2961	C296	0.730200	0.231000	0.104360
H1241	H124	0.743000	0.213900	0.127200
C2971	C297	0.738800	0.227500	0.053300
C2981	C298	0.110000	0.341900	0.217800
C2991	C299	0.967900	0.193700	0.446300
C3001	C300	0.998900	0.181700	0.479100
H1251	H125	0.996000	0.158500	0.498400
O1421	O142	0.720600	0.326430	0.265000
O1431	O143	0.748790	0.275150	0.305900
C3011	C301	0.788400	0.170500	0.053400
N661	N66	0.764100	0.198900	0.032150
H1261	H126	0.764500	0.199200	0.999900
C3021	C302	0.873480	0.085290	0.856550
H1271	H127	0.877600	0.082200	0.822300
O1441	O144	0.067700	0.155600	0.530700
N671	N67	0.020060	0.281200	0.385000
H1281	H128	0.045200	0.288200	0.384200
N681	N68	0.893460	0.315700	0.328900
H1291	H129	0.885800	0.297800	0.350300
N691	N69	0.006900	0.373300	0.256100
H1301	H130	0.990400	0.390100	0.242300
C3031	C303	0.039900	0.237000	0.451700
H1311	H131	0.064500	0.250800	0.453300
C3041	C304	0.046600	0.374600	0.239100
C3051	C305	0.934800	0.322300	0.325800
N701	N70	0.955880	0.298300	0.358600
C3061	C306	0.995000	0.301700	0.354200
C3071	C307	0.070600	0.340400	0.240400
H1321	H132	0.061500	0.316800	0.255800
C3081	C308	0.973710	0.226900	0.417200
H1331	H133	0.952800	0.234800	0.396000
C3091	C309	0.010300	0.250300	0.417400
N711	N71	0.014520	0.328600	0.323000
C3101	C310	0.866500	0.366300	0.270800
H1341	H134	0.891500	0.379200	0.267300
C3111	C311	0.790700	0.329500	0.280000
N721	N72	0.949600	0.348100	0.293800
C3121	C312	0.824200	0.315800	0.307500
H1351	H135	0.821400	0.294300	0.329700
C3131	C313	0.749950	0.308300	0.286300
C3141	C314	0.796000	0.362500	0.250800
H1361	H136	0.773600	0.373700	0.234700
C3151	C315	0.123400	0.377100	0.197000
H1371	H137	0.149000	0.377800	0.182300
C3161	C316	0.862300	0.334700	0.301200
C3171	C317	0.034000	0.204600	0.482700
C3181	C318	0.100400	0.411300	0.197200
O1451	O145	0.149100	0.452800	0.161600
C3191	C319	0.115100	0.450800	0.176800
O1461	O146	0.096100	0.479900	0.174800
O1471	O147	0.873200	0.433800	0.204200
C3201	C320	0.060500	0.410500	0.218600
H1381	H138	0.044300	0.433700	0.218700
O1481	O148	0.809800	0.425700	0.179000
C3211	C321	0.990400	0.348100	0.293000
C3221	C322	0.833000	0.379800	0.244300
C3231	C323	0.839400	0.414400	0.205000
O1491	O149	0.090400	0.221100	0.535800
C3241	C324	0.066800	0.193100	0.519300
Cd171	Cd17	0.150890	0.519940	0.146870
O1501	O150	0.214100	0.507800	0.106400
Cd181	Cd18	0.767140	0.179630	0.777060
Cd191	Cd19	0.129420	0.141860	0.562760
O1511	O151	0.127750	0.179650	0.208100
O1521	O152	0.025840	0.041760	0.772910
O1531	O153	0.305780	0.322380	0.045410
O1541	O154	0.128730	0.166910	0.644980
O1551	O155	0.038250	0.060930	0.174990
O1561	O156	0.037810	0.061260	0.849950
O1571	O157	0.026050	0.042910	0.098040
O1581	O158	0.156600	0.211540	0.146380
O1591	O159	0.092560	0.111900	0.631070
O1601	O160	0.238780	0.289880	0.794090
O1611	O161	0.289000	0.332990	0.810570
O1621	O162	0.341160	0.346930	0.983470
O1631	O163	0.136290	0.072870	0.534400
O1641	O164	0.183920	0.099390	0.581730
C3251	C325	0.042260	0.065670	0.804420
C3261	C326	0.131720	0.185010	0.161800
N731	N73	0.134300	0.183330	0.830320
H1391	H139	0.148600	0.200800	0.814200
O1651	O165	0.272170	0.879150	0.762600
N741	N74	0.165700	0.210100	0.896700
C3271	C327	0.107120	0.137570	0.659590
N751	N75	0.095300	0.144100	0.989140
H1401	H140	0.077200	0.130800	0.972800
C3281	C328	0.312210	0.325240	0.999400
C3291	C329	0.111100	0.156140	0.800000
N761	N76	0.112400	0.163100	0.910320
C3301	C330	0.284750	0.305500	0.963300
C3311	C331	0.042390	0.065620	0.129190
C3321	C332	0.070600	0.108280	0.058590
H1411	H141	0.057700	0.091000	0.036100
C3331	C333	0.263000	0.306040	0.824400
O1661	O166	0.302320	0.830710	0.803340
C3341	C334	0.086200	0.126400	0.818000
H1421	H142	0.081800	0.123800	0.852300
N771	N77	0.147000	0.191600	0.979980
C3351	C335	0.169600	0.070360	0.555900
C3361	C336	0.067170	0.099750	0.784100
C3371	C337	0.259940	0.297560	0.878800
C3381	C338	0.093400	0.140500	0.041090
C3391	C339	0.073520	0.103900	0.733260
H1431	H143	0.061300	0.086000	0.711000
C3401	C340	0.066740	0.101360	0.111460
C3411	C341	0.113700	0.166200	0.074600
C3421	C342	0.303900	0.865400	0.783000
C3431	C343	0.098440	0.135090	0.715330
C3441	C344	0.109540	0.159330	0.126490
C3451	C345	0.255000	0.279200	0.980000
H1441	H144	0.253200	0.273400	0.014000
C3461	C346	0.137000	0.185600	0.883400
C3471	C347	0.287510	0.314900	0.913700
H1451	H145	0.307500	0.332700	0.902600
C3481	C348	0.116860	0.160830	0.748900
H1461	H146	0.133400	0.181600	0.737200
C3491	C349	0.122400	0.166300	0.959900
C3501	C350	0.231000	0.269800	0.895640
H1471	H147	0.213900	0.257000	0.872800
C3511	C351	0.227500	0.261200	0.946700
C3521	C352	0.341900	0.890000	0.782200
C3531	C353	0.193700	0.032100	0.553700
C3541	C354	0.181700	0.001100	0.520900
H1481	H148	0.158500	0.004000	0.501600
O1671	O167	0.326430	0.279400	0.735000
O1681	O168	0.275150	0.251210	0.694100
C3551	C355	0.170500	0.211600	0.946600
N781	N78	0.198900	0.235900	0.967850
H1491	H149	0.199200	0.235500	0.000100
C3561	C356	0.085290	0.126520	0.143450
H1501	H150	0.082200	0.122400	0.177700
O1691	O169	0.155600	0.932300	0.469300
N791	N79	0.281200	0.979940	0.615000
H1511	H151	0.288200	0.954800	0.615800
N801	N80	0.315700	0.106540	0.671100
H1521	H152	0.297800	0.114200	0.649700
N811	N81	0.373300	0.993100	0.743900
H1531	H153	0.390100	0.009600	0.757700
C3571	C357	0.237000	0.960100	0.548300
H1541	H154	0.250800	0.935500	0.546700
C3581	C358	0.374600	0.953400	0.760900
C3591	C359	0.322300	0.065200	0.674200
N821	N82	0.298300	0.044120	0.641400
C3601	C360	0.301700	0.005000	0.645800
C3611	C361	0.340400	0.929400	0.759600
H1551	H155	0.316800	0.938500	0.744200
C3621	C362	0.226900	0.026290	0.582800
H1561	H156	0.234800	0.047200	0.604000
C3631	C363	0.250300	0.989700	0.582600
N831	N83	0.328600	0.985480	0.677000
C3641	C364	0.366300	0.133500	0.729200
H1571	H157	0.379200	0.108500	0.732700
C3651	C365	0.329500	0.209300	0.720000
N841	N84	0.348100	0.050400	0.706200
C3661	C366	0.315800	0.175800	0.692500
H1581	H158	0.294300	0.178600	0.670300
C3671	C367	0.308300	0.250050	0.713700
C3681	C368	0.362500	0.204000	0.749200
H1591	H159	0.373700	0.226400	0.765300
C3691	C369	0.377100	0.876600	0.803000
H1601	H160	0.377800	0.851000	0.817700
C3701	C370	0.334700	0.137700	0.698800
C3711	C371	0.204600	0.966000	0.517300
C3721	C372	0.411300	0.899600	0.802800
O1701	O170	0.452800	0.850900	0.838400
C3731	C373	0.450800	0.884900	0.823200
O1711	O171	0.479900	0.903900	0.825200
O1721	O172	0.433800	0.126800	0.795800
C3741	C374	0.410500	0.939500	0.781400
H1611	H161	0.433700	0.955700	0.781300
O1731	O173	0.425700	0.190200	0.821000
C3751	C375	0.348100	0.009600	0.707000
C3761	C376	0.379800	0.167000	0.755700
C3771	C377	0.414400	0.160600	0.795000
O1741	O174	0.221100	0.909600	0.464200
C3781	C378	0.193100	0.933200	0.480700
Cd201	Cd20	0.519940	0.849110	0.853130
O1751	O175	0.507800	0.785900	0.893600
Cd211	Cd21	0.179630	0.232860	0.222940
Cd221	Cd22	0.870580	0.858140	0.562760
O1761	O176	0.872250	0.820350	0.208100
O1771	O177	0.974160	0.958240	0.772910
O1781	O178	0.694220	0.677620	0.045410
O1791	O179	0.871270	0.833090	0.644980
O1801	O180	0.961750	0.939070	0.174990
O1811	O181	0.962190	0.938740	0.849950
O1821	O182	0.973950	0.957090	0.098040
O1831	O183	0.843400	0.788460	0.146380
O1841	O184	0.907440	0.888100	0.631070
O1851	O185	0.761220	0.710120	0.794090
O1861	O186	0.711000	0.667010	0.810570
O1871	O187	0.658840	0.653070	0.983470
O1881	O188	0.863710	0.927130	0.534400
O1891	O189	0.816080	0.900610	0.581730
C3791	C379	0.957740	0.934330	0.804420
C3801	C380	0.868280	0.814990	0.161800
N851	N85	0.865700	0.816670	0.830320
H1621	H162	0.851400	0.799200	0.814200
O1901	O190	0.727830	0.120850	0.762600
N861	N86	0.834300	0.789900	0.896700
C3811	C381	0.892880	0.862430	0.659590
N871	N87	0.904700	0.855900	0.989140
H1631	H163	0.922800	0.869200	0.972800
C3821	C382	0.687790	0.674760	0.999400
C3831	C383	0.888900	0.843860	0.800000
N881	N88	0.887600	0.836900	0.910320
C3841	C384	0.715250	0.694500	0.963300
C3851	C385	0.957610	0.934380	0.129190
C3861	C386	0.929400	0.891720	0.058590
H1641	H164	0.942300	0.909000	0.036100
C3871	C387	0.737000	0.693960	0.824400
O1911	O191	0.697680	0.169290	0.803340
C3881	C388	0.913800	0.873600	0.818000
H1651	H165	0.918200	0.876200	0.852300
N891	N89	0.853000	0.808400	0.979980
C3891	C389	0.830400	0.929640	0.555900
C3901	C390	0.932830	0.900250	0.784100
C3911	C391	0.740060	0.702440	0.878800
C3921	C392	0.906600	0.859500	0.041090
C3931	C393	0.926480	0.896100	0.733260
H1661	H166	0.938700	0.914000	0.711000
C3941	C394	0.933260	0.898640	0.111460
C3951	C395	0.886300	0.833800	0.074600
C3961	C396	0.696100	0.134600	0.783000
C3971	C397	0.901560	0.864910	0.715330
C3981	C398	0.890460	0.840670	0.126490
C3991	C399	0.745000	0.720800	0.980000
H1671	H167	0.746800	0.726600	0.014000
C4001	C400	0.863000	0.814400	0.883400
C4011	C401	0.712490	0.685100	0.913700
H1681	H168	0.692500	0.667300	0.902600
C4021	C402	0.883140	0.839170	0.748900
H1691	H169	0.866600	0.818400	0.737200
C4031	C403	0.877600	0.833700	0.959900
C4041	C404	0.769000	0.730200	0.895640
H1701	H170	0.786100	0.743000	0.872800
C4051	C405	0.772500	0.738800	0.946700
C4061	C406	0.658100	0.110000	0.782200
C4071	C407	0.806300	0.967900	0.553700
C4081	C408	0.818300	0.998900	0.520900
H1711	H171	0.841500	0.996000	0.501600
O1921	O192	0.673570	0.720600	0.735000
O1931	O193	0.724850	0.748790	0.694100
C4091	C409	0.829500	0.788400	0.946600
N901	N90	0.801100	0.764100	0.967850
H1721	H172	0.800800	0.764500	0.000100
C4101	C410	0.914710	0.873480	0.143450
H1731	H173	0.917800	0.877600	0.177700
O1941	O194	0.844400	0.067700	0.469300
N911	N91	0.718800	0.020060	0.615000
H1741	H174	0.711800	0.045200	0.615800
N921	N92	0.684300	0.893460	0.671100
H1751	H175	0.702200	0.885800	0.649700
N931	N93	0.626700	0.006900	0.743900
H1761	H176	0.609900	0.990400	0.757700
C4111	C411	0.763000	0.039900	0.548300
H1771	H177	0.749200	0.064500	0.546700
C4121	C412	0.625400	0.046600	0.760900
C4131	C413	0.677700	0.934800	0.674200
N941	N94	0.701700	0.955880	0.641400
C4141	C414	0.698300	0.995000	0.645800
C4151	C415	0.659600	0.070600	0.759600
H1781	H178	0.683200	0.061500	0.744200
C4161	C416	0.773100	0.973710	0.582800
H1791	H179	0.765200	0.952800	0.604000
C4171	C417	0.749700	0.010300	0.582600
N951	N95	0.671400	0.014520	0.677000
C4181	C418	0.633700	0.866500	0.729200
H1801	H180	0.620800	0.891500	0.732700
C4191	C419	0.670500	0.790700	0.720000
N961	N96	0.651900	0.949600	0.706200
C4201	C420	0.684200	0.824200	0.692500
H1811	H181	0.705700	0.821400	0.670300
C4211	C421	0.691700	0.749950	0.713700
C4221	C422	0.637500	0.796000	0.749200
H1821	H182	0.626300	0.773600	0.765300
C4231	C423	0.622900	0.123400	0.803000
H1831	H183	0.622200	0.149000	0.817700
C4241	C424	0.665300	0.862300	0.698800
C4251	C425	0.795400	0.034000	0.517300
C4261	C426	0.588700	0.100400	0.802800
O1951	O195	0.547200	0.149100	0.838400
C4271	C427	0.549200	0.115100	0.823200
O1961	O196	0.520100	0.096100	0.825200
O1971	O197	0.566200	0.873200	0.795800
C4281	C428	0.589500	0.060500	0.781400
H1841	H184	0.566300	0.044300	0.781300
O1981	O198	0.574300	0.809800	0.821000
C4291	C429	0.651900	0.990400	0.707000
C4301	C430	0.620200	0.833000	0.755700
C4311	C431	0.585600	0.839400	0.795000
O1991	O199	0.778900	0.090400	0.464200
C4321	C432	0.806900	0.066800	0.480700
Cd231	Cd23	0.480060	0.150890	0.853130
O2001	O200	0.492200	0.214100	0.893600
Cd241	Cd24	0.820370	0.767140	0.222940
Cd251	Cd25	0.500000	0.500000	0.661270
Cd261	Cd26	0.500000	0.500000	0.338730
Cd271	Cd27	0.000000	0.000000	0.838730
Cd281	Cd28	0.000000	0.000000	0.161270
