data_QANSUV_freeONLY_PM
_symmetry_space_group_name_H-M	'P1'
_cell_length_a	23.964700
_cell_length_b	23.964700
_cell_length_c	40.979000
_cell_angle_alpha	90.000000
_cell_angle_beta	90.000000
_cell_angle_gamma	120.000000
_symmetry_Int_Tables_number 1

loop_
_symmetry_equiv_pos_as_xyz
'x,y,z'

loop_
_atom_site_label
_atom_site_type_symbol
_atom_site_fract_x
_atom_site_fract_y
_atom_site_fract_z
Cu11	Cu1	0.696910	0.951200	0.282680
Cu21	Cu2	0.766320	0.201780	0.232350
N11	N1	0.693600	0.033300	0.284380
N21	N2	0.720200	0.073400	0.259350
N31	N3	0.721800	0.128900	0.264160
N41	N4	0.779600	0.934600	0.365680
N51	N5	0.735600	0.920300	0.343000
N61	N6	0.747600	0.970100	0.323990
O11	O1	0.560400	0.011200	0.392450
H11	H1	0.560100	0.982100	0.380500
O21	O2	0.594000	0.114600	0.399220
O31	O3	0.005600	0.116600	0.402140
O41	O4	0.021200	0.196200	0.369680
O51	O5	0.665200	0.859900	0.288630
H21	H2	0.690000	0.851100	0.277800
C11	C1	0.883000	0.037000	0.377330
H31	H3	0.895500	0.021900	0.395200
C21	C2	0.920700	0.097800	0.365700
C31	C3	0.899300	0.122200	0.339700
H41	H4	0.925100	0.164800	0.333200
C41	C4	0.841800	0.084700	0.324000
H51	H5	0.828400	0.100800	0.306900
C51	C5	0.804600	0.021200	0.334850
C61	C6	0.824500	0.998100	0.361290
C71	C7	0.986600	0.139000	0.380500
C81	C8	0.642200	0.043300	0.336170
H61	H6	0.628400	0.002300	0.344500
C91	C9	0.630400	0.086600	0.352280
C101	C10	0.650900	0.148700	0.339500
H71	H7	0.642600	0.176800	0.351400
C111	C11	0.682100	0.168900	0.310500
H81	H8	0.695000	0.209800	0.302300
C121	C12	0.694000	0.124600	0.293480
C131	C13	0.675700	0.063600	0.306630
C141	C14	0.592000	0.068200	0.384000
Cu31	Cu3	0.363580	0.284530	0.616010
Cu41	Cu4	0.432990	0.535110	0.565680
N71	N7	0.360270	0.366630	0.617710
N81	N8	0.386870	0.406730	0.592680
N91	N9	0.388470	0.462230	0.597490
N101	N10	0.446270	0.267930	0.699010
N111	N11	0.402270	0.253630	0.676330
N121	N12	0.414270	0.303430	0.657320
O61	O6	0.227070	0.344530	0.725780
H91	H9	0.226770	0.315430	0.713830
O71	O7	0.260670	0.447930	0.732550
O81	O8	0.672270	0.449930	0.735470
O91	O9	0.687870	0.529530	0.703010
O101	O10	0.331870	0.193230	0.621960
H101	H10	0.356670	0.184430	0.611130
C151	C15	0.549670	0.370330	0.710660
H111	H11	0.562170	0.355230	0.728530
C161	C16	0.587370	0.431130	0.699030
C171	C17	0.565970	0.455530	0.673030
H121	H12	0.591770	0.498130	0.666530
C181	C18	0.508470	0.418030	0.657330
H131	H13	0.495070	0.434130	0.640230
C191	C19	0.471270	0.354530	0.668180
C201	C20	0.491170	0.331430	0.694620
C211	C21	0.653270	0.472330	0.713830
C221	C22	0.308870	0.376630	0.669500
H141	H14	0.295070	0.335630	0.677830
C231	C23	0.297070	0.419930	0.685610
C241	C24	0.317570	0.482030	0.672830
H151	H15	0.309270	0.510130	0.684730
C251	C25	0.348770	0.502230	0.643830
H161	H16	0.361670	0.543130	0.635630
C261	C26	0.360670	0.457930	0.626810
C271	C27	0.342370	0.396930	0.639960
C281	C28	0.258670	0.401530	0.717330
Cu51	Cu5	0.030240	0.617870	0.949350
Cu61	Cu6	0.099650	0.868450	0.899020
N131	N13	0.026930	0.699970	0.951050
N141	N14	0.053530	0.740070	0.926020
N151	N15	0.055130	0.795570	0.930830
N161	N16	0.112930	0.601270	0.032350
N171	N17	0.068930	0.586970	0.009670
N181	N18	0.080930	0.636770	0.990660
O111	O11	0.893730	0.677870	0.059120
H171	H17	0.893430	0.648770	0.047170
O121	O12	0.927330	0.781270	0.065890
O131	O13	0.338930	0.783270	0.068810
O141	O14	0.354530	0.862870	0.036350
O151	O15	0.998530	0.526570	0.955300
H181	H18	0.023330	0.517770	0.944470
C291	C29	0.216330	0.703670	0.044000
H191	H19	0.228830	0.688570	0.061870
C301	C30	0.254030	0.764470	0.032370
C311	C31	0.232630	0.788870	0.006370
H201	H20	0.258430	0.831470	0.999870
C321	C32	0.175130	0.751370	0.990670
H211	H21	0.161730	0.767470	0.973570
C331	C33	0.137930	0.687870	0.001520
C341	C34	0.157830	0.664770	0.027960
C351	C35	0.319930	0.805670	0.047170
C361	C36	0.975530	0.709970	0.002840
H221	H22	0.961730	0.668970	0.011170
C371	C37	0.963730	0.753270	0.018950
C381	C38	0.984230	0.815370	0.006170
H231	H23	0.975930	0.843470	0.018070
C391	C39	0.015430	0.835570	0.977170
H241	H24	0.028330	0.876470	0.968970
C401	C40	0.027330	0.791270	0.960150
C411	C41	0.009030	0.730270	0.973300
C421	C42	0.925330	0.734870	0.050670
Cu71	Cu7	0.048800	0.745710	0.282680
Cu81	Cu8	0.798220	0.564540	0.232350
N191	N19	0.966700	0.660300	0.284380
N201	N20	0.926600	0.646800	0.259350
N211	N21	0.871100	0.592900	0.264160
N221	N22	0.065400	0.845000	0.365680
N231	N23	0.079700	0.815300	0.343000
N241	N24	0.029900	0.777500	0.323990
O161	O16	0.988800	0.549200	0.392450
H251	H25	0.017900	0.578000	0.380500
O171	O17	0.885400	0.479400	0.399220
O181	O18	0.883400	0.889000	0.402140
O191	O19	0.803800	0.825000	0.369680
O201	O20	0.140100	0.805300	0.288630
H261	H26	0.148900	0.838900	0.277800
C431	C43	0.963000	0.846000	0.377330
H271	H27	0.978100	0.873600	0.395200
C441	C44	0.902200	0.822900	0.365700
C451	C45	0.877800	0.777100	0.339700
H281	H28	0.835200	0.760300	0.333200
C461	C46	0.915300	0.757100	0.324000
H291	H29	0.899200	0.727600	0.306900
C471	C47	0.978800	0.783400	0.334850
C481	C48	0.001900	0.826400	0.361290
C491	C49	0.861000	0.847600	0.380500
C501	C50	0.956700	0.598900	0.336170
H301	H30	0.997700	0.626100	0.344500
C511	C51	0.913400	0.543800	0.352280
C521	C52	0.851300	0.502200	0.339500
H311	H31	0.823200	0.465800	0.351400
C531	C53	0.831100	0.513200	0.310500
H321	H32	0.790200	0.485200	0.302300
C541	C54	0.875400	0.569400	0.293480
C551	C55	0.936400	0.612100	0.306630
C561	C56	0.931800	0.523800	0.384000
Cu91	Cu9	0.715470	0.079040	0.616010
Cu101	Cu10	0.464890	0.897870	0.565680
N251	N25	0.633370	0.993630	0.617710
N261	N26	0.593270	0.980130	0.592680
N271	N27	0.537770	0.926230	0.597490
N281	N28	0.732070	0.178330	0.699010
N291	N29	0.746370	0.148630	0.676330
N301	N30	0.696570	0.110830	0.657320
O211	O21	0.655470	0.882530	0.725780
H331	H33	0.684570	0.911330	0.713830
O221	O22	0.552070	0.812730	0.732550
O231	O23	0.550070	0.222330	0.735470
O241	O24	0.470470	0.158330	0.703010
O251	O25	0.806770	0.138630	0.621960
H341	H34	0.815570	0.172230	0.611130
C571	C57	0.629670	0.179330	0.710660
H351	H35	0.644770	0.206930	0.728530
C581	C58	0.568870	0.156230	0.699030
C591	C59	0.544470	0.110430	0.673030
H361	H36	0.501870	0.093630	0.666530
C601	C60	0.581970	0.090430	0.657330
H371	H37	0.565870	0.060930	0.640230
C611	C61	0.645470	0.116730	0.668180
C621	C62	0.668570	0.159730	0.694620
C631	C63	0.527670	0.180930	0.713830
C641	C64	0.623370	0.932230	0.669500
H381	H38	0.664370	0.959430	0.677830
C651	C65	0.580070	0.877130	0.685610
C661	C66	0.517970	0.835530	0.672830
H391	H39	0.489870	0.799130	0.684730
C671	C67	0.497770	0.846530	0.643830
H401	H40	0.456870	0.818530	0.635630
C681	C68	0.542070	0.902730	0.626810
C691	C69	0.603070	0.945430	0.639960
C701	C70	0.598470	0.857130	0.717330
Cu111	Cu11	0.382130	0.412380	0.949350
Cu121	Cu12	0.131550	0.231210	0.899020
N311	N31	0.300030	0.326970	0.951050
N321	N32	0.259930	0.313470	0.926020
N331	N33	0.204430	0.259570	0.930830
N341	N34	0.398730	0.511670	0.032350
N351	N35	0.413030	0.481970	0.009670
N361	N36	0.363230	0.444170	0.990660
O261	O26	0.322130	0.215870	0.059120
H411	H41	0.351230	0.244670	0.047170
O271	O27	0.218730	0.146070	0.065890
O281	O28	0.216730	0.555670	0.068810
O291	O29	0.137130	0.491670	0.036350
O301	O30	0.473430	0.471970	0.955300
H421	H42	0.482230	0.505570	0.944470
C711	C71	0.296330	0.512670	0.044000
H431	H43	0.311430	0.540270	0.061870
C721	C72	0.235530	0.489570	0.032370
C731	C73	0.211130	0.443770	0.006370
H441	H44	0.168530	0.426970	0.999870
C741	C74	0.248630	0.423770	0.990670
H451	H45	0.232530	0.394270	0.973570
C751	C75	0.312130	0.450070	0.001520
C761	C76	0.335230	0.493070	0.027960
C771	C77	0.194330	0.514270	0.047170
C781	C78	0.290030	0.265570	0.002840
H461	H46	0.331030	0.292770	0.011170
C791	C79	0.246730	0.210470	0.018950
C801	C80	0.184630	0.168870	0.006170
H471	H47	0.156530	0.132470	0.018070
C811	C81	0.164430	0.179870	0.977170
H481	H48	0.123530	0.151870	0.968970
C821	C82	0.208730	0.236070	0.960150
C831	C83	0.269730	0.278770	0.973300
C841	C84	0.265130	0.190470	0.050670
Cu131	Cu13	0.254290	0.303090	0.282680
Cu141	Cu14	0.435460	0.233680	0.232350
N371	N37	0.339700	0.306400	0.284380
N381	N38	0.353200	0.279800	0.259350
N391	N39	0.407100	0.278200	0.264160
N401	N40	0.155000	0.220400	0.365680
N411	N41	0.184700	0.264400	0.343000
N421	N42	0.222500	0.252400	0.323990
O311	O31	0.450800	0.439600	0.392450
H491	H49	0.422000	0.439900	0.380500
O321	O32	0.520600	0.406000	0.399220
O331	O33	0.111000	0.994400	0.402140
O341	O34	0.175000	0.978800	0.369680
O351	O35	0.194700	0.334800	0.288630
H501	H50	0.161100	0.310000	0.277800
C851	C85	0.154000	0.117000	0.377330
H511	H51	0.126400	0.104500	0.395200
C861	C86	0.177100	0.079300	0.365700
C871	C87	0.222900	0.100700	0.339700
H521	H52	0.239700	0.074900	0.333200
C881	C88	0.242900	0.158200	0.324000
H531	H53	0.272400	0.171600	0.306900
C891	C89	0.216600	0.195400	0.334850
C901	C90	0.173600	0.175500	0.361290
C911	C91	0.152400	0.013400	0.380500
C921	C92	0.401100	0.357800	0.336170
H541	H54	0.373900	0.371600	0.344500
C931	C93	0.456200	0.369600	0.352280
C941	C94	0.497800	0.349100	0.339500
H551	H55	0.534200	0.357400	0.351400
C951	C95	0.486800	0.317900	0.310500
H561	H56	0.514800	0.305000	0.302300
C961	C96	0.430600	0.306000	0.293480
C971	C97	0.387900	0.324300	0.306630
C981	C98	0.476200	0.408000	0.384000
Cu151	Cu15	0.920960	0.636420	0.616010
Cu161	Cu16	0.102130	0.567010	0.565680
N431	N43	0.006370	0.639730	0.617710
N441	N44	0.019870	0.613130	0.592680
N451	N45	0.073770	0.611530	0.597490
N461	N46	0.821670	0.553730	0.699010
N471	N47	0.851370	0.597730	0.676330
N481	N48	0.889170	0.585730	0.657320
O361	O36	0.117470	0.772930	0.725780
H571	H57	0.088670	0.773230	0.713830
O371	O37	0.187270	0.739330	0.732550
O381	O38	0.777670	0.327730	0.735470
O391	O39	0.841670	0.312130	0.703010
O401	O40	0.861370	0.668130	0.621960
H581	H58	0.827770	0.643330	0.611130
C991	C99	0.820670	0.450330	0.710660
H591	H59	0.793070	0.437830	0.728530
C1001	C100	0.843770	0.412630	0.699030
C1011	C101	0.889570	0.434030	0.673030
H601	H60	0.906370	0.408230	0.666530
C1021	C102	0.909570	0.491530	0.657330
H611	H61	0.939070	0.504930	0.640230
C1031	C103	0.883270	0.528730	0.668180
C1041	C104	0.840270	0.508830	0.694620
C1051	C105	0.819070	0.346730	0.713830
C1061	C106	0.067770	0.691130	0.669500
H621	H62	0.040570	0.704930	0.677830
C1071	C107	0.122870	0.702930	0.685610
C1081	C108	0.164470	0.682430	0.672830
H631	H63	0.200870	0.690730	0.684730
C1091	C109	0.153470	0.651230	0.643830
H641	H64	0.181470	0.638330	0.635630
C1101	C110	0.097270	0.639330	0.626810
C1111	C111	0.054570	0.657630	0.639960
C1121	C112	0.142870	0.741330	0.717330
Cu171	Cu17	0.587620	0.969760	0.949350
Cu181	Cu18	0.768790	0.900350	0.899020
N491	N49	0.673030	0.973070	0.951050
N501	N50	0.686530	0.946470	0.926020
N511	N51	0.740430	0.944870	0.930830
N521	N52	0.488330	0.887070	0.032350
N531	N53	0.518030	0.931070	0.009670
N541	N54	0.555830	0.919070	0.990660
O411	O41	0.784130	0.106270	0.059120
H651	H65	0.755330	0.106570	0.047170
O421	O42	0.853930	0.072670	0.065890
O431	O43	0.444330	0.661070	0.068810
O441	O44	0.508330	0.645470	0.036350
O451	O45	0.528030	0.001470	0.955300
H661	H66	0.494430	0.976670	0.944470
C1131	C113	0.487330	0.783670	0.044000
H671	H67	0.459730	0.771170	0.061870
C1141	C114	0.510430	0.745970	0.032370
C1151	C115	0.556230	0.767370	0.006370
H681	H68	0.573030	0.741570	0.999870
C1161	C116	0.576230	0.824870	0.990670
H691	H69	0.605730	0.838270	0.973570
C1171	C117	0.549930	0.862070	0.001520
C1181	C118	0.506930	0.842170	0.027960
C1191	C119	0.485730	0.680070	0.047170
C1201	C120	0.734430	0.024470	0.002840
H701	H70	0.707230	0.038270	0.011170
C1211	C121	0.789530	0.036270	0.018950
C1221	C122	0.831130	0.015770	0.006170
H711	H71	0.867530	0.024070	0.018070
C1231	C123	0.820130	0.984570	0.977170
H721	H72	0.848130	0.971670	0.968970
C1241	C124	0.763930	0.972670	0.960150
C1251	C125	0.721230	0.990970	0.973300
C1261	C126	0.809530	0.074670	0.050670
Cu191	Cu19	0.951200	0.696910	0.217320
Cu201	Cu20	0.201780	0.766320	0.267650
N551	N55	0.033300	0.693600	0.215620
N561	N56	0.073400	0.720200	0.240650
N571	N57	0.128900	0.721800	0.235840
N581	N58	0.934600	0.779600	0.134320
N591	N59	0.920300	0.735600	0.157000
N601	N60	0.970100	0.747600	0.176010
O461	O46	0.011200	0.560400	0.107550
H731	H73	0.982100	0.560100	0.119500
O471	O47	0.114600	0.594000	0.100780
O481	O48	0.116600	0.005600	0.097860
O491	O49	0.196200	0.021200	0.130320
O501	O50	0.859900	0.665200	0.211370
H741	H74	0.851100	0.690000	0.222200
C1271	C127	0.037000	0.883000	0.122670
H751	H75	0.021900	0.895500	0.104800
C1281	C128	0.097800	0.920700	0.134300
C1291	C129	0.122200	0.899300	0.160300
H761	H76	0.164800	0.925100	0.166800
C1301	C130	0.084700	0.841800	0.176000
H771	H77	0.100800	0.828400	0.193100
C1311	C131	0.021200	0.804600	0.165150
C1321	C132	0.998100	0.824500	0.138710
C1331	C133	0.139000	0.986600	0.119500
C1341	C134	0.043300	0.642200	0.163830
H781	H78	0.002300	0.628400	0.155500
C1351	C135	0.086600	0.630400	0.147720
C1361	C136	0.148700	0.650900	0.160500
H791	H79	0.176800	0.642600	0.148600
C1371	C137	0.168900	0.682100	0.189500
H801	H80	0.209800	0.695000	0.197700
C1381	C138	0.124600	0.694000	0.206520
C1391	C139	0.063600	0.675700	0.193370
C1401	C140	0.068200	0.592000	0.116000
Cu211	Cu21	0.617870	0.030240	0.550650
Cu221	Cu22	0.868450	0.099650	0.600980
N611	N61	0.699970	0.026930	0.548950
N621	N62	0.740070	0.053530	0.573980
N631	N63	0.795570	0.055130	0.569170
N641	N64	0.601270	0.112930	0.467650
N651	N65	0.586970	0.068930	0.490330
N661	N66	0.636770	0.080930	0.509340
O511	O51	0.677870	0.893730	0.440880
H811	H81	0.648770	0.893430	0.452830
O521	O52	0.781270	0.927330	0.434110
O531	O53	0.783270	0.338930	0.431190
O541	O54	0.862870	0.354530	0.463650
O551	O55	0.526570	0.998530	0.544700
H821	H82	0.517770	0.023330	0.555530
C1411	C141	0.703670	0.216330	0.456000
H831	H83	0.688570	0.228830	0.438130
C1421	C142	0.764470	0.254030	0.467630
C1431	C143	0.788870	0.232630	0.493630
H841	H84	0.831470	0.258430	0.500130
C1441	C144	0.751370	0.175130	0.509330
H851	H85	0.767470	0.161730	0.526430
C1451	C145	0.687870	0.137930	0.498480
C1461	C146	0.664770	0.157830	0.472040
C1471	C147	0.805670	0.319930	0.452830
C1481	C148	0.709970	0.975530	0.497160
H861	H86	0.668970	0.961730	0.488830
C1491	C149	0.753270	0.963730	0.481050
C1501	C150	0.815370	0.984230	0.493830
H871	H87	0.843470	0.975930	0.481930
C1511	C151	0.835570	0.015430	0.522830
H881	H88	0.876470	0.028330	0.531030
C1521	C152	0.791270	0.027330	0.539850
C1531	C153	0.730270	0.009030	0.526700
C1541	C154	0.734870	0.925330	0.449330
Cu231	Cu23	0.284530	0.363580	0.883990
Cu241	Cu24	0.535110	0.432990	0.934320
N671	N67	0.366630	0.360270	0.882290
N681	N68	0.406730	0.386870	0.907320
N691	N69	0.462230	0.388470	0.902510
N701	N70	0.267930	0.446270	0.800990
N711	N71	0.253630	0.402270	0.823670
N721	N72	0.303430	0.414270	0.842680
O561	O56	0.344530	0.227070	0.774220
H891	H89	0.315430	0.226770	0.786170
O571	O57	0.447930	0.260670	0.767450
O581	O58	0.449930	0.672270	0.764530
O591	O59	0.529530	0.687870	0.796990
O601	O60	0.193230	0.331870	0.878040
H901	H90	0.184430	0.356670	0.888870
C1551	C155	0.370330	0.549670	0.789340
H911	H91	0.355230	0.562170	0.771470
C1561	C156	0.431130	0.587370	0.800970
C1571	C157	0.455530	0.565970	0.826970
H921	H92	0.498130	0.591770	0.833470
C1581	C158	0.418030	0.508470	0.842670
H931	H93	0.434130	0.495070	0.859770
C1591	C159	0.354530	0.471270	0.831820
C1601	C160	0.331430	0.491170	0.805380
C1611	C161	0.472330	0.653270	0.786170
C1621	C162	0.376630	0.308870	0.830500
H941	H94	0.335630	0.295070	0.822170
C1631	C163	0.419930	0.297070	0.814390
C1641	C164	0.482030	0.317570	0.827170
H951	H95	0.510130	0.309270	0.815270
C1651	C165	0.502230	0.348770	0.856170
H961	H96	0.543130	0.361670	0.864370
C1661	C166	0.457930	0.360670	0.873190
C1671	C167	0.396930	0.342370	0.860040
C1681	C168	0.401530	0.258670	0.782670
Cu251	Cu25	0.745710	0.048800	0.217320
Cu261	Cu26	0.564540	0.798220	0.267650
N731	N73	0.660300	0.966700	0.215620
N741	N74	0.646800	0.926600	0.240650
N751	N75	0.592900	0.871100	0.235840
N761	N76	0.845000	0.065400	0.134320
N771	N77	0.815300	0.079700	0.157000
N781	N78	0.777500	0.029900	0.176010
O611	O61	0.549200	0.988800	0.107550
H971	H97	0.578000	0.017900	0.119500
O621	O62	0.479400	0.885400	0.100780
O631	O63	0.889000	0.883400	0.097860
O641	O64	0.825000	0.803800	0.130320
O651	O65	0.805300	0.140100	0.211370
H981	H98	0.838900	0.148900	0.222200
C1691	C169	0.846000	0.963000	0.122670
H991	H99	0.873600	0.978100	0.104800
C1701	C170	0.822900	0.902200	0.134300
C1711	C171	0.777100	0.877800	0.160300
H1001	H100	0.760300	0.835200	0.166800
C1721	C172	0.757100	0.915300	0.176000
H1011	H101	0.727600	0.899200	0.193100
C1731	C173	0.783400	0.978800	0.165150
C1741	C174	0.826400	0.001900	0.138710
C1751	C175	0.847600	0.861000	0.119500
C1761	C176	0.598900	0.956700	0.163830
H1021	H102	0.626100	0.997700	0.155500
C1771	C177	0.543800	0.913400	0.147720
C1781	C178	0.502200	0.851300	0.160500
H1031	H103	0.465800	0.823200	0.148600
C1791	C179	0.513200	0.831100	0.189500
H1041	H104	0.485200	0.790200	0.197700
C1801	C180	0.569400	0.875400	0.206520
C1811	C181	0.612100	0.936400	0.193370
C1821	C182	0.523800	0.931800	0.116000
Cu271	Cu27	0.412380	0.382130	0.550650
Cu281	Cu28	0.231210	0.131550	0.600980
N791	N79	0.326970	0.300030	0.548950
N801	N80	0.313470	0.259930	0.573980
N811	N81	0.259570	0.204430	0.569170
N821	N82	0.511670	0.398730	0.467650
N831	N83	0.481970	0.413030	0.490330
N841	N84	0.444170	0.363230	0.509340
O661	O66	0.215870	0.322130	0.440880
H1051	H105	0.244670	0.351230	0.452830
O671	O67	0.146070	0.218730	0.434110
O681	O68	0.555670	0.216730	0.431190
O691	O69	0.491670	0.137130	0.463650
O701	O70	0.471970	0.473430	0.544700
H1061	H106	0.505570	0.482230	0.555530
C1831	C183	0.512670	0.296330	0.456000
H1071	H107	0.540270	0.311430	0.438130
C1841	C184	0.489570	0.235530	0.467630
C1851	C185	0.443770	0.211130	0.493630
H1081	H108	0.426970	0.168530	0.500130
C1861	C186	0.423770	0.248630	0.509330
H1091	H109	0.394270	0.232530	0.526430
C1871	C187	0.450070	0.312130	0.498480
C1881	C188	0.493070	0.335230	0.472040
C1891	C189	0.514270	0.194330	0.452830
C1901	C190	0.265570	0.290030	0.497160
H1101	H110	0.292770	0.331030	0.488830
C1911	C191	0.210470	0.246730	0.481050
C1921	C192	0.168870	0.184630	0.493830
H1111	H111	0.132470	0.156530	0.481930
C1931	C193	0.179870	0.164430	0.522830
H1121	H112	0.151870	0.123530	0.531030
C1941	C194	0.236070	0.208730	0.539850
C1951	C195	0.278770	0.269730	0.526700
C1961	C196	0.190470	0.265130	0.449330
Cu291	Cu29	0.079040	0.715470	0.883990
Cu301	Cu30	0.897870	0.464890	0.934320
N851	N85	0.993630	0.633370	0.882290
N861	N86	0.980130	0.593270	0.907320
N871	N87	0.926230	0.537770	0.902510
N881	N88	0.178330	0.732070	0.800990
N891	N89	0.148630	0.746370	0.823670
N901	N90	0.110830	0.696570	0.842680
O711	O71	0.882530	0.655470	0.774220
H1131	H113	0.911330	0.684570	0.786170
O721	O72	0.812730	0.552070	0.767450
O731	O73	0.222330	0.550070	0.764530
O741	O74	0.158330	0.470470	0.796990
O751	O75	0.138630	0.806770	0.878040
H1141	H114	0.172230	0.815570	0.888870
C1971	C197	0.179330	0.629670	0.789340
H1151	H115	0.206930	0.644770	0.771470
C1981	C198	0.156230	0.568870	0.800970
C1991	C199	0.110430	0.544470	0.826970
H1161	H116	0.093630	0.501870	0.833470
C2001	C200	0.090430	0.581970	0.842670
H1171	H117	0.060930	0.565870	0.859770
C2011	C201	0.116730	0.645470	0.831820
C2021	C202	0.159730	0.668570	0.805380
C2031	C203	0.180930	0.527670	0.786170
C2041	C204	0.932230	0.623370	0.830500
H1181	H118	0.959430	0.664370	0.822170
C2051	C205	0.877130	0.580070	0.814390
C2061	C206	0.835530	0.517970	0.827170
H1191	H119	0.799130	0.489870	0.815270
C2071	C207	0.846530	0.497770	0.856170
H1201	H120	0.818530	0.456870	0.864370
C2081	C208	0.902730	0.542070	0.873190
C2091	C209	0.945430	0.603070	0.860040
C2101	C210	0.857130	0.598470	0.782670
Cu311	Cu31	0.303090	0.254290	0.217320
Cu321	Cu32	0.233680	0.435460	0.267650
N911	N91	0.306400	0.339700	0.215620
N921	N92	0.279800	0.353200	0.240650
N931	N93	0.278200	0.407100	0.235840
N941	N94	0.220400	0.155000	0.134320
N951	N95	0.264400	0.184700	0.157000
N961	N96	0.252400	0.222500	0.176010
O761	O76	0.439600	0.450800	0.107550
H1211	H121	0.439900	0.422000	0.119500
O771	O77	0.406000	0.520600	0.100780
O781	O78	0.994400	0.111000	0.097860
O791	O79	0.978800	0.175000	0.130320
O801	O80	0.334800	0.194700	0.211370
H1221	H122	0.310000	0.161100	0.222200
C2111	C211	0.117000	0.154000	0.122670
H1231	H123	0.104500	0.126400	0.104800
C2121	C212	0.079300	0.177100	0.134300
C2131	C213	0.100700	0.222900	0.160300
H1241	H124	0.074900	0.239700	0.166800
C2141	C214	0.158200	0.242900	0.176000
H1251	H125	0.171600	0.272400	0.193100
C2151	C215	0.195400	0.216600	0.165150
C2161	C216	0.175500	0.173600	0.138710
C2171	C217	0.013400	0.152400	0.119500
C2181	C218	0.357800	0.401100	0.163830
H1261	H126	0.371600	0.373900	0.155500
C2191	C219	0.369600	0.456200	0.147720
C2201	C220	0.349100	0.497800	0.160500
H1271	H127	0.357400	0.534200	0.148600
C2211	C221	0.317900	0.486800	0.189500
H1281	H128	0.305000	0.514800	0.197700
C2221	C222	0.306000	0.430600	0.206520
C2231	C223	0.324300	0.387900	0.193370
C2241	C224	0.408000	0.476200	0.116000
Cu331	Cu33	0.969760	0.587620	0.550650
Cu341	Cu34	0.900350	0.768790	0.600980
N971	N97	0.973070	0.673030	0.548950
N981	N98	0.946470	0.686530	0.573980
N991	N99	0.944870	0.740430	0.569170
N1001	N100	0.887070	0.488330	0.467650
N1011	N101	0.931070	0.518030	0.490330
N1021	N102	0.919070	0.555830	0.509340
O811	O81	0.106270	0.784130	0.440880
H1291	H129	0.106570	0.755330	0.452830
O821	O82	0.072670	0.853930	0.434110
O831	O83	0.661070	0.444330	0.431190
O841	O84	0.645470	0.508330	0.463650
O851	O85	0.001470	0.528030	0.544700
H1301	H130	0.976670	0.494430	0.555530
C2251	C225	0.783670	0.487330	0.456000
H1311	H131	0.771170	0.459730	0.438130
C2261	C226	0.745970	0.510430	0.467630
C2271	C227	0.767370	0.556230	0.493630
H1321	H132	0.741570	0.573030	0.500130
C2281	C228	0.824870	0.576230	0.509330
H1331	H133	0.838270	0.605730	0.526430
C2291	C229	0.862070	0.549930	0.498480
C2301	C230	0.842170	0.506930	0.472040
C2311	C231	0.680070	0.485730	0.452830
C2321	C232	0.024470	0.734430	0.497160
H1341	H134	0.038270	0.707230	0.488830
C2331	C233	0.036270	0.789530	0.481050
C2341	C234	0.015770	0.831130	0.493830
H1351	H135	0.024070	0.867530	0.481930
C2351	C235	0.984570	0.820130	0.522830
H1361	H136	0.971670	0.848130	0.531030
C2361	C236	0.972670	0.763930	0.539850
C2371	C237	0.990970	0.721230	0.526700
C2381	C238	0.074670	0.809530	0.449330
Cu351	Cu35	0.636420	0.920960	0.883990
Cu361	Cu36	0.567010	0.102130	0.934320
N1031	N103	0.639730	0.006370	0.882290
N1041	N104	0.613130	0.019870	0.907320
N1051	N105	0.611530	0.073770	0.902510
N1061	N106	0.553730	0.821670	0.800990
N1071	N107	0.597730	0.851370	0.823670
N1081	N108	0.585730	0.889170	0.842680
O861	O86	0.772930	0.117470	0.774220
H1371	H137	0.773230	0.088670	0.786170
O871	O87	0.739330	0.187270	0.767450
O881	O88	0.327730	0.777670	0.764530
O891	O89	0.312130	0.841670	0.796990
O901	O90	0.668130	0.861370	0.878040
H1381	H138	0.643330	0.827770	0.888870
C2391	C239	0.450330	0.820670	0.789340
H1391	H139	0.437830	0.793070	0.771470
C2401	C240	0.412630	0.843770	0.800970
C2411	C241	0.434030	0.889570	0.826970
H1401	H140	0.408230	0.906370	0.833470
C2421	C242	0.491530	0.909570	0.842670
H1411	H141	0.504930	0.939070	0.859770
C2431	C243	0.528730	0.883270	0.831820
C2441	C244	0.508830	0.840270	0.805380
C2451	C245	0.346730	0.819070	0.786170
C2461	C246	0.691130	0.067770	0.830500
H1421	H142	0.704930	0.040570	0.822170
C2471	C247	0.702930	0.122870	0.814390
C2481	C248	0.682430	0.164470	0.827170
H1431	H143	0.690730	0.200870	0.815270
C2491	C249	0.651230	0.153470	0.856170
H1441	H144	0.638330	0.181470	0.864370
C2501	C250	0.639330	0.097270	0.873190
C2511	C251	0.657630	0.054570	0.860040
C2521	C252	0.741330	0.142870	0.782670
Cu371	Cu37	0.303090	0.048800	0.717320
Cu381	Cu38	0.233680	0.798220	0.767650
N1091	N109	0.306400	0.966700	0.715620
N1101	N110	0.279800	0.926600	0.740650
N1111	N111	0.278200	0.871100	0.735840
N1121	N112	0.220400	0.065400	0.634320
N1131	N113	0.264400	0.079700	0.657000
N1141	N114	0.252400	0.029900	0.676010
O911	O91	0.439600	0.988800	0.607550
H1451	H145	0.439900	0.017900	0.619500
O921	O92	0.406000	0.885400	0.600780
O931	O93	0.994400	0.883400	0.597860
O941	O94	0.978800	0.803800	0.630320
O951	O95	0.334800	0.140100	0.711370
H1461	H146	0.310000	0.148900	0.722200
C2531	C253	0.117000	0.963000	0.622670
H1471	H147	0.104500	0.978100	0.604800
C2541	C254	0.079300	0.902200	0.634300
C2551	C255	0.100700	0.877800	0.660300
H1481	H148	0.074900	0.835200	0.666800
C2561	C256	0.158200	0.915300	0.676000
H1491	H149	0.171600	0.899200	0.693100
C2571	C257	0.195400	0.978800	0.665150
C2581	C258	0.175500	0.001900	0.638710
C2591	C259	0.013400	0.861000	0.619500
C2601	C260	0.357800	0.956700	0.663830
H1501	H150	0.371600	0.997700	0.655500
C2611	C261	0.369600	0.913400	0.647720
C2621	C262	0.349100	0.851300	0.660500
H1511	H151	0.357400	0.823200	0.648600
C2631	C263	0.317900	0.831100	0.689500
H1521	H152	0.305000	0.790200	0.697700
C2641	C264	0.306000	0.875400	0.706520
C2651	C265	0.324300	0.936400	0.693370
C2661	C266	0.408000	0.931800	0.616000
Cu391	Cu39	0.969760	0.382130	0.050650
Cu401	Cu40	0.900350	0.131550	0.100980
N1151	N115	0.973070	0.300030	0.048950
N1161	N116	0.946470	0.259930	0.073980
N1171	N117	0.944870	0.204430	0.069170
N1181	N118	0.887070	0.398730	0.967650
N1191	N119	0.931070	0.413030	0.990330
N1201	N120	0.919070	0.363230	0.009340
O961	O96	0.106270	0.322130	0.940880
H1531	H153	0.106570	0.351230	0.952830
O971	O97	0.072670	0.218730	0.934110
O981	O98	0.661070	0.216730	0.931190
O991	O99	0.645470	0.137130	0.963650
O1001	O100	0.001470	0.473430	0.044700
H1541	H154	0.976670	0.482230	0.055530
C2671	C267	0.783670	0.296330	0.956000
H1551	H155	0.771170	0.311430	0.938130
C2681	C268	0.745970	0.235530	0.967630
C2691	C269	0.767370	0.211130	0.993630
H1561	H156	0.741570	0.168530	0.000130
C2701	C270	0.824870	0.248630	0.009330
H1571	H157	0.838270	0.232530	0.026430
C2711	C271	0.862070	0.312130	0.998480
C2721	C272	0.842170	0.335230	0.972040
C2731	C273	0.680070	0.194330	0.952830
C2741	C274	0.024470	0.290030	0.997160
H1581	H158	0.038270	0.331030	0.988830
C2751	C275	0.036270	0.246730	0.981050
C2761	C276	0.015770	0.184630	0.993830
H1591	H159	0.024070	0.156530	0.981930
C2771	C277	0.984570	0.164430	0.022830
H1601	H160	0.971670	0.123530	0.031030
C2781	C278	0.972670	0.208730	0.039850
C2791	C279	0.990970	0.269730	0.026700
C2801	C280	0.074670	0.265130	0.949330
Cu411	Cu41	0.636420	0.715470	0.383990
Cu421	Cu42	0.567010	0.464890	0.434320
N1211	N121	0.639730	0.633370	0.382290
N1221	N122	0.613130	0.593270	0.407320
N1231	N123	0.611530	0.537770	0.402510
N1241	N124	0.553730	0.732070	0.300990
N1251	N125	0.597730	0.746370	0.323670
N1261	N126	0.585730	0.696570	0.342680
O1011	O101	0.772930	0.655470	0.274220
H1611	H161	0.773230	0.684570	0.286170
O1021	O102	0.739330	0.552070	0.267450
O1031	O103	0.327730	0.550070	0.264530
O1041	O104	0.312130	0.470470	0.296990
O1051	O105	0.668130	0.806770	0.378040
H1621	H162	0.643330	0.815570	0.388870
C2811	C281	0.450330	0.629670	0.289340
H1631	H163	0.437830	0.644770	0.271470
C2821	C282	0.412630	0.568870	0.300970
C2831	C283	0.434030	0.544470	0.326970
H1641	H164	0.408230	0.501870	0.333470
C2841	C284	0.491530	0.581970	0.342670
H1651	H165	0.504930	0.565870	0.359770
C2851	C285	0.528730	0.645470	0.331820
C2861	C286	0.508830	0.668570	0.305380
C2871	C287	0.346730	0.527670	0.286170
C2881	C288	0.691130	0.623370	0.330500
H1661	H166	0.704930	0.664370	0.322170
C2891	C289	0.702930	0.580070	0.314390
C2901	C290	0.682430	0.517970	0.327170
H1671	H167	0.690730	0.489870	0.315270
C2911	C291	0.651230	0.497770	0.356170
H1681	H168	0.638330	0.456870	0.364370
C2921	C292	0.639330	0.542070	0.373190
C2931	C293	0.657630	0.603070	0.360040
C2941	C294	0.741330	0.598470	0.282670
Cu431	Cu43	0.951200	0.254290	0.717320
Cu441	Cu44	0.201780	0.435460	0.767650
N1271	N127	0.033300	0.339700	0.715620
N1281	N128	0.073400	0.353200	0.740650
N1291	N129	0.128900	0.407100	0.735840
N1301	N130	0.934600	0.155000	0.634320
N1311	N131	0.920300	0.184700	0.657000
N1321	N132	0.970100	0.222500	0.676010
O1061	O106	0.011200	0.450800	0.607550
H1691	H169	0.982100	0.422000	0.619500
O1071	O107	0.114600	0.520600	0.600780
O1081	O108	0.116600	0.111000	0.597860
O1091	O109	0.196200	0.175000	0.630320
O1101	O110	0.859900	0.194700	0.711370
H1701	H170	0.851100	0.161100	0.722200
C2951	C295	0.037000	0.154000	0.622670
H1711	H171	0.021900	0.126400	0.604800
C2961	C296	0.097800	0.177100	0.634300
C2971	C297	0.122200	0.222900	0.660300
H1721	H172	0.164800	0.239700	0.666800
C2981	C298	0.084700	0.242900	0.676000
H1731	H173	0.100800	0.272400	0.693100
C2991	C299	0.021200	0.216600	0.665150
C3001	C300	0.998100	0.173600	0.638710
C3011	C301	0.139000	0.152400	0.619500
C3021	C302	0.043300	0.401100	0.663830
H1741	H174	0.002300	0.373900	0.655500
C3031	C303	0.086600	0.456200	0.647720
C3041	C304	0.148700	0.497800	0.660500
H1751	H175	0.176800	0.534200	0.648600
C3051	C305	0.168900	0.486800	0.689500
H1761	H176	0.209800	0.514800	0.697700
C3061	C306	0.124600	0.430600	0.706520
C3071	C307	0.063600	0.387900	0.693370
C3081	C308	0.068200	0.476200	0.616000
Cu451	Cu45	0.617870	0.587620	0.050650
Cu461	Cu46	0.868450	0.768790	0.100980
N1331	N133	0.699970	0.673030	0.048950
N1341	N134	0.740070	0.686530	0.073980
N1351	N135	0.795570	0.740430	0.069170
N1361	N136	0.601270	0.488330	0.967650
N1371	N137	0.586970	0.518030	0.990330
N1381	N138	0.636770	0.555830	0.009340
O1111	O111	0.677870	0.784130	0.940880
H1771	H177	0.648770	0.755330	0.952830
O1121	O112	0.781270	0.853930	0.934110
O1131	O113	0.783270	0.444330	0.931190
O1141	O114	0.862870	0.508330	0.963650
O1151	O115	0.526570	0.528030	0.044700
H1781	H178	0.517770	0.494430	0.055530
C3091	C309	0.703670	0.487330	0.956000
H1791	H179	0.688570	0.459730	0.938130
C3101	C310	0.764470	0.510430	0.967630
C3111	C311	0.788870	0.556230	0.993630
H1801	H180	0.831470	0.573030	0.000130
C3121	C312	0.751370	0.576230	0.009330
H1811	H181	0.767470	0.605730	0.026430
C3131	C313	0.687870	0.549930	0.998480
C3141	C314	0.664770	0.506930	0.972040
C3151	C315	0.805670	0.485730	0.952830
C3161	C316	0.709970	0.734430	0.997160
H1821	H182	0.668970	0.707230	0.988830
C3171	C317	0.753270	0.789530	0.981050
C3181	C318	0.815370	0.831130	0.993830
H1831	H183	0.843470	0.867530	0.981930
C3191	C319	0.835570	0.820130	0.022830
H1841	H184	0.876470	0.848130	0.031030
C3201	C320	0.791270	0.763930	0.039850
C3211	C321	0.730270	0.721230	0.026700
C3221	C322	0.734870	0.809530	0.949330
Cu471	Cu47	0.284530	0.920960	0.383990
Cu481	Cu48	0.535110	0.102130	0.434320
N1391	N139	0.366630	0.006370	0.382290
N1401	N140	0.406730	0.019870	0.407320
N1411	N141	0.462230	0.073770	0.402510
N1421	N142	0.267930	0.821670	0.300990
N1431	N143	0.253630	0.851370	0.323670
N1441	N144	0.303430	0.889170	0.342680
O1161	O116	0.344530	0.117470	0.274220
H1851	H185	0.315430	0.088670	0.286170
O1171	O117	0.447930	0.187270	0.267450
O1181	O118	0.449930	0.777670	0.264530
O1191	O119	0.529530	0.841670	0.296990
O1201	O120	0.193230	0.861370	0.378040
H1861	H186	0.184430	0.827770	0.388870
C3231	C323	0.370330	0.820670	0.289340
H1871	H187	0.355230	0.793070	0.271470
C3241	C324	0.431130	0.843770	0.300970
C3251	C325	0.455530	0.889570	0.326970
H1881	H188	0.498130	0.906370	0.333470
C3261	C326	0.418030	0.909570	0.342670
H1891	H189	0.434130	0.939070	0.359770
C3271	C327	0.354530	0.883270	0.331820
C3281	C328	0.331430	0.840270	0.305380
C3291	C329	0.472330	0.819070	0.286170
C3301	C330	0.376630	0.067770	0.330500
H1901	H190	0.335630	0.040570	0.322170
C3311	C331	0.419930	0.122870	0.314390
C3321	C332	0.482030	0.164470	0.327170
H1911	H191	0.510130	0.200870	0.315270
C3331	C333	0.502230	0.153470	0.356170
H1921	H192	0.543130	0.181470	0.364370
C3341	C334	0.457930	0.097270	0.373190
C3351	C335	0.396930	0.054570	0.360040
C3361	C336	0.401530	0.142870	0.282670
Cu491	Cu49	0.745710	0.696910	0.717320
Cu501	Cu50	0.564540	0.766320	0.767650
N1451	N145	0.660300	0.693600	0.715620
N1461	N146	0.646800	0.720200	0.740650
N1471	N147	0.592900	0.721800	0.735840
N1481	N148	0.845000	0.779600	0.634320
N1491	N149	0.815300	0.735600	0.657000
N1501	N150	0.777500	0.747600	0.676010
O1211	O121	0.549200	0.560400	0.607550
H1931	H193	0.578000	0.560100	0.619500
O1221	O122	0.479400	0.594000	0.600780
O1231	O123	0.889000	0.005600	0.597860
O1241	O124	0.825000	0.021200	0.630320
O1251	O125	0.805300	0.665200	0.711370
H1941	H194	0.838900	0.690000	0.722200
C3371	C337	0.846000	0.883000	0.622670
H1951	H195	0.873600	0.895500	0.604800
C3381	C338	0.822900	0.920700	0.634300
C3391	C339	0.777100	0.899300	0.660300
H1961	H196	0.760300	0.925100	0.666800
C3401	C340	0.757100	0.841800	0.676000
H1971	H197	0.727600	0.828400	0.693100
C3411	C341	0.783400	0.804600	0.665150
C3421	C342	0.826400	0.824500	0.638710
C3431	C343	0.847600	0.986600	0.619500
C3441	C344	0.598900	0.642200	0.663830
H1981	H198	0.626100	0.628400	0.655500
C3451	C345	0.543800	0.630400	0.647720
C3461	C346	0.502200	0.650900	0.660500
H1991	H199	0.465800	0.642600	0.648600
C3471	C347	0.513200	0.682100	0.689500
H2001	H200	0.485200	0.695000	0.697700
C3481	C348	0.569400	0.694000	0.706520
C3491	C349	0.612100	0.675700	0.693370
C3501	C350	0.523800	0.592000	0.616000
Cu511	Cu51	0.412380	0.030240	0.050650
Cu521	Cu52	0.231210	0.099650	0.100980
N1511	N151	0.326970	0.026930	0.048950
N1521	N152	0.313470	0.053530	0.073980
N1531	N153	0.259570	0.055130	0.069170
N1541	N154	0.511670	0.112930	0.967650
N1551	N155	0.481970	0.068930	0.990330
N1561	N156	0.444170	0.080930	0.009340
O1261	O126	0.215870	0.893730	0.940880
H2011	H201	0.244670	0.893430	0.952830
O1271	O127	0.146070	0.927330	0.934110
O1281	O128	0.555670	0.338930	0.931190
O1291	O129	0.491670	0.354530	0.963650
O1301	O130	0.471970	0.998530	0.044700
H2021	H202	0.505570	0.023330	0.055530
C3511	C351	0.512670	0.216330	0.956000
H2031	H203	0.540270	0.228830	0.938130
C3521	C352	0.489570	0.254030	0.967630
C3531	C353	0.443770	0.232630	0.993630
H2041	H204	0.426970	0.258430	0.000130
C3541	C354	0.423770	0.175130	0.009330
H2051	H205	0.394270	0.161730	0.026430
C3551	C355	0.450070	0.137930	0.998480
C3561	C356	0.493070	0.157830	0.972040
C3571	C357	0.514270	0.319930	0.952830
C3581	C358	0.265570	0.975530	0.997160
H2061	H206	0.292770	0.961730	0.988830
C3591	C359	0.210470	0.963730	0.981050
C3601	C360	0.168870	0.984230	0.993830
H2071	H207	0.132470	0.975930	0.981930
C3611	C361	0.179870	0.015430	0.022830
H2081	H208	0.151870	0.028330	0.031030
C3621	C362	0.236070	0.027330	0.039850
C3631	C363	0.278770	0.009030	0.026700
C3641	C364	0.190470	0.925330	0.949330
Cu531	Cu53	0.079040	0.363580	0.383990
Cu541	Cu54	0.897870	0.432990	0.434320
N1571	N157	0.993630	0.360270	0.382290
N1581	N158	0.980130	0.386870	0.407320
N1591	N159	0.926230	0.388470	0.402510
N1601	N160	0.178330	0.446270	0.300990
N1611	N161	0.148630	0.402270	0.323670
N1621	N162	0.110830	0.414270	0.342680
O1311	O131	0.882530	0.227070	0.274220
H2091	H209	0.911330	0.226770	0.286170
O1321	O132	0.812730	0.260670	0.267450
O1331	O133	0.222330	0.672270	0.264530
O1341	O134	0.158330	0.687870	0.296990
O1351	O135	0.138630	0.331870	0.378040
H2101	H210	0.172230	0.356670	0.388870
C3651	C365	0.179330	0.549670	0.289340
H2111	H211	0.206930	0.562170	0.271470
C3661	C366	0.156230	0.587370	0.300970
C3671	C367	0.110430	0.565970	0.326970
H2121	H212	0.093630	0.591770	0.333470
C3681	C368	0.090430	0.508470	0.342670
H2131	H213	0.060930	0.495070	0.359770
C3691	C369	0.116730	0.471270	0.331820
C3701	C370	0.159730	0.491170	0.305380
C3711	C371	0.180930	0.653270	0.286170
C3721	C372	0.932230	0.308870	0.330500
H2141	H214	0.959430	0.295070	0.322170
C3731	C373	0.877130	0.297070	0.314390
C3741	C374	0.835530	0.317570	0.327170
H2151	H215	0.799130	0.309270	0.315270
C3751	C375	0.846530	0.348770	0.356170
H2161	H216	0.818530	0.361670	0.364370
C3761	C376	0.902730	0.360670	0.373190
C3771	C377	0.945430	0.342370	0.360040
C3781	C378	0.857130	0.258670	0.282670
Cu551	Cu55	0.048800	0.303090	0.782680
Cu561	Cu56	0.798220	0.233680	0.732350
N1631	N163	0.966700	0.306400	0.784380
N1641	N164	0.926600	0.279800	0.759350
N1651	N165	0.871100	0.278200	0.764160
N1661	N166	0.065400	0.220400	0.865680
N1671	N167	0.079700	0.264400	0.843000
N1681	N168	0.029900	0.252400	0.823990
O1361	O136	0.988800	0.439600	0.892450
H2171	H217	0.017900	0.439900	0.880500
O1371	O137	0.885400	0.406000	0.899220
O1381	O138	0.883400	0.994400	0.902140
O1391	O139	0.803800	0.978800	0.869680
O1401	O140	0.140100	0.334800	0.788630
H2181	H218	0.148900	0.310000	0.777800
C3791	C379	0.963000	0.117000	0.877330
H2191	H219	0.978100	0.104500	0.895200
C3801	C380	0.902200	0.079300	0.865700
C3811	C381	0.877800	0.100700	0.839700
H2201	H220	0.835200	0.074900	0.833200
C3821	C382	0.915300	0.158200	0.824000
H2211	H221	0.899200	0.171600	0.806900
C3831	C383	0.978800	0.195400	0.834850
C3841	C384	0.001900	0.175500	0.861290
C3851	C385	0.861000	0.013400	0.880500
C3861	C386	0.956700	0.357800	0.836170
H2221	H222	0.997700	0.371600	0.844500
C3871	C387	0.913400	0.369600	0.852280
C3881	C388	0.851300	0.349100	0.839500
H2231	H223	0.823200	0.357400	0.851400
C3891	C389	0.831100	0.317900	0.810500
H2241	H224	0.790200	0.305000	0.802300
C3901	C390	0.875400	0.306000	0.793480
C3911	C391	0.936400	0.324300	0.806630
C3921	C392	0.931800	0.408000	0.884000
Cu571	Cu57	0.715470	0.636420	0.116010
Cu581	Cu58	0.464890	0.567010	0.065680
N1691	N169	0.633370	0.639730	0.117710
N1701	N170	0.593270	0.613130	0.092680
N1711	N171	0.537770	0.611530	0.097490
N1721	N172	0.732070	0.553730	0.199010
N1731	N173	0.746370	0.597730	0.176330
N1741	N174	0.696570	0.585730	0.157320
O1411	O141	0.655470	0.772930	0.225780
H2251	H225	0.684570	0.773230	0.213830
O1421	O142	0.552070	0.739330	0.232550
O1431	O143	0.550070	0.327730	0.235470
O1441	O144	0.470470	0.312130	0.203010
O1451	O145	0.806770	0.668130	0.121960
H2261	H226	0.815570	0.643330	0.111130
C3931	C393	0.629670	0.450330	0.210660
H2271	H227	0.644770	0.437830	0.228530
C3941	C394	0.568870	0.412630	0.199030
C3951	C395	0.544470	0.434030	0.173030
H2281	H228	0.501870	0.408230	0.166530
C3961	C396	0.581970	0.491530	0.157330
H2291	H229	0.565870	0.504930	0.140230
C3971	C397	0.645470	0.528730	0.168180
C3981	C398	0.668570	0.508830	0.194620
C3991	C399	0.527670	0.346730	0.213830
C4001	C400	0.623370	0.691130	0.169500
H2301	H230	0.664370	0.704930	0.177830
C4011	C401	0.580070	0.702930	0.185610
C4021	C402	0.517970	0.682430	0.172830
H2311	H231	0.489870	0.690730	0.184730
C4031	C403	0.497770	0.651230	0.143830
H2321	H232	0.456870	0.638330	0.135630
C4041	C404	0.542070	0.639330	0.126810
C4051	C405	0.603070	0.657630	0.139960
C4061	C406	0.598470	0.741330	0.217330
Cu591	Cu59	0.382130	0.969760	0.449350
Cu601	Cu60	0.131550	0.900350	0.399020
N1751	N175	0.300030	0.973070	0.451050
N1761	N176	0.259930	0.946470	0.426020
N1771	N177	0.204430	0.944870	0.430830
N1781	N178	0.398730	0.887070	0.532350
N1791	N179	0.413030	0.931070	0.509670
N1801	N180	0.363230	0.919070	0.490660
O1461	O146	0.322130	0.106270	0.559120
H2331	H233	0.351230	0.106570	0.547170
O1471	O147	0.218730	0.072670	0.565890
O1481	O148	0.216730	0.661070	0.568810
O1491	O149	0.137130	0.645470	0.536350
O1501	O150	0.473430	0.001470	0.455300
H2341	H234	0.482230	0.976670	0.444470
C4071	C407	0.296330	0.783670	0.544000
H2351	H235	0.311430	0.771170	0.561870
C4081	C408	0.235530	0.745970	0.532370
C4091	C409	0.211130	0.767370	0.506370
H2361	H236	0.168530	0.741570	0.499870
C4101	C410	0.248630	0.824870	0.490670
H2371	H237	0.232530	0.838270	0.473570
C4111	C411	0.312130	0.862070	0.501520
C4121	C412	0.335230	0.842170	0.527960
C4131	C413	0.194330	0.680070	0.547170
C4141	C414	0.290030	0.024470	0.502840
H2381	H238	0.331030	0.038270	0.511170
C4151	C415	0.246730	0.036270	0.518950
C4161	C416	0.184630	0.015770	0.506170
H2391	H239	0.156530	0.024070	0.518070
C4171	C417	0.164430	0.984570	0.477170
H2401	H240	0.123530	0.971670	0.468970
C4181	C418	0.208730	0.972670	0.460150
C4191	C419	0.269730	0.990970	0.473300
C4201	C420	0.265130	0.074670	0.550670
Cu611	Cu61	0.254290	0.951200	0.782680
Cu621	Cu62	0.435460	0.201780	0.732350
N1811	N181	0.339700	0.033300	0.784380
N1821	N182	0.353200	0.073400	0.759350
N1831	N183	0.407100	0.128900	0.764160
N1841	N184	0.155000	0.934600	0.865680
N1851	N185	0.184700	0.920300	0.843000
N1861	N186	0.222500	0.970100	0.823990
O1511	O151	0.450800	0.011200	0.892450
H2411	H241	0.422000	0.982100	0.880500
O1521	O152	0.520600	0.114600	0.899220
O1531	O153	0.111000	0.116600	0.902140
O1541	O154	0.175000	0.196200	0.869680
O1551	O155	0.194700	0.859900	0.788630
H2421	H242	0.161100	0.851100	0.777800
C4211	C421	0.154000	0.037000	0.877330
H2431	H243	0.126400	0.021900	0.895200
C4221	C422	0.177100	0.097800	0.865700
C4231	C423	0.222900	0.122200	0.839700
H2441	H244	0.239700	0.164800	0.833200
C4241	C424	0.242900	0.084700	0.824000
H2451	H245	0.272400	0.100800	0.806900
C4251	C425	0.216600	0.021200	0.834850
C4261	C426	0.173600	0.998100	0.861290
C4271	C427	0.152400	0.139000	0.880500
C4281	C428	0.401100	0.043300	0.836170
H2461	H246	0.373900	0.002300	0.844500
C4291	C429	0.456200	0.086600	0.852280
C4301	C430	0.497800	0.148700	0.839500
H2471	H247	0.534200	0.176800	0.851400
C4311	C431	0.486800	0.168900	0.810500
H2481	H248	0.514800	0.209800	0.802300
C4321	C432	0.430600	0.124600	0.793480
C4331	C433	0.387900	0.063600	0.806630
C4341	C434	0.476200	0.068200	0.884000
Cu631	Cu63	0.920960	0.284530	0.116010
Cu641	Cu64	0.102130	0.535110	0.065680
N1871	N187	0.006370	0.366630	0.117710
N1881	N188	0.019870	0.406730	0.092680
N1891	N189	0.073770	0.462230	0.097490
N1901	N190	0.821670	0.267930	0.199010
N1911	N191	0.851370	0.253630	0.176330
N1921	N192	0.889170	0.303430	0.157320
O1561	O156	0.117470	0.344530	0.225780
H2491	H249	0.088670	0.315430	0.213830
O1571	O157	0.187270	0.447930	0.232550
O1581	O158	0.777670	0.449930	0.235470
O1591	O159	0.841670	0.529530	0.203010
O1601	O160	0.861370	0.193230	0.121960
H2501	H250	0.827770	0.184430	0.111130
C4351	C435	0.820670	0.370330	0.210660
H2511	H251	0.793070	0.355230	0.228530
C4361	C436	0.843770	0.431130	0.199030
C4371	C437	0.889570	0.455530	0.173030
H2521	H252	0.906370	0.498130	0.166530
C4381	C438	0.909570	0.418030	0.157330
H2531	H253	0.939070	0.434130	0.140230
C4391	C439	0.883270	0.354530	0.168180
C4401	C440	0.840270	0.331430	0.194620
C4411	C441	0.819070	0.472330	0.213830
C4421	C442	0.067770	0.376630	0.169500
H2541	H254	0.040570	0.335630	0.177830
C4431	C443	0.122870	0.419930	0.185610
C4441	C444	0.164470	0.482030	0.172830
H2551	H255	0.200870	0.510130	0.184730
C4451	C445	0.153470	0.502230	0.143830
H2561	H256	0.181470	0.543130	0.135630
C4461	C446	0.097270	0.457930	0.126810
C4471	C447	0.054570	0.396930	0.139960
C4481	C448	0.142870	0.401530	0.217330
Cu651	Cu65	0.587620	0.617870	0.449350
Cu661	Cu66	0.768790	0.868450	0.399020
N1931	N193	0.673030	0.699970	0.451050
N1941	N194	0.686530	0.740070	0.426020
N1951	N195	0.740430	0.795570	0.430830
N1961	N196	0.488330	0.601270	0.532350
N1971	N197	0.518030	0.586970	0.509670
N1981	N198	0.555830	0.636770	0.490660
O1611	O161	0.784130	0.677870	0.559120
H2571	H257	0.755330	0.648770	0.547170
O1621	O162	0.853930	0.781270	0.565890
O1631	O163	0.444330	0.783270	0.568810
O1641	O164	0.508330	0.862870	0.536350
O1651	O165	0.528030	0.526570	0.455300
H2581	H258	0.494430	0.517770	0.444470
C4491	C449	0.487330	0.703670	0.544000
H2591	H259	0.459730	0.688570	0.561870
C4501	C450	0.510430	0.764470	0.532370
C4511	C451	0.556230	0.788870	0.506370
H2601	H260	0.573030	0.831470	0.499870
C4521	C452	0.576230	0.751370	0.490670
H2611	H261	0.605730	0.767470	0.473570
C4531	C453	0.549930	0.687870	0.501520
C4541	C454	0.506930	0.664770	0.527960
C4551	C455	0.485730	0.805670	0.547170
C4561	C456	0.734430	0.709970	0.502840
H2621	H262	0.707230	0.668970	0.511170
C4571	C457	0.789530	0.753270	0.518950
C4581	C458	0.831130	0.815370	0.506170
H2631	H263	0.867530	0.843470	0.518070
C4591	C459	0.820130	0.835570	0.477170
H2641	H264	0.848130	0.876470	0.468970
C4601	C460	0.763930	0.791270	0.460150
C4611	C461	0.721230	0.730270	0.473300
C4621	C462	0.809530	0.734870	0.550670
Cu671	Cu67	0.696910	0.745710	0.782680
Cu681	Cu68	0.766320	0.564540	0.732350
N1991	N199	0.693600	0.660300	0.784380
N2001	N200	0.720200	0.646800	0.759350
N2011	N201	0.721800	0.592900	0.764160
N2021	N202	0.779600	0.845000	0.865680
N2031	N203	0.735600	0.815300	0.843000
N2041	N204	0.747600	0.777500	0.823990
O1661	O166	0.560400	0.549200	0.892450
H2651	H265	0.560100	0.578000	0.880500
O1671	O167	0.594000	0.479400	0.899220
O1681	O168	0.005600	0.889000	0.902140
O1691	O169	0.021200	0.825000	0.869680
O1701	O170	0.665200	0.805300	0.788630
H2661	H266	0.690000	0.838900	0.777800
C4631	C463	0.883000	0.846000	0.877330
H2671	H267	0.895500	0.873600	0.895200
C4641	C464	0.920700	0.822900	0.865700
C4651	C465	0.899300	0.777100	0.839700
H2681	H268	0.925100	0.760300	0.833200
C4661	C466	0.841800	0.757100	0.824000
H2691	H269	0.828400	0.727600	0.806900
C4671	C467	0.804600	0.783400	0.834850
C4681	C468	0.824500	0.826400	0.861290
C4691	C469	0.986600	0.847600	0.880500
C4701	C470	0.642200	0.598900	0.836170
H2701	H270	0.628400	0.626100	0.844500
C4711	C471	0.630400	0.543800	0.852280
C4721	C472	0.650900	0.502200	0.839500
H2711	H271	0.642600	0.465800	0.851400
C4731	C473	0.682100	0.513200	0.810500
H2721	H272	0.695000	0.485200	0.802300
C4741	C474	0.694000	0.569400	0.793480
C4751	C475	0.675700	0.612100	0.806630
C4761	C476	0.592000	0.523800	0.884000
Cu691	Cu69	0.363580	0.079040	0.116010
Cu701	Cu70	0.432990	0.897870	0.065680
N2051	N205	0.360270	0.993630	0.117710
N2061	N206	0.386870	0.980130	0.092680
N2071	N207	0.388470	0.926230	0.097490
N2081	N208	0.446270	0.178330	0.199010
N2091	N209	0.402270	0.148630	0.176330
N2101	N210	0.414270	0.110830	0.157320
O1711	O171	0.227070	0.882530	0.225780
H2731	H273	0.226770	0.911330	0.213830
O1721	O172	0.260670	0.812730	0.232550
O1731	O173	0.672270	0.222330	0.235470
O1741	O174	0.687870	0.158330	0.203010
O1751	O175	0.331870	0.138630	0.121960
H2741	H274	0.356670	0.172230	0.111130
C4771	C477	0.549670	0.179330	0.210660
H2751	H275	0.562170	0.206930	0.228530
C4781	C478	0.587370	0.156230	0.199030
C4791	C479	0.565970	0.110430	0.173030
H2761	H276	0.591770	0.093630	0.166530
C4801	C480	0.508470	0.090430	0.157330
H2771	H277	0.495070	0.060930	0.140230
C4811	C481	0.471270	0.116730	0.168180
C4821	C482	0.491170	0.159730	0.194620
C4831	C483	0.653270	0.180930	0.213830
C4841	C484	0.308870	0.932230	0.169500
H2781	H278	0.295070	0.959430	0.177830
C4851	C485	0.297070	0.877130	0.185610
C4861	C486	0.317570	0.835530	0.172830
H2791	H279	0.309270	0.799130	0.184730
C4871	C487	0.348770	0.846530	0.143830
H2801	H280	0.361670	0.818530	0.135630
C4881	C488	0.360670	0.902730	0.126810
C4891	C489	0.342370	0.945430	0.139960
C4901	C490	0.258670	0.857130	0.217330
Cu711	Cu71	0.030240	0.412380	0.449350
Cu721	Cu72	0.099650	0.231210	0.399020
N2111	N211	0.026930	0.326970	0.451050
N2121	N212	0.053530	0.313470	0.426020
N2131	N213	0.055130	0.259570	0.430830
N2141	N214	0.112930	0.511670	0.532350
N2151	N215	0.068930	0.481970	0.509670
N2161	N216	0.080930	0.444170	0.490660
O1761	O176	0.893730	0.215870	0.559120
H2811	H281	0.893430	0.244670	0.547170
O1771	O177	0.927330	0.146070	0.565890
O1781	O178	0.338930	0.555670	0.568810
O1791	O179	0.354530	0.491670	0.536350
O1801	O180	0.998530	0.471970	0.455300
H2821	H282	0.023330	0.505570	0.444470
C4911	C491	0.216330	0.512670	0.544000
H2831	H283	0.228830	0.540270	0.561870
C4921	C492	0.254030	0.489570	0.532370
C4931	C493	0.232630	0.443770	0.506370
H2841	H284	0.258430	0.426970	0.499870
C4941	C494	0.175130	0.423770	0.490670
H2851	H285	0.161730	0.394270	0.473570
C4951	C495	0.137930	0.450070	0.501520
C4961	C496	0.157830	0.493070	0.527960
C4971	C497	0.319930	0.514270	0.547170
C4981	C498	0.975530	0.265570	0.502840
H2861	H286	0.961730	0.292770	0.511170
C4991	C499	0.963730	0.210470	0.518950
C5001	C500	0.984230	0.168870	0.506170
H2871	H287	0.975930	0.132470	0.518070
C5011	C501	0.015430	0.179870	0.477170
H2881	H288	0.028330	0.151870	0.468970
C5021	C502	0.027330	0.236070	0.460150
C5031	C503	0.009030	0.278770	0.473300
C5041	C504	0.925330	0.190470	0.550670
Cu731	Cu73	0.666670	0.833330	0.333330
Cu741	Cu74	0.166670	0.833330	0.333330
Cu751	Cu75	0.166670	0.333330	0.333330
Cu761	Cu76	0.833330	0.666670	0.166670
Cu771	Cu77	0.500000	0.000000	0.500000
Cu781	Cu78	0.833330	0.166670	0.166670
Cu791	Cu79	0.500000	0.500000	0.500000
Cu801	Cu80	0.333330	0.166670	0.166670
Cu811	Cu81	0.000000	0.500000	0.500000
Cu821	Cu82	0.333330	0.166670	0.666670
Cu831	Cu83	0.000000	0.500000	0.000000
Cu841	Cu84	0.833330	0.166670	0.666670
Cu851	Cu85	0.500000	0.500000	0.000000
Cu861	Cu86	0.833330	0.666670	0.666670
Cu871	Cu87	0.500000	0.000000	0.000000
Cu881	Cu88	0.166670	0.333330	0.833330
Cu891	Cu89	0.166670	0.833330	0.833330
Cu901	Cu90	0.666670	0.833330	0.833330
Cl11	Cl1	0.799900	0.000000	0.250000
Cl21	Cl2	0.466570	0.333330	0.583330
Cl31	Cl3	0.133230	0.666670	0.916670
Cl41	Cl4	0.000000	0.799900	0.250000
Cl51	Cl5	0.666670	0.133230	0.583330
Cl61	Cl6	0.333330	0.466570	0.916670
Cl71	Cl7	0.200100	0.200100	0.250000
Cl81	Cl8	0.866770	0.533430	0.583330
Cl91	Cl9	0.533430	0.866770	0.916670
Cl101	Cl10	0.200100	0.000000	0.750000
Cl111	Cl11	0.866770	0.333330	0.083330
Cl121	Cl12	0.533430	0.666670	0.416670
Cl131	Cl13	0.000000	0.200100	0.750000
Cl141	Cl14	0.666670	0.533430	0.083330
Cl151	Cl15	0.333330	0.866770	0.416670
Cl161	Cl16	0.799900	0.799900	0.750000
Cl171	Cl17	0.466570	0.133230	0.083330
Cl181	Cl18	0.133230	0.466570	0.416670
