data_QAPPUT_freeONLY_PM
_symmetry_space_group_name_H-M	'P1'
_cell_length_a	10.360500
_cell_length_b	10.522400
_cell_length_c	15.014000
_cell_angle_alpha	89.979000
_cell_angle_beta	76.656000
_cell_angle_gamma	89.980000
_symmetry_Int_Tables_number 1

loop_
_symmetry_equiv_pos_as_xyz
'x,y,z'

loop_
_atom_site_label
_atom_site_type_symbol
_atom_site_fract_x
_atom_site_fract_y
_atom_site_fract_z
Ag11	Ag1	0.637770	0.387870	0.515390
Ag21	Ag2	0.362220	0.887870	0.984610
N11	N1	0.323000	0.101300	0.062200
N21	N2	0.831000	0.126700	0.058300
N31	N3	0.424700	0.132400	0.104100
N41	N4	0.426400	0.803700	0.114000
N51	N5	0.573200	0.303900	0.385900
N61	N6	0.677500	0.601300	0.437300
N71	N7	0.168700	0.627000	0.441800
N81	N8	0.574800	0.632600	0.395900
N91	N9	0.238400	0.182500	0.197000
N101	N10	0.150900	0.238400	0.273000
N111	N11	0.761700	0.682400	0.302800
N121	N12	0.848700	0.740500	0.227700
C11	C1	0.847700	0.089400	0.139300
C21	C2	0.939400	0.163700	0.996900
C31	C3	0.525200	0.719700	0.094600
C41	C4	0.390000	0.844300	0.200100
C51	C5	0.064300	0.165800	0.013300
C61	C6	0.080000	0.128000	0.098800
C71	C7	0.968400	0.087700	0.163200
C81	C8	0.211900	0.133600	0.119400
C91	C9	0.371300	0.181500	0.184200
C101	C10	0.443500	0.224100	0.253000
C111	C11	0.407000	0.178100	0.341500
C121	C12	0.475100	0.219500	0.404700
C131	C13	0.609700	0.345200	0.299700
C141	C14	0.548800	0.307800	0.231600
C151	C15	0.627700	0.682000	0.316000
C161	C16	0.557000	0.724300	0.246600
C171	C17	0.593200	0.678500	0.158600
C181	C18	0.450900	0.807900	0.269200
C191	C19	0.060300	0.663800	0.503300
C201	C20	0.152800	0.589100	0.360800
C211	C21	0.788100	0.633700	0.380700
C221	C22	0.920500	0.627800	0.401200
C231	C23	0.936100	0.665800	0.485800
C241	C24	0.032700	0.588600	0.336700
H11	H1	0.766000	0.062000	0.187000
H21	H2	0.921000	0.186000	0.936000
H31	H3	0.554000	0.689000	0.035000
H41	H4	0.322000	0.900000	0.213000
H51	H5	0.136000	0.191000	0.969000
H61	H6	0.971000	0.057000	0.221000
H71	H7	0.023000	0.558000	0.283000
H81	H8	0.340000	0.121000	0.358000
H91	H9	0.443000	0.191000	0.467000
H101	H10	0.676000	0.413000	0.285000
H111	H11	0.574000	0.337000	0.179000
H121	H12	0.658000	0.619000	0.144000
H131	H13	0.422000	0.834000	0.326000
H141	H14	0.073000	0.697000	0.558000
H151	H15	0.225000	0.555000	0.319000
H161	H16	0.866000	0.684000	0.526000
H171	H17	0.118000	0.281000	0.256000
H181	H18	0.901000	0.785000	0.252000
H191	H19	0.103000	0.174000	0.307000
H201	H20	0.885000	0.692000	0.213000
Ag31	Ag3	0.362230	0.612130	0.484610
Ag41	Ag4	0.637780	0.112130	0.015390
N131	N13	0.677000	0.898700	0.937800
N141	N14	0.169000	0.873300	0.941700
N151	N15	0.575300	0.867600	0.895900
N161	N16	0.573600	0.196300	0.886000
N171	N17	0.426800	0.696100	0.614100
N181	N18	0.322500	0.398700	0.562700
N191	N19	0.831300	0.373000	0.558200
N201	N20	0.425200	0.367400	0.604100
N211	N21	0.761600	0.817500	0.803000
N221	N22	0.849100	0.761600	0.727000
N231	N23	0.238300	0.317600	0.697200
N241	N24	0.151300	0.259500	0.772300
C251	C25	0.152300	0.910600	0.860700
C261	C26	0.060600	0.836300	0.003100
C271	C27	0.474800	0.280300	0.905400
C281	C28	0.610000	0.155700	0.799900
C291	C29	0.935700	0.834200	0.986700
C301	C30	0.920000	0.872000	0.901200
C311	C31	0.031600	0.912300	0.836800
C321	C32	0.788100	0.866400	0.880600
C331	C33	0.628700	0.818500	0.815800
C341	C34	0.556500	0.775900	0.747000
C351	C35	0.593000	0.821900	0.658500
C361	C36	0.524900	0.780500	0.595300
C371	C37	0.390300	0.654800	0.700300
C381	C38	0.451200	0.692200	0.768400
C391	C39	0.372300	0.318000	0.684000
C401	C40	0.443000	0.275700	0.753400
C411	C41	0.406800	0.321500	0.841400
C421	C42	0.549100	0.192100	0.730800
C431	C43	0.939700	0.336200	0.496700
C441	C44	0.847200	0.410900	0.639200
C451	C45	0.211900	0.366300	0.619300
C461	C46	0.079500	0.372200	0.598800
C471	C47	0.063900	0.334200	0.514200
C481	C48	0.967300	0.411400	0.663300
H211	H21	0.234000	0.938000	0.813000
H221	H22	0.079000	0.814000	0.064000
H231	H23	0.446000	0.311000	0.965000
H241	H24	0.678000	0.100000	0.787000
H251	H25	0.864000	0.809000	0.031000
H261	H26	0.029000	0.943000	0.779000
H271	H27	0.977000	0.442000	0.717000
H281	H28	0.660000	0.879000	0.642000
H291	H29	0.557000	0.809000	0.533000
H301	H30	0.324000	0.587000	0.715000
H311	H31	0.426000	0.663000	0.821000
H321	H32	0.342000	0.381000	0.856000
H331	H33	0.578000	0.166000	0.674000
H341	H34	0.927000	0.303000	0.442000
H351	H35	0.775000	0.445000	0.681000
H361	H36	0.134000	0.316000	0.474000
H371	H37	0.882000	0.719000	0.744000
H381	H38	0.099000	0.215000	0.748000
H391	H39	0.897000	0.826000	0.693000
H401	H40	0.115000	0.308000	0.787000
