data_QAPQAA_charged_PM
_symmetry_space_group_name_H-M	'P1'
_cell_length_a	10.789800
_cell_length_b	10.789800
_cell_length_c	15.998300
_cell_angle_alpha	106.080000
_cell_angle_beta	106.080000
_cell_angle_gamma	97.878700
_symmetry_Int_Tables_number 1

loop_
_symmetry_equiv_pos_as_xyz
'x,y,z'

loop_
_atom_site_label
_atom_site_type_symbol
_atom_site_fract_x
_atom_site_fract_y
_atom_site_fract_z
Ag11	Ag1	0.256940	0.603500	0.608040
Ag21	Ag2	0.396500	0.743060	0.891960
Ag31	Ag3	0.743060	0.396500	0.391960
Ag41	Ag4	0.603500	0.256940	0.108040
H11	H1	0.277500	0.399700	0.404000
H21	H2	0.573700	0.214700	0.470700
H31	H3	0.581300	0.294100	0.625200
H41	H4	0.436900	0.422900	0.662400
H51	H5	0.435200	0.966600	0.078500
H61	H6	0.133200	0.153600	0.055100
H71	H7	0.039500	0.014700	0.900200
H81	H8	0.144100	0.854300	0.841600
H91	H9	0.188900	0.089100	0.275000
H101	H10	0.152000	0.198000	0.256500
H111	H11	0.600300	0.722500	0.096000
H121	H12	0.785300	0.426300	0.029300
H131	H13	0.705900	0.418700	0.874800
H141	H14	0.577100	0.563100	0.837600
H151	H15	0.033400	0.564800	0.421500
H161	H16	0.846400	0.866800	0.444900
H171	H17	0.985300	0.960500	0.599800
H181	H18	0.145700	0.855900	0.658400
H191	H19	0.910900	0.811100	0.225000
H201	H20	0.802000	0.848000	0.243500
H211	H21	0.722500	0.600300	0.596000
H221	H22	0.426300	0.785300	0.529300
H231	H23	0.418700	0.705900	0.374800
H241	H24	0.563100	0.577100	0.337600
H251	H25	0.564800	0.033400	0.921500
H261	H26	0.866800	0.846400	0.944900
H271	H27	0.960500	0.985300	0.099800
H281	H28	0.855900	0.145700	0.158400
H291	H29	0.811100	0.910900	0.725000
H301	H30	0.848000	0.802000	0.743500
H311	H31	0.399700	0.277500	0.904000
H321	H32	0.214700	0.573700	0.970700
H331	H33	0.294100	0.581300	0.125200
H341	H34	0.422900	0.436900	0.162400
H351	H35	0.966600	0.435200	0.578500
H361	H36	0.153600	0.133200	0.555100
H371	H37	0.014700	0.039500	0.400200
H381	H38	0.854300	0.144100	0.341600
H391	H39	0.089100	0.188900	0.775000
H401	H40	0.198000	0.152000	0.756500
C11	C1	0.340300	0.378060	0.449230
C21	C2	0.423480	0.299400	0.421630
C31	C3	0.515280	0.267580	0.487600
C41	C4	0.519900	0.314520	0.578520
C51	C5	0.433590	0.391570	0.600010
C61	C6	0.423420	0.254740	0.325870
C71	C7	0.366230	0.156010	0.178160
C81	C8	0.353260	0.976080	0.042230
C91	C9	0.294310	0.072390	0.082620
C101	C10	0.175430	0.088310	0.029700
C111	C11	0.120300	0.005920	0.938520
C121	C12	0.183820	0.911140	0.903800
C131	C13	0.621940	0.659700	0.050770
C141	C14	0.700600	0.576520	0.078370
C151	C15	0.732420	0.484720	0.012400
C161	C16	0.685480	0.480100	0.921480
C171	C17	0.608430	0.566410	0.899990
C181	C18	0.745260	0.576580	0.174130
C191	C19	0.843990	0.633770	0.321840
C201	C20	0.023920	0.646740	0.457770
C211	C21	0.927610	0.705690	0.417380
C221	C22	0.911690	0.824570	0.470300
C231	C23	0.994080	0.879700	0.561480
C241	C24	0.088860	0.816180	0.596200
C251	C25	0.659700	0.621940	0.550770
C261	C26	0.576520	0.700600	0.578370
C271	C27	0.484720	0.732420	0.512400
C281	C28	0.480100	0.685480	0.421480
C291	C29	0.566410	0.608430	0.399990
C301	C30	0.576580	0.745260	0.674130
C311	C31	0.633770	0.843990	0.821840
C321	C32	0.646740	0.023920	0.957770
C331	C33	0.705690	0.927610	0.917380
C341	C34	0.824570	0.911690	0.970300
C351	C35	0.879700	0.994080	0.061480
C361	C36	0.816180	0.088860	0.096200
C371	C37	0.378060	0.340300	0.949230
C381	C38	0.299400	0.423480	0.921630
C391	C39	0.267580	0.515280	0.987600
C401	C40	0.314520	0.519900	0.078520
C411	C41	0.391570	0.433590	0.100010
C421	C42	0.254740	0.423420	0.825870
C431	C43	0.156010	0.366230	0.678160
C441	C44	0.976080	0.353260	0.542230
C451	C45	0.072390	0.294310	0.582620
C461	C46	0.088310	0.175430	0.529700
C471	C47	0.005920	0.120300	0.438520
C481	C48	0.911140	0.183820	0.403800
N11	N1	0.345540	0.424420	0.537510
N21	N2	0.529420	0.274820	0.302350
N31	N3	0.493110	0.212170	0.208190
N41	N4	0.317770	0.181970	0.249550
N51	N5	0.186240	0.133440	0.242100
N61	N6	0.299190	0.896170	0.954360
N71	N7	0.575580	0.654460	0.962490
N81	N8	0.725180	0.470580	0.197650
N91	N9	0.787830	0.506890	0.291810
N101	N10	0.818030	0.682230	0.250450
N111	N11	0.866560	0.813760	0.257900
N121	N12	0.103830	0.700810	0.545640
N131	N13	0.654460	0.575580	0.462490
N141	N14	0.470580	0.725180	0.697650
N151	N15	0.506890	0.787830	0.791810
N161	N16	0.682230	0.818030	0.750450
N171	N17	0.813760	0.866560	0.757900
N181	N18	0.700810	0.103830	0.045640
N191	N19	0.424420	0.345540	0.037510
N201	N20	0.274820	0.529420	0.802350
N211	N21	0.212170	0.493110	0.708190
N221	N22	0.181970	0.317770	0.749550
N231	N23	0.133440	0.186240	0.742100
N241	N24	0.896170	0.299190	0.454360
Cl11	Cl1	0.557330	0.904430	0.270210
O11	O1	0.631020	0.955320	0.219380
O21	O2	0.424500	0.911500	0.237800
O31	O3	0.568000	0.772800	0.260600
O41	O4	0.617900	0.986700	0.365600
Cl21	Cl2	0.095570	0.442670	0.229790
O51	O5	0.044680	0.368980	0.280620
O61	O6	0.088500	0.575500	0.262200
O71	O7	0.227200	0.432000	0.239400
O81	O8	0.013300	0.382100	0.134400
Cl31	Cl3	0.442670	0.095570	0.729790
O91	O9	0.368980	0.044680	0.780620
O101	O10	0.575500	0.088500	0.762200
O111	O11	0.432000	0.227200	0.739400
O121	O12	0.382100	0.013300	0.634400
Cl41	Cl4	0.904430	0.557330	0.770210
O131	O13	0.955320	0.631020	0.719380
O141	O14	0.911500	0.424500	0.737800
O151	O15	0.772800	0.568000	0.760600
O161	O16	0.986700	0.617900	0.865600
