data_QAQRUW_freeONLY_PM
_symmetry_space_group_name_H-M	'P1'
_cell_length_a	11.743600
_cell_length_b	11.743600
_cell_length_c	20.979000
_cell_angle_alpha	97.332700
_cell_angle_beta	97.332700
_cell_angle_gamma	100.333000
_symmetry_Int_Tables_number 1

loop_
_symmetry_equiv_pos_as_xyz
'x,y,z'

loop_
_atom_site_label
_atom_site_type_symbol
_atom_site_fract_x
_atom_site_fract_y
_atom_site_fract_z
Mg11	Mg1	0.049880	0.540420	0.307680
Mg21	Mg2	0.459580	0.950120	0.192320
Mg31	Mg3	0.950120	0.459580	0.692320
Mg41	Mg4	0.540420	0.049880	0.807680
Mg51	Mg5	0.248150	0.751850	0.250000
Mg61	Mg6	0.751850	0.248150	0.750000
H11	H1	0.124400	0.023000	0.361000
H21	H2	0.079700	0.166500	0.433700
H31	H3	0.999500	0.776100	0.463300
H41	H4	0.501800	0.730800	0.414300
H51	H5	0.635400	0.706000	0.499300
H61	H6	0.304200	0.414800	0.417800
H71	H7	0.033900	0.310700	0.110000
H81	H8	0.989900	0.271700	0.998400
H91	H9	0.053900	0.656900	0.108700
H101	H10	0.929000	0.687000	0.220200
H111	H11	0.805800	0.799600	0.171700
H121	H12	0.691200	0.818000	0.202400
H131	H13	0.832700	0.989700	0.226500
H141	H14	0.809000	0.940400	0.292200
H151	H15	0.923500	0.921900	0.261500
H161	H16	0.673300	0.761500	0.318700
H171	H17	0.748600	0.667800	0.341600
H181	H18	0.563000	0.582000	0.303200
H191	H19	0.576400	0.628800	0.235600
H201	H20	0.651100	0.535900	0.258500
H211	H21	0.977000	0.875600	0.139000
H221	H22	0.833500	0.920300	0.066300
H231	H23	0.223900	0.000500	0.036700
H241	H24	0.269200	0.498200	0.085700
H251	H25	0.294000	0.364600	0.000700
H261	H26	0.585200	0.695800	0.082200
H271	H27	0.689300	0.966100	0.390000
H281	H28	0.728300	0.010100	0.501600
H291	H29	0.343100	0.946100	0.391300
H301	H30	0.313000	0.071000	0.279800
H311	H31	0.200400	0.194200	0.328300
H321	H32	0.182000	0.308800	0.297600
H331	H33	0.010300	0.167300	0.273500
H341	H34	0.059600	0.191000	0.207800
H351	H35	0.078100	0.076500	0.238500
H361	H36	0.238500	0.326700	0.181300
H371	H37	0.332200	0.251400	0.158400
H381	H38	0.418000	0.437000	0.196800
H391	H39	0.371200	0.423600	0.264400
H401	H40	0.464100	0.348900	0.241500
H411	H41	0.875600	0.977000	0.639000
H421	H42	0.920300	0.833500	0.566300
H431	H43	0.000500	0.223900	0.536700
H441	H44	0.498200	0.269200	0.585700
H451	H45	0.364600	0.294000	0.500700
H461	H46	0.695800	0.585200	0.582200
H471	H47	0.966100	0.689300	0.890000
H481	H48	0.010100	0.728300	0.001600
H491	H49	0.946100	0.343100	0.891300
H501	H50	0.071000	0.313000	0.779800
H511	H51	0.194200	0.200400	0.828300
H521	H52	0.308800	0.182000	0.797600
H531	H53	0.167300	0.010300	0.773500
H541	H54	0.191000	0.059600	0.707800
H551	H55	0.076500	0.078100	0.738500
H561	H56	0.326700	0.238500	0.681300
H571	H57	0.251400	0.332200	0.658400
H581	H58	0.437000	0.418000	0.696800
H591	H59	0.423600	0.371200	0.764400
H601	H60	0.348900	0.464100	0.741500
H611	H61	0.023000	0.124400	0.861000
H621	H62	0.166500	0.079700	0.933700
H631	H63	0.776100	0.999500	0.963300
H641	H64	0.730800	0.501800	0.914300
H651	H65	0.706000	0.635400	0.999300
H661	H66	0.414800	0.304200	0.917800
H671	H67	0.310700	0.033900	0.610000
H681	H68	0.271700	0.989900	0.498400
H691	H69	0.656900	0.053900	0.608700
H701	H70	0.687000	0.929000	0.720200
H711	H71	0.799600	0.805800	0.671700
H721	H72	0.818000	0.691200	0.702400
H731	H73	0.989700	0.832700	0.726500
H741	H74	0.940400	0.809000	0.792200
H751	H75	0.921900	0.923500	0.761500
H761	H76	0.761500	0.673300	0.818700
H771	H77	0.667800	0.748600	0.841600
H781	H78	0.582000	0.563000	0.803200
H791	H79	0.628800	0.576400	0.735600
H801	H80	0.535900	0.651100	0.758500
C11	C1	0.102400	0.795200	0.359800
C21	C2	0.068800	0.886600	0.406300
C31	C3	0.090200	0.002000	0.397600
C41	C4	0.063400	0.087200	0.440700
C51	C5	0.012100	0.058900	0.495300
C61	C6	0.016700	0.856300	0.458200
C71	C7	0.301900	0.590500	0.351800
C81	C8	0.390000	0.574000	0.406800
C91	C9	0.488900	0.660500	0.432600
C101	C10	0.567600	0.646600	0.483500
C111	C11	0.549100	0.544700	0.512700
C121	C12	0.371800	0.473600	0.434600
C131	C13	0.066600	0.509200	0.191300
C141	C14	0.047000	0.488200	0.119200
C151	C15	0.028000	0.373400	0.086000
C161	C16	0.001100	0.350100	0.019900
C171	C17	0.989500	0.440900	0.983100
C181	C18	0.039600	0.579200	0.085800
C191	C19	0.871700	0.660100	0.246000
C201	C20	0.774800	0.813400	0.213000
C211	C21	0.840500	0.925900	0.251600
C221	C22	0.704200	0.691400	0.303800
C231	C23	0.617900	0.603700	0.273200
C241	C24	0.885100	0.354100	0.353800
C251	C25	0.204800	0.897600	0.140200
C261	C26	0.113400	0.931200	0.093700
C271	C27	0.998000	0.909800	0.102400
C281	C28	0.912800	0.936600	0.059300
C291	C29	0.941100	0.987900	0.004700
C301	C30	0.143700	0.983300	0.041800
C311	C31	0.409500	0.698100	0.148200
C321	C32	0.426000	0.610000	0.093200
C331	C33	0.339500	0.511100	0.067400
C341	C34	0.353400	0.432400	0.016500
C351	C35	0.455300	0.450900	0.987300
C361	C36	0.526400	0.628200	0.065400
C371	C37	0.490800	0.933400	0.308700
C381	C38	0.511800	0.953000	0.380800
C391	C39	0.626600	0.972000	0.414000
C401	C40	0.649900	0.998900	0.480100
C411	C41	0.559100	0.010500	0.516900
C421	C42	0.420800	0.960400	0.414200
C431	C43	0.339900	0.128300	0.254000
C441	C44	0.186600	0.225200	0.287000
C451	C45	0.074100	0.159500	0.248400
C461	C46	0.308600	0.295800	0.196200
C471	C47	0.396300	0.382100	0.226800
C481	C48	0.645900	0.114900	0.146200
C491	C49	0.897600	0.204800	0.640200
C501	C50	0.931200	0.113400	0.593700
C511	C51	0.909800	0.998000	0.602400
C521	C52	0.936600	0.912800	0.559300
C531	C53	0.987900	0.941100	0.504700
C541	C54	0.983300	0.143700	0.541800
C551	C55	0.698100	0.409500	0.648200
C561	C56	0.610000	0.426000	0.593200
C571	C57	0.511100	0.339500	0.567400
C581	C58	0.432400	0.353400	0.516500
C591	C59	0.450900	0.455300	0.487300
C601	C60	0.628200	0.526400	0.565400
C611	C61	0.933400	0.490800	0.808700
C621	C62	0.953000	0.511800	0.880800
C631	C63	0.972000	0.626600	0.914000
C641	C64	0.998900	0.649900	0.980100
C651	C65	0.010500	0.559100	0.016900
C661	C66	0.960400	0.420800	0.914200
C671	C67	0.128300	0.339900	0.754000
C681	C68	0.225200	0.186600	0.787000
C691	C69	0.159500	0.074100	0.748400
C701	C70	0.295800	0.308600	0.696200
C711	C71	0.382100	0.396300	0.726800
C721	C72	0.114900	0.645900	0.646200
C731	C73	0.795200	0.102400	0.859800
C741	C74	0.886600	0.068800	0.906300
C751	C75	0.002000	0.090200	0.897600
C761	C76	0.087200	0.063400	0.940700
C771	C77	0.058900	0.012100	0.995300
C781	C78	0.856300	0.016700	0.958200
C791	C79	0.590500	0.301900	0.851800
C801	C80	0.574000	0.390000	0.906800
C811	C81	0.660500	0.488900	0.932600
C821	C82	0.646600	0.567600	0.983500
C831	C83	0.544700	0.549100	0.012700
C841	C84	0.473600	0.371800	0.934600
C851	C85	0.509200	0.066600	0.691300
C861	C86	0.488200	0.047000	0.619200
C871	C87	0.373400	0.028000	0.586000
C881	C88	0.350100	0.001100	0.519900
C891	C89	0.440900	0.989500	0.483100
C901	C90	0.579200	0.039600	0.585800
C911	C91	0.660100	0.871700	0.746000
C921	C92	0.813400	0.774800	0.713000
C931	C93	0.925900	0.840500	0.751600
C941	C94	0.691400	0.704200	0.803800
C951	C95	0.603700	0.617900	0.773200
C961	C96	0.354100	0.885100	0.853800
N11	N1	0.784000	0.715200	0.248800
N21	N2	0.284800	0.216000	0.251200
N31	N3	0.216000	0.284800	0.751200
N41	N4	0.715200	0.784000	0.748800
O11	O1	0.073700	0.689900	0.369200
O21	O2	0.155300	0.828900	0.315440
O31	O3	0.329100	0.674700	0.322340
O41	O4	0.208100	0.514900	0.339830
O51	O5	0.105000	0.611400	0.223070
O61	O6	0.035300	0.423300	0.219840
O71	O7	0.885700	0.575900	0.274300
O81	O8	0.957400	0.432000	0.355000
O91	O9	0.310100	0.926300	0.130800
O101	O10	0.171100	0.844700	0.184560
O111	O11	0.325300	0.670900	0.177660
O121	O12	0.485100	0.791900	0.160170
O131	O13	0.388600	0.895000	0.276930
O141	O14	0.576700	0.964700	0.280160
O151	O15	0.424100	0.114300	0.225700
O161	O16	0.568000	0.042600	0.145000
O171	O17	0.926300	0.310100	0.630800
O181	O18	0.844700	0.171100	0.684560
O191	O19	0.670900	0.325300	0.677660
O201	O20	0.791900	0.485100	0.660170
O211	O21	0.895000	0.388600	0.776930
O221	O22	0.964700	0.576700	0.780160
O231	O23	0.114300	0.424100	0.725700
O241	O24	0.042600	0.568000	0.645000
O251	O25	0.689900	0.073700	0.869200
O261	O26	0.828900	0.155300	0.815440
O271	O27	0.674700	0.329100	0.822340
O281	O28	0.514900	0.208100	0.839830
O291	O29	0.611400	0.105000	0.723070
O301	O30	0.423300	0.035300	0.719840
O311	O31	0.575900	0.885700	0.774300
O321	O32	0.432000	0.957400	0.855000
