data_QASTUC_freeONLY_PM
_symmetry_space_group_name_H-M	'P1'
_cell_length_a	18.894000
_cell_length_b	31.681000
_cell_length_c	13.876000
_cell_angle_alpha	90.000000
_cell_angle_beta	90.000000
_cell_angle_gamma	90.000000
_symmetry_Int_Tables_number 1

loop_
_symmetry_equiv_pos_as_xyz
'x,y,z'

loop_
_atom_site_label
_atom_site_type_symbol
_atom_site_fract_x
_atom_site_fract_y
_atom_site_fract_z
O11	O1	0.189200	0.008200	0.444500
Mn11	Mn1	0.262140	0.916630	0.474990
O21	O2	0.223100	0.860100	0.419300
O31	O3	0.336800	0.861000	0.446300
N11	N1	0.255300	0.899200	0.627700
N21	N2	0.324100	0.960300	0.544200
N31	N3	0.308800	0.951200	0.359500
N41	N4	0.545000	0.151100	0.845700
N51	N5	0.574100	0.200200	0.952500
C11	C1	0.297700	0.944800	0.265200
H11	H1	0.269300	0.922200	0.246400
C21	C2	0.325600	0.961900	0.640500
O41	O4	0.165600	0.941700	0.486100
C31	C3	0.395700	0.022200	0.536400
H21	H2	0.420200	0.042000	0.499800
C41	C4	0.361400	0.993400	0.688500
H31	H3	0.362100	0.993900	0.755500
C51	C5	0.349700	0.984400	0.386500
C61	C6	0.357700	0.989700	0.491500
C71	C7	0.406300	0.076100	0.772000
H41	H4	0.363200	0.066100	0.794800
C81	C8	0.285700	0.927000	0.688000
C91	C9	0.396200	0.024400	0.636200
C101	C10	0.280900	0.841200	0.425000
C111	C11	0.433700	0.059600	0.687100
C121	C12	0.523000	0.179400	0.910200
H51	H5	0.475400	0.184000	0.923800
C131	C13	0.221400	0.771900	0.404100
H61	H6	0.178900	0.786400	0.396600
C141	C14	0.216000	0.867800	0.663800
H71	H7	0.195500	0.848600	0.621600
C151	C15	0.283100	0.794100	0.414900
C161	C16	0.441300	0.106900	0.823500
H81	H8	0.422100	0.117600	0.880200
C171	C17	0.505500	0.121700	0.789700
C181	C18	0.496300	0.076900	0.652200
H91	H9	0.514300	0.067600	0.593500
C191	C19	0.326800	0.970400	0.194500
H101	H10	0.318400	0.965300	0.129500
C201	C20	0.532000	0.107400	0.703000
H111	H11	0.574100	0.118400	0.678900
C211	C21	0.368600	0.003500	0.223700
H121	H12	0.389100	0.021200	0.178000
C221	C22	0.380300	0.010500	0.320200
H131	H13	0.408800	0.032800	0.340100
C231	C23	0.237100	0.891000	0.822600
H141	H14	0.231900	0.888000	0.888900
C241	C24	0.276900	0.923500	0.786300
H151	H15	0.297700	0.943000	0.827600
C251	C25	0.346200	0.771800	0.423500
H161	H16	0.388700	0.786400	0.429300
C261	C26	0.204900	0.863000	0.761500
H171	H17	0.176500	0.841400	0.785100
C271	C27	0.632800	0.183300	0.915000
H181	H18	0.678700	0.191700	0.929400
C281	C28	0.615800	0.152700	0.853000
H191	H19	0.647600	0.135400	0.820500
C291	C29	0.071100	0.990200	0.485300
C301	C30	0.148600	0.980100	0.469800
C311	C31	0.046800	0.030700	0.470000
H201	H20	0.078100	0.051600	0.449800
C321	C32	0.023500	0.959600	0.515700
H211	H21	0.039300	0.932200	0.526400
O51	O5	0.310800	0.991800	0.944500
Mn21	Mn2	0.237860	0.083370	0.974990
O61	O6	0.276900	0.139900	0.919300
O71	O7	0.163200	0.139000	0.946300
N61	N6	0.244700	0.100800	0.127700
N71	N7	0.175900	0.039700	0.044200
N81	N8	0.191200	0.048800	0.859500
N91	N9	0.955000	0.848900	0.345700
N101	N10	0.925900	0.799800	0.452500
C331	C33	0.202300	0.055200	0.765200
H221	H22	0.230700	0.077800	0.746400
C341	C34	0.174400	0.038100	0.140500
O81	O8	0.334400	0.058300	0.986100
C351	C35	0.104300	0.977800	0.036400
H231	H23	0.079800	0.958000	0.999800
C361	C36	0.138600	0.006600	0.188500
H241	H24	0.137900	0.006100	0.255500
C371	C37	0.150300	0.015600	0.886500
C381	C38	0.142300	0.010300	0.991500
C391	C39	0.093700	0.923900	0.272000
H251	H25	0.136800	0.933900	0.294800
C401	C40	0.214300	0.073000	0.188000
C411	C41	0.103800	0.975600	0.136200
C421	C42	0.219100	0.158800	0.925000
C431	C43	0.066300	0.940400	0.187100
C441	C44	0.977000	0.820600	0.410200
H261	H26	0.024600	0.816000	0.423800
C451	C45	0.278600	0.228100	0.904100
H271	H27	0.321100	0.213600	0.896600
C461	C46	0.284000	0.132200	0.163800
H281	H28	0.304500	0.151400	0.121600
C471	C47	0.216900	0.205900	0.914900
C481	C48	0.058700	0.893100	0.323500
H291	H29	0.077900	0.882400	0.380200
C491	C49	0.994500	0.878300	0.289700
C501	C50	0.003700	0.923100	0.152200
H301	H30	0.985700	0.932400	0.093500
C511	C51	0.173200	0.029600	0.694500
H311	H31	0.181600	0.034700	0.629500
C521	C52	0.968000	0.892600	0.203000
H321	H32	0.925900	0.881600	0.178900
C531	C53	0.131400	0.996500	0.723700
H331	H33	0.110900	0.978800	0.678000
C541	C54	0.119700	0.989500	0.820200
H341	H34	0.091200	0.967200	0.840100
C551	C55	0.262900	0.109000	0.322600
H351	H35	0.268100	0.112000	0.388900
C561	C56	0.223100	0.076500	0.286300
H361	H36	0.202300	0.057000	0.327600
C571	C57	0.153800	0.228200	0.923500
H371	H37	0.111300	0.213600	0.929300
C581	C58	0.295100	0.137000	0.261500
H381	H38	0.323500	0.158600	0.285100
C591	C59	0.867200	0.816700	0.415000
H391	H39	0.821300	0.808300	0.429400
C601	C60	0.884200	0.847300	0.353000
H401	H40	0.852400	0.864600	0.320500
C611	C61	0.428900	0.009800	0.985300
C621	C62	0.351400	0.019900	0.969800
C631	C63	0.453200	0.969300	0.970000
H411	H41	0.421900	0.948400	0.949800
C641	C64	0.476500	0.040400	0.015700
H421	H42	0.460700	0.067800	0.026400
O91	O9	0.810800	0.508200	0.555500
Mn31	Mn3	0.737860	0.416630	0.525010
O101	O10	0.776900	0.360100	0.580700
O111	O11	0.663200	0.361000	0.553700
N111	N11	0.744700	0.399200	0.372300
N121	N12	0.675900	0.460300	0.455800
N131	N13	0.691200	0.451200	0.640500
N141	N14	0.455000	0.651100	0.154300
N151	N15	0.425900	0.700200	0.047500
C651	C65	0.702300	0.444800	0.734800
H431	H43	0.730700	0.422200	0.753600
C661	C66	0.674400	0.461900	0.359500
O121	O12	0.834400	0.441700	0.513900
C671	C67	0.604300	0.522200	0.463600
H441	H44	0.579800	0.542000	0.500200
C681	C68	0.638600	0.493400	0.311500
H451	H45	0.637900	0.493900	0.244500
C691	C69	0.650300	0.484400	0.613500
C701	C70	0.642300	0.489700	0.508500
C711	C71	0.593700	0.576100	0.228000
H461	H46	0.636800	0.566100	0.205200
C721	C72	0.714300	0.427000	0.312000
C731	C73	0.603800	0.524400	0.363800
C741	C74	0.719100	0.341200	0.575000
C751	C75	0.566300	0.559600	0.312900
C761	C76	0.477000	0.679400	0.089800
H471	H47	0.524600	0.684000	0.076200
C771	C77	0.778600	0.271900	0.595900
H481	H48	0.821100	0.286400	0.603400
C781	C78	0.784000	0.367800	0.336200
H491	H49	0.804500	0.348600	0.378400
C791	C79	0.716900	0.294100	0.585100
C801	C80	0.558700	0.606900	0.176500
H501	H50	0.577900	0.617600	0.119800
C811	C81	0.494500	0.621700	0.210300
C821	C82	0.503700	0.576900	0.347800
H511	H51	0.485700	0.567600	0.406500
C831	C83	0.673200	0.470400	0.805500
H521	H52	0.681600	0.465300	0.870500
C841	C84	0.468000	0.607400	0.297000
H531	H53	0.425900	0.618400	0.321100
C851	C85	0.631400	0.503500	0.776300
H541	H54	0.610900	0.521200	0.822000
C861	C86	0.619700	0.510500	0.679800
H551	H55	0.591200	0.532800	0.659900
C871	C87	0.762900	0.391000	0.177400
H561	H56	0.768100	0.388000	0.111100
C881	C88	0.723100	0.423500	0.213700
H571	H57	0.702300	0.443000	0.172400
C891	C89	0.653800	0.271800	0.576500
H581	H58	0.611300	0.286400	0.570700
C901	C90	0.795100	0.363000	0.238500
H591	H59	0.823500	0.341400	0.214900
C911	C91	0.367200	0.683300	0.085000
H601	H60	0.321300	0.691700	0.070600
C921	C92	0.384200	0.652700	0.147000
H611	H61	0.352400	0.635400	0.179500
C931	C93	0.928900	0.490200	0.514700
C941	C94	0.851400	0.480100	0.530200
C951	C95	0.953200	0.530700	0.530000
H621	H62	0.921900	0.551600	0.550200
C961	C96	0.976500	0.459600	0.484300
H631	H63	0.960700	0.432200	0.473600
O131	O13	0.689200	0.491800	0.055500
Mn41	Mn4	0.762140	0.583370	0.025010
O141	O14	0.723100	0.639900	0.080700
O151	O15	0.836800	0.639000	0.053700
N161	N16	0.755300	0.600800	0.872300
N171	N17	0.824100	0.539700	0.955800
N181	N18	0.808800	0.548800	0.140500
N191	N19	0.045000	0.348900	0.654300
N201	N20	0.074100	0.299800	0.547500
C971	C97	0.797700	0.555200	0.234800
H641	H64	0.769300	0.577800	0.253600
C981	C98	0.825600	0.538100	0.859500
O161	O16	0.665600	0.558300	0.013900
C991	C99	0.895700	0.477800	0.963600
H651	H65	0.920200	0.458000	0.000200
C1001	C100	0.861400	0.506600	0.811500
H661	H66	0.862100	0.506100	0.744500
C1011	C101	0.849700	0.515600	0.113500
C1021	C102	0.857700	0.510300	0.008500
C1031	C103	0.906300	0.423900	0.728000
H671	H67	0.863200	0.433900	0.705200
C1041	C104	0.785700	0.573000	0.812000
C1051	C105	0.896200	0.475600	0.863800
C1061	C106	0.780900	0.658800	0.075000
C1071	C107	0.933700	0.440400	0.812900
C1081	C108	0.023000	0.320600	0.589800
H681	H68	0.975400	0.316000	0.576200
C1091	C109	0.721400	0.728100	0.095900
H691	H69	0.678900	0.713600	0.103400
C1101	C110	0.716000	0.632200	0.836200
H701	H70	0.695500	0.651400	0.878400
C1111	C111	0.783100	0.705900	0.085100
C1121	C112	0.941300	0.393100	0.676500
H711	H71	0.922100	0.382400	0.619800
C1131	C113	0.005500	0.378300	0.710300
C1141	C114	0.996300	0.423100	0.847800
H721	H72	0.014300	0.432400	0.906500
C1151	C115	0.826800	0.529600	0.305500
H731	H73	0.818400	0.534700	0.370500
C1161	C116	0.032000	0.392600	0.797000
H741	H74	0.074100	0.381600	0.821100
C1171	C117	0.868600	0.496500	0.276300
H751	H75	0.889100	0.478800	0.322000
C1181	C118	0.880300	0.489500	0.179800
H761	H76	0.908800	0.467200	0.159900
C1191	C119	0.737100	0.609000	0.677400
H771	H77	0.731900	0.612000	0.611100
C1201	C120	0.776900	0.576500	0.713700
H781	H78	0.797700	0.557000	0.672400
C1211	C121	0.846200	0.728200	0.076500
H791	H79	0.888700	0.713600	0.070700
C1221	C122	0.704900	0.637000	0.738500
H801	H80	0.676500	0.658600	0.714900
C1231	C123	0.132800	0.316700	0.585000
H811	H81	0.178700	0.308300	0.570600
C1241	C124	0.115800	0.347300	0.647000
H821	H82	0.147600	0.364600	0.679500
C1251	C125	0.571100	0.509800	0.014700
C1261	C126	0.648600	0.519900	0.030200
C1271	C127	0.546800	0.469300	0.030000
H831	H83	0.578100	0.448400	0.050200
C1281	C128	0.523500	0.540400	0.984300
H841	H84	0.539300	0.567800	0.973600
O171	O17	0.810800	0.991800	0.555500
Mn51	Mn5	0.737860	0.083370	0.525010
O181	O18	0.776900	0.139900	0.580700
O191	O19	0.663200	0.139000	0.553700
N211	N21	0.744700	0.100800	0.372300
N221	N22	0.675900	0.039700	0.455800
N231	N23	0.691200	0.048800	0.640500
N241	N24	0.455000	0.848900	0.154300
N251	N25	0.425900	0.799800	0.047500
C1291	C129	0.702300	0.055200	0.734800
H851	H85	0.730700	0.077800	0.753600
C1301	C130	0.674400	0.038100	0.359500
O201	O20	0.834400	0.058300	0.513900
C1311	C131	0.604300	0.977800	0.463600
H861	H86	0.579800	0.958000	0.500200
C1321	C132	0.638600	0.006600	0.311500
H871	H87	0.637900	0.006100	0.244500
C1331	C133	0.650300	0.015600	0.613500
C1341	C134	0.642300	0.010300	0.508500
C1351	C135	0.593700	0.923900	0.228000
H881	H88	0.636800	0.933900	0.205200
C1361	C136	0.714300	0.073000	0.312000
C1371	C137	0.603800	0.975600	0.363800
C1381	C138	0.719100	0.158800	0.575000
C1391	C139	0.566300	0.940400	0.312900
C1401	C140	0.477000	0.820600	0.089800
H891	H89	0.524600	0.816000	0.076200
C1411	C141	0.778600	0.228100	0.595900
H901	H90	0.821100	0.213600	0.603400
C1421	C142	0.784000	0.132200	0.336200
H911	H91	0.804500	0.151400	0.378400
C1431	C143	0.716900	0.205900	0.585100
C1441	C144	0.558700	0.893100	0.176500
H921	H92	0.577900	0.882400	0.119800
C1451	C145	0.494500	0.878300	0.210300
C1461	C146	0.503700	0.923100	0.347800
H931	H93	0.485700	0.932400	0.406500
C1471	C147	0.673200	0.029600	0.805500
H941	H94	0.681600	0.034700	0.870500
C1481	C148	0.468000	0.892600	0.297000
H951	H95	0.425900	0.881600	0.321100
C1491	C149	0.631400	0.996500	0.776300
H961	H96	0.610900	0.978800	0.822000
C1501	C150	0.619700	0.989500	0.679800
H971	H97	0.591200	0.967200	0.659900
C1511	C151	0.762900	0.109000	0.177400
H981	H98	0.768100	0.112000	0.111100
C1521	C152	0.723100	0.076500	0.213700
H991	H99	0.702300	0.057000	0.172400
C1531	C153	0.653800	0.228200	0.576500
H1001	H100	0.611300	0.213600	0.570700
C1541	C154	0.795100	0.137000	0.238500
H1011	H101	0.823500	0.158600	0.214900
C1551	C155	0.367200	0.816700	0.085000
H1021	H102	0.321300	0.808300	0.070600
C1561	C156	0.384200	0.847300	0.147000
H1031	H103	0.352400	0.864600	0.179500
C1571	C157	0.928900	0.009800	0.514700
C1581	C158	0.851400	0.019900	0.530200
C1591	C159	0.953200	0.969300	0.530000
H1041	H104	0.921900	0.948400	0.550200
C1601	C160	0.976500	0.040400	0.484300
H1051	H105	0.960700	0.067800	0.473600
O211	O21	0.689200	0.008200	0.055500
Mn61	Mn6	0.762140	0.916630	0.025010
O221	O22	0.723100	0.860100	0.080700
O231	O23	0.836800	0.861000	0.053700
N261	N26	0.755300	0.899200	0.872300
N271	N27	0.824100	0.960300	0.955800
N281	N28	0.808800	0.951200	0.140500
N291	N29	0.045000	0.151100	0.654300
N301	N30	0.074100	0.200200	0.547500
C1611	C161	0.797700	0.944800	0.234800
H1061	H106	0.769300	0.922200	0.253600
C1621	C162	0.825600	0.961900	0.859500
O241	O24	0.665600	0.941700	0.013900
C1631	C163	0.895700	0.022200	0.963600
H1071	H107	0.920200	0.042000	0.000200
C1641	C164	0.861400	0.993400	0.811500
H1081	H108	0.862100	0.993900	0.744500
C1651	C165	0.849700	0.984400	0.113500
C1661	C166	0.857700	0.989700	0.008500
C1671	C167	0.906300	0.076100	0.728000
H1091	H109	0.863200	0.066100	0.705200
C1681	C168	0.785700	0.927000	0.812000
C1691	C169	0.896200	0.024400	0.863800
C1701	C170	0.780900	0.841200	0.075000
C1711	C171	0.933700	0.059600	0.812900
C1721	C172	0.023000	0.179400	0.589800
H1101	H110	0.975400	0.184000	0.576200
C1731	C173	0.721400	0.771900	0.095900
H1111	H111	0.678900	0.786400	0.103400
C1741	C174	0.716000	0.867800	0.836200
H1121	H112	0.695500	0.848600	0.878400
C1751	C175	0.783100	0.794100	0.085100
C1761	C176	0.941300	0.106900	0.676500
H1131	H113	0.922100	0.117600	0.619800
C1771	C177	0.005500	0.121700	0.710300
C1781	C178	0.996300	0.076900	0.847800
H1141	H114	0.014300	0.067600	0.906500
C1791	C179	0.826800	0.970400	0.305500
H1151	H115	0.818400	0.965300	0.370500
C1801	C180	0.032000	0.107400	0.797000
H1161	H116	0.074100	0.118400	0.821100
C1811	C181	0.868600	0.003500	0.276300
H1171	H117	0.889100	0.021200	0.322000
C1821	C182	0.880300	0.010500	0.179800
H1181	H118	0.908800	0.032800	0.159900
C1831	C183	0.737100	0.891000	0.677400
H1191	H119	0.731900	0.888000	0.611100
C1841	C184	0.776900	0.923500	0.713700
H1201	H120	0.797700	0.943000	0.672400
C1851	C185	0.846200	0.771800	0.076500
H1211	H121	0.888700	0.786400	0.070700
C1861	C186	0.704900	0.863000	0.738500
H1221	H122	0.676500	0.841400	0.714900
C1871	C187	0.132800	0.183300	0.585000
H1231	H123	0.178700	0.191700	0.570600
C1881	C188	0.115800	0.152700	0.647000
H1241	H124	0.147600	0.135400	0.679500
C1891	C189	0.571100	0.990200	0.014700
C1901	C190	0.648600	0.980100	0.030200
C1911	C191	0.546800	0.030700	0.030000
H1251	H125	0.578100	0.051600	0.050200
C1921	C192	0.523500	0.959600	0.984300
H1261	H126	0.539300	0.932200	0.973600
O251	O25	0.189200	0.491800	0.444500
Mn71	Mn7	0.262140	0.583370	0.474990
O261	O26	0.223100	0.639900	0.419300
O271	O27	0.336800	0.639000	0.446300
N311	N31	0.255300	0.600800	0.627700
N321	N32	0.324100	0.539700	0.544200
N331	N33	0.308800	0.548800	0.359500
N341	N34	0.545000	0.348900	0.845700
N351	N35	0.574100	0.299800	0.952500
C1931	C193	0.297700	0.555200	0.265200
H1271	H127	0.269300	0.577800	0.246400
C1941	C194	0.325600	0.538100	0.640500
O281	O28	0.165600	0.558300	0.486100
C1951	C195	0.395700	0.477800	0.536400
H1281	H128	0.420200	0.458000	0.499800
C1961	C196	0.361400	0.506600	0.688500
H1291	H129	0.362100	0.506100	0.755500
C1971	C197	0.349700	0.515600	0.386500
C1981	C198	0.357700	0.510300	0.491500
C1991	C199	0.406300	0.423900	0.772000
H1301	H130	0.363200	0.433900	0.794800
C2001	C200	0.285700	0.573000	0.688000
C2011	C201	0.396200	0.475600	0.636200
C2021	C202	0.280900	0.658800	0.425000
C2031	C203	0.433700	0.440400	0.687100
C2041	C204	0.523000	0.320600	0.910200
H1311	H131	0.475400	0.316000	0.923800
C2051	C205	0.221400	0.728100	0.404100
H1321	H132	0.178900	0.713600	0.396600
C2061	C206	0.216000	0.632200	0.663800
H1331	H133	0.195500	0.651400	0.621600
C2071	C207	0.283100	0.705900	0.414900
C2081	C208	0.441300	0.393100	0.823500
H1341	H134	0.422100	0.382400	0.880200
C2091	C209	0.505500	0.378300	0.789700
C2101	C210	0.496300	0.423100	0.652200
H1351	H135	0.514300	0.432400	0.593500
C2111	C211	0.326800	0.529600	0.194500
H1361	H136	0.318400	0.534700	0.129500
C2121	C212	0.532000	0.392600	0.703000
H1371	H137	0.574100	0.381600	0.678900
C2131	C213	0.368600	0.496500	0.223700
H1381	H138	0.389100	0.478800	0.178000
C2141	C214	0.380300	0.489500	0.320200
H1391	H139	0.408800	0.467200	0.340100
C2151	C215	0.237100	0.609000	0.822600
H1401	H140	0.231900	0.612000	0.888900
C2161	C216	0.276900	0.576500	0.786300
H1411	H141	0.297700	0.557000	0.827600
C2171	C217	0.346200	0.728200	0.423500
H1421	H142	0.388700	0.713600	0.429300
C2181	C218	0.204900	0.637000	0.761500
H1431	H143	0.176500	0.658600	0.785100
C2191	C219	0.632800	0.316700	0.915000
H1441	H144	0.678700	0.308300	0.929400
C2201	C220	0.615800	0.347300	0.853000
H1451	H145	0.647600	0.364600	0.820500
C2211	C221	0.071100	0.509800	0.485300
C2221	C222	0.148600	0.519900	0.469800
C2231	C223	0.046800	0.469300	0.470000
H1461	H146	0.078100	0.448400	0.449800
C2241	C224	0.023500	0.540400	0.515700
H1471	H147	0.039300	0.567800	0.526400
O291	O29	0.310800	0.508200	0.944500
Mn81	Mn8	0.237860	0.416630	0.974990
O301	O30	0.276900	0.360100	0.919300
O311	O31	0.163200	0.361000	0.946300
N361	N36	0.244700	0.399200	0.127700
N371	N37	0.175900	0.460300	0.044200
N381	N38	0.191200	0.451200	0.859500
N391	N39	0.955000	0.651100	0.345700
N401	N40	0.925900	0.700200	0.452500
C2251	C225	0.202300	0.444800	0.765200
H1481	H148	0.230700	0.422200	0.746400
C2261	C226	0.174400	0.461900	0.140500
O321	O32	0.334400	0.441700	0.986100
C2271	C227	0.104300	0.522200	0.036400
H1491	H149	0.079800	0.542000	0.999800
C2281	C228	0.138600	0.493400	0.188500
H1501	H150	0.137900	0.493900	0.255500
C2291	C229	0.150300	0.484400	0.886500
C2301	C230	0.142300	0.489700	0.991500
C2311	C231	0.093700	0.576100	0.272000
H1511	H151	0.136800	0.566100	0.294800
C2321	C232	0.214300	0.427000	0.188000
C2331	C233	0.103800	0.524400	0.136200
C2341	C234	0.219100	0.341200	0.925000
C2351	C235	0.066300	0.559600	0.187100
C2361	C236	0.977000	0.679400	0.410200
H1521	H152	0.024600	0.684000	0.423800
C2371	C237	0.278600	0.271900	0.904100
H1531	H153	0.321100	0.286400	0.896600
C2381	C238	0.284000	0.367800	0.163800
H1541	H154	0.304500	0.348600	0.121600
C2391	C239	0.216900	0.294100	0.914900
C2401	C240	0.058700	0.606900	0.323500
H1551	H155	0.077900	0.617600	0.380200
C2411	C241	0.994500	0.621700	0.289700
C2421	C242	0.003700	0.576900	0.152200
H1561	H156	0.985700	0.567600	0.093500
C2431	C243	0.173200	0.470400	0.694500
H1571	H157	0.181600	0.465300	0.629500
C2441	C244	0.968000	0.607400	0.203000
H1581	H158	0.925900	0.618400	0.178900
C2451	C245	0.131400	0.503500	0.723700
H1591	H159	0.110900	0.521200	0.678000
C2461	C246	0.119700	0.510500	0.820200
H1601	H160	0.091200	0.532800	0.840100
C2471	C247	0.262900	0.391000	0.322600
H1611	H161	0.268100	0.388000	0.388900
C2481	C248	0.223100	0.423500	0.286300
H1621	H162	0.202300	0.443000	0.327600
C2491	C249	0.153800	0.271800	0.923500
H1631	H163	0.111300	0.286400	0.929300
C2501	C250	0.295100	0.363000	0.261500
H1641	H164	0.323500	0.341400	0.285100
C2511	C251	0.867200	0.683300	0.415000
H1651	H165	0.821300	0.691700	0.429400
C2521	C252	0.884200	0.652700	0.353000
H1661	H166	0.852400	0.635400	0.320500
C2531	C253	0.428900	0.490200	0.985300
C2541	C254	0.351400	0.480100	0.969800
C2551	C255	0.453200	0.530700	0.970000
H1671	H167	0.421900	0.551600	0.949800
C2561	C256	0.476500	0.459600	0.015700
H1681	H168	0.460700	0.432200	0.026400
O331	O33	0.005500	0.250000	0.353100
C2571	C257	0.942000	0.250000	0.383000
C2581	C258	0.884100	0.250000	0.309100
C2591	C259	0.900700	0.250000	0.211700
H1691	H169	0.947700	0.250000	0.192000
Mn91	Mn9	0.573680	0.250000	0.042100
O341	O34	0.928100	0.250000	0.469800
O351	O35	0.655500	0.250000	0.127600
O361	O36	0.735200	0.250000	0.010300
C2601	C260	0.775500	0.250000	0.171900
C2611	C261	0.759400	0.250000	0.268500
H1701	H170	0.712300	0.250000	0.288100
C2621	C262	0.719100	0.250000	0.098000
C2631	C263	0.813400	0.250000	0.337800
H1711	H171	0.802000	0.250000	0.403000
C2641	C264	0.846800	0.250000	0.143400
H1721	H172	0.858100	0.250000	0.078200
O371	O37	0.494500	0.750000	0.853100
C2651	C265	0.558000	0.750000	0.883000
C2661	C266	0.615900	0.750000	0.809100
C2671	C267	0.599300	0.750000	0.711700
H1731	H173	0.552300	0.750000	0.692000
Mn101	Mn10	0.926320	0.750000	0.542100
O381	O38	0.571900	0.750000	0.969800
O391	O39	0.844500	0.750000	0.627600
O401	O40	0.764800	0.750000	0.510300
C2681	C268	0.724500	0.750000	0.671900
C2691	C269	0.740600	0.750000	0.768500
H1741	H174	0.787700	0.750000	0.788100
C2701	C270	0.780900	0.750000	0.598000
C2711	C271	0.686600	0.750000	0.837800
H1751	H175	0.698000	0.750000	0.903000
C2721	C272	0.653200	0.750000	0.643400
H1761	H176	0.641900	0.750000	0.578200
O411	O41	0.994500	0.750000	0.646900
C2731	C273	0.058000	0.750000	0.617000
C2741	C274	0.115900	0.750000	0.690900
C2751	C275	0.099300	0.750000	0.788300
H1771	H177	0.052300	0.750000	0.808000
Mn111	Mn11	0.426320	0.750000	0.957900
O421	O42	0.071900	0.750000	0.530200
O431	O43	0.344500	0.750000	0.872400
O441	O44	0.264800	0.750000	0.989700
C2761	C276	0.224500	0.750000	0.828100
C2771	C277	0.240600	0.750000	0.731500
H1781	H178	0.287700	0.750000	0.711900
C2781	C278	0.280900	0.750000	0.902000
C2791	C279	0.186600	0.750000	0.662200
H1791	H179	0.198000	0.750000	0.597000
C2801	C280	0.153200	0.750000	0.856600
H1801	H180	0.141900	0.750000	0.921800
O451	O45	0.505500	0.250000	0.146900
C2811	C281	0.442000	0.250000	0.117000
C2821	C282	0.384100	0.250000	0.190900
C2831	C283	0.400700	0.250000	0.288300
H1811	H181	0.447700	0.250000	0.308000
Mn121	Mn12	0.073680	0.250000	0.457900
O461	O46	0.428100	0.250000	0.030200
O471	O47	0.155500	0.250000	0.372400
O481	O48	0.235200	0.250000	0.489700
C2841	C284	0.275500	0.250000	0.328100
C2851	C285	0.259400	0.250000	0.231500
H1821	H182	0.212300	0.250000	0.211900
C2861	C286	0.219100	0.250000	0.402000
C2871	C287	0.313400	0.250000	0.162200
H1831	H183	0.302000	0.250000	0.097000
C2881	C288	0.346800	0.250000	0.356600
H1841	H184	0.358100	0.250000	0.421800
