data_QATXIU_freeONLY_PM
_symmetry_space_group_name_H-M	'P1'
_cell_length_a	31.200900
_cell_length_b	31.200900
_cell_length_c	31.200900
_cell_angle_alpha	90.000000
_cell_angle_beta	90.000000
_cell_angle_gamma	90.000000
_symmetry_Int_Tables_number 1

loop_
_symmetry_equiv_pos_as_xyz
'x,y,z'

loop_
_atom_site_label
_atom_site_type_symbol
_atom_site_fract_x
_atom_site_fract_y
_atom_site_fract_z
Cd11	Cd1	0.062040	0.120440	0.923950
C11	C1	0.880700	0.164400	0.006400
C21	C2	0.885900	0.201900	0.032500
H11	H1	0.863900	0.212100	0.049800
C31	C3	0.926700	0.222800	0.030500
H21	H2	0.931500	0.249400	0.043200
C41	C4	0.958000	0.201500	0.008900
H31	H3	0.985200	0.213600	0.009700
C51	C5	0.954000	0.165700	0.986900
C61	C6	0.915400	0.146200	0.985900
C71	C7	0.911800	0.102700	0.963000
C81	C8	0.918200	0.064900	0.987600
C91	C9	0.916000	0.025700	0.967600
H41	H4	0.920000	0.001200	0.984000
C101	C10	0.908100	0.021000	0.923500
H51	H5	0.906800	0.994300	0.910400
C111	C11	0.902600	0.058300	0.901500
H61	H6	0.897200	0.056400	0.872200
C121	C12	0.904300	0.098500	0.919000
C131	C13	0.837300	0.145500	0.006500
C141	C14	0.993000	0.149800	0.961400
C151	C15	0.921200	0.065500	0.035800
C161	C16	0.895600	0.135800	0.888600
O11	O1	0.831100	0.107400	0.009100
O21	O2	0.805500	0.172400	0.002500
O31	O3	0.996200	0.149700	0.926000
O41	O4	0.019300	0.131000	0.977700
O51	O5	0.946400	0.089600	0.053300
O61	O6	0.900100	0.038600	0.055300
O71	O7	0.899400	0.130400	0.850300
O81	O8	0.881800	0.170700	0.904600
Cd21	Cd2	0.562040	0.620440	0.423950
C171	C17	0.380700	0.664400	0.506400
C181	C18	0.385900	0.701900	0.532500
H71	H7	0.363900	0.712100	0.549800
C191	C19	0.426700	0.722800	0.530500
H81	H8	0.431500	0.749400	0.543200
C201	C20	0.458000	0.701500	0.508900
H91	H9	0.485200	0.713600	0.509700
C211	C21	0.454000	0.665700	0.486900
C221	C22	0.415400	0.646200	0.485900
C231	C23	0.411800	0.602700	0.463000
C241	C24	0.418200	0.564900	0.487600
C251	C25	0.416000	0.525700	0.467600
H101	H10	0.420000	0.501200	0.484000
C261	C26	0.408100	0.521000	0.423500
H111	H11	0.406800	0.494300	0.410400
C271	C27	0.402600	0.558300	0.401500
H121	H12	0.397200	0.556400	0.372200
C281	C28	0.404300	0.598500	0.419000
C291	C29	0.337300	0.645500	0.506500
C301	C30	0.493000	0.649800	0.461400
C311	C31	0.421200	0.565500	0.535800
C321	C32	0.395600	0.635800	0.388600
O91	O9	0.331100	0.607400	0.509100
O101	O10	0.305500	0.672400	0.502500
O111	O11	0.496200	0.649700	0.426000
O121	O12	0.519300	0.631000	0.477700
O131	O13	0.446400	0.589600	0.553300
O141	O14	0.400100	0.538600	0.555300
O151	O15	0.399400	0.630400	0.350300
O161	O16	0.381800	0.670700	0.404600
Cd31	Cd3	0.437960	0.879560	0.423950
C331	C33	0.619300	0.835600	0.506400
C341	C34	0.614100	0.798100	0.532500
H131	H13	0.636100	0.787900	0.549800
C351	C35	0.573300	0.777200	0.530500
H141	H14	0.568500	0.750600	0.543200
C361	C36	0.542000	0.798500	0.508900
H151	H15	0.514800	0.786400	0.509700
C371	C37	0.546000	0.834300	0.486900
C381	C38	0.584600	0.853800	0.485900
C391	C39	0.588200	0.897300	0.463000
C401	C40	0.581800	0.935100	0.487600
C411	C41	0.584000	0.974300	0.467600
H161	H16	0.580000	0.998800	0.484000
C421	C42	0.591900	0.979000	0.423500
H171	H17	0.593200	0.005700	0.410400
C431	C43	0.597400	0.941700	0.401500
H181	H18	0.602800	0.943600	0.372200
C441	C44	0.595700	0.901500	0.419000
C451	C45	0.662700	0.854500	0.506500
C461	C46	0.507000	0.850200	0.461400
C471	C47	0.578800	0.934500	0.535800
C481	C48	0.604400	0.864200	0.388600
O171	O17	0.668900	0.892600	0.509100
O181	O18	0.694500	0.827600	0.502500
O191	O19	0.503800	0.850300	0.426000
O201	O20	0.480700	0.869000	0.477700
O211	O21	0.553600	0.910400	0.553300
O221	O22	0.599900	0.961400	0.555300
O231	O23	0.600600	0.869600	0.350300
O241	O24	0.618200	0.829300	0.404600
Cd41	Cd4	0.937960	0.379560	0.923950
C491	C49	0.119300	0.335600	0.006400
C501	C50	0.114100	0.298100	0.032500
H191	H19	0.136100	0.287900	0.049800
C511	C51	0.073300	0.277200	0.030500
H201	H20	0.068500	0.250600	0.043200
C521	C52	0.042000	0.298500	0.008900
H211	H21	0.014800	0.286400	0.009700
C531	C53	0.046000	0.334300	0.986900
C541	C54	0.084600	0.353800	0.985900
C551	C55	0.088200	0.397300	0.963000
C561	C56	0.081800	0.435100	0.987600
C571	C57	0.084000	0.474300	0.967600
H221	H22	0.080000	0.498800	0.984000
C581	C58	0.091900	0.479000	0.923500
H231	H23	0.093200	0.505700	0.910400
C591	C59	0.097400	0.441700	0.901500
H241	H24	0.102800	0.443600	0.872200
C601	C60	0.095700	0.401500	0.919000
C611	C61	0.162700	0.354500	0.006500
C621	C62	0.007000	0.350200	0.961400
C631	C63	0.078800	0.434500	0.035800
C641	C64	0.104400	0.364200	0.888600
O251	O25	0.168900	0.392600	0.009100
O261	O26	0.194500	0.327600	0.002500
O271	O27	0.003800	0.350300	0.926000
O281	O28	0.980700	0.369000	0.977700
O291	O29	0.053600	0.410400	0.053300
O301	O30	0.099900	0.461400	0.055300
O311	O31	0.100600	0.369600	0.850300
O321	O32	0.118200	0.329300	0.904600
Cd51	Cd5	0.937960	0.620440	0.576050
C651	C65	0.119300	0.664400	0.493600
C661	C66	0.114100	0.701900	0.467500
H251	H25	0.136100	0.712100	0.450200
C671	C67	0.073300	0.722800	0.469500
H261	H26	0.068500	0.749400	0.456800
C681	C68	0.042000	0.701500	0.491100
H271	H27	0.014800	0.713600	0.490300
C691	C69	0.046000	0.665700	0.513100
C701	C70	0.084600	0.646200	0.514100
C711	C71	0.088200	0.602700	0.537000
C721	C72	0.081800	0.564900	0.512400
C731	C73	0.084000	0.525700	0.532400
H281	H28	0.080000	0.501200	0.516000
C741	C74	0.091900	0.521000	0.576500
H291	H29	0.093200	0.494300	0.589600
C751	C75	0.097400	0.558300	0.598500
H301	H30	0.102800	0.556400	0.627800
C761	C76	0.095700	0.598500	0.581000
C771	C77	0.162700	0.645500	0.493500
C781	C78	0.007000	0.649800	0.538600
C791	C79	0.078800	0.565500	0.464200
C801	C80	0.104400	0.635800	0.611400
O331	O33	0.168900	0.607400	0.490900
O341	O34	0.194500	0.672400	0.497500
O351	O35	0.003800	0.649700	0.574000
O361	O36	0.980700	0.631000	0.522300
O371	O37	0.053600	0.589600	0.446700
O381	O38	0.099900	0.538600	0.444700
O391	O39	0.100600	0.630400	0.649700
O401	O40	0.118200	0.670700	0.595400
Cd61	Cd6	0.437960	0.120440	0.076050
C811	C81	0.619300	0.164400	0.993600
C821	C82	0.614100	0.201900	0.967500
H311	H31	0.636100	0.212100	0.950200
C831	C83	0.573300	0.222800	0.969500
H321	H32	0.568500	0.249400	0.956800
C841	C84	0.542000	0.201500	0.991100
H331	H33	0.514800	0.213600	0.990300
C851	C85	0.546000	0.165700	0.013100
C861	C86	0.584600	0.146200	0.014100
C871	C87	0.588200	0.102700	0.037000
C881	C88	0.581800	0.064900	0.012400
C891	C89	0.584000	0.025700	0.032400
H341	H34	0.580000	0.001200	0.016000
C901	C90	0.591900	0.021000	0.076500
H351	H35	0.593200	0.994300	0.089600
C911	C91	0.597400	0.058300	0.098500
H361	H36	0.602800	0.056400	0.127800
C921	C92	0.595700	0.098500	0.081000
C931	C93	0.662700	0.145500	0.993500
C941	C94	0.507000	0.149800	0.038600
C951	C95	0.578800	0.065500	0.964200
C961	C96	0.604400	0.135800	0.111400
O411	O41	0.668900	0.107400	0.990900
O421	O42	0.694500	0.172400	0.997500
O431	O43	0.503800	0.149700	0.074000
O441	O44	0.480700	0.131000	0.022300
O451	O45	0.553600	0.089600	0.946700
O461	O46	0.599900	0.038600	0.944700
O471	O47	0.600600	0.130400	0.149700
O481	O48	0.618200	0.170700	0.095400
Cd71	Cd7	0.562040	0.379560	0.076050
C971	C97	0.380700	0.335600	0.993600
C981	C98	0.385900	0.298100	0.967500
H371	H37	0.363900	0.287900	0.950200
C991	C99	0.426700	0.277200	0.969500
H381	H38	0.431500	0.250600	0.956800
C1001	C100	0.458000	0.298500	0.991100
H391	H39	0.485200	0.286400	0.990300
C1011	C101	0.454000	0.334300	0.013100
C1021	C102	0.415400	0.353800	0.014100
C1031	C103	0.411800	0.397300	0.037000
C1041	C104	0.418200	0.435100	0.012400
C1051	C105	0.416000	0.474300	0.032400
H401	H40	0.420000	0.498800	0.016000
C1061	C106	0.408100	0.479000	0.076500
H411	H41	0.406800	0.505700	0.089600
C1071	C107	0.402600	0.441700	0.098500
H421	H42	0.397200	0.443600	0.127800
C1081	C108	0.404300	0.401500	0.081000
C1091	C109	0.337300	0.354500	0.993500
C1101	C110	0.493000	0.350200	0.038600
C1111	C111	0.421200	0.434500	0.964200
C1121	C112	0.395600	0.364200	0.111400
O491	O49	0.331100	0.392600	0.990900
O501	O50	0.305500	0.327600	0.997500
O511	O51	0.496200	0.350300	0.074000
O521	O52	0.519300	0.369000	0.022300
O531	O53	0.446400	0.410400	0.946700
O541	O54	0.400100	0.461400	0.944700
O551	O55	0.399400	0.369600	0.149700
O561	O56	0.381800	0.329300	0.095400
Cd81	Cd8	0.062040	0.879560	0.576050
C1131	C113	0.880700	0.835600	0.493600
C1141	C114	0.885900	0.798100	0.467500
H431	H43	0.863900	0.787900	0.450200
C1151	C115	0.926700	0.777200	0.469500
H441	H44	0.931500	0.750600	0.456800
C1161	C116	0.958000	0.798500	0.491100
H451	H45	0.985200	0.786400	0.490300
C1171	C117	0.954000	0.834300	0.513100
C1181	C118	0.915400	0.853800	0.514100
C1191	C119	0.911800	0.897300	0.537000
C1201	C120	0.918200	0.935100	0.512400
C1211	C121	0.916000	0.974300	0.532400
H461	H46	0.920000	0.998800	0.516000
C1221	C122	0.908100	0.979000	0.576500
H471	H47	0.906800	0.005700	0.589600
C1231	C123	0.902600	0.941700	0.598500
H481	H48	0.897200	0.943600	0.627800
C1241	C124	0.904300	0.901500	0.581000
C1251	C125	0.837300	0.854500	0.493500
C1261	C126	0.993000	0.850200	0.538600
C1271	C127	0.921200	0.934500	0.464200
C1281	C128	0.895600	0.864200	0.611400
O571	O57	0.831100	0.892600	0.490900
O581	O58	0.805500	0.827600	0.497500
O591	O59	0.996200	0.850300	0.574000
O601	O60	0.019300	0.869000	0.522300
O611	O61	0.946400	0.910400	0.446700
O621	O62	0.900100	0.961400	0.444700
O631	O63	0.899400	0.869600	0.649700
O641	O64	0.881800	0.829300	0.595400
Cd91	Cd9	0.923950	0.062040	0.120440
C1291	C129	0.006400	0.880700	0.164400
C1301	C130	0.032500	0.885900	0.201900
H491	H49	0.049800	0.863900	0.212100
C1311	C131	0.030500	0.926700	0.222800
H501	H50	0.043200	0.931500	0.249400
C1321	C132	0.008900	0.958000	0.201500
H511	H51	0.009700	0.985200	0.213600
C1331	C133	0.986900	0.954000	0.165700
C1341	C134	0.985900	0.915400	0.146200
C1351	C135	0.963000	0.911800	0.102700
C1361	C136	0.987600	0.918200	0.064900
C1371	C137	0.967600	0.916000	0.025700
H521	H52	0.984000	0.920000	0.001200
C1381	C138	0.923500	0.908100	0.021000
H531	H53	0.910400	0.906800	0.994300
C1391	C139	0.901500	0.902600	0.058300
H541	H54	0.872200	0.897200	0.056400
C1401	C140	0.919000	0.904300	0.098500
C1411	C141	0.006500	0.837300	0.145500
C1421	C142	0.961400	0.993000	0.149800
C1431	C143	0.035800	0.921200	0.065500
C1441	C144	0.888600	0.895600	0.135800
O651	O65	0.009100	0.831100	0.107400
O661	O66	0.002500	0.805500	0.172400
O671	O67	0.926000	0.996200	0.149700
O681	O68	0.977700	0.019300	0.131000
O691	O69	0.053300	0.946400	0.089600
O701	O70	0.055300	0.900100	0.038600
O711	O71	0.850300	0.899400	0.130400
O721	O72	0.904600	0.881800	0.170700
Cd101	Cd10	0.423950	0.562040	0.620440
C1451	C145	0.506400	0.380700	0.664400
C1461	C146	0.532500	0.385900	0.701900
H551	H55	0.549800	0.363900	0.712100
C1471	C147	0.530500	0.426700	0.722800
H561	H56	0.543200	0.431500	0.749400
C1481	C148	0.508900	0.458000	0.701500
H571	H57	0.509700	0.485200	0.713600
C1491	C149	0.486900	0.454000	0.665700
C1501	C150	0.485900	0.415400	0.646200
C1511	C151	0.463000	0.411800	0.602700
C1521	C152	0.487600	0.418200	0.564900
C1531	C153	0.467600	0.416000	0.525700
H581	H58	0.484000	0.420000	0.501200
C1541	C154	0.423500	0.408100	0.521000
H591	H59	0.410400	0.406800	0.494300
C1551	C155	0.401500	0.402600	0.558300
H601	H60	0.372200	0.397200	0.556400
C1561	C156	0.419000	0.404300	0.598500
C1571	C157	0.506500	0.337300	0.645500
C1581	C158	0.461400	0.493000	0.649800
C1591	C159	0.535800	0.421200	0.565500
C1601	C160	0.388600	0.395600	0.635800
O731	O73	0.509100	0.331100	0.607400
O741	O74	0.502500	0.305500	0.672400
O751	O75	0.426000	0.496200	0.649700
O761	O76	0.477700	0.519300	0.631000
O771	O77	0.553300	0.446400	0.589600
O781	O78	0.555300	0.400100	0.538600
O791	O79	0.350300	0.399400	0.630400
O801	O80	0.404600	0.381800	0.670700
Cd111	Cd11	0.423950	0.437960	0.879560
C1611	C161	0.506400	0.619300	0.835600
C1621	C162	0.532500	0.614100	0.798100
H611	H61	0.549800	0.636100	0.787900
C1631	C163	0.530500	0.573300	0.777200
H621	H62	0.543200	0.568500	0.750600
C1641	C164	0.508900	0.542000	0.798500
H631	H63	0.509700	0.514800	0.786400
C1651	C165	0.486900	0.546000	0.834300
C1661	C166	0.485900	0.584600	0.853800
C1671	C167	0.463000	0.588200	0.897300
C1681	C168	0.487600	0.581800	0.935100
C1691	C169	0.467600	0.584000	0.974300
H641	H64	0.484000	0.580000	0.998800
C1701	C170	0.423500	0.591900	0.979000
H651	H65	0.410400	0.593200	0.005700
C1711	C171	0.401500	0.597400	0.941700
H661	H66	0.372200	0.602800	0.943600
C1721	C172	0.419000	0.595700	0.901500
C1731	C173	0.506500	0.662700	0.854500
C1741	C174	0.461400	0.507000	0.850200
C1751	C175	0.535800	0.578800	0.934500
C1761	C176	0.388600	0.604400	0.864200
O811	O81	0.509100	0.668900	0.892600
O821	O82	0.502500	0.694500	0.827600
O831	O83	0.426000	0.503800	0.850300
O841	O84	0.477700	0.480700	0.869000
O851	O85	0.553300	0.553600	0.910400
O861	O86	0.555300	0.599900	0.961400
O871	O87	0.350300	0.600600	0.869600
O881	O88	0.404600	0.618200	0.829300
Cd121	Cd12	0.923950	0.937960	0.379560
C1771	C177	0.006400	0.119300	0.335600
C1781	C178	0.032500	0.114100	0.298100
H671	H67	0.049800	0.136100	0.287900
C1791	C179	0.030500	0.073300	0.277200
H681	H68	0.043200	0.068500	0.250600
C1801	C180	0.008900	0.042000	0.298500
H691	H69	0.009700	0.014800	0.286400
C1811	C181	0.986900	0.046000	0.334300
C1821	C182	0.985900	0.084600	0.353800
C1831	C183	0.963000	0.088200	0.397300
C1841	C184	0.987600	0.081800	0.435100
C1851	C185	0.967600	0.084000	0.474300
H701	H70	0.984000	0.080000	0.498800
C1861	C186	0.923500	0.091900	0.479000
H711	H71	0.910400	0.093200	0.505700
C1871	C187	0.901500	0.097400	0.441700
H721	H72	0.872200	0.102800	0.443600
C1881	C188	0.919000	0.095700	0.401500
C1891	C189	0.006500	0.162700	0.354500
C1901	C190	0.961400	0.007000	0.350200
C1911	C191	0.035800	0.078800	0.434500
C1921	C192	0.888600	0.104400	0.364200
O891	O89	0.009100	0.168900	0.392600
O901	O90	0.002500	0.194500	0.327600
O911	O91	0.926000	0.003800	0.350300
O921	O92	0.977700	0.980700	0.369000
O931	O93	0.053300	0.053600	0.410400
O941	O94	0.055300	0.099900	0.461400
O951	O95	0.850300	0.100600	0.369600
O961	O96	0.904600	0.118200	0.329300
Cd131	Cd13	0.576050	0.937960	0.620440
C1931	C193	0.493600	0.119300	0.664400
C1941	C194	0.467500	0.114100	0.701900
H731	H73	0.450200	0.136100	0.712100
C1951	C195	0.469500	0.073300	0.722800
H741	H74	0.456800	0.068500	0.749400
C1961	C196	0.491100	0.042000	0.701500
H751	H75	0.490300	0.014800	0.713600
C1971	C197	0.513100	0.046000	0.665700
C1981	C198	0.514100	0.084600	0.646200
C1991	C199	0.537000	0.088200	0.602700
C2001	C200	0.512400	0.081800	0.564900
C2011	C201	0.532400	0.084000	0.525700
H761	H76	0.516000	0.080000	0.501200
C2021	C202	0.576500	0.091900	0.521000
H771	H77	0.589600	0.093200	0.494300
C2031	C203	0.598500	0.097400	0.558300
H781	H78	0.627800	0.102800	0.556400
C2041	C204	0.581000	0.095700	0.598500
C2051	C205	0.493500	0.162700	0.645500
C2061	C206	0.538600	0.007000	0.649800
C2071	C207	0.464200	0.078800	0.565500
C2081	C208	0.611400	0.104400	0.635800
O971	O97	0.490900	0.168900	0.607400
O981	O98	0.497500	0.194500	0.672400
O991	O99	0.574000	0.003800	0.649700
O1001	O100	0.522300	0.980700	0.631000
O1011	O101	0.446700	0.053600	0.589600
O1021	O102	0.444700	0.099900	0.538600
O1031	O103	0.649700	0.100600	0.630400
O1041	O104	0.595400	0.118200	0.670700
Cd141	Cd14	0.076050	0.437960	0.120440
C2091	C209	0.993600	0.619300	0.164400
C2101	C210	0.967500	0.614100	0.201900
H791	H79	0.950200	0.636100	0.212100
C2111	C211	0.969500	0.573300	0.222800
H801	H80	0.956800	0.568500	0.249400
C2121	C212	0.991100	0.542000	0.201500
H811	H81	0.990300	0.514800	0.213600
C2131	C213	0.013100	0.546000	0.165700
C2141	C214	0.014100	0.584600	0.146200
C2151	C215	0.037000	0.588200	0.102700
C2161	C216	0.012400	0.581800	0.064900
C2171	C217	0.032400	0.584000	0.025700
H821	H82	0.016000	0.580000	0.001200
C2181	C218	0.076500	0.591900	0.021000
H831	H83	0.089600	0.593200	0.994300
C2191	C219	0.098500	0.597400	0.058300
H841	H84	0.127800	0.602800	0.056400
C2201	C220	0.081000	0.595700	0.098500
C2211	C221	0.993500	0.662700	0.145500
C2221	C222	0.038600	0.507000	0.149800
C2231	C223	0.964200	0.578800	0.065500
C2241	C224	0.111400	0.604400	0.135800
O1051	O105	0.990900	0.668900	0.107400
O1061	O106	0.997500	0.694500	0.172400
O1071	O107	0.074000	0.503800	0.149700
O1081	O108	0.022300	0.480700	0.131000
O1091	O109	0.946700	0.553600	0.089600
O1101	O110	0.944700	0.599900	0.038600
O1111	O111	0.149700	0.600600	0.130400
O1121	O112	0.095400	0.618200	0.170700
Cd151	Cd15	0.076050	0.562040	0.379560
C2251	C225	0.993600	0.380700	0.335600
C2261	C226	0.967500	0.385900	0.298100
H851	H85	0.950200	0.363900	0.287900
C2271	C227	0.969500	0.426700	0.277200
H861	H86	0.956800	0.431500	0.250600
C2281	C228	0.991100	0.458000	0.298500
H871	H87	0.990300	0.485200	0.286400
C2291	C229	0.013100	0.454000	0.334300
C2301	C230	0.014100	0.415400	0.353800
C2311	C231	0.037000	0.411800	0.397300
C2321	C232	0.012400	0.418200	0.435100
C2331	C233	0.032400	0.416000	0.474300
H881	H88	0.016000	0.420000	0.498800
C2341	C234	0.076500	0.408100	0.479000
H891	H89	0.089600	0.406800	0.505700
C2351	C235	0.098500	0.402600	0.441700
H901	H90	0.127800	0.397200	0.443600
C2361	C236	0.081000	0.404300	0.401500
C2371	C237	0.993500	0.337300	0.354500
C2381	C238	0.038600	0.493000	0.350200
C2391	C239	0.964200	0.421200	0.434500
C2401	C240	0.111400	0.395600	0.364200
O1131	O113	0.990900	0.331100	0.392600
O1141	O114	0.997500	0.305500	0.327600
O1151	O115	0.074000	0.496200	0.350300
O1161	O116	0.022300	0.519300	0.369000
O1171	O117	0.946700	0.446400	0.410400
O1181	O118	0.944700	0.400100	0.461400
O1191	O119	0.149700	0.399400	0.369600
O1201	O120	0.095400	0.381800	0.329300
Cd161	Cd16	0.576050	0.062040	0.879560
C2411	C241	0.493600	0.880700	0.835600
C2421	C242	0.467500	0.885900	0.798100
H911	H91	0.450200	0.863900	0.787900
C2431	C243	0.469500	0.926700	0.777200
H921	H92	0.456800	0.931500	0.750600
C2441	C244	0.491100	0.958000	0.798500
H931	H93	0.490300	0.985200	0.786400
C2451	C245	0.513100	0.954000	0.834300
C2461	C246	0.514100	0.915400	0.853800
C2471	C247	0.537000	0.911800	0.897300
C2481	C248	0.512400	0.918200	0.935100
C2491	C249	0.532400	0.916000	0.974300
H941	H94	0.516000	0.920000	0.998800
C2501	C250	0.576500	0.908100	0.979000
H951	H95	0.589600	0.906800	0.005700
C2511	C251	0.598500	0.902600	0.941700
H961	H96	0.627800	0.897200	0.943600
C2521	C252	0.581000	0.904300	0.901500
C2531	C253	0.493500	0.837300	0.854500
C2541	C254	0.538600	0.993000	0.850200
C2551	C255	0.464200	0.921200	0.934500
C2561	C256	0.611400	0.895600	0.864200
O1211	O121	0.490900	0.831100	0.892600
O1221	O122	0.497500	0.805500	0.827600
O1231	O123	0.574000	0.996200	0.850300
O1241	O124	0.522300	0.019300	0.869000
O1251	O125	0.446700	0.946400	0.910400
O1261	O126	0.444700	0.900100	0.961400
O1271	O127	0.649700	0.899400	0.869600
O1281	O128	0.595400	0.881800	0.829300
Cd171	Cd17	0.120440	0.923950	0.062040
C2571	C257	0.164400	0.006400	0.880700
C2581	C258	0.201900	0.032500	0.885900
H971	H97	0.212100	0.049800	0.863900
C2591	C259	0.222800	0.030500	0.926700
H981	H98	0.249400	0.043200	0.931500
C2601	C260	0.201500	0.008900	0.958000
H991	H99	0.213600	0.009700	0.985200
C2611	C261	0.165700	0.986900	0.954000
C2621	C262	0.146200	0.985900	0.915400
C2631	C263	0.102700	0.963000	0.911800
C2641	C264	0.064900	0.987600	0.918200
C2651	C265	0.025700	0.967600	0.916000
H1001	H100	0.001200	0.984000	0.920000
C2661	C266	0.021000	0.923500	0.908100
H1011	H101	0.994300	0.910400	0.906800
C2671	C267	0.058300	0.901500	0.902600
H1021	H102	0.056400	0.872200	0.897200
C2681	C268	0.098500	0.919000	0.904300
C2691	C269	0.145500	0.006500	0.837300
C2701	C270	0.149800	0.961400	0.993000
C2711	C271	0.065500	0.035800	0.921200
C2721	C272	0.135800	0.888600	0.895600
O1291	O129	0.107400	0.009100	0.831100
O1301	O130	0.172400	0.002500	0.805500
O1311	O131	0.149700	0.926000	0.996200
O1321	O132	0.131000	0.977700	0.019300
O1331	O133	0.089600	0.053300	0.946400
O1341	O134	0.038600	0.055300	0.900100
O1351	O135	0.130400	0.850300	0.899400
O1361	O136	0.170700	0.904600	0.881800
Cd181	Cd18	0.620440	0.423950	0.562040
C2731	C273	0.664400	0.506400	0.380700
C2741	C274	0.701900	0.532500	0.385900
H1031	H103	0.712100	0.549800	0.363900
C2751	C275	0.722800	0.530500	0.426700
H1041	H104	0.749400	0.543200	0.431500
C2761	C276	0.701500	0.508900	0.458000
H1051	H105	0.713600	0.509700	0.485200
C2771	C277	0.665700	0.486900	0.454000
C2781	C278	0.646200	0.485900	0.415400
C2791	C279	0.602700	0.463000	0.411800
C2801	C280	0.564900	0.487600	0.418200
C2811	C281	0.525700	0.467600	0.416000
H1061	H106	0.501200	0.484000	0.420000
C2821	C282	0.521000	0.423500	0.408100
H1071	H107	0.494300	0.410400	0.406800
C2831	C283	0.558300	0.401500	0.402600
H1081	H108	0.556400	0.372200	0.397200
C2841	C284	0.598500	0.419000	0.404300
C2851	C285	0.645500	0.506500	0.337300
C2861	C286	0.649800	0.461400	0.493000
C2871	C287	0.565500	0.535800	0.421200
C2881	C288	0.635800	0.388600	0.395600
O1371	O137	0.607400	0.509100	0.331100
O1381	O138	0.672400	0.502500	0.305500
O1391	O139	0.649700	0.426000	0.496200
O1401	O140	0.631000	0.477700	0.519300
O1411	O141	0.589600	0.553300	0.446400
O1421	O142	0.538600	0.555300	0.400100
O1431	O143	0.630400	0.350300	0.399400
O1441	O144	0.670700	0.404600	0.381800
Cd191	Cd19	0.879560	0.423950	0.437960
C2891	C289	0.835600	0.506400	0.619300
C2901	C290	0.798100	0.532500	0.614100
H1091	H109	0.787900	0.549800	0.636100
C2911	C291	0.777200	0.530500	0.573300
H1101	H110	0.750600	0.543200	0.568500
C2921	C292	0.798500	0.508900	0.542000
H1111	H111	0.786400	0.509700	0.514800
C2931	C293	0.834300	0.486900	0.546000
C2941	C294	0.853800	0.485900	0.584600
C2951	C295	0.897300	0.463000	0.588200
C2961	C296	0.935100	0.487600	0.581800
C2971	C297	0.974300	0.467600	0.584000
H1121	H112	0.998800	0.484000	0.580000
C2981	C298	0.979000	0.423500	0.591900
H1131	H113	0.005700	0.410400	0.593200
C2991	C299	0.941700	0.401500	0.597400
H1141	H114	0.943600	0.372200	0.602800
C3001	C300	0.901500	0.419000	0.595700
C3011	C301	0.854500	0.506500	0.662700
C3021	C302	0.850200	0.461400	0.507000
C3031	C303	0.934500	0.535800	0.578800
C3041	C304	0.864200	0.388600	0.604400
O1451	O145	0.892600	0.509100	0.668900
O1461	O146	0.827600	0.502500	0.694500
O1471	O147	0.850300	0.426000	0.503800
O1481	O148	0.869000	0.477700	0.480700
O1491	O149	0.910400	0.553300	0.553600
O1501	O150	0.961400	0.555300	0.599900
O1511	O151	0.869600	0.350300	0.600600
O1521	O152	0.829300	0.404600	0.618200
Cd201	Cd20	0.379560	0.923950	0.937960
C3051	C305	0.335600	0.006400	0.119300
C3061	C306	0.298100	0.032500	0.114100
H1151	H115	0.287900	0.049800	0.136100
C3071	C307	0.277200	0.030500	0.073300
H1161	H116	0.250600	0.043200	0.068500
C3081	C308	0.298500	0.008900	0.042000
H1171	H117	0.286400	0.009700	0.014800
C3091	C309	0.334300	0.986900	0.046000
C3101	C310	0.353800	0.985900	0.084600
C3111	C311	0.397300	0.963000	0.088200
C3121	C312	0.435100	0.987600	0.081800
C3131	C313	0.474300	0.967600	0.084000
H1181	H118	0.498800	0.984000	0.080000
C3141	C314	0.479000	0.923500	0.091900
H1191	H119	0.505700	0.910400	0.093200
C3151	C315	0.441700	0.901500	0.097400
H1201	H120	0.443600	0.872200	0.102800
C3161	C316	0.401500	0.919000	0.095700
C3171	C317	0.354500	0.006500	0.162700
C3181	C318	0.350200	0.961400	0.007000
C3191	C319	0.434500	0.035800	0.078800
C3201	C320	0.364200	0.888600	0.104400
O1531	O153	0.392600	0.009100	0.168900
O1541	O154	0.327600	0.002500	0.194500
O1551	O155	0.350300	0.926000	0.003800
O1561	O156	0.369000	0.977700	0.980700
O1571	O157	0.410400	0.053300	0.053600
O1581	O158	0.461400	0.055300	0.099900
O1591	O159	0.369600	0.850300	0.100600
O1601	O160	0.329300	0.904600	0.118200
Cd211	Cd21	0.620440	0.576050	0.937960
C3211	C321	0.664400	0.493600	0.119300
C3221	C322	0.701900	0.467500	0.114100
H1211	H121	0.712100	0.450200	0.136100
C3231	C323	0.722800	0.469500	0.073300
H1221	H122	0.749400	0.456800	0.068500
C3241	C324	0.701500	0.491100	0.042000
H1231	H123	0.713600	0.490300	0.014800
C3251	C325	0.665700	0.513100	0.046000
C3261	C326	0.646200	0.514100	0.084600
C3271	C327	0.602700	0.537000	0.088200
C3281	C328	0.564900	0.512400	0.081800
C3291	C329	0.525700	0.532400	0.084000
H1241	H124	0.501200	0.516000	0.080000
C3301	C330	0.521000	0.576500	0.091900
H1251	H125	0.494300	0.589600	0.093200
C3311	C331	0.558300	0.598500	0.097400
H1261	H126	0.556400	0.627800	0.102800
C3321	C332	0.598500	0.581000	0.095700
C3331	C333	0.645500	0.493500	0.162700
C3341	C334	0.649800	0.538600	0.007000
C3351	C335	0.565500	0.464200	0.078800
C3361	C336	0.635800	0.611400	0.104400
O1611	O161	0.607400	0.490900	0.168900
O1621	O162	0.672400	0.497500	0.194500
O1631	O163	0.649700	0.574000	0.003800
O1641	O164	0.631000	0.522300	0.980700
O1651	O165	0.589600	0.446700	0.053600
O1661	O166	0.538600	0.444700	0.099900
O1671	O167	0.630400	0.649700	0.100600
O1681	O168	0.670700	0.595400	0.118200
Cd221	Cd22	0.120440	0.076050	0.437960
C3371	C337	0.164400	0.993600	0.619300
C3381	C338	0.201900	0.967500	0.614100
H1271	H127	0.212100	0.950200	0.636100
C3391	C339	0.222800	0.969500	0.573300
H1281	H128	0.249400	0.956800	0.568500
C3401	C340	0.201500	0.991100	0.542000
H1291	H129	0.213600	0.990300	0.514800
C3411	C341	0.165700	0.013100	0.546000
C3421	C342	0.146200	0.014100	0.584600
C3431	C343	0.102700	0.037000	0.588200
C3441	C344	0.064900	0.012400	0.581800
C3451	C345	0.025700	0.032400	0.584000
H1301	H130	0.001200	0.016000	0.580000
C3461	C346	0.021000	0.076500	0.591900
H1311	H131	0.994300	0.089600	0.593200
C3471	C347	0.058300	0.098500	0.597400
H1321	H132	0.056400	0.127800	0.602800
C3481	C348	0.098500	0.081000	0.595700
C3491	C349	0.145500	0.993500	0.662700
C3501	C350	0.149800	0.038600	0.507000
C3511	C351	0.065500	0.964200	0.578800
C3521	C352	0.135800	0.111400	0.604400
O1691	O169	0.107400	0.990900	0.668900
O1701	O170	0.172400	0.997500	0.694500
O1711	O171	0.149700	0.074000	0.503800
O1721	O172	0.131000	0.022300	0.480700
O1731	O173	0.089600	0.946700	0.553600
O1741	O174	0.038600	0.944700	0.599900
O1751	O175	0.130400	0.149700	0.600600
O1761	O176	0.170700	0.095400	0.618200
Cd231	Cd23	0.379560	0.076050	0.562040
C3531	C353	0.335600	0.993600	0.380700
C3541	C354	0.298100	0.967500	0.385900
H1331	H133	0.287900	0.950200	0.363900
C3551	C355	0.277200	0.969500	0.426700
H1341	H134	0.250600	0.956800	0.431500
C3561	C356	0.298500	0.991100	0.458000
H1351	H135	0.286400	0.990300	0.485200
C3571	C357	0.334300	0.013100	0.454000
C3581	C358	0.353800	0.014100	0.415400
C3591	C359	0.397300	0.037000	0.411800
C3601	C360	0.435100	0.012400	0.418200
C3611	C361	0.474300	0.032400	0.416000
H1361	H136	0.498800	0.016000	0.420000
C3621	C362	0.479000	0.076500	0.408100
H1371	H137	0.505700	0.089600	0.406800
C3631	C363	0.441700	0.098500	0.402600
H1381	H138	0.443600	0.127800	0.397200
C3641	C364	0.401500	0.081000	0.404300
C3651	C365	0.354500	0.993500	0.337300
C3661	C366	0.350200	0.038600	0.493000
C3671	C367	0.434500	0.964200	0.421200
C3681	C368	0.364200	0.111400	0.395600
O1771	O177	0.392600	0.990900	0.331100
O1781	O178	0.327600	0.997500	0.305500
O1791	O179	0.350300	0.074000	0.496200
O1801	O180	0.369000	0.022300	0.519300
O1811	O181	0.410400	0.946700	0.446400
O1821	O182	0.461400	0.944700	0.400100
O1831	O183	0.369600	0.149700	0.399400
O1841	O184	0.329300	0.095400	0.381800
Cd241	Cd24	0.879560	0.576050	0.062040
C3691	C369	0.835600	0.493600	0.880700
C3701	C370	0.798100	0.467500	0.885900
H1391	H139	0.787900	0.450200	0.863900
C3711	C371	0.777200	0.469500	0.926700
H1401	H140	0.750600	0.456800	0.931500
C3721	C372	0.798500	0.491100	0.958000
H1411	H141	0.786400	0.490300	0.985200
C3731	C373	0.834300	0.513100	0.954000
C3741	C374	0.853800	0.514100	0.915400
C3751	C375	0.897300	0.537000	0.911800
C3761	C376	0.935100	0.512400	0.918200
C3771	C377	0.974300	0.532400	0.916000
H1421	H142	0.998800	0.516000	0.920000
C3781	C378	0.979000	0.576500	0.908100
H1431	H143	0.005700	0.589600	0.906800
C3791	C379	0.941700	0.598500	0.902600
H1441	H144	0.943600	0.627800	0.897200
C3801	C380	0.901500	0.581000	0.904300
C3811	C381	0.854500	0.493500	0.837300
C3821	C382	0.850200	0.538600	0.993000
C3831	C383	0.934500	0.464200	0.921200
C3841	C384	0.864200	0.611400	0.895600
O1851	O185	0.892600	0.490900	0.831100
O1861	O186	0.827600	0.497500	0.805500
O1871	O187	0.850300	0.574000	0.996200
O1881	O188	0.869000	0.522300	0.019300
O1891	O189	0.910400	0.446700	0.946400
O1901	O190	0.961400	0.444700	0.900100
O1911	O191	0.869600	0.649700	0.899400
O1921	O192	0.829300	0.595400	0.881800
Cd251	Cd25	0.370440	0.312040	0.173950
C3851	C385	0.414400	0.130700	0.256400
C3861	C386	0.451900	0.135900	0.282500
H1451	H145	0.462100	0.113900	0.299800
C3871	C387	0.472800	0.176700	0.280500
H1461	H146	0.499400	0.181500	0.293200
C3881	C388	0.451500	0.208000	0.258900
H1471	H147	0.463600	0.235200	0.259700
C3891	C389	0.415700	0.204000	0.236900
C3901	C390	0.396200	0.165400	0.235900
C3911	C391	0.352700	0.161800	0.213000
C3921	C392	0.314900	0.168200	0.237600
C3931	C393	0.275700	0.166000	0.217600
H1481	H148	0.251200	0.170000	0.234000
C3941	C394	0.271000	0.158100	0.173500
H1491	H149	0.244300	0.156800	0.160400
C3951	C395	0.308300	0.152600	0.151500
H1501	H150	0.306400	0.147200	0.122200
C3961	C396	0.348500	0.154300	0.169000
C3971	C397	0.395500	0.087300	0.256500
C3981	C398	0.399800	0.243000	0.211400
C3991	C399	0.315500	0.171200	0.285800
C4001	C400	0.385800	0.145600	0.138600
O1931	O193	0.357400	0.081100	0.259100
O1941	O194	0.422400	0.055500	0.252500
O1951	O195	0.399700	0.246200	0.176000
O1961	O196	0.381000	0.269300	0.227700
O1971	O197	0.339600	0.196400	0.303300
O1981	O198	0.288600	0.150100	0.305300
O1991	O199	0.380400	0.149400	0.100300
O2001	O200	0.420700	0.131800	0.154600
Cd261	Cd26	0.870440	0.812040	0.673950
C4011	C401	0.914400	0.630700	0.756400
C4021	C402	0.951900	0.635900	0.782500
H1511	H151	0.962100	0.613900	0.799800
C4031	C403	0.972800	0.676700	0.780500
H1521	H152	0.999400	0.681500	0.793200
C4041	C404	0.951500	0.708000	0.758900
H1531	H153	0.963600	0.735200	0.759700
C4051	C405	0.915700	0.704000	0.736900
C4061	C406	0.896200	0.665400	0.735900
C4071	C407	0.852700	0.661800	0.713000
C4081	C408	0.814900	0.668200	0.737600
C4091	C409	0.775700	0.666000	0.717600
H1541	H154	0.751200	0.670000	0.734000
C4101	C410	0.771000	0.658100	0.673500
H1551	H155	0.744300	0.656800	0.660400
C4111	C411	0.808300	0.652600	0.651500
H1561	H156	0.806400	0.647200	0.622200
C4121	C412	0.848500	0.654300	0.669000
C4131	C413	0.895500	0.587300	0.756500
C4141	C414	0.899800	0.743000	0.711400
C4151	C415	0.815500	0.671200	0.785800
C4161	C416	0.885800	0.645600	0.638600
O2011	O201	0.857400	0.581100	0.759100
O2021	O202	0.922400	0.555500	0.752500
O2031	O203	0.899700	0.746200	0.676000
O2041	O204	0.881000	0.769300	0.727700
O2051	O205	0.839600	0.696400	0.803300
O2061	O206	0.788600	0.650100	0.805300
O2071	O207	0.880400	0.649400	0.600300
O2081	O208	0.920700	0.631800	0.654600
Cd271	Cd27	0.129560	0.687960	0.673950
C4171	C417	0.085600	0.869300	0.756400
C4181	C418	0.048100	0.864100	0.782500
H1571	H157	0.037900	0.886100	0.799800
C4191	C419	0.027200	0.823300	0.780500
H1581	H158	0.000600	0.818500	0.793200
C4201	C420	0.048500	0.792000	0.758900
H1591	H159	0.036400	0.764800	0.759700
C4211	C421	0.084300	0.796000	0.736900
C4221	C422	0.103800	0.834600	0.735900
C4231	C423	0.147300	0.838200	0.713000
C4241	C424	0.185100	0.831800	0.737600
C4251	C425	0.224300	0.834000	0.717600
H1601	H160	0.248800	0.830000	0.734000
C4261	C426	0.229000	0.841900	0.673500
H1611	H161	0.255700	0.843200	0.660400
C4271	C427	0.191700	0.847400	0.651500
H1621	H162	0.193600	0.852800	0.622200
C4281	C428	0.151500	0.845700	0.669000
C4291	C429	0.104500	0.912700	0.756500
C4301	C430	0.100200	0.757000	0.711400
C4311	C431	0.184500	0.828800	0.785800
C4321	C432	0.114200	0.854400	0.638600
O2091	O209	0.142600	0.918900	0.759100
O2101	O210	0.077600	0.944500	0.752500
O2111	O211	0.100300	0.753800	0.676000
O2121	O212	0.119000	0.730700	0.727700
O2131	O213	0.160400	0.803600	0.803300
O2141	O214	0.211400	0.849900	0.805300
O2151	O215	0.119600	0.850600	0.600300
O2161	O216	0.079300	0.868200	0.654600
Cd281	Cd28	0.629560	0.187960	0.173950
C4331	C433	0.585600	0.369300	0.256400
C4341	C434	0.548100	0.364100	0.282500
H1631	H163	0.537900	0.386100	0.299800
C4351	C435	0.527200	0.323300	0.280500
H1641	H164	0.500600	0.318500	0.293200
C4361	C436	0.548500	0.292000	0.258900
H1651	H165	0.536400	0.264800	0.259700
C4371	C437	0.584300	0.296000	0.236900
C4381	C438	0.603800	0.334600	0.235900
C4391	C439	0.647300	0.338200	0.213000
C4401	C440	0.685100	0.331800	0.237600
C4411	C441	0.724300	0.334000	0.217600
H1661	H166	0.748800	0.330000	0.234000
C4421	C442	0.729000	0.341900	0.173500
H1671	H167	0.755700	0.343200	0.160400
C4431	C443	0.691700	0.347400	0.151500
H1681	H168	0.693600	0.352800	0.122200
C4441	C444	0.651500	0.345700	0.169000
C4451	C445	0.604500	0.412700	0.256500
C4461	C446	0.600200	0.257000	0.211400
C4471	C447	0.684500	0.328800	0.285800
C4481	C448	0.614200	0.354400	0.138600
O2171	O217	0.642600	0.418900	0.259100
O2181	O218	0.577600	0.444500	0.252500
O2191	O219	0.600300	0.253800	0.176000
O2201	O220	0.619000	0.230700	0.227700
O2211	O221	0.660400	0.303600	0.303300
O2221	O222	0.711400	0.349900	0.305300
O2231	O223	0.619600	0.350600	0.100300
O2241	O224	0.579300	0.368200	0.154600
Cd291	Cd29	0.870440	0.187960	0.826050
C4491	C449	0.914400	0.369300	0.743600
C4501	C450	0.951900	0.364100	0.717500
H1691	H169	0.962100	0.386100	0.700200
C4511	C451	0.972800	0.323300	0.719500
H1701	H170	0.999400	0.318500	0.706800
C4521	C452	0.951500	0.292000	0.741100
H1711	H171	0.963600	0.264800	0.740300
C4531	C453	0.915700	0.296000	0.763100
C4541	C454	0.896200	0.334600	0.764100
C4551	C455	0.852700	0.338200	0.787000
C4561	C456	0.814900	0.331800	0.762400
C4571	C457	0.775700	0.334000	0.782400
H1721	H172	0.751200	0.330000	0.766000
C4581	C458	0.771000	0.341900	0.826500
H1731	H173	0.744300	0.343200	0.839600
C4591	C459	0.808300	0.347400	0.848500
H1741	H174	0.806400	0.352800	0.877800
C4601	C460	0.848500	0.345700	0.831000
C4611	C461	0.895500	0.412700	0.743500
C4621	C462	0.899800	0.257000	0.788600
C4631	C463	0.815500	0.328800	0.714200
C4641	C464	0.885800	0.354400	0.861400
O2251	O225	0.857400	0.418900	0.740900
O2261	O226	0.922400	0.444500	0.747500
O2271	O227	0.899700	0.253800	0.824000
O2281	O228	0.881000	0.230700	0.772300
O2291	O229	0.839600	0.303600	0.696700
O2301	O230	0.788600	0.349900	0.694700
O2311	O231	0.880400	0.350600	0.899700
O2321	O232	0.920700	0.368200	0.845400
Cd301	Cd30	0.370440	0.687960	0.326050
C4651	C465	0.414400	0.869300	0.243600
C4661	C466	0.451900	0.864100	0.217500
H1751	H175	0.462100	0.886100	0.200200
C4671	C467	0.472800	0.823300	0.219500
H1761	H176	0.499400	0.818500	0.206800
C4681	C468	0.451500	0.792000	0.241100
H1771	H177	0.463600	0.764800	0.240300
C4691	C469	0.415700	0.796000	0.263100
C4701	C470	0.396200	0.834600	0.264100
C4711	C471	0.352700	0.838200	0.287000
C4721	C472	0.314900	0.831800	0.262400
C4731	C473	0.275700	0.834000	0.282400
H1781	H178	0.251200	0.830000	0.266000
C4741	C474	0.271000	0.841900	0.326500
H1791	H179	0.244300	0.843200	0.339600
C4751	C475	0.308300	0.847400	0.348500
H1801	H180	0.306400	0.852800	0.377800
C4761	C476	0.348500	0.845700	0.331000
C4771	C477	0.395500	0.912700	0.243500
C4781	C478	0.399800	0.757000	0.288600
C4791	C479	0.315500	0.828800	0.214200
C4801	C480	0.385800	0.854400	0.361400
O2331	O233	0.357400	0.918900	0.240900
O2341	O234	0.422400	0.944500	0.247500
O2351	O235	0.399700	0.753800	0.324000
O2361	O236	0.381000	0.730700	0.272300
O2371	O237	0.339600	0.803600	0.196700
O2381	O238	0.288600	0.849900	0.194700
O2391	O239	0.380400	0.850600	0.399700
O2401	O240	0.420700	0.868200	0.345400
Cd311	Cd31	0.629560	0.812040	0.326050
C4811	C481	0.585600	0.630700	0.243600
C4821	C482	0.548100	0.635900	0.217500
H1811	H181	0.537900	0.613900	0.200200
C4831	C483	0.527200	0.676700	0.219500
H1821	H182	0.500600	0.681500	0.206800
C4841	C484	0.548500	0.708000	0.241100
H1831	H183	0.536400	0.735200	0.240300
C4851	C485	0.584300	0.704000	0.263100
C4861	C486	0.603800	0.665400	0.264100
C4871	C487	0.647300	0.661800	0.287000
C4881	C488	0.685100	0.668200	0.262400
C4891	C489	0.724300	0.666000	0.282400
H1841	H184	0.748800	0.670000	0.266000
C4901	C490	0.729000	0.658100	0.326500
H1851	H185	0.755700	0.656800	0.339600
C4911	C491	0.691700	0.652600	0.348500
H1861	H186	0.693600	0.647200	0.377800
C4921	C492	0.651500	0.654300	0.331000
C4931	C493	0.604500	0.587300	0.243500
C4941	C494	0.600200	0.743000	0.288600
C4951	C495	0.684500	0.671200	0.214200
C4961	C496	0.614200	0.645600	0.361400
O2411	O241	0.642600	0.581100	0.240900
O2421	O242	0.577600	0.555500	0.247500
O2431	O243	0.600300	0.746200	0.324000
O2441	O244	0.619000	0.769300	0.272300
O2451	O245	0.660400	0.696400	0.196700
O2461	O246	0.711400	0.650100	0.194700
O2471	O247	0.619600	0.649400	0.399700
O2481	O248	0.579300	0.631800	0.345400
Cd321	Cd32	0.129560	0.312040	0.826050
C4971	C497	0.085600	0.130700	0.743600
C4981	C498	0.048100	0.135900	0.717500
H1871	H187	0.037900	0.113900	0.700200
C4991	C499	0.027200	0.176700	0.719500
H1881	H188	0.000600	0.181500	0.706800
C5001	C500	0.048500	0.208000	0.741100
H1891	H189	0.036400	0.235200	0.740300
C5011	C501	0.084300	0.204000	0.763100
C5021	C502	0.103800	0.165400	0.764100
C5031	C503	0.147300	0.161800	0.787000
C5041	C504	0.185100	0.168200	0.762400
C5051	C505	0.224300	0.166000	0.782400
H1901	H190	0.248800	0.170000	0.766000
C5061	C506	0.229000	0.158100	0.826500
H1911	H191	0.255700	0.156800	0.839600
C5071	C507	0.191700	0.152600	0.848500
H1921	H192	0.193600	0.147200	0.877800
C5081	C508	0.151500	0.154300	0.831000
C5091	C509	0.104500	0.087300	0.743500
C5101	C510	0.100200	0.243000	0.788600
C5111	C511	0.184500	0.171200	0.714200
C5121	C512	0.114200	0.145600	0.861400
O2491	O249	0.142600	0.081100	0.740900
O2501	O250	0.077600	0.055500	0.747500
O2511	O251	0.100300	0.246200	0.824000
O2521	O252	0.119000	0.269300	0.772300
O2531	O253	0.160400	0.196400	0.696700
O2541	O254	0.211400	0.150100	0.694700
O2551	O255	0.119600	0.149400	0.899700
O2561	O256	0.079300	0.131800	0.845400
Cd331	Cd33	0.312040	0.173950	0.370440
C5131	C513	0.130700	0.256400	0.414400
C5141	C514	0.135900	0.282500	0.451900
H1931	H193	0.113900	0.299800	0.462100
C5151	C515	0.176700	0.280500	0.472800
H1941	H194	0.181500	0.293200	0.499400
C5161	C516	0.208000	0.258900	0.451500
H1951	H195	0.235200	0.259700	0.463600
C5171	C517	0.204000	0.236900	0.415700
C5181	C518	0.165400	0.235900	0.396200
C5191	C519	0.161800	0.213000	0.352700
C5201	C520	0.168200	0.237600	0.314900
C5211	C521	0.166000	0.217600	0.275700
H1961	H196	0.170000	0.234000	0.251200
C5221	C522	0.158100	0.173500	0.271000
H1971	H197	0.156800	0.160400	0.244300
C5231	C523	0.152600	0.151500	0.308300
H1981	H198	0.147200	0.122200	0.306400
C5241	C524	0.154300	0.169000	0.348500
C5251	C525	0.087300	0.256500	0.395500
C5261	C526	0.243000	0.211400	0.399800
C5271	C527	0.171200	0.285800	0.315500
C5281	C528	0.145600	0.138600	0.385800
O2571	O257	0.081100	0.259100	0.357400
O2581	O258	0.055500	0.252500	0.422400
O2591	O259	0.246200	0.176000	0.399700
O2601	O260	0.269300	0.227700	0.381000
O2611	O261	0.196400	0.303300	0.339600
O2621	O262	0.150100	0.305300	0.288600
O2631	O263	0.149400	0.100300	0.380400
O2641	O264	0.131800	0.154600	0.420700
Cd341	Cd34	0.812040	0.673950	0.870440
C5291	C529	0.630700	0.756400	0.914400
C5301	C530	0.635900	0.782500	0.951900
H1991	H199	0.613900	0.799800	0.962100
C5311	C531	0.676700	0.780500	0.972800
H2001	H200	0.681500	0.793200	0.999400
C5321	C532	0.708000	0.758900	0.951500
H2011	H201	0.735200	0.759700	0.963600
C5331	C533	0.704000	0.736900	0.915700
C5341	C534	0.665400	0.735900	0.896200
C5351	C535	0.661800	0.713000	0.852700
C5361	C536	0.668200	0.737600	0.814900
C5371	C537	0.666000	0.717600	0.775700
H2021	H202	0.670000	0.734000	0.751200
C5381	C538	0.658100	0.673500	0.771000
H2031	H203	0.656800	0.660400	0.744300
C5391	C539	0.652600	0.651500	0.808300
H2041	H204	0.647200	0.622200	0.806400
C5401	C540	0.654300	0.669000	0.848500
C5411	C541	0.587300	0.756500	0.895500
C5421	C542	0.743000	0.711400	0.899800
C5431	C543	0.671200	0.785800	0.815500
C5441	C544	0.645600	0.638600	0.885800
O2651	O265	0.581100	0.759100	0.857400
O2661	O266	0.555500	0.752500	0.922400
O2671	O267	0.746200	0.676000	0.899700
O2681	O268	0.769300	0.727700	0.881000
O2691	O269	0.696400	0.803300	0.839600
O2701	O270	0.650100	0.805300	0.788600
O2711	O271	0.649400	0.600300	0.880400
O2721	O272	0.631800	0.654600	0.920700
Cd351	Cd35	0.687960	0.673950	0.129560
C5451	C545	0.869300	0.756400	0.085600
C5461	C546	0.864100	0.782500	0.048100
H2051	H205	0.886100	0.799800	0.037900
C5471	C547	0.823300	0.780500	0.027200
H2061	H206	0.818500	0.793200	0.000600
C5481	C548	0.792000	0.758900	0.048500
H2071	H207	0.764800	0.759700	0.036400
C5491	C549	0.796000	0.736900	0.084300
C5501	C550	0.834600	0.735900	0.103800
C5511	C551	0.838200	0.713000	0.147300
C5521	C552	0.831800	0.737600	0.185100
C5531	C553	0.834000	0.717600	0.224300
H2081	H208	0.830000	0.734000	0.248800
C5541	C554	0.841900	0.673500	0.229000
H2091	H209	0.843200	0.660400	0.255700
C5551	C555	0.847400	0.651500	0.191700
H2101	H210	0.852800	0.622200	0.193600
C5561	C556	0.845700	0.669000	0.151500
C5571	C557	0.912700	0.756500	0.104500
C5581	C558	0.757000	0.711400	0.100200
C5591	C559	0.828800	0.785800	0.184500
C5601	C560	0.854400	0.638600	0.114200
O2731	O273	0.918900	0.759100	0.142600
O2741	O274	0.944500	0.752500	0.077600
O2751	O275	0.753800	0.676000	0.100300
O2761	O276	0.730700	0.727700	0.119000
O2771	O277	0.803600	0.803300	0.160400
O2781	O278	0.849900	0.805300	0.211400
O2791	O279	0.850600	0.600300	0.119600
O2801	O280	0.868200	0.654600	0.079300
Cd361	Cd36	0.187960	0.173950	0.629560
C5611	C561	0.369300	0.256400	0.585600
C5621	C562	0.364100	0.282500	0.548100
H2111	H211	0.386100	0.299800	0.537900
C5631	C563	0.323300	0.280500	0.527200
H2121	H212	0.318500	0.293200	0.500600
C5641	C564	0.292000	0.258900	0.548500
H2131	H213	0.264800	0.259700	0.536400
C5651	C565	0.296000	0.236900	0.584300
C5661	C566	0.334600	0.235900	0.603800
C5671	C567	0.338200	0.213000	0.647300
C5681	C568	0.331800	0.237600	0.685100
C5691	C569	0.334000	0.217600	0.724300
H2141	H214	0.330000	0.234000	0.748800
C5701	C570	0.341900	0.173500	0.729000
H2151	H215	0.343200	0.160400	0.755700
C5711	C571	0.347400	0.151500	0.691700
H2161	H216	0.352800	0.122200	0.693600
C5721	C572	0.345700	0.169000	0.651500
C5731	C573	0.412700	0.256500	0.604500
C5741	C574	0.257000	0.211400	0.600200
C5751	C575	0.328800	0.285800	0.684500
C5761	C576	0.354400	0.138600	0.614200
O2811	O281	0.418900	0.259100	0.642600
O2821	O282	0.444500	0.252500	0.577600
O2831	O283	0.253800	0.176000	0.600300
O2841	O284	0.230700	0.227700	0.619000
O2851	O285	0.303600	0.303300	0.660400
O2861	O286	0.349900	0.305300	0.711400
O2871	O287	0.350600	0.100300	0.619600
O2881	O288	0.368200	0.154600	0.579300
Cd371	Cd37	0.187960	0.826050	0.870440
C5771	C577	0.369300	0.743600	0.914400
C5781	C578	0.364100	0.717500	0.951900
H2171	H217	0.386100	0.700200	0.962100
C5791	C579	0.323300	0.719500	0.972800
H2181	H218	0.318500	0.706800	0.999400
C5801	C580	0.292000	0.741100	0.951500
H2191	H219	0.264800	0.740300	0.963600
C5811	C581	0.296000	0.763100	0.915700
C5821	C582	0.334600	0.764100	0.896200
C5831	C583	0.338200	0.787000	0.852700
C5841	C584	0.331800	0.762400	0.814900
C5851	C585	0.334000	0.782400	0.775700
H2201	H220	0.330000	0.766000	0.751200
C5861	C586	0.341900	0.826500	0.771000
H2211	H221	0.343200	0.839600	0.744300
C5871	C587	0.347400	0.848500	0.808300
H2221	H222	0.352800	0.877800	0.806400
C5881	C588	0.345700	0.831000	0.848500
C5891	C589	0.412700	0.743500	0.895500
C5901	C590	0.257000	0.788600	0.899800
C5911	C591	0.328800	0.714200	0.815500
C5921	C592	0.354400	0.861400	0.885800
O2891	O289	0.418900	0.740900	0.857400
O2901	O290	0.444500	0.747500	0.922400
O2911	O291	0.253800	0.824000	0.899700
O2921	O292	0.230700	0.772300	0.881000
O2931	O293	0.303600	0.696700	0.839600
O2941	O294	0.349900	0.694700	0.788600
O2951	O295	0.350600	0.899700	0.880400
O2961	O296	0.368200	0.845400	0.920700
Cd381	Cd38	0.687960	0.326050	0.370440
C5931	C593	0.869300	0.243600	0.414400
C5941	C594	0.864100	0.217500	0.451900
H2231	H223	0.886100	0.200200	0.462100
C5951	C595	0.823300	0.219500	0.472800
H2241	H224	0.818500	0.206800	0.499400
C5961	C596	0.792000	0.241100	0.451500
H2251	H225	0.764800	0.240300	0.463600
C5971	C597	0.796000	0.263100	0.415700
C5981	C598	0.834600	0.264100	0.396200
C5991	C599	0.838200	0.287000	0.352700
C6001	C600	0.831800	0.262400	0.314900
C6011	C601	0.834000	0.282400	0.275700
H2261	H226	0.830000	0.266000	0.251200
C6021	C602	0.841900	0.326500	0.271000
H2271	H227	0.843200	0.339600	0.244300
C6031	C603	0.847400	0.348500	0.308300
H2281	H228	0.852800	0.377800	0.306400
C6041	C604	0.845700	0.331000	0.348500
C6051	C605	0.912700	0.243500	0.395500
C6061	C606	0.757000	0.288600	0.399800
C6071	C607	0.828800	0.214200	0.315500
C6081	C608	0.854400	0.361400	0.385800
O2971	O297	0.918900	0.240900	0.357400
O2981	O298	0.944500	0.247500	0.422400
O2991	O299	0.753800	0.324000	0.399700
O3001	O300	0.730700	0.272300	0.381000
O3011	O301	0.803600	0.196700	0.339600
O3021	O302	0.849900	0.194700	0.288600
O3031	O303	0.850600	0.399700	0.380400
O3041	O304	0.868200	0.345400	0.420700
Cd391	Cd39	0.812040	0.326050	0.629560
C6091	C609	0.630700	0.243600	0.585600
C6101	C610	0.635900	0.217500	0.548100
H2291	H229	0.613900	0.200200	0.537900
C6111	C611	0.676700	0.219500	0.527200
H2301	H230	0.681500	0.206800	0.500600
C6121	C612	0.708000	0.241100	0.548500
H2311	H231	0.735200	0.240300	0.536400
C6131	C613	0.704000	0.263100	0.584300
C6141	C614	0.665400	0.264100	0.603800
C6151	C615	0.661800	0.287000	0.647300
C6161	C616	0.668200	0.262400	0.685100
C6171	C617	0.666000	0.282400	0.724300
H2321	H232	0.670000	0.266000	0.748800
C6181	C618	0.658100	0.326500	0.729000
H2331	H233	0.656800	0.339600	0.755700
C6191	C619	0.652600	0.348500	0.691700
H2341	H234	0.647200	0.377800	0.693600
C6201	C620	0.654300	0.331000	0.651500
C6211	C621	0.587300	0.243500	0.604500
C6221	C622	0.743000	0.288600	0.600200
C6231	C623	0.671200	0.214200	0.684500
C6241	C624	0.645600	0.361400	0.614200
O3051	O305	0.581100	0.240900	0.642600
O3061	O306	0.555500	0.247500	0.577600
O3071	O307	0.746200	0.324000	0.600300
O3081	O308	0.769300	0.272300	0.619000
O3091	O309	0.696400	0.196700	0.660400
O3101	O310	0.650100	0.194700	0.711400
O3111	O311	0.649400	0.399700	0.619600
O3121	O312	0.631800	0.345400	0.579300
Cd401	Cd40	0.312040	0.826050	0.129560
C6251	C625	0.130700	0.743600	0.085600
C6261	C626	0.135900	0.717500	0.048100
H2351	H235	0.113900	0.700200	0.037900
C6271	C627	0.176700	0.719500	0.027200
H2361	H236	0.181500	0.706800	0.000600
C6281	C628	0.208000	0.741100	0.048500
H2371	H237	0.235200	0.740300	0.036400
C6291	C629	0.204000	0.763100	0.084300
C6301	C630	0.165400	0.764100	0.103800
C6311	C631	0.161800	0.787000	0.147300
C6321	C632	0.168200	0.762400	0.185100
C6331	C633	0.166000	0.782400	0.224300
H2381	H238	0.170000	0.766000	0.248800
C6341	C634	0.158100	0.826500	0.229000
H2391	H239	0.156800	0.839600	0.255700
C6351	C635	0.152600	0.848500	0.191700
H2401	H240	0.147200	0.877800	0.193600
C6361	C636	0.154300	0.831000	0.151500
C6371	C637	0.087300	0.743500	0.104500
C6381	C638	0.243000	0.788600	0.100200
C6391	C639	0.171200	0.714200	0.184500
C6401	C640	0.145600	0.861400	0.114200
O3131	O313	0.081100	0.740900	0.142600
O3141	O314	0.055500	0.747500	0.077600
O3151	O315	0.246200	0.824000	0.100300
O3161	O316	0.269300	0.772300	0.119000
O3171	O317	0.196400	0.696700	0.160400
O3181	O318	0.150100	0.694700	0.211400
O3191	O319	0.149400	0.899700	0.119600
O3201	O320	0.131800	0.845400	0.079300
Cd411	Cd41	0.173950	0.370440	0.312040
C6411	C641	0.256400	0.414400	0.130700
C6421	C642	0.282500	0.451900	0.135900
H2411	H241	0.299800	0.462100	0.113900
C6431	C643	0.280500	0.472800	0.176700
H2421	H242	0.293200	0.499400	0.181500
C6441	C644	0.258900	0.451500	0.208000
H2431	H243	0.259700	0.463600	0.235200
C6451	C645	0.236900	0.415700	0.204000
C6461	C646	0.235900	0.396200	0.165400
C6471	C647	0.213000	0.352700	0.161800
C6481	C648	0.237600	0.314900	0.168200
C6491	C649	0.217600	0.275700	0.166000
H2441	H244	0.234000	0.251200	0.170000
C6501	C650	0.173500	0.271000	0.158100
H2451	H245	0.160400	0.244300	0.156800
C6511	C651	0.151500	0.308300	0.152600
H2461	H246	0.122200	0.306400	0.147200
C6521	C652	0.169000	0.348500	0.154300
C6531	C653	0.256500	0.395500	0.087300
C6541	C654	0.211400	0.399800	0.243000
C6551	C655	0.285800	0.315500	0.171200
C6561	C656	0.138600	0.385800	0.145600
O3211	O321	0.259100	0.357400	0.081100
O3221	O322	0.252500	0.422400	0.055500
O3231	O323	0.176000	0.399700	0.246200
O3241	O324	0.227700	0.381000	0.269300
O3251	O325	0.303300	0.339600	0.196400
O3261	O326	0.305300	0.288600	0.150100
O3271	O327	0.100300	0.380400	0.149400
O3281	O328	0.154600	0.420700	0.131800
Cd421	Cd42	0.673950	0.870440	0.812040
C6571	C657	0.756400	0.914400	0.630700
C6581	C658	0.782500	0.951900	0.635900
H2471	H247	0.799800	0.962100	0.613900
C6591	C659	0.780500	0.972800	0.676700
H2481	H248	0.793200	0.999400	0.681500
C6601	C660	0.758900	0.951500	0.708000
H2491	H249	0.759700	0.963600	0.735200
C6611	C661	0.736900	0.915700	0.704000
C6621	C662	0.735900	0.896200	0.665400
C6631	C663	0.713000	0.852700	0.661800
C6641	C664	0.737600	0.814900	0.668200
C6651	C665	0.717600	0.775700	0.666000
H2501	H250	0.734000	0.751200	0.670000
C6661	C666	0.673500	0.771000	0.658100
H2511	H251	0.660400	0.744300	0.656800
C6671	C667	0.651500	0.808300	0.652600
H2521	H252	0.622200	0.806400	0.647200
C6681	C668	0.669000	0.848500	0.654300
C6691	C669	0.756500	0.895500	0.587300
C6701	C670	0.711400	0.899800	0.743000
C6711	C671	0.785800	0.815500	0.671200
C6721	C672	0.638600	0.885800	0.645600
O3291	O329	0.759100	0.857400	0.581100
O3301	O330	0.752500	0.922400	0.555500
O3311	O331	0.676000	0.899700	0.746200
O3321	O332	0.727700	0.881000	0.769300
O3331	O333	0.803300	0.839600	0.696400
O3341	O334	0.805300	0.788600	0.650100
O3351	O335	0.600300	0.880400	0.649400
O3361	O336	0.654600	0.920700	0.631800
Cd431	Cd43	0.673950	0.129560	0.687960
C6731	C673	0.756400	0.085600	0.869300
C6741	C674	0.782500	0.048100	0.864100
H2531	H253	0.799800	0.037900	0.886100
C6751	C675	0.780500	0.027200	0.823300
H2541	H254	0.793200	0.000600	0.818500
C6761	C676	0.758900	0.048500	0.792000
H2551	H255	0.759700	0.036400	0.764800
C6771	C677	0.736900	0.084300	0.796000
C6781	C678	0.735900	0.103800	0.834600
C6791	C679	0.713000	0.147300	0.838200
C6801	C680	0.737600	0.185100	0.831800
C6811	C681	0.717600	0.224300	0.834000
H2561	H256	0.734000	0.248800	0.830000
C6821	C682	0.673500	0.229000	0.841900
H2571	H257	0.660400	0.255700	0.843200
C6831	C683	0.651500	0.191700	0.847400
H2581	H258	0.622200	0.193600	0.852800
C6841	C684	0.669000	0.151500	0.845700
C6851	C685	0.756500	0.104500	0.912700
C6861	C686	0.711400	0.100200	0.757000
C6871	C687	0.785800	0.184500	0.828800
C6881	C688	0.638600	0.114200	0.854400
O3371	O337	0.759100	0.142600	0.918900
O3381	O338	0.752500	0.077600	0.944500
O3391	O339	0.676000	0.100300	0.753800
O3401	O340	0.727700	0.119000	0.730700
O3411	O341	0.803300	0.160400	0.803600
O3421	O342	0.805300	0.211400	0.849900
O3431	O343	0.600300	0.119600	0.850600
O3441	O344	0.654600	0.079300	0.868200
Cd441	Cd44	0.173950	0.629560	0.187960
C6891	C689	0.256400	0.585600	0.369300
C6901	C690	0.282500	0.548100	0.364100
H2591	H259	0.299800	0.537900	0.386100
C6911	C691	0.280500	0.527200	0.323300
H2601	H260	0.293200	0.500600	0.318500
C6921	C692	0.258900	0.548500	0.292000
H2611	H261	0.259700	0.536400	0.264800
C6931	C693	0.236900	0.584300	0.296000
C6941	C694	0.235900	0.603800	0.334600
C6951	C695	0.213000	0.647300	0.338200
C6961	C696	0.237600	0.685100	0.331800
C6971	C697	0.217600	0.724300	0.334000
H2621	H262	0.234000	0.748800	0.330000
C6981	C698	0.173500	0.729000	0.341900
H2631	H263	0.160400	0.755700	0.343200
C6991	C699	0.151500	0.691700	0.347400
H2641	H264	0.122200	0.693600	0.352800
C7001	C700	0.169000	0.651500	0.345700
C7011	C701	0.256500	0.604500	0.412700
C7021	C702	0.211400	0.600200	0.257000
C7031	C703	0.285800	0.684500	0.328800
C7041	C704	0.138600	0.614200	0.354400
O3451	O345	0.259100	0.642600	0.418900
O3461	O346	0.252500	0.577600	0.444500
O3471	O347	0.176000	0.600300	0.253800
O3481	O348	0.227700	0.619000	0.230700
O3491	O349	0.303300	0.660400	0.303600
O3501	O350	0.305300	0.711400	0.349900
O3511	O351	0.100300	0.619600	0.350600
O3521	O352	0.154600	0.579300	0.368200
Cd451	Cd45	0.826050	0.870440	0.187960
C7051	C705	0.743600	0.914400	0.369300
C7061	C706	0.717500	0.951900	0.364100
H2651	H265	0.700200	0.962100	0.386100
C7071	C707	0.719500	0.972800	0.323300
H2661	H266	0.706800	0.999400	0.318500
C7081	C708	0.741100	0.951500	0.292000
H2671	H267	0.740300	0.963600	0.264800
C7091	C709	0.763100	0.915700	0.296000
C7101	C710	0.764100	0.896200	0.334600
C7111	C711	0.787000	0.852700	0.338200
C7121	C712	0.762400	0.814900	0.331800
C7131	C713	0.782400	0.775700	0.334000
H2681	H268	0.766000	0.751200	0.330000
C7141	C714	0.826500	0.771000	0.341900
H2691	H269	0.839600	0.744300	0.343200
C7151	C715	0.848500	0.808300	0.347400
H2701	H270	0.877800	0.806400	0.352800
C7161	C716	0.831000	0.848500	0.345700
C7171	C717	0.743500	0.895500	0.412700
C7181	C718	0.788600	0.899800	0.257000
C7191	C719	0.714200	0.815500	0.328800
C7201	C720	0.861400	0.885800	0.354400
O3531	O353	0.740900	0.857400	0.418900
O3541	O354	0.747500	0.922400	0.444500
O3551	O355	0.824000	0.899700	0.253800
O3561	O356	0.772300	0.881000	0.230700
O3571	O357	0.696700	0.839600	0.303600
O3581	O358	0.694700	0.788600	0.349900
O3591	O359	0.899700	0.880400	0.350600
O3601	O360	0.845400	0.920700	0.368200
Cd461	Cd46	0.326050	0.370440	0.687960
C7211	C721	0.243600	0.414400	0.869300
C7221	C722	0.217500	0.451900	0.864100
H2711	H271	0.200200	0.462100	0.886100
C7231	C723	0.219500	0.472800	0.823300
H2721	H272	0.206800	0.499400	0.818500
C7241	C724	0.241100	0.451500	0.792000
H2731	H273	0.240300	0.463600	0.764800
C7251	C725	0.263100	0.415700	0.796000
C7261	C726	0.264100	0.396200	0.834600
C7271	C727	0.287000	0.352700	0.838200
C7281	C728	0.262400	0.314900	0.831800
C7291	C729	0.282400	0.275700	0.834000
H2741	H274	0.266000	0.251200	0.830000
C7301	C730	0.326500	0.271000	0.841900
H2751	H275	0.339600	0.244300	0.843200
C7311	C731	0.348500	0.308300	0.847400
H2761	H276	0.377800	0.306400	0.852800
C7321	C732	0.331000	0.348500	0.845700
C7331	C733	0.243500	0.395500	0.912700
C7341	C734	0.288600	0.399800	0.757000
C7351	C735	0.214200	0.315500	0.828800
C7361	C736	0.361400	0.385800	0.854400
O3611	O361	0.240900	0.357400	0.918900
O3621	O362	0.247500	0.422400	0.944500
O3631	O363	0.324000	0.399700	0.753800
O3641	O364	0.272300	0.381000	0.730700
O3651	O365	0.196700	0.339600	0.803600
O3661	O366	0.194700	0.288600	0.849900
O3671	O367	0.399700	0.380400	0.850600
O3681	O368	0.345400	0.420700	0.868200
Cd471	Cd47	0.326050	0.629560	0.812040
C7371	C737	0.243600	0.585600	0.630700
C7381	C738	0.217500	0.548100	0.635900
H2771	H277	0.200200	0.537900	0.613900
C7391	C739	0.219500	0.527200	0.676700
H2781	H278	0.206800	0.500600	0.681500
C7401	C740	0.241100	0.548500	0.708000
H2791	H279	0.240300	0.536400	0.735200
C7411	C741	0.263100	0.584300	0.704000
C7421	C742	0.264100	0.603800	0.665400
C7431	C743	0.287000	0.647300	0.661800
C7441	C744	0.262400	0.685100	0.668200
C7451	C745	0.282400	0.724300	0.666000
H2801	H280	0.266000	0.748800	0.670000
C7461	C746	0.326500	0.729000	0.658100
H2811	H281	0.339600	0.755700	0.656800
C7471	C747	0.348500	0.691700	0.652600
H2821	H282	0.377800	0.693600	0.647200
C7481	C748	0.331000	0.651500	0.654300
C7491	C749	0.243500	0.604500	0.587300
C7501	C750	0.288600	0.600200	0.743000
C7511	C751	0.214200	0.684500	0.671200
C7521	C752	0.361400	0.614200	0.645600
O3691	O369	0.240900	0.642600	0.581100
O3701	O370	0.247500	0.577600	0.555500
O3711	O371	0.324000	0.600300	0.746200
O3721	O372	0.272300	0.619000	0.769300
O3731	O373	0.196700	0.660400	0.696400
O3741	O374	0.194700	0.711400	0.650100
O3751	O375	0.399700	0.619600	0.649400
O3761	O376	0.345400	0.579300	0.631800
Cd481	Cd48	0.826050	0.129560	0.312040
C7531	C753	0.743600	0.085600	0.130700
C7541	C754	0.717500	0.048100	0.135900
H2831	H283	0.700200	0.037900	0.113900
C7551	C755	0.719500	0.027200	0.176700
H2841	H284	0.706800	0.000600	0.181500
C7561	C756	0.741100	0.048500	0.208000
H2851	H285	0.740300	0.036400	0.235200
C7571	C757	0.763100	0.084300	0.204000
C7581	C758	0.764100	0.103800	0.165400
C7591	C759	0.787000	0.147300	0.161800
C7601	C760	0.762400	0.185100	0.168200
C7611	C761	0.782400	0.224300	0.166000
H2861	H286	0.766000	0.248800	0.170000
C7621	C762	0.826500	0.229000	0.158100
H2871	H287	0.839600	0.255700	0.156800
C7631	C763	0.848500	0.191700	0.152600
H2881	H288	0.877800	0.193600	0.147200
C7641	C764	0.831000	0.151500	0.154300
C7651	C765	0.743500	0.104500	0.087300
C7661	C766	0.788600	0.100200	0.243000
C7671	C767	0.714200	0.184500	0.171200
C7681	C768	0.861400	0.114200	0.145600
O3771	O377	0.740900	0.142600	0.081100
O3781	O378	0.747500	0.077600	0.055500
O3791	O379	0.824000	0.100300	0.246200
O3801	O380	0.772300	0.119000	0.269300
O3811	O381	0.696700	0.160400	0.196400
O3821	O382	0.694700	0.211400	0.150100
O3831	O383	0.899700	0.119600	0.149400
O3841	O384	0.845400	0.079300	0.131800
Cd491	Cd49	0.750000	0.125000	0.000000
Cd501	Cd50	0.750000	0.875000	0.500000
Cd511	Cd51	0.250000	0.625000	0.500000
Cd521	Cd52	0.250000	0.375000	0.000000
Cd531	Cd53	0.000000	0.750000	0.125000
Cd541	Cd54	0.500000	0.750000	0.875000
Cd551	Cd55	0.500000	0.250000	0.625000
Cd561	Cd56	0.000000	0.250000	0.375000
Cd571	Cd57	0.125000	0.000000	0.750000
Cd581	Cd58	0.875000	0.500000	0.750000
Cd591	Cd59	0.625000	0.500000	0.250000
Cd601	Cd60	0.375000	0.000000	0.250000
