data_QEBGEL_freeONLY_PM
_symmetry_space_group_name_H-M	'P1'
_cell_length_a	10.090000
_cell_length_b	16.362000
_cell_length_c	24.453000
_cell_angle_alpha	106.750000
_cell_angle_beta	92.970000
_cell_angle_gamma	103.160000
_symmetry_Int_Tables_number 1

loop_
_symmetry_equiv_pos_as_xyz
'x,y,z'

loop_
_atom_site_label
_atom_site_type_symbol
_atom_site_fract_x
_atom_site_fract_y
_atom_site_fract_z
Co11	Co1	0.598720	0.155690	0.037820
Co21	Co2	0.041040	0.651380	0.540540
H11	H1	0.245300	0.999900	0.098800
H21	H2	0.848800	0.002200	0.098300
H31	H3	0.102000	0.164700	0.031200
H41	H4	0.907900	0.973000	0.192600
H51	H5	0.863300	0.859000	0.233300
H61	H6	0.085200	0.731800	0.123200
H71	H7	0.127800	0.844800	0.083700
H81	H8	0.642700	0.480500	0.099800
H91	H9	0.553300	0.337300	0.049000
H101	H10	0.794100	0.259700	0.140800
H111	H11	0.893500	0.402100	0.196600
H121	H12	0.032800	0.533200	0.329900
H131	H13	0.064700	0.539900	0.423500
H141	H14	0.938500	0.753500	0.470600
H151	H15	0.918600	0.757600	0.377500
H161	H16	0.256100	0.853300	0.323300
H171	H17	0.538900	0.659900	0.534200
H181	H18	0.291700	0.491300	0.598300
H191	H19	0.691700	0.499800	0.602200
H201	H20	0.582200	0.339900	0.579300
H211	H21	0.552100	0.225400	0.619700
H221	H22	0.335900	0.348200	0.734900
H231	H23	0.356400	0.458000	0.692400
H241	H24	0.635000	0.254800	0.863000
H251	H25	0.697400	0.255600	0.955000
H261	H26	0.433200	0.033000	0.931700
H271	H27	0.370200	0.023700	0.838900
H281	H28	0.367800	0.891900	0.693100
H291	H29	0.259800	0.751300	0.636100
H301	H30	0.983900	0.833500	0.567300
H311	H31	0.081800	0.976100	0.620100
H321	H32	0.723800	0.385600	0.799600
C11	C1	0.337400	0.126100	0.050620
C21	C2	0.196800	0.089200	0.063580
C31	C3	0.173000	0.022400	0.090040
C41	C4	0.043800	0.989300	0.103370
C51	C5	0.936000	0.023500	0.089540
C61	C6	0.957700	0.089200	0.062910
C71	C7	0.087900	0.121500	0.049540
C81	C8	0.841700	0.124400	0.047130
C91	C9	0.019000	0.918500	0.131180
C101	C10	0.967800	0.782100	0.181070
C111	C11	0.941600	0.923700	0.178100
C121	C12	0.915200	0.855600	0.202800
C131	C13	0.047700	0.779600	0.137000
C141	C14	0.072600	0.847600	0.113200
C151	C15	0.937100	0.706600	0.205190
C161	C16	0.869500	0.623500	0.169130
C171	C17	0.846900	0.550900	0.191460
C181	C18	0.948300	0.642100	0.281930
C191	C19	0.977700	0.716000	0.262510
C201	C20	0.781500	0.459900	0.154900
C211	C21	0.676100	0.437000	0.109100
C221	C22	0.623900	0.350900	0.078700
C231	C23	0.764700	0.305300	0.132500
C241	C24	0.824900	0.390700	0.166500
C251	C25	0.979200	0.646700	0.342350
C261	C26	0.018100	0.581200	0.358070
C271	C27	0.035800	0.585100	0.414550
C281	C28	0.963900	0.710700	0.441900
C291	C29	0.948900	0.712400	0.385900
C301	C30	0.076800	0.800700	0.298800
C311	C31	0.777700	0.627100	0.556230
C321	C32	0.638100	0.586700	0.566990
C331	C33	0.526100	0.615800	0.551770
C341	C34	0.396300	0.579600	0.562580
C351	C35	0.378400	0.514200	0.589790
C361	C36	0.488400	0.482600	0.604470
C371	C37	0.617300	0.519900	0.592690
C381	C38	0.278500	0.611600	0.545710
C391	C39	0.470300	0.410400	0.630480
C401	C40	0.530100	0.340900	0.609680
C411	C41	0.512600	0.272000	0.634180
C421	C42	0.435600	0.273300	0.680380
C431	C43	0.382100	0.344900	0.702660
C441	C44	0.396300	0.411600	0.677730
C451	C45	0.413600	0.198100	0.704280
C461	C46	0.459200	0.209600	0.761070
C471	C47	0.437500	0.136300	0.781030
C481	C48	0.324200	0.044100	0.692890
C491	C49	0.343100	0.114100	0.670070
C501	C50	0.487000	0.141100	0.840420
C511	C51	0.590200	0.209100	0.876100
C521	C52	0.627200	0.209300	0.931710
C531	C53	0.474000	0.079200	0.918230
C541	C54	0.434100	0.073800	0.862280
C551	C55	0.249900	0.952800	0.658480
C561	C56	0.294100	0.882700	0.665700
C571	C57	0.226900	0.797900	0.631400
C581	C58	0.065600	0.846200	0.591100
C591	C59	0.123800	0.931900	0.622300
C601	C60	0.550000	0.299300	0.794300
N11	N1	0.885400	0.560600	0.246330
N21	N2	0.666100	0.284600	0.088240
N31	N3	0.368900	0.055100	0.747750
N41	N4	0.566300	0.145950	0.953360
N51	N5	0.119600	0.779200	0.592780
N61	N6	0.014600	0.648600	0.456580
O11	O1	0.432100	0.089580	0.060410
O21	O2	0.360100	0.189890	0.032310
O31	O3	0.725100	0.093180	0.062090
O41	O4	0.857600	0.181310	0.022390
O51	O5	0.162300	0.582820	0.560540
O61	O6	0.295300	0.666300	0.518820
O71	O7	0.800800	0.692990	0.539920
O81	O8	0.873500	0.590540	0.564970
O91	O9	0.213000	0.805300	0.301300
O101	O10	0.029200	0.863500	0.326800
O111	O11	0.698200	0.332000	0.784600
O121	O12	0.498000	0.350500	0.834100
Co31	Co3	0.401280	0.844310	0.962180
Co41	Co4	0.958960	0.348620	0.459460
H331	H33	0.754700	0.000100	0.901200
H341	H34	0.151200	0.997800	0.901700
H351	H35	0.898000	0.835300	0.968800
H361	H36	0.092100	0.027000	0.807400
H371	H37	0.136700	0.141000	0.766700
H381	H38	0.914800	0.268200	0.876800
H391	H39	0.872200	0.155200	0.916300
H401	H40	0.357300	0.519500	0.900200
H411	H41	0.446700	0.662700	0.951000
H421	H42	0.205900	0.740300	0.859200
H431	H43	0.106500	0.597900	0.803400
H441	H44	0.967200	0.466800	0.670100
H451	H45	0.935300	0.460100	0.576500
H461	H46	0.061500	0.246500	0.529400
H471	H47	0.081400	0.242400	0.622500
H481	H48	0.743900	0.146700	0.676700
H491	H49	0.461100	0.340100	0.465800
H501	H50	0.708300	0.508700	0.401700
H511	H51	0.308300	0.500200	0.397800
H521	H52	0.417800	0.660100	0.420700
H531	H53	0.447900	0.774600	0.380300
H541	H54	0.664100	0.651800	0.265100
H551	H55	0.643600	0.542000	0.307600
H561	H56	0.365000	0.745200	0.137000
H571	H57	0.302600	0.744400	0.045000
H581	H58	0.566800	0.967000	0.068300
H591	H59	0.629800	0.976300	0.161100
H601	H60	0.632200	0.108100	0.306900
H611	H61	0.740200	0.248700	0.363900
H621	H62	0.016100	0.166500	0.432700
H631	H63	0.918200	0.023900	0.379900
H641	H64	0.276200	0.614400	0.200400
C611	C61	0.662600	0.873900	0.949380
C621	C62	0.803200	0.910800	0.936420
C631	C63	0.827000	0.977600	0.909960
C641	C64	0.956200	0.010700	0.896630
C651	C65	0.064000	0.976500	0.910460
C661	C66	0.042300	0.910800	0.937090
C671	C67	0.912100	0.878500	0.950460
C681	C68	0.158300	0.875600	0.952870
C691	C69	0.981000	0.081500	0.868820
C701	C70	0.032200	0.217900	0.818930
C711	C71	0.058400	0.076300	0.821900
C721	C72	0.084800	0.144400	0.797200
C731	C73	0.952300	0.220400	0.863000
C741	C74	0.927400	0.152400	0.886800
C751	C75	0.062900	0.293400	0.794810
C761	C76	0.130500	0.376500	0.830870
C771	C77	0.153100	0.449100	0.808540
C781	C78	0.051700	0.357900	0.718070
C791	C79	0.022300	0.284000	0.737490
C801	C80	0.218500	0.540100	0.845100
C811	C81	0.323900	0.563000	0.890900
C821	C82	0.376100	0.649100	0.921300
C831	C83	0.235300	0.694700	0.867500
C841	C84	0.175100	0.609300	0.833500
C851	C85	0.020800	0.353300	0.657650
C861	C86	0.981900	0.418800	0.641930
C871	C87	0.964200	0.414900	0.585450
C881	C88	0.036100	0.289300	0.558100
C891	C89	0.051100	0.287600	0.614100
C901	C90	0.923200	0.199300	0.701200
C911	C91	0.222300	0.372900	0.443770
C921	C92	0.361900	0.413300	0.433010
C931	C93	0.473900	0.384200	0.448230
C941	C94	0.603700	0.420400	0.437420
C951	C95	0.621600	0.485800	0.410210
C961	C96	0.511600	0.517400	0.395530
C971	C97	0.382700	0.480100	0.407310
C981	C98	0.721500	0.388400	0.454290
C991	C99	0.529700	0.589600	0.369520
C1001	C100	0.469900	0.659100	0.390320
C1011	C101	0.487400	0.728000	0.365820
C1021	C102	0.564400	0.726700	0.319620
C1031	C103	0.617900	0.655100	0.297340
C1041	C104	0.603700	0.588400	0.322270
C1051	C105	0.586400	0.801900	0.295720
C1061	C106	0.540800	0.790400	0.238930
C1071	C107	0.562500	0.863700	0.218970
C1081	C108	0.675800	0.955900	0.307110
C1091	C109	0.656900	0.885900	0.329930
C1101	C110	0.513000	0.858900	0.159580
C1111	C111	0.409800	0.790900	0.123900
C1121	C112	0.372800	0.790700	0.068290
C1131	C113	0.526000	0.920800	0.081770
C1141	C114	0.565900	0.926200	0.137720
C1151	C115	0.750100	0.047200	0.341520
C1161	C116	0.705900	0.117300	0.334300
C1171	C117	0.773100	0.202100	0.368600
C1181	C118	0.934400	0.153800	0.408900
C1191	C119	0.876200	0.068100	0.377700
C1201	C120	0.450000	0.700700	0.205700
N71	N7	0.114600	0.439400	0.753670
N81	N8	0.333900	0.715400	0.911760
N91	N9	0.631100	0.944900	0.252250
N101	N10	0.433700	0.854050	0.046640
N111	N11	0.880400	0.220800	0.407220
N121	N12	0.985400	0.351400	0.543420
O131	O13	0.567900	0.910420	0.939590
O141	O14	0.639900	0.810110	0.967690
O151	O15	0.274900	0.906820	0.937910
O161	O16	0.142400	0.818690	0.977610
O171	O17	0.837700	0.417180	0.439460
O181	O18	0.704700	0.333700	0.481180
O191	O19	0.199200	0.307010	0.460080
O201	O20	0.126500	0.409460	0.435030
O211	O21	0.787000	0.194700	0.698700
O221	O22	0.970800	0.136500	0.673200
O231	O23	0.301800	0.668000	0.215400
O241	O24	0.502000	0.649500	0.165900
