data_QEGGUE_charged_PM
_symmetry_space_group_name_H-M	'P1'
_cell_length_a	24.447800
_cell_length_b	24.447800
_cell_length_c	38.472600
_cell_angle_alpha	71.474300
_cell_angle_beta	71.474300
_cell_angle_gamma	89.999900
_symmetry_Int_Tables_number 1

loop_
_symmetry_equiv_pos_as_xyz
'x,y,z'

loop_
_atom_site_label
_atom_site_type_symbol
_atom_site_fract_x
_atom_site_fract_y
_atom_site_fract_z
Ag11	Ag1	0.172010	0.688780	0.996580
Ag21	Ag2	0.331410	0.314640	0.996580
Ag31	Ag3	0.188780	0.831410	0.496580
Ag41	Ag4	0.814640	0.672010	0.496580
Ag51	Ag5	0.168590	0.811220	0.003420
Ag61	Ag6	0.327990	0.185360	0.003420
Ag71	Ag7	0.685360	0.668590	0.503420
Ag81	Ag8	0.311220	0.827990	0.503420
Ag91	Ag9	0.827990	0.311220	0.003420
Ag101	Ag10	0.668590	0.685360	0.003420
Ag111	Ag11	0.811220	0.168590	0.503420
Ag121	Ag12	0.185360	0.327990	0.503420
Ag131	Ag13	0.831410	0.188780	0.996580
Ag141	Ag14	0.672010	0.814640	0.996580
Ag151	Ag15	0.314640	0.331410	0.496580
Ag161	Ag16	0.688780	0.172010	0.496580
H11	H1	0.305600	0.734900	0.953200
H21	H2	0.372800	0.757900	0.892400
H31	H3	0.252200	0.727500	0.850600
H41	H4	0.180600	0.707700	0.912800
H51	H5	0.619100	0.163000	0.580800
H61	H6	0.587500	0.094500	0.644000
H71	H7	0.656500	0.969300	0.599800
H81	H8	0.686400	0.038900	0.536800
H91	H9	0.377300	0.908500	0.804800
H101	H10	0.318400	0.870000	0.828200
H111	H11	0.368100	0.863900	0.845600
H121	H12	0.491700	0.859900	0.696600
H131	H13	0.517400	0.800900	0.704000
H141	H14	0.463100	0.808000	0.691000
H151	H15	0.376700	0.635700	0.815200
H161	H16	0.365900	0.647600	0.854000
H171	H17	0.317900	0.655200	0.835000
H181	H18	0.427000	0.700000	0.730600
H191	H19	0.433600	0.926400	0.762200
H201	H20	0.430700	0.918800	0.724200
H211	H21	0.715600	0.966500	0.687000
H221	H22	0.699700	0.024700	0.663400
H231	H23	0.710500	0.974300	0.646600
H241	H24	0.453400	0.966000	0.677600
H251	H25	0.503500	0.974400	0.639000
H261	H26	0.492900	0.024600	0.656000
H271	H27	0.485800	0.864600	0.796400
H281	H28	0.536200	0.895300	0.802200
H291	H29	0.543800	0.837500	0.793400
H301	H30	0.687800	0.912800	0.731200
H311	H31	0.241200	0.311900	0.953200
H321	H32	0.234800	0.349700	0.892400
H331	H33	0.397200	0.421900	0.850600
H341	H34	0.406600	0.379500	0.912800
H351	H35	0.300100	0.256200	0.580800
H361	H36	0.268500	0.261500	0.644000
H371	H37	0.243700	0.430900	0.599800
H381	H38	0.276800	0.424300	0.536800
H391	H39	0.317900	0.286700	0.804800
H401	H40	0.353400	0.301800	0.828200
H411	H41	0.286300	0.290500	0.845600
H421	H42	0.311700	0.443500	0.696600
H431	H43	0.278600	0.495100	0.704000
H441	H44	0.345900	0.501000	0.691000
H451	H45	0.308100	0.549100	0.815200
H461	H46	0.280100	0.498400	0.854000
H471	H47	0.347100	0.509800	0.835000
H481	H48	0.342400	0.569400	0.730600
H491	H49	0.304200	0.311400	0.762200
H501	H50	0.345100	0.357000	0.724200
H511	H51	0.097400	0.346500	0.687000
H521	H52	0.136900	0.311900	0.663400
H531	H53	0.142900	0.379100	0.646600
H541	H54	0.369000	0.356400	0.677600
H551	H55	0.357500	0.386600	0.639000
H561	H56	0.351100	0.319400	0.656000
H571	H57	0.217800	0.339000	0.796400
H581	H58	0.161600	0.302500	0.802200
H591	H59	0.162800	0.369100	0.793400
H601	H60	0.081000	0.356000	0.731200
H611	H61	0.234900	0.741200	0.453200
H621	H62	0.257900	0.734800	0.392400
H631	H63	0.227500	0.897200	0.350600
H641	H64	0.207700	0.906600	0.412800
H651	H65	0.663000	0.800100	0.080800
H661	H66	0.594500	0.768500	0.144000
H671	H67	0.469300	0.743700	0.099800
H681	H68	0.538900	0.776800	0.036800
H691	H69	0.408500	0.817900	0.304800
H701	H70	0.370000	0.853400	0.328200
H711	H71	0.363900	0.786300	0.345600
H721	H72	0.359900	0.811700	0.196600
H731	H73	0.300900	0.778600	0.204000
H741	H74	0.308000	0.845900	0.191000
H751	H75	0.135700	0.808100	0.315200
H761	H76	0.147600	0.780100	0.354000
H771	H77	0.155200	0.847100	0.335000
H781	H78	0.200000	0.842400	0.230600
H791	H79	0.426400	0.804200	0.262200
H801	H80	0.418800	0.845100	0.224200
H811	H81	0.466500	0.597400	0.187000
H821	H82	0.524700	0.636900	0.163400
H831	H83	0.474300	0.642900	0.146600
H841	H84	0.466000	0.869000	0.177600
H851	H85	0.474400	0.857500	0.139000
H861	H86	0.524600	0.851100	0.156000
H871	H87	0.364600	0.717800	0.296400
H881	H88	0.395300	0.661600	0.302200
H891	H89	0.337500	0.662800	0.293400
H901	H90	0.412800	0.581000	0.231200
H911	H91	0.811900	0.805600	0.453200
H921	H92	0.849700	0.872800	0.392400
H931	H93	0.921900	0.752200	0.350600
H941	H94	0.879500	0.680600	0.412800
H951	H95	0.756200	0.119100	0.080800
H961	H96	0.761500	0.087500	0.144000
H971	H97	0.930900	0.156500	0.099800
H981	H98	0.924300	0.186400	0.036800
H991	H99	0.786700	0.877300	0.304800
H1001	H100	0.801800	0.818400	0.328200
H1011	H101	0.790500	0.868100	0.345600
H1021	H102	0.943500	0.991700	0.196600
H1031	H103	0.995100	0.017400	0.204000
H1041	H104	0.001000	0.963100	0.191000
H1051	H105	0.049100	0.876700	0.315200
H1061	H106	0.998400	0.865900	0.354000
H1071	H107	0.009800	0.817900	0.335000
H1081	H108	0.069400	0.927000	0.230600
H1091	H109	0.811400	0.933600	0.262200
H1101	H110	0.857000	0.930700	0.224200
H1111	H111	0.846500	0.215600	0.187000
H1121	H112	0.811900	0.199700	0.163400
H1131	H113	0.879100	0.210500	0.146600
H1141	H114	0.856400	0.953400	0.177600
H1151	H115	0.886600	0.003500	0.139000
H1161	H116	0.819400	0.992900	0.156000
H1171	H117	0.839000	0.985800	0.296400
H1181	H118	0.802500	0.036200	0.302200
H1191	H119	0.869100	0.043800	0.293400
H1201	H120	0.856000	0.187800	0.231200
H1211	H121	0.258800	0.765100	0.046800
H1221	H122	0.265200	0.742100	0.107600
H1231	H123	0.102800	0.772500	0.149400
H1241	H124	0.093400	0.792300	0.087200
H1251	H125	0.199900	0.337000	0.419200
H1261	H126	0.231500	0.405500	0.356000
H1271	H127	0.256300	0.530700	0.400200
H1281	H128	0.223200	0.461100	0.463200
H1291	H129	0.182100	0.591500	0.195200
H1301	H130	0.146600	0.630000	0.171800
H1311	H131	0.213700	0.636100	0.154400
H1321	H132	0.188300	0.640100	0.303400
H1331	H133	0.221400	0.699100	0.296000
H1341	H134	0.154100	0.692000	0.309000
H1351	H135	0.191900	0.864300	0.184800
H1361	H136	0.219900	0.852400	0.146000
H1371	H137	0.152900	0.844800	0.165000
H1381	H138	0.157600	0.800000	0.269400
H1391	H139	0.195800	0.573600	0.237800
H1401	H140	0.154900	0.581200	0.275800
H1411	H141	0.402600	0.533500	0.313000
H1421	H142	0.363100	0.475300	0.336600
H1431	H143	0.357100	0.525700	0.353400
H1441	H144	0.131000	0.534000	0.322400
H1451	H145	0.142500	0.525600	0.361000
H1461	H146	0.148900	0.475400	0.344000
H1471	H147	0.282200	0.635400	0.203600
H1481	H148	0.338400	0.604700	0.197800
H1491	H149	0.337200	0.662500	0.206600
H1501	H150	0.419000	0.587200	0.268800
H1511	H151	0.194400	0.188100	0.046800
H1521	H152	0.127200	0.150300	0.107600
H1531	H153	0.247800	0.078100	0.149400
H1541	H154	0.319400	0.120500	0.087200
H1551	H155	0.880900	0.243800	0.419200
H1561	H156	0.912500	0.238500	0.356000
H1571	H157	0.843500	0.069100	0.400200
H1581	H158	0.813600	0.075700	0.463200
H1591	H159	0.122700	0.213300	0.195200
H1601	H160	0.181600	0.198200	0.171800
H1611	H161	0.131900	0.209500	0.154400
H1621	H162	0.008300	0.056500	0.303400
H1631	H163	0.982600	0.004900	0.296000
H1641	H164	0.036900	0.999000	0.309000
H1651	H165	0.123300	0.950900	0.184800
H1661	H166	0.134100	0.001600	0.146000
H1671	H167	0.182100	0.990200	0.165000
H1681	H168	0.073000	0.930600	0.269400
H1691	H169	0.066400	0.188600	0.237800
H1701	H170	0.069300	0.143000	0.275800
H1711	H171	0.784400	0.153500	0.313000
H1721	H172	0.800300	0.188100	0.336600
H1731	H173	0.789500	0.120900	0.353400
H1741	H174	0.046600	0.143600	0.322400
H1751	H175	0.996500	0.113400	0.361000
H1761	H176	0.007100	0.180600	0.344000
H1771	H177	0.014200	0.161000	0.203600
H1781	H178	0.963800	0.197500	0.197800
H1791	H179	0.956200	0.130900	0.206600
H1801	H180	0.812200	0.144000	0.268800
H1811	H181	0.688100	0.758800	0.546800
H1821	H182	0.650300	0.765200	0.607600
H1831	H183	0.578100	0.602800	0.649400
H1841	H184	0.620500	0.593400	0.587200
H1851	H185	0.743800	0.699900	0.919200
H1861	H186	0.738500	0.731500	0.856000
H1871	H187	0.569100	0.756300	0.900200
H1881	H188	0.575700	0.723200	0.963200
H1891	H189	0.713300	0.682100	0.695200
H1901	H190	0.698200	0.646600	0.671800
H1911	H191	0.709500	0.713700	0.654400
H1921	H192	0.556500	0.688300	0.803400
H1931	H193	0.504900	0.721400	0.796000
H1941	H194	0.499000	0.654100	0.809000
H1951	H195	0.450900	0.691900	0.684800
H1961	H196	0.501600	0.719900	0.646000
H1971	H197	0.490200	0.652900	0.665000
H1981	H198	0.430600	0.657600	0.769400
H1991	H199	0.688600	0.695800	0.737800
H2001	H200	0.643000	0.654900	0.775800
H2011	H201	0.653500	0.902600	0.813000
H2021	H202	0.688100	0.863100	0.836600
H2031	H203	0.620900	0.857100	0.853400
H2041	H204	0.643600	0.631000	0.822400
H2051	H205	0.613400	0.642500	0.861000
H2061	H206	0.680600	0.648900	0.844000
H2071	H207	0.661000	0.782200	0.703600
H2081	H208	0.697500	0.838400	0.697800
H2091	H209	0.630900	0.837200	0.706600
H2101	H210	0.644000	0.919000	0.768800
H2111	H211	0.265100	0.694400	0.546800
H2121	H212	0.242100	0.627200	0.607600
H2131	H213	0.272500	0.747800	0.649400
H2141	H214	0.292300	0.819400	0.587200
H2151	H215	0.837000	0.380900	0.919200
H2161	H216	0.905500	0.412500	0.856000
H2171	H217	0.030700	0.343500	0.900200
H2181	H218	0.961100	0.313600	0.963200
H2191	H219	0.091500	0.622700	0.695200
H2201	H220	0.130000	0.681600	0.671800
H2211	H221	0.136100	0.631900	0.654400
H2221	H222	0.140100	0.508300	0.803400
H2231	H223	0.199100	0.482600	0.796000
H2241	H224	0.192000	0.536900	0.809000
H2251	H225	0.364300	0.623300	0.684800
H2261	H226	0.352400	0.634100	0.646000
H2271	H227	0.344800	0.682100	0.665000
H2281	H228	0.300000	0.573000	0.769400
H2291	H229	0.073600	0.566400	0.737800
H2301	H230	0.081200	0.569300	0.775800
H2311	H231	0.033500	0.284400	0.813000
H2321	H232	0.975300	0.300300	0.836600
H2331	H233	0.025700	0.289500	0.853400
H2341	H234	0.034000	0.546600	0.822400
H2351	H235	0.025600	0.496500	0.861000
H2361	H236	0.975400	0.507100	0.844000
H2371	H237	0.135400	0.514200	0.703600
H2381	H238	0.104700	0.463800	0.697800
H2391	H239	0.162500	0.456200	0.706600
H2401	H240	0.087200	0.312200	0.768800
H2411	H241	0.694400	0.265100	0.046800
H2421	H242	0.627200	0.242100	0.107600
H2431	H243	0.747800	0.272500	0.149400
H2441	H244	0.819400	0.292300	0.087200
H2451	H245	0.380900	0.837000	0.419200
H2461	H246	0.412500	0.905500	0.356000
H2471	H247	0.343500	0.030700	0.400200
H2481	H248	0.313600	0.961100	0.463200
H2491	H249	0.622700	0.091500	0.195200
H2501	H250	0.681600	0.130000	0.171800
H2511	H251	0.631900	0.136100	0.154400
H2521	H252	0.508300	0.140100	0.303400
H2531	H253	0.482600	0.199100	0.296000
H2541	H254	0.536900	0.192000	0.309000
H2551	H255	0.623300	0.364300	0.184800
H2561	H256	0.634100	0.352400	0.146000
H2571	H257	0.682100	0.344800	0.165000
H2581	H258	0.573000	0.300000	0.269400
H2591	H259	0.566400	0.073600	0.237800
H2601	H260	0.569300	0.081200	0.275800
H2611	H261	0.284400	0.033500	0.313000
H2621	H262	0.300300	0.975300	0.336600
H2631	H263	0.289500	0.025700	0.353400
H2641	H264	0.546600	0.034000	0.322400
H2651	H265	0.496500	0.025600	0.361000
H2661	H266	0.507100	0.975400	0.344000
H2671	H267	0.514200	0.135400	0.203600
H2681	H268	0.463800	0.104700	0.197800
H2691	H269	0.456200	0.162500	0.206600
H2701	H270	0.312200	0.087200	0.268800
H2711	H271	0.758800	0.688100	0.046800
H2721	H272	0.765200	0.650300	0.107600
H2731	H273	0.602800	0.578100	0.149400
H2741	H274	0.593400	0.620500	0.087200
H2751	H275	0.699900	0.743800	0.419200
H2761	H276	0.731500	0.738500	0.356000
H2771	H277	0.756300	0.569100	0.400200
H2781	H278	0.723200	0.575700	0.463200
H2791	H279	0.682100	0.713300	0.195200
H2801	H280	0.646600	0.698200	0.171800
H2811	H281	0.713700	0.709500	0.154400
H2821	H282	0.688300	0.556500	0.303400
H2831	H283	0.721400	0.504900	0.296000
H2841	H284	0.654100	0.499000	0.309000
H2851	H285	0.691900	0.450900	0.184800
H2861	H286	0.719900	0.501600	0.146000
H2871	H287	0.652900	0.490200	0.165000
H2881	H288	0.657600	0.430600	0.269400
H2891	H289	0.695800	0.688600	0.237800
H2901	H290	0.654900	0.643000	0.275800
H2911	H291	0.902600	0.653500	0.313000
H2921	H292	0.863100	0.688100	0.336600
H2931	H293	0.857100	0.620900	0.353400
H2941	H294	0.631000	0.643600	0.322400
H2951	H295	0.642500	0.613400	0.361000
H2961	H296	0.648900	0.680600	0.344000
H2971	H297	0.782200	0.661000	0.203600
H2981	H298	0.838400	0.697500	0.197800
H2991	H299	0.837200	0.630900	0.206600
H3001	H300	0.919000	0.644000	0.268800
H3011	H301	0.765100	0.258800	0.546800
H3021	H302	0.742100	0.265200	0.607600
H3031	H303	0.772500	0.102800	0.649400
H3041	H304	0.792300	0.093400	0.587200
H3051	H305	0.337000	0.199900	0.919200
H3061	H306	0.405500	0.231500	0.856000
H3071	H307	0.530700	0.256300	0.900200
H3081	H308	0.461100	0.223200	0.963200
H3091	H309	0.591500	0.182100	0.695200
H3101	H310	0.630000	0.146600	0.671800
H3111	H311	0.636100	0.213700	0.654400
H3121	H312	0.640100	0.188300	0.803400
H3131	H313	0.699100	0.221400	0.796000
H3141	H314	0.692000	0.154100	0.809000
H3151	H315	0.864300	0.191900	0.684800
H3161	H316	0.852400	0.219900	0.646000
H3171	H317	0.844800	0.152900	0.665000
H3181	H318	0.800000	0.157600	0.769400
H3191	H319	0.573600	0.195800	0.737800
H3201	H320	0.581200	0.154900	0.775800
H3211	H321	0.533500	0.402600	0.813000
H3221	H322	0.475300	0.363100	0.836600
H3231	H323	0.525700	0.357100	0.853400
H3241	H324	0.534000	0.131000	0.822400
H3251	H325	0.525600	0.142500	0.861000
H3261	H326	0.475400	0.148900	0.844000
H3271	H327	0.635400	0.282200	0.703600
H3281	H328	0.604700	0.338400	0.697800
H3291	H329	0.662500	0.337200	0.706600
H3301	H330	0.587200	0.419000	0.768800
H3311	H331	0.188100	0.194400	0.546800
H3321	H332	0.150300	0.127200	0.607600
H3331	H333	0.078100	0.247800	0.649400
H3341	H334	0.120500	0.319400	0.587200
H3351	H335	0.243800	0.880900	0.919200
H3361	H336	0.238500	0.912500	0.856000
H3371	H337	0.069100	0.843500	0.900200
H3381	H338	0.075700	0.813600	0.963200
H3391	H339	0.213300	0.122700	0.695200
H3401	H340	0.198200	0.181600	0.671800
H3411	H341	0.209500	0.131900	0.654400
H3421	H342	0.056500	0.008300	0.803400
H3431	H343	0.004900	0.982600	0.796000
H3441	H344	0.999000	0.036900	0.809000
H3451	H345	0.950900	0.123300	0.684800
H3461	H346	0.001600	0.134100	0.646000
H3471	H347	0.990200	0.182100	0.665000
H3481	H348	0.930600	0.073000	0.769400
H3491	H349	0.188600	0.066400	0.737800
H3501	H350	0.143000	0.069300	0.775800
H3511	H351	0.153500	0.784400	0.813000
H3521	H352	0.188100	0.800300	0.836600
H3531	H353	0.120900	0.789500	0.853400
H3541	H354	0.143600	0.046600	0.822400
H3551	H355	0.113400	0.996500	0.861000
H3561	H356	0.180600	0.007100	0.844000
H3571	H357	0.161000	0.014200	0.703600
H3581	H358	0.197500	0.963800	0.697800
H3591	H359	0.130900	0.956200	0.706600
H3601	H360	0.144000	0.812200	0.768800
H3611	H361	0.741200	0.234900	0.953200
H3621	H362	0.734800	0.257900	0.892400
H3631	H363	0.897200	0.227500	0.850600
H3641	H364	0.906600	0.207700	0.912800
H3651	H365	0.800100	0.663000	0.580800
H3661	H366	0.768500	0.594500	0.644000
H3671	H367	0.743700	0.469300	0.599800
H3681	H368	0.776800	0.538900	0.536800
H3691	H369	0.817900	0.408500	0.804800
H3701	H370	0.853400	0.370000	0.828200
H3711	H371	0.786300	0.363900	0.845600
H3721	H372	0.811700	0.359900	0.696600
H3731	H373	0.778600	0.300900	0.704000
H3741	H374	0.845900	0.308000	0.691000
H3751	H375	0.808100	0.135700	0.815200
H3761	H376	0.780100	0.147600	0.854000
H3771	H377	0.847100	0.155200	0.835000
H3781	H378	0.842400	0.200000	0.730600
H3791	H379	0.804200	0.426400	0.762200
H3801	H380	0.845100	0.418800	0.724200
H3811	H381	0.597400	0.466500	0.687000
H3821	H382	0.636900	0.524700	0.663400
H3831	H383	0.642900	0.474300	0.646600
H3841	H384	0.869000	0.466000	0.677600
H3851	H385	0.857500	0.474400	0.639000
H3861	H386	0.851100	0.524600	0.656000
H3871	H387	0.717800	0.364600	0.796400
H3881	H388	0.661600	0.395300	0.802200
H3891	H389	0.662800	0.337500	0.793400
H3901	H390	0.581000	0.412800	0.731200
H3911	H391	0.805600	0.811900	0.953200
H3921	H392	0.872800	0.849700	0.892400
H3931	H393	0.752200	0.921900	0.850600
H3941	H394	0.680600	0.879500	0.912800
H3951	H395	0.119100	0.756200	0.580800
H3961	H396	0.087500	0.761500	0.644000
H3971	H397	0.156500	0.930900	0.599800
H3981	H398	0.186400	0.924300	0.536800
H3991	H399	0.877300	0.786700	0.804800
H4001	H400	0.818400	0.801800	0.828200
H4011	H401	0.868100	0.790500	0.845600
H4021	H402	0.991700	0.943500	0.696600
H4031	H403	0.017400	0.995100	0.704000
H4041	H404	0.963100	0.001000	0.691000
H4051	H405	0.876700	0.049100	0.815200
H4061	H406	0.865900	0.998400	0.854000
H4071	H407	0.817900	0.009800	0.835000
H4081	H408	0.927000	0.069400	0.730600
H4091	H409	0.933600	0.811400	0.762200
H4101	H410	0.930700	0.857000	0.724200
H4111	H411	0.215600	0.846500	0.687000
H4121	H412	0.199700	0.811900	0.663400
H4131	H413	0.210500	0.879100	0.646600
H4141	H414	0.953400	0.856400	0.677600
H4151	H415	0.003500	0.886600	0.639000
H4161	H416	0.992900	0.819400	0.656000
H4171	H417	0.985800	0.839000	0.796400
H4181	H418	0.036200	0.802500	0.802200
H4191	H419	0.043800	0.869100	0.793400
H4201	H420	0.187800	0.856000	0.731200
H4211	H421	0.311900	0.241200	0.453200
H4221	H422	0.349700	0.234800	0.392400
H4231	H423	0.421900	0.397200	0.350600
H4241	H424	0.379500	0.406600	0.412800
H4251	H425	0.256200	0.300100	0.080800
H4261	H426	0.261500	0.268500	0.144000
H4271	H427	0.430900	0.243700	0.099800
H4281	H428	0.424300	0.276800	0.036800
H4291	H429	0.286700	0.317900	0.304800
H4301	H430	0.301800	0.353400	0.328200
H4311	H431	0.290500	0.286300	0.345600
H4321	H432	0.443500	0.311700	0.196600
H4331	H433	0.495100	0.278600	0.204000
H4341	H434	0.501000	0.345900	0.191000
H4351	H435	0.549100	0.308100	0.315200
H4361	H436	0.498400	0.280100	0.354000
H4371	H437	0.509800	0.347100	0.335000
H4381	H438	0.569400	0.342400	0.230600
H4391	H439	0.311400	0.304200	0.262200
H4401	H440	0.357000	0.345100	0.224200
H4411	H441	0.346500	0.097400	0.187000
H4421	H442	0.311900	0.136900	0.163400
H4431	H443	0.379100	0.142900	0.146600
H4441	H444	0.356400	0.369000	0.177600
H4451	H445	0.386600	0.357500	0.139000
H4461	H446	0.319400	0.351100	0.156000
H4471	H447	0.339000	0.217800	0.296400
H4481	H448	0.302500	0.161600	0.302200
H4491	H449	0.369100	0.162800	0.293400
H4501	H450	0.356000	0.081000	0.231200
H4511	H451	0.734900	0.305600	0.453200
H4521	H452	0.757900	0.372800	0.392400
H4531	H453	0.727500	0.252200	0.350600
H4541	H454	0.707700	0.180600	0.412800
H4551	H455	0.163000	0.619100	0.080800
H4561	H456	0.094500	0.587500	0.144000
H4571	H457	0.969300	0.656500	0.099800
H4581	H458	0.038900	0.686400	0.036800
H4591	H459	0.908500	0.377300	0.304800
H4601	H460	0.870000	0.318400	0.328200
H4611	H461	0.863900	0.368100	0.345600
H4621	H462	0.859900	0.491700	0.196600
H4631	H463	0.800900	0.517400	0.204000
H4641	H464	0.808000	0.463100	0.191000
H4651	H465	0.635700	0.376700	0.315200
H4661	H466	0.647600	0.365900	0.354000
H4671	H467	0.655200	0.317900	0.335000
H4681	H468	0.700000	0.427000	0.230600
H4691	H469	0.926400	0.433600	0.262200
H4701	H470	0.918800	0.430700	0.224200
H4711	H471	0.966500	0.715600	0.187000
H4721	H472	0.024700	0.699700	0.163400
H4731	H473	0.974300	0.710500	0.146600
H4741	H474	0.966000	0.453400	0.177600
H4751	H475	0.974400	0.503500	0.139000
H4761	H476	0.024600	0.492900	0.156000
H4771	H477	0.864600	0.485800	0.296400
H4781	H478	0.895300	0.536200	0.302200
H4791	H479	0.837500	0.543800	0.293400
H4801	H480	0.912800	0.687800	0.231200
C11	C1	0.293800	0.733800	0.932400
C21	C2	0.333100	0.748100	0.895800
C31	C3	0.319900	0.749400	0.864400
C41	C4	0.263300	0.731300	0.871400
C51	C5	0.220600	0.717600	0.908800
C61	C6	0.627700	0.123700	0.584600
C71	C7	0.607800	0.082800	0.622400
C81	C8	0.617900	0.024900	0.628200
C91	C9	0.648900	0.007900	0.596200
C101	C10	0.667600	0.050600	0.558800
C111	C11	0.362000	0.765100	0.824000
C121	C12	0.382000	0.825300	0.804000
C131	C13	0.424800	0.842800	0.766400
C141	C14	0.443100	0.799300	0.749000
C151	C15	0.423200	0.739000	0.769600
C161	C16	0.383200	0.721900	0.807600
C171	C17	0.358800	0.870800	0.822400
C181	C18	0.483000	0.819000	0.706000
C191	C19	0.359000	0.659300	0.830000
C201	C20	0.447300	0.906100	0.744200
C211	C21	0.549800	0.906700	0.745200
C221	C22	0.607700	0.922600	0.728200
C231	C23	0.631700	0.961200	0.688600
C241	C24	0.595300	0.979300	0.669400
C251	C25	0.533900	0.960200	0.685600
C261	C26	0.512600	0.923400	0.725200
C271	C27	0.695200	0.984200	0.669600
C281	C28	0.491800	0.983900	0.662200
C291	C29	0.526800	0.872800	0.788400
C301	C30	0.273800	0.333800	0.932400
C311	C31	0.271100	0.356100	0.895800
C321	C32	0.315700	0.386200	0.864400
C331	C33	0.365300	0.397300	0.871400
C341	C34	0.370600	0.373600	0.908800
C351	C35	0.287700	0.291700	0.584600
C361	C36	0.269800	0.294800	0.622400
C371	C37	0.253900	0.346900	0.628200
C381	C38	0.254900	0.395900	0.596200
C391	C39	0.273600	0.390600	0.558800
C401	C40	0.314000	0.410900	0.824000
C411	C41	0.314000	0.370700	0.804000
C421	C42	0.308800	0.390800	0.766400
C431	C43	0.307900	0.451700	0.749000
C441	C44	0.307200	0.491400	0.769600
C451	C45	0.309200	0.470500	0.807600
C461	C46	0.318800	0.306800	0.822400
C471	C47	0.311000	0.475000	0.706000
C481	C48	0.311000	0.510700	0.830000
C491	C49	0.308500	0.349700	0.744200
C501	C50	0.205000	0.348100	0.745200
C511	C51	0.164100	0.349200	0.728200
C521	C52	0.179700	0.350200	0.688600
C531	C53	0.235300	0.351300	0.669400
C541	C54	0.280500	0.354200	0.685600
C551	C55	0.262200	0.351400	0.725200
C561	C56	0.135200	0.346200	0.669600
C571	C57	0.346000	0.353900	0.662200
C581	C58	0.184800	0.338800	0.788400
C591	C59	0.233800	0.773800	0.432400
C601	C60	0.248100	0.771100	0.395800
C611	C61	0.249400	0.815700	0.364400
C621	C62	0.231300	0.865300	0.371400
C631	C63	0.217600	0.870600	0.408800
C641	C64	0.623700	0.787700	0.084600
C651	C65	0.582800	0.769800	0.122400
C661	C66	0.524900	0.753900	0.128200
C671	C67	0.507900	0.754900	0.096200
C681	C68	0.550600	0.773600	0.058800
C691	C69	0.265100	0.814000	0.324000
C701	C70	0.325300	0.814000	0.304000
C711	C71	0.342800	0.808800	0.266400
C721	C72	0.299300	0.807900	0.249000
C731	C73	0.239000	0.807200	0.269600
C741	C74	0.221900	0.809200	0.307600
C751	C75	0.370800	0.818800	0.322400
C761	C76	0.319000	0.811000	0.206000
C771	C77	0.159300	0.811000	0.330000
C781	C78	0.406100	0.808500	0.244200
C791	C79	0.406700	0.705000	0.245200
C801	C80	0.422600	0.664100	0.228200
C811	C81	0.461200	0.679700	0.188600
C821	C82	0.479300	0.735300	0.169400
C831	C83	0.460200	0.780500	0.185600
C841	C84	0.423400	0.762200	0.225200
C851	C85	0.484200	0.635200	0.169600
C861	C86	0.483900	0.846000	0.162200
C871	C87	0.372800	0.684800	0.288400
C881	C88	0.833800	0.793800	0.432400
C891	C89	0.856100	0.833100	0.395800
C901	C90	0.886200	0.819900	0.364400
C911	C91	0.897300	0.763300	0.371400
C921	C92	0.873600	0.720600	0.408800
C931	C93	0.791700	0.127700	0.084600
C941	C94	0.794800	0.107800	0.122400
C951	C95	0.846900	0.117900	0.128200
C961	C96	0.895900	0.148900	0.096200
C971	C97	0.890600	0.167600	0.058800
C981	C98	0.910900	0.862000	0.324000
C991	C99	0.870700	0.882000	0.304000
C1001	C100	0.890800	0.924800	0.266400
C1011	C101	0.951700	0.943100	0.249000
C1021	C102	0.991400	0.923200	0.269600
C1031	C103	0.970500	0.883200	0.307600
C1041	C104	0.806800	0.858800	0.322400
C1051	C105	0.975000	0.983000	0.206000
C1061	C106	0.010700	0.859000	0.330000
C1071	C107	0.849700	0.947300	0.244200
C1081	C108	0.848100	0.049800	0.245200
C1091	C109	0.849200	0.107700	0.228200
C1101	C110	0.850200	0.131700	0.188600
C1111	C111	0.851300	0.095300	0.169400
C1121	C112	0.854200	0.033900	0.185600
C1131	C113	0.851400	0.012600	0.225200
C1141	C114	0.846200	0.195200	0.169600
C1151	C115	0.853900	0.991800	0.162200
C1161	C116	0.838800	0.026800	0.288400
C1171	C117	0.226200	0.766200	0.067600
C1181	C118	0.228900	0.751900	0.104200
C1191	C119	0.184300	0.750600	0.135600
C1201	C120	0.134700	0.768700	0.128600
C1211	C121	0.129400	0.782400	0.091200
C1221	C122	0.212300	0.376300	0.415400
C1231	C123	0.230200	0.417200	0.377600
C1241	C124	0.246100	0.475100	0.371800
C1251	C125	0.245100	0.492100	0.403800
C1261	C126	0.226400	0.449400	0.441200
C1271	C127	0.186000	0.734900	0.176000
C1281	C128	0.186000	0.674700	0.196000
C1291	C129	0.191200	0.657200	0.233600
C1301	C130	0.192100	0.700700	0.251000
C1311	C131	0.192800	0.761000	0.230400
C1321	C132	0.190800	0.778100	0.192400
C1331	C133	0.181200	0.629200	0.177600
C1341	C134	0.189000	0.681000	0.294000
C1351	C135	0.189000	0.840700	0.170000
C1361	C136	0.191500	0.593900	0.255800
C1371	C137	0.295000	0.593300	0.254800
C1381	C138	0.335900	0.577400	0.271800
C1391	C139	0.320300	0.538800	0.311400
C1401	C140	0.264700	0.520700	0.330600
C1411	C141	0.219500	0.539800	0.314400
C1421	C142	0.237800	0.576600	0.274800
C1431	C143	0.364800	0.515800	0.330400
C1441	C144	0.154000	0.516100	0.337800
C1451	C145	0.315200	0.627200	0.211600
C1461	C146	0.206200	0.166200	0.067600
C1471	C147	0.166900	0.143900	0.104200
C1481	C148	0.180100	0.113800	0.135600
C1491	C149	0.236700	0.102700	0.128600
C1501	C150	0.279400	0.126400	0.091200
C1511	C151	0.872300	0.208300	0.415400
C1521	C152	0.892200	0.205200	0.377600
C1531	C153	0.882100	0.153100	0.371800
C1541	C154	0.851100	0.104100	0.403800
C1551	C155	0.832400	0.109400	0.441200
C1561	C156	0.138000	0.089100	0.176000
C1571	C157	0.118000	0.129300	0.196000
C1581	C158	0.075200	0.109200	0.233600
C1591	C159	0.056900	0.048300	0.251000
C1601	C160	0.076800	0.008600	0.230400
C1611	C161	0.116800	0.029500	0.192400
C1621	C162	0.141200	0.193200	0.177600
C1631	C163	0.017000	0.025000	0.294000
C1641	C164	0.141000	0.989300	0.170000
C1651	C165	0.052700	0.150300	0.255800
C1661	C166	0.950200	0.151900	0.254800
C1671	C167	0.892300	0.150800	0.271800
C1681	C168	0.868300	0.149800	0.311400
C1691	C169	0.904700	0.148700	0.330600
C1701	C170	0.966100	0.145800	0.314400
C1711	C171	0.987400	0.148600	0.274800
C1721	C172	0.804800	0.153800	0.330400
C1731	C173	0.008200	0.146100	0.337800
C1741	C174	0.973200	0.161200	0.211600
C1751	C175	0.666200	0.726200	0.567600
C1761	C176	0.643900	0.728900	0.604200
C1771	C177	0.613800	0.684300	0.635600
C1781	C178	0.602700	0.634700	0.628600
C1791	C179	0.626400	0.629400	0.591200
C1801	C180	0.708300	0.712300	0.915400
C1811	C181	0.705200	0.730200	0.877600
C1821	C182	0.653100	0.746100	0.871800
C1831	C183	0.604100	0.745100	0.903800
C1841	C184	0.609400	0.726400	0.941200
C1851	C185	0.589100	0.686000	0.676000
C1861	C186	0.629300	0.686000	0.696000
C1871	C187	0.609200	0.691200	0.733600
C1881	C188	0.548300	0.692100	0.751000
C1891	C189	0.508600	0.692800	0.730400
C1901	C190	0.529500	0.690800	0.692400
C1911	C191	0.693200	0.681200	0.677600
C1921	C192	0.525000	0.689000	0.794000
C1931	C193	0.489300	0.689000	0.670000
C1941	C194	0.650300	0.691500	0.755800
C1951	C195	0.651900	0.795000	0.754800
C1961	C196	0.650800	0.835900	0.771800
C1971	C197	0.649800	0.820300	0.811400
C1981	C198	0.648700	0.764700	0.830600
C1991	C199	0.645800	0.719500	0.814400
C2001	C200	0.648600	0.737800	0.774800
C2011	C201	0.653800	0.864800	0.830400
C2021	C202	0.646100	0.654000	0.837800
C2031	C203	0.661200	0.815200	0.711600
C2041	C204	0.266200	0.706200	0.567600
C2051	C205	0.251900	0.666900	0.604200
C2061	C206	0.250600	0.680100	0.635600
C2071	C207	0.268700	0.736700	0.628600
C2081	C208	0.282400	0.779400	0.591200
C2091	C209	0.876300	0.372300	0.915400
C2101	C210	0.917200	0.392200	0.877600
C2111	C211	0.975100	0.382100	0.871800
C2121	C212	0.992100	0.351100	0.903800
C2131	C213	0.949400	0.332400	0.941200
C2141	C214	0.234900	0.638000	0.676000
C2151	C215	0.174700	0.618000	0.696000
C2161	C216	0.157200	0.575200	0.733600
C2171	C217	0.200700	0.556900	0.751000
C2181	C218	0.261000	0.576800	0.730400
C2191	C219	0.278100	0.616800	0.692400
C2201	C220	0.129200	0.641200	0.677600
C2211	C221	0.181000	0.517000	0.794000
C2221	C222	0.340700	0.641000	0.670000
C2231	C223	0.093900	0.552700	0.755800
C2241	C224	0.093300	0.450200	0.754800
C2251	C225	0.077400	0.392300	0.771800
C2261	C226	0.038800	0.368300	0.811400
C2271	C227	0.020700	0.404700	0.830600
C2281	C228	0.039800	0.466100	0.814400
C2291	C229	0.076600	0.487400	0.774800
C2301	C230	0.015800	0.304800	0.830400
C2311	C231	0.016100	0.508200	0.837800
C2321	C232	0.127200	0.473200	0.711600
C2331	C233	0.706200	0.266200	0.067600
C2341	C234	0.666900	0.251900	0.104200
C2351	C235	0.680100	0.250600	0.135600
C2361	C236	0.736700	0.268700	0.128600
C2371	C237	0.779400	0.282400	0.091200
C2381	C238	0.372300	0.876300	0.415400
C2391	C239	0.392200	0.917200	0.377600
C2401	C240	0.382100	0.975100	0.371800
C2411	C241	0.351100	0.992100	0.403800
C2421	C242	0.332400	0.949400	0.441200
C2431	C243	0.638000	0.234900	0.176000
C2441	C244	0.618000	0.174700	0.196000
C2451	C245	0.575200	0.157200	0.233600
C2461	C246	0.556900	0.200700	0.251000
C2471	C247	0.576800	0.261000	0.230400
C2481	C248	0.616800	0.278100	0.192400
C2491	C249	0.641200	0.129200	0.177600
C2501	C250	0.517000	0.181000	0.294000
C2511	C251	0.641000	0.340700	0.170000
C2521	C252	0.552700	0.093900	0.255800
C2531	C253	0.450200	0.093300	0.254800
C2541	C254	0.392300	0.077400	0.271800
C2551	C255	0.368300	0.038800	0.311400
C2561	C256	0.404700	0.020700	0.330600
C2571	C257	0.466100	0.039800	0.314400
C2581	C258	0.487400	0.076600	0.274800
C2591	C259	0.304800	0.015800	0.330400
C2601	C260	0.508200	0.016100	0.337800
C2611	C261	0.473200	0.127200	0.211600
C2621	C262	0.726200	0.666200	0.067600
C2631	C263	0.728900	0.643900	0.104200
C2641	C264	0.684300	0.613800	0.135600
C2651	C265	0.634700	0.602700	0.128600
C2661	C266	0.629400	0.626400	0.091200
C2671	C267	0.712300	0.708300	0.415400
C2681	C268	0.730200	0.705200	0.377600
C2691	C269	0.746100	0.653100	0.371800
C2701	C270	0.745100	0.604100	0.403800
C2711	C271	0.726400	0.609400	0.441200
C2721	C272	0.686000	0.589100	0.176000
C2731	C273	0.686000	0.629300	0.196000
C2741	C274	0.691200	0.609200	0.233600
C2751	C275	0.692100	0.548300	0.251000
C2761	C276	0.692800	0.508600	0.230400
C2771	C277	0.690800	0.529500	0.192400
C2781	C278	0.681200	0.693200	0.177600
C2791	C279	0.689000	0.525000	0.294000
C2801	C280	0.689000	0.489300	0.170000
C2811	C281	0.691500	0.650300	0.255800
C2821	C282	0.795000	0.651900	0.254800
C2831	C283	0.835900	0.650800	0.271800
C2841	C284	0.820300	0.649800	0.311400
C2851	C285	0.764700	0.648700	0.330600
C2861	C286	0.719500	0.645800	0.314400
C2871	C287	0.737800	0.648600	0.274800
C2881	C288	0.864800	0.653800	0.330400
C2891	C289	0.654000	0.646100	0.337800
C2901	C290	0.815200	0.661200	0.211600
C2911	C291	0.766200	0.226200	0.567600
C2921	C292	0.751900	0.228900	0.604200
C2931	C293	0.750600	0.184300	0.635600
C2941	C294	0.768700	0.134700	0.628600
C2951	C295	0.782400	0.129400	0.591200
C2961	C296	0.376300	0.212300	0.915400
C2971	C297	0.417200	0.230200	0.877600
C2981	C298	0.475100	0.246100	0.871800
C2991	C299	0.492100	0.245100	0.903800
C3001	C300	0.449400	0.226400	0.941200
C3011	C301	0.734900	0.186000	0.676000
C3021	C302	0.674700	0.186000	0.696000
C3031	C303	0.657200	0.191200	0.733600
C3041	C304	0.700700	0.192100	0.751000
C3051	C305	0.761000	0.192800	0.730400
C3061	C306	0.778100	0.190800	0.692400
C3071	C307	0.629200	0.181200	0.677600
C3081	C308	0.681000	0.189000	0.794000
C3091	C309	0.840700	0.189000	0.670000
C3101	C310	0.593900	0.191500	0.755800
C3111	C311	0.593300	0.295000	0.754800
C3121	C312	0.577400	0.335900	0.771800
C3131	C313	0.538800	0.320300	0.811400
C3141	C314	0.520700	0.264700	0.830600
C3151	C315	0.539800	0.219500	0.814400
C3161	C316	0.576600	0.237800	0.774800
C3171	C317	0.515800	0.364800	0.830400
C3181	C318	0.516100	0.154000	0.837800
C3191	C319	0.627200	0.315200	0.711600
C3201	C320	0.166200	0.206200	0.567600
C3211	C321	0.143900	0.166900	0.604200
C3221	C322	0.113800	0.180100	0.635600
C3231	C323	0.102700	0.236700	0.628600
C3241	C324	0.126400	0.279400	0.591200
C3251	C325	0.208300	0.872300	0.915400
C3261	C326	0.205200	0.892200	0.877600
C3271	C327	0.153100	0.882100	0.871800
C3281	C328	0.104100	0.851100	0.903800
C3291	C329	0.109400	0.832400	0.941200
C3301	C330	0.089100	0.138000	0.676000
C3311	C331	0.129300	0.118000	0.696000
C3321	C332	0.109200	0.075200	0.733600
C3331	C333	0.048300	0.056900	0.751000
C3341	C334	0.008600	0.076800	0.730400
C3351	C335	0.029500	0.116800	0.692400
C3361	C336	0.193200	0.141200	0.677600
C3371	C337	0.025000	0.017000	0.794000
C3381	C338	0.989300	0.141000	0.670000
C3391	C339	0.150300	0.052700	0.755800
C3401	C340	0.151900	0.950200	0.754800
C3411	C341	0.150800	0.892300	0.771800
C3421	C342	0.149800	0.868300	0.811400
C3431	C343	0.148700	0.904700	0.830600
C3441	C344	0.145800	0.966100	0.814400
C3451	C345	0.148600	0.987400	0.774800
C3461	C346	0.153800	0.804800	0.830400
C3471	C347	0.146100	0.008200	0.837800
C3481	C348	0.161200	0.973200	0.711600
C3491	C349	0.773800	0.233800	0.932400
C3501	C350	0.771100	0.248100	0.895800
C3511	C351	0.815700	0.249400	0.864400
C3521	C352	0.865300	0.231300	0.871400
C3531	C353	0.870600	0.217600	0.908800
C3541	C354	0.787700	0.623700	0.584600
C3551	C355	0.769800	0.582800	0.622400
C3561	C356	0.753900	0.524900	0.628200
C3571	C357	0.754900	0.507900	0.596200
C3581	C358	0.773600	0.550600	0.558800
C3591	C359	0.814000	0.265100	0.824000
C3601	C360	0.814000	0.325300	0.804000
C3611	C361	0.808800	0.342800	0.766400
C3621	C362	0.807900	0.299300	0.749000
C3631	C363	0.807200	0.239000	0.769600
C3641	C364	0.809200	0.221900	0.807600
C3651	C365	0.818800	0.370800	0.822400
C3661	C366	0.811000	0.319000	0.706000
C3671	C367	0.811000	0.159300	0.830000
C3681	C368	0.808500	0.406100	0.744200
C3691	C369	0.705000	0.406700	0.745200
C3701	C370	0.664100	0.422600	0.728200
C3711	C371	0.679700	0.461200	0.688600
C3721	C372	0.735300	0.479300	0.669400
C3731	C373	0.780500	0.460200	0.685600
C3741	C374	0.762200	0.423400	0.725200
C3751	C375	0.635200	0.484200	0.669600
C3761	C376	0.846000	0.483900	0.662200
C3771	C377	0.684800	0.372800	0.788400
C3781	C378	0.793800	0.833800	0.932400
C3791	C379	0.833100	0.856100	0.895800
C3801	C380	0.819900	0.886200	0.864400
C3811	C381	0.763300	0.897300	0.871400
C3821	C382	0.720600	0.873600	0.908800
C3831	C383	0.127700	0.791700	0.584600
C3841	C384	0.107800	0.794800	0.622400
C3851	C385	0.117900	0.846900	0.628200
C3861	C386	0.148900	0.895900	0.596200
C3871	C387	0.167600	0.890600	0.558800
C3881	C388	0.862000	0.910900	0.824000
C3891	C389	0.882000	0.870700	0.804000
C3901	C390	0.924800	0.890800	0.766400
C3911	C391	0.943100	0.951700	0.749000
C3921	C392	0.923200	0.991400	0.769600
C3931	C393	0.883200	0.970500	0.807600
C3941	C394	0.858800	0.806800	0.822400
C3951	C395	0.983000	0.975000	0.706000
C3961	C396	0.859000	0.010700	0.830000
C3971	C397	0.947300	0.849700	0.744200
C3981	C398	0.049800	0.848100	0.745200
C3991	C399	0.107700	0.849200	0.728200
C4001	C400	0.131700	0.850200	0.688600
C4011	C401	0.095300	0.851300	0.669400
C4021	C402	0.033900	0.854200	0.685600
C4031	C403	0.012600	0.851400	0.725200
C4041	C404	0.195200	0.846200	0.669600
C4051	C405	0.991800	0.853900	0.662200
C4061	C406	0.026800	0.838800	0.788400
C4071	C407	0.333800	0.273800	0.432400
C4081	C408	0.356100	0.271100	0.395800
C4091	C409	0.386200	0.315700	0.364400
C4101	C410	0.397300	0.365300	0.371400
C4111	C411	0.373600	0.370600	0.408800
C4121	C412	0.291700	0.287700	0.084600
C4131	C413	0.294800	0.269800	0.122400
C4141	C414	0.346900	0.253900	0.128200
C4151	C415	0.395900	0.254900	0.096200
C4161	C416	0.390600	0.273600	0.058800
C4171	C417	0.410900	0.314000	0.324000
C4181	C418	0.370700	0.314000	0.304000
C4191	C419	0.390800	0.308800	0.266400
C4201	C420	0.451700	0.307900	0.249000
C4211	C421	0.491400	0.307200	0.269600
C4221	C422	0.470500	0.309200	0.307600
C4231	C423	0.306800	0.318800	0.322400
C4241	C424	0.475000	0.311000	0.206000
C4251	C425	0.510700	0.311000	0.330000
C4261	C426	0.349700	0.308500	0.244200
C4271	C427	0.348100	0.205000	0.245200
C4281	C428	0.349200	0.164100	0.228200
C4291	C429	0.350200	0.179700	0.188600
C4301	C430	0.351300	0.235300	0.169400
C4311	C431	0.354200	0.280500	0.185600
C4321	C432	0.351400	0.262200	0.225200
C4331	C433	0.346200	0.135200	0.169600
C4341	C434	0.353900	0.346000	0.162200
C4351	C435	0.338800	0.184800	0.288400
C4361	C436	0.733800	0.293800	0.432400
C4371	C437	0.748100	0.333100	0.395800
C4381	C438	0.749400	0.319900	0.364400
C4391	C439	0.731300	0.263300	0.371400
C4401	C440	0.717600	0.220600	0.408800
C4411	C441	0.123700	0.627700	0.084600
C4421	C442	0.082800	0.607800	0.122400
C4431	C443	0.024900	0.617900	0.128200
C4441	C444	0.007900	0.648900	0.096200
C4451	C445	0.050600	0.667600	0.058800
C4461	C446	0.765100	0.362000	0.324000
C4471	C447	0.825300	0.382000	0.304000
C4481	C448	0.842800	0.424800	0.266400
C4491	C449	0.799300	0.443100	0.249000
C4501	C450	0.739000	0.423200	0.269600
C4511	C451	0.721900	0.383200	0.307600
C4521	C452	0.870800	0.358800	0.322400
C4531	C453	0.819000	0.483000	0.206000
C4541	C454	0.659300	0.359000	0.330000
C4551	C455	0.906100	0.447300	0.244200
C4561	C456	0.906700	0.549800	0.245200
C4571	C457	0.922600	0.607700	0.228200
C4581	C458	0.961200	0.631700	0.188600
C4591	C459	0.979300	0.595300	0.169400
C4601	C460	0.960200	0.533900	0.185600
C4611	C461	0.923400	0.512600	0.225200
C4621	C462	0.984200	0.695200	0.169600
C4631	C463	0.983900	0.491800	0.162200
C4641	C464	0.872800	0.526800	0.288400
C4651	C465	0.444850	0.694850	0.750000
C4661	C466	0.650000	0.900000	0.750000
C4671	C467	0.305150	0.555150	0.750000
C4681	C468	0.100000	0.350000	0.750000
C4691	C469	0.194850	0.805150	0.250000
C4701	C470	0.400000	0.600000	0.250000
C4711	C471	0.055150	0.944850	0.250000
C4721	C472	0.850000	0.150000	0.250000
C4731	C473	0.555150	0.305150	0.250000
C4741	C474	0.350000	0.100000	0.250000
C4751	C475	0.694850	0.444850	0.250000
C4761	C476	0.900000	0.650000	0.250000
C4771	C477	0.805150	0.194850	0.750000
C4781	C478	0.600000	0.400000	0.750000
C4791	C479	0.944850	0.055150	0.750000
C4801	C480	0.150000	0.850000	0.750000
N11	N1	0.237500	0.717600	0.939000
N21	N2	0.659900	0.109300	0.554000
N31	N3	0.323500	0.343400	0.939000
N41	N4	0.286100	0.336700	0.554000
N51	N5	0.217600	0.823500	0.439000
N61	N6	0.609300	0.786100	0.054000
N71	N7	0.843400	0.737500	0.439000
N81	N8	0.836700	0.159900	0.054000
N91	N9	0.176500	0.782400	0.061000
N101	N10	0.213900	0.390700	0.446000
N111	N11	0.262500	0.156600	0.061000
N121	N12	0.840100	0.163300	0.446000
N131	N13	0.656600	0.676500	0.561000
N141	N14	0.663300	0.713900	0.946000
N151	N15	0.282400	0.762500	0.561000
N161	N16	0.890700	0.340100	0.946000
N171	N17	0.762500	0.282400	0.061000
N181	N18	0.340100	0.890700	0.446000
N191	N19	0.676500	0.656600	0.061000
N201	N20	0.713900	0.663300	0.446000
N211	N21	0.782400	0.176500	0.561000
N221	N22	0.390700	0.213900	0.946000
N231	N23	0.156600	0.262500	0.561000
N241	N24	0.163300	0.840100	0.946000
N251	N25	0.823500	0.217600	0.939000
N261	N26	0.786100	0.609300	0.554000
N271	N27	0.737500	0.843400	0.939000
N281	N28	0.159900	0.836700	0.554000
N291	N29	0.343400	0.323500	0.439000
N301	N30	0.336700	0.286100	0.054000
N311	N31	0.717600	0.237500	0.439000
N321	N32	0.109300	0.659900	0.054000
P11	P1	0.450300	0.834600	0.915000
F11	F1	0.471500	0.781100	0.903400
F21	F2	0.395500	0.796200	0.947000
F31	F3	0.429100	0.888100	0.926600
F41	F4	0.505000	0.872900	0.883200
F51	F5	0.417400	0.848500	0.885400
F61	F6	0.483100	0.820600	0.944800
P21	P2	0.134700	0.250400	0.915000
F71	F7	0.125100	0.315500	0.903400
F81	F8	0.157500	0.256800	0.947000
F91	F9	0.144300	0.185300	0.926600
F101	F10	0.111800	0.243900	0.883200
F111	F11	0.197200	0.266100	0.885400
F121	F12	0.072100	0.234600	0.944800
P31	P3	0.334600	0.634700	0.415000
F131	F13	0.281100	0.625100	0.403400
F141	F14	0.296200	0.657500	0.447000
F151	F15	0.388100	0.644300	0.426600
F161	F16	0.372900	0.611800	0.383200
F171	F17	0.348500	0.697200	0.385400
F181	F18	0.320600	0.572100	0.444800
P41	P4	0.750400	0.950300	0.415000
F191	F19	0.815500	0.971500	0.403400
F201	F20	0.756800	0.895500	0.447000
F211	F21	0.685300	0.929100	0.426600
F221	F22	0.743900	0.005000	0.383200
F231	F23	0.766100	0.917400	0.385400
F241	F24	0.734600	0.983100	0.444800
P51	P5	0.365300	0.665400	0.085000
F251	F25	0.374900	0.718900	0.096600
F261	F26	0.342500	0.703800	0.053000
F271	F27	0.355700	0.611900	0.073400
F281	F28	0.388200	0.627100	0.116800
F291	F29	0.302800	0.651500	0.114600
F301	F30	0.427900	0.679400	0.055200
P61	P6	0.049700	0.249600	0.085000
F311	F31	0.028500	0.184500	0.096600
F321	F32	0.104500	0.243200	0.053000
F331	F33	0.070900	0.314700	0.073400
F341	F34	0.995000	0.256100	0.116800
F351	F35	0.082600	0.233900	0.114600
F361	F36	0.016900	0.265400	0.055200
P71	P7	0.749600	0.865300	0.585000
F371	F37	0.684500	0.874900	0.596600
F381	F38	0.743200	0.842500	0.553000
F391	F39	0.814700	0.855700	0.573400
F401	F40	0.756100	0.888200	0.616800
F411	F41	0.733900	0.802800	0.614600
F421	F42	0.765400	0.927900	0.555200
P81	P8	0.165400	0.549700	0.585000
F431	F43	0.218900	0.528500	0.596600
F441	F44	0.203800	0.604500	0.553000
F451	F45	0.111900	0.570900	0.573400
F461	F46	0.127100	0.495000	0.616800
F471	F47	0.151500	0.582600	0.614600
F481	F48	0.179400	0.516900	0.555200
P91	P9	0.549700	0.165400	0.085000
F491	F49	0.528500	0.218900	0.096600
F501	F50	0.604500	0.203800	0.053000
F511	F51	0.570900	0.111900	0.073400
F521	F52	0.495000	0.127100	0.116800
F531	F53	0.582600	0.151500	0.114600
F541	F54	0.516900	0.179400	0.055200
P101	P10	0.865300	0.749600	0.085000
F551	F55	0.874900	0.684500	0.096600
F561	F56	0.842500	0.743200	0.053000
F571	F57	0.855700	0.814700	0.073400
F581	F58	0.888200	0.756100	0.116800
F591	F59	0.802800	0.733900	0.114600
F601	F60	0.927900	0.765400	0.055200
P111	P11	0.665400	0.365300	0.585000
F611	F61	0.718900	0.374900	0.596600
F621	F62	0.703800	0.342500	0.553000
F631	F63	0.611900	0.355700	0.573400
F641	F64	0.627100	0.388200	0.616800
F651	F65	0.651500	0.302800	0.614600
F661	F66	0.679400	0.427900	0.555200
P121	P12	0.249600	0.049700	0.585000
F671	F67	0.184500	0.028500	0.596600
F681	F68	0.243200	0.104500	0.553000
F691	F69	0.314700	0.070900	0.573400
F701	F70	0.256100	0.995000	0.616800
F711	F71	0.233900	0.082600	0.614600
F721	F72	0.265400	0.016900	0.555200
P131	P13	0.634700	0.334600	0.915000
F731	F73	0.625100	0.281100	0.903400
F741	F74	0.657500	0.296200	0.947000
F751	F75	0.644300	0.388100	0.926600
F761	F76	0.611800	0.372900	0.883200
F771	F77	0.697200	0.348500	0.885400
F781	F78	0.572100	0.320600	0.944800
P141	P14	0.950300	0.750400	0.915000
F791	F79	0.971500	0.815500	0.903400
F801	F80	0.895500	0.756800	0.947000
F811	F81	0.929100	0.685300	0.926600
F821	F82	0.005000	0.743900	0.883200
F831	F83	0.917400	0.766100	0.885400
F841	F84	0.983100	0.734600	0.944800
P151	P15	0.250400	0.134700	0.415000
F851	F85	0.315500	0.125100	0.403400
F861	F86	0.256800	0.157500	0.447000
F871	F87	0.185300	0.144300	0.426600
F881	F88	0.243900	0.111800	0.383200
F891	F89	0.266100	0.197200	0.385400
F901	F90	0.234600	0.072100	0.444800
P161	P16	0.834600	0.450300	0.415000
F911	F91	0.781100	0.471500	0.403400
F921	F92	0.796200	0.395500	0.447000
F931	F93	0.888100	0.429100	0.426600
F941	F94	0.872900	0.505000	0.383200
F951	F95	0.848500	0.417400	0.385400
F961	F96	0.820600	0.483100	0.444800
