data_QEGHEP_freeONLY_PM
_symmetry_space_group_name_H-M	'P1'
_cell_length_a	24.684000
_cell_length_b	15.202000
_cell_length_c	25.368000
_cell_angle_alpha	90.000000
_cell_angle_beta	97.780000
_cell_angle_gamma	90.000000
_symmetry_Int_Tables_number 1

loop_
_symmetry_equiv_pos_as_xyz
'x,y,z'

loop_
_atom_site_label
_atom_site_type_symbol
_atom_site_fract_x
_atom_site_fract_y
_atom_site_fract_z
Fe11	Fe1	0.153000	0.173190	0.152000
Ni11	Ni1	0.228900	0.415050	0.279640
N11	N1	0.109770	0.053300	0.058560
N21	N2	0.061210	0.306600	0.119990
N31	N3	0.227480	0.251800	0.077160
N41	N4	0.196330	0.300500	0.240990
N51	N5	0.078010	0.094100	0.225080
N61	N6	0.238490	0.031800	0.184260
N71	N7	0.297280	0.140100	0.017310
H11	H1	0.316500	0.131500	0.990100
N81	N8	0.186950	0.162800	0.978110
H21	H2	0.166800	0.159200	0.005100
N91	N9	0.253700	0.349500	0.351500
H31	H3	0.277600	0.384700	0.371400
N101	N10	0.198000	0.484200	0.209000
H41	H4	0.173400	0.449400	0.189600
N111	N11	0.157830	0.430700	0.311900
H51	H5	0.135900	0.387600	0.297000
N121	N12	0.299360	0.404100	0.244170
H61	H6	0.323200	0.445800	0.257600
C11	C1	0.180420	0.251600	0.207860
C21	C2	0.124810	0.099200	0.094070
C31	C3	0.107070	0.120100	0.197320
C41	C4	0.096010	0.256700	0.131750
C51	C5	0.199120	0.225600	0.106720
C61	C6	0.207420	0.087500	0.172520
C71	C7	0.213800	0.077500	0.972900
H71	H7	0.187900	0.030700	0.974300
H81	H8	0.227700	0.074200	0.939400
C81	C8	0.257200	0.065900	0.018200
H91	H9	0.242800	0.064900	0.051500
H101	H10	0.276100	0.011500	0.014600
C91	C9	0.148700	0.193500	0.930670
H111	H11	0.169500	0.195100	0.901400
H121	H12	0.120100	0.151000	0.922300
C101	C10	0.338160	0.147600	0.065390
H131	H13	0.359100	0.094300	0.070000
H141	H14	0.318400	0.153500	0.095300
C111	C11	0.167100	0.565800	0.221100
H151	H15	0.156400	0.595000	0.187800
H161	H16	0.191700	0.603400	0.243400
C121	C12	0.249800	0.498400	0.178300
H171	H17	0.269900	0.549900	0.191200
H181	H18	0.236600	0.506000	0.141200
C131	C13	0.280200	0.425100	0.184440
H191	H19	0.259900	0.375600	0.168700
H201	H20	0.312000	0.432100	0.166800
C141	C14	0.324400	0.323600	0.254300
H211	H21	0.357500	0.321600	0.238300
H221	H22	0.300000	0.281000	0.236000
C151	C15	0.284700	0.292300	0.333400
H231	H23	0.259500	0.264200	0.306400
H241	H24	0.291300	0.250800	0.362100
C161	C16	0.207300	0.335100	0.377000
H251	H25	0.218900	0.331800	0.414600
H261	H26	0.189100	0.281000	0.366100
C171	C17	0.173800	0.402200	0.370600
H271	H27	0.140800	0.386200	0.384300
H281	H28	0.188800	0.452200	0.390500
C181	C18	0.128900	0.500600	0.299700
H291	H29	0.145500	0.545600	0.323000
H301	H30	0.092900	0.490800	0.309000
N131	N13	0.022000	0.201500	0.301670
H311	H31	0.994900	0.208900	0.321700
C191	C19	0.023600	0.278900	0.269600
H321	H32	0.056700	0.279800	0.253500
H331	H33	0.023200	0.329500	0.292100
N141	N14	0.024440	0.003000	0.306940
H341	H34	0.996600	0.998300	0.326300
C201	C20	0.020700	0.925800	0.276300
H351	H35	0.012700	0.877000	0.298000
H361	H36	0.056200	0.915800	0.266100
C211	C21	0.074200	0.033300	0.347500
H371	H37	0.106100	0.028800	0.329900
H381	H38	0.078400	0.991800	0.376300
C221	C22	0.073500	0.188800	0.338300
H391	H39	0.079400	0.240200	0.360200
H401	H40	0.103500	0.184300	0.317900
N151	N15	0.073010	0.117200	0.369570
C231	C23	0.032800	0.116600	0.409010
H411	H41	0.998200	0.098300	0.390400
H421	H42	0.028800	0.176900	0.419100
C241	C24	0.047400	0.072200	0.457700
O11	O1	0.099600	0.074800	0.479000
O21	O2	0.056600	0.991600	0.458200
N161	N16	0.125530	0.279100	0.935550
C251	C25	0.090700	0.283400	0.977800
H431	H43	0.111600	0.265800	0.010800
H441	H44	0.081400	0.344300	0.981200
C261	C26	0.041000	0.231700	0.967700
O31	O3	0.013700	0.245500	0.917900
N171	N17	0.120620	0.537400	0.241400
C271	C27	0.077000	0.489200	0.209300
C281	C28	0.044600	0.487800	0.152700
O41	O4	0.035900	0.581300	0.153500
N181	N18	0.334920	0.302900	0.312600
C291	C29	0.366200	0.384600	0.322300
C301	C30	0.108600	0.797200	0.160500
C311	C31	0.411900	0.380600	0.370400
O51	O5	0.462580	0.417500	0.396900
Fe21	Fe2	0.653000	0.673190	0.152000
Ni21	Ni2	0.728900	0.915050	0.279640
N191	N19	0.609770	0.553300	0.058560
N201	N20	0.561210	0.806600	0.119990
N211	N21	0.727480	0.751800	0.077160
N221	N22	0.696330	0.800500	0.240990
N231	N23	0.578010	0.594100	0.225080
N241	N24	0.738490	0.531800	0.184260
N251	N25	0.797280	0.640100	0.017310
H451	H45	0.816500	0.631500	0.990100
N261	N26	0.686950	0.662800	0.978110
H461	H46	0.666800	0.659200	0.005100
N271	N27	0.753700	0.849500	0.351500
H471	H47	0.777600	0.884700	0.371400
N281	N28	0.698000	0.984200	0.209000
H481	H48	0.673400	0.949400	0.189600
N291	N29	0.657830	0.930700	0.311900
H491	H49	0.635900	0.887600	0.297000
N301	N30	0.799360	0.904100	0.244170
H501	H50	0.823200	0.945800	0.257600
C321	C32	0.680420	0.751600	0.207860
C331	C33	0.624810	0.599200	0.094070
C341	C34	0.607070	0.620100	0.197320
C351	C35	0.596010	0.756700	0.131750
C361	C36	0.699120	0.725600	0.106720
C371	C37	0.707420	0.587500	0.172520
C381	C38	0.713800	0.577500	0.972900
H511	H51	0.687900	0.530700	0.974300
H521	H52	0.727700	0.574200	0.939400
C391	C39	0.757200	0.565900	0.018200
H531	H53	0.742800	0.564900	0.051500
H541	H54	0.776100	0.511500	0.014600
C401	C40	0.648700	0.693500	0.930670
H551	H55	0.669500	0.695100	0.901400
H561	H56	0.620100	0.651000	0.922300
C411	C41	0.838160	0.647600	0.065390
H571	H57	0.859100	0.594300	0.070000
H581	H58	0.818400	0.653500	0.095300
C421	C42	0.667100	0.065800	0.221100
H591	H59	0.656400	0.095000	0.187800
H601	H60	0.691700	0.103400	0.243400
C431	C43	0.749800	0.998400	0.178300
H611	H61	0.769900	0.049900	0.191200
H621	H62	0.736600	0.006000	0.141200
C441	C44	0.780200	0.925100	0.184440
H631	H63	0.759900	0.875600	0.168700
H641	H64	0.812000	0.932100	0.166800
C451	C45	0.824400	0.823600	0.254300
H651	H65	0.857500	0.821600	0.238300
H661	H66	0.800000	0.781000	0.236000
C461	C46	0.784700	0.792300	0.333400
H671	H67	0.759500	0.764200	0.306400
H681	H68	0.791300	0.750800	0.362100
C471	C47	0.707300	0.835100	0.377000
H691	H69	0.718900	0.831800	0.414600
H701	H70	0.689100	0.781000	0.366100
C481	C48	0.673800	0.902200	0.370600
H711	H71	0.640800	0.886200	0.384300
H721	H72	0.688800	0.952200	0.390500
C491	C49	0.628900	0.000600	0.299700
H731	H73	0.645500	0.045600	0.323000
H741	H74	0.592900	0.990800	0.309000
N311	N31	0.522000	0.701500	0.301670
H751	H75	0.494900	0.708900	0.321700
C501	C50	0.523600	0.778900	0.269600
H761	H76	0.556700	0.779800	0.253500
H771	H77	0.523200	0.829500	0.292100
N321	N32	0.524440	0.503000	0.306940
H781	H78	0.496600	0.498300	0.326300
C511	C51	0.520700	0.425800	0.276300
H791	H79	0.512700	0.377000	0.298000
H801	H80	0.556200	0.415800	0.266100
C521	C52	0.574200	0.533300	0.347500
H811	H81	0.606100	0.528800	0.329900
H821	H82	0.578400	0.491800	0.376300
C531	C53	0.573500	0.688800	0.338300
H831	H83	0.579400	0.740200	0.360200
H841	H84	0.603500	0.684300	0.317900
N331	N33	0.573010	0.617200	0.369570
C541	C54	0.532800	0.616600	0.409010
H851	H85	0.498200	0.598300	0.390400
H861	H86	0.528800	0.676900	0.419100
C551	C55	0.547400	0.572200	0.457700
O61	O6	0.599600	0.574800	0.479000
O71	O7	0.556600	0.491600	0.458200
N341	N34	0.625530	0.779100	0.935550
C561	C56	0.590700	0.783400	0.977800
H871	H87	0.611600	0.765800	0.010800
H881	H88	0.581400	0.844300	0.981200
C571	C57	0.541000	0.731700	0.967700
O81	O8	0.513700	0.745500	0.917900
N351	N35	0.620620	0.037400	0.241400
C581	C58	0.577000	0.989200	0.209300
C591	C59	0.544600	0.987800	0.152700
O91	O9	0.535900	0.081300	0.153500
N361	N36	0.834920	0.802900	0.312600
C601	C60	0.866200	0.884600	0.322300
C611	C61	0.608600	0.297200	0.160500
C621	C62	0.911900	0.880600	0.370400
O101	O10	0.962580	0.917500	0.396900
Fe31	Fe3	0.847000	0.173190	0.348000
Ni31	Ni3	0.771100	0.415050	0.220360
N371	N37	0.890230	0.053300	0.441440
N381	N38	0.938790	0.306600	0.380010
N391	N39	0.772520	0.251800	0.422840
N401	N40	0.803670	0.300500	0.259010
N411	N41	0.921990	0.094100	0.274920
N421	N42	0.761510	0.031800	0.315740
N431	N43	0.702720	0.140100	0.482690
H891	H89	0.683500	0.131500	0.509900
N441	N44	0.813050	0.162800	0.521890
H901	H90	0.833200	0.159200	0.494900
N451	N45	0.746300	0.349500	0.148500
H911	H91	0.722400	0.384700	0.128600
N461	N46	0.802000	0.484200	0.291000
H921	H92	0.826600	0.449400	0.310400
N471	N47	0.842170	0.430700	0.188100
H931	H93	0.864100	0.387600	0.203000
N481	N48	0.700640	0.404100	0.255830
H941	H94	0.676800	0.445800	0.242400
C631	C63	0.819580	0.251600	0.292140
C641	C64	0.875190	0.099200	0.405930
C651	C65	0.892930	0.120100	0.302680
C661	C66	0.903990	0.256700	0.368250
C671	C67	0.800880	0.225600	0.393280
C681	C68	0.792580	0.087500	0.327480
C691	C69	0.786200	0.077500	0.527100
H951	H95	0.812100	0.030700	0.525700
H961	H96	0.772300	0.074200	0.560600
C701	C70	0.742800	0.065900	0.481800
H971	H97	0.757200	0.064900	0.448500
H981	H98	0.723900	0.011500	0.485400
C711	C71	0.851300	0.193500	0.569330
H991	H99	0.830500	0.195100	0.598600
H1001	H100	0.879900	0.151000	0.577700
C721	C72	0.661840	0.147600	0.434610
H1011	H101	0.640900	0.094300	0.430000
H1021	H102	0.681600	0.153500	0.404700
C731	C73	0.832900	0.565800	0.278900
H1031	H103	0.843600	0.595000	0.312200
H1041	H104	0.808300	0.603400	0.256600
C741	C74	0.750200	0.498400	0.321700
H1051	H105	0.730100	0.549900	0.308800
H1061	H106	0.763400	0.506000	0.358800
C751	C75	0.719800	0.425100	0.315560
H1071	H107	0.740100	0.375600	0.331300
H1081	H108	0.688000	0.432100	0.333200
C761	C76	0.675600	0.323600	0.245700
H1091	H109	0.642500	0.321600	0.261700
H1101	H110	0.700000	0.281000	0.264000
C771	C77	0.715300	0.292300	0.166600
H1111	H111	0.740500	0.264200	0.193600
H1121	H112	0.708700	0.250800	0.137900
C781	C78	0.792700	0.335100	0.123000
H1131	H113	0.781100	0.331800	0.085400
H1141	H114	0.810900	0.281000	0.133900
C791	C79	0.826200	0.402200	0.129400
H1151	H115	0.859200	0.386200	0.115700
H1161	H116	0.811200	0.452200	0.109500
C801	C80	0.871100	0.500600	0.200300
H1171	H117	0.854500	0.545600	0.177000
H1181	H118	0.907100	0.490800	0.191000
N491	N49	0.978000	0.201500	0.198330
H1191	H119	0.005100	0.208900	0.178300
C811	C81	0.976400	0.278900	0.230400
H1201	H120	0.943300	0.279800	0.246500
H1211	H121	0.976800	0.329500	0.207900
N501	N50	0.975560	0.003000	0.193060
H1221	H122	0.003400	0.998300	0.173700
C821	C82	0.979300	0.925800	0.223700
H1231	H123	0.987300	0.877000	0.202000
H1241	H124	0.943800	0.915800	0.233900
C831	C83	0.925800	0.033300	0.152500
H1251	H125	0.893900	0.028800	0.170100
H1261	H126	0.921600	0.991800	0.123700
C841	C84	0.926500	0.188800	0.161700
H1271	H127	0.920600	0.240200	0.139800
H1281	H128	0.896500	0.184300	0.182100
N511	N51	0.926990	0.117200	0.130430
C851	C85	0.967200	0.116600	0.090990
H1291	H129	0.001800	0.098300	0.109600
H1301	H130	0.971200	0.176900	0.080900
C861	C86	0.952600	0.072200	0.042300
O111	O11	0.900400	0.074800	0.021000
O121	O12	0.943400	0.991600	0.041800
N521	N52	0.874470	0.279100	0.564450
C871	C87	0.909300	0.283400	0.522200
H1311	H131	0.888400	0.265800	0.489200
H1321	H132	0.918600	0.344300	0.518800
C881	C88	0.959000	0.231700	0.532300
O131	O13	0.986300	0.245500	0.582100
N531	N53	0.879380	0.537400	0.258600
C891	C89	0.923000	0.489200	0.290700
C901	C90	0.955400	0.487800	0.347300
O141	O14	0.964100	0.581300	0.346500
N541	N54	0.665080	0.302900	0.187400
C911	C91	0.633800	0.384600	0.177700
C921	C92	0.891400	0.797200	0.339500
C931	C93	0.588100	0.380600	0.129600
O151	O15	0.537420	0.417500	0.103100
Fe41	Fe4	0.347000	0.673190	0.348000
Ni41	Ni4	0.271100	0.915050	0.220360
N551	N55	0.390230	0.553300	0.441440
N561	N56	0.438790	0.806600	0.380010
N571	N57	0.272520	0.751800	0.422840
N581	N58	0.303670	0.800500	0.259010
N591	N59	0.421990	0.594100	0.274920
N601	N60	0.261510	0.531800	0.315740
N611	N61	0.202720	0.640100	0.482690
H1331	H133	0.183500	0.631500	0.509900
N621	N62	0.313050	0.662800	0.521890
H1341	H134	0.333200	0.659200	0.494900
N631	N63	0.246300	0.849500	0.148500
H1351	H135	0.222400	0.884700	0.128600
N641	N64	0.302000	0.984200	0.291000
H1361	H136	0.326600	0.949400	0.310400
N651	N65	0.342170	0.930700	0.188100
H1371	H137	0.364100	0.887600	0.203000
N661	N66	0.200640	0.904100	0.255830
H1381	H138	0.176800	0.945800	0.242400
C941	C94	0.319580	0.751600	0.292140
C951	C95	0.375190	0.599200	0.405930
C961	C96	0.392930	0.620100	0.302680
C971	C97	0.403990	0.756700	0.368250
C981	C98	0.300880	0.725600	0.393280
C991	C99	0.292580	0.587500	0.327480
C1001	C100	0.286200	0.577500	0.527100
H1391	H139	0.312100	0.530700	0.525700
H1401	H140	0.272300	0.574200	0.560600
C1011	C101	0.242800	0.565900	0.481800
H1411	H141	0.257200	0.564900	0.448500
H1421	H142	0.223900	0.511500	0.485400
C1021	C102	0.351300	0.693500	0.569330
H1431	H143	0.330500	0.695100	0.598600
H1441	H144	0.379900	0.651000	0.577700
C1031	C103	0.161840	0.647600	0.434610
H1451	H145	0.140900	0.594300	0.430000
H1461	H146	0.181600	0.653500	0.404700
C1041	C104	0.332900	0.065800	0.278900
H1471	H147	0.343600	0.095000	0.312200
H1481	H148	0.308300	0.103400	0.256600
C1051	C105	0.250200	0.998400	0.321700
H1491	H149	0.230100	0.049900	0.308800
H1501	H150	0.263400	0.006000	0.358800
C1061	C106	0.219800	0.925100	0.315560
H1511	H151	0.240100	0.875600	0.331300
H1521	H152	0.188000	0.932100	0.333200
C1071	C107	0.175600	0.823600	0.245700
H1531	H153	0.142500	0.821600	0.261700
H1541	H154	0.200000	0.781000	0.264000
C1081	C108	0.215300	0.792300	0.166600
H1551	H155	0.240500	0.764200	0.193600
H1561	H156	0.208700	0.750800	0.137900
C1091	C109	0.292700	0.835100	0.123000
H1571	H157	0.281100	0.831800	0.085400
H1581	H158	0.310900	0.781000	0.133900
C1101	C110	0.326200	0.902200	0.129400
H1591	H159	0.359200	0.886200	0.115700
H1601	H160	0.311200	0.952200	0.109500
C1111	C111	0.371100	0.000600	0.200300
H1611	H161	0.354500	0.045600	0.177000
H1621	H162	0.407100	0.990800	0.191000
N671	N67	0.478000	0.701500	0.198330
H1631	H163	0.505100	0.708900	0.178300
C1121	C112	0.476400	0.778900	0.230400
H1641	H164	0.443300	0.779800	0.246500
H1651	H165	0.476800	0.829500	0.207900
N681	N68	0.475560	0.503000	0.193060
H1661	H166	0.503400	0.498300	0.173700
C1131	C113	0.479300	0.425800	0.223700
H1671	H167	0.487300	0.377000	0.202000
H1681	H168	0.443800	0.415800	0.233900
C1141	C114	0.425800	0.533300	0.152500
H1691	H169	0.393900	0.528800	0.170100
H1701	H170	0.421600	0.491800	0.123700
C1151	C115	0.426500	0.688800	0.161700
H1711	H171	0.420600	0.740200	0.139800
H1721	H172	0.396500	0.684300	0.182100
N691	N69	0.426990	0.617200	0.130430
C1161	C116	0.467200	0.616600	0.090990
H1731	H173	0.501800	0.598300	0.109600
H1741	H174	0.471200	0.676900	0.080900
C1171	C117	0.452600	0.572200	0.042300
O161	O16	0.400400	0.574800	0.021000
O171	O17	0.443400	0.491600	0.041800
N701	N70	0.374470	0.779100	0.564450
C1181	C118	0.409300	0.783400	0.522200
H1751	H175	0.388400	0.765800	0.489200
H1761	H176	0.418600	0.844300	0.518800
C1191	C119	0.459000	0.731700	0.532300
O181	O18	0.486300	0.745500	0.582100
N711	N71	0.379380	0.037400	0.258600
C1201	C120	0.423000	0.989200	0.290700
C1211	C121	0.455400	0.987800	0.347300
O191	O19	0.464100	0.081300	0.346500
N721	N72	0.165080	0.802900	0.187400
C1221	C122	0.133800	0.884600	0.177700
C1231	C123	0.391400	0.297200	0.339500
C1241	C124	0.088100	0.880600	0.129600
O201	O20	0.037420	0.917500	0.103100
Fe51	Fe5	0.847000	0.826810	0.848000
Ni51	Ni5	0.771100	0.584950	0.720360
N731	N73	0.890230	0.946700	0.941440
N741	N74	0.938790	0.693400	0.880010
N751	N75	0.772520	0.748200	0.922840
N761	N76	0.803670	0.699500	0.759010
N771	N77	0.921990	0.905900	0.774920
N781	N78	0.761510	0.968200	0.815740
N791	N79	0.702720	0.859900	0.982690
H1771	H177	0.683500	0.868500	0.009900
N801	N80	0.813050	0.837200	0.021890
H1781	H178	0.833200	0.840800	0.994900
N811	N81	0.746300	0.650500	0.648500
H1791	H179	0.722400	0.615300	0.628600
N821	N82	0.802000	0.515800	0.791000
H1801	H180	0.826600	0.550600	0.810400
N831	N83	0.842170	0.569300	0.688100
H1811	H181	0.864100	0.612400	0.703000
N841	N84	0.700640	0.595900	0.755830
H1821	H182	0.676800	0.554200	0.742400
C1251	C125	0.819580	0.748400	0.792140
C1261	C126	0.875190	0.900800	0.905930
C1271	C127	0.892930	0.879900	0.802680
C1281	C128	0.903990	0.743300	0.868250
C1291	C129	0.800880	0.774400	0.893280
C1301	C130	0.792580	0.912500	0.827480
C1311	C131	0.786200	0.922500	0.027100
H1831	H183	0.812100	0.969300	0.025700
H1841	H184	0.772300	0.925800	0.060600
C1321	C132	0.742800	0.934100	0.981800
H1851	H185	0.757200	0.935100	0.948500
H1861	H186	0.723900	0.988500	0.985400
C1331	C133	0.851300	0.806500	0.069330
H1871	H187	0.830500	0.804900	0.098600
H1881	H188	0.879900	0.849000	0.077700
C1341	C134	0.661840	0.852400	0.934610
H1891	H189	0.640900	0.905700	0.930000
H1901	H190	0.681600	0.846500	0.904700
C1351	C135	0.832900	0.434200	0.778900
H1911	H191	0.843600	0.405000	0.812200
H1921	H192	0.808300	0.396600	0.756600
C1361	C136	0.750200	0.501600	0.821700
H1931	H193	0.730100	0.450100	0.808800
H1941	H194	0.763400	0.494000	0.858800
C1371	C137	0.719800	0.574900	0.815560
H1951	H195	0.740100	0.624400	0.831300
H1961	H196	0.688000	0.567900	0.833200
C1381	C138	0.675600	0.676400	0.745700
H1971	H197	0.642500	0.678400	0.761700
H1981	H198	0.700000	0.719000	0.764000
C1391	C139	0.715300	0.707700	0.666600
H1991	H199	0.740500	0.735800	0.693600
H2001	H200	0.708700	0.749200	0.637900
C1401	C140	0.792700	0.664900	0.623000
H2011	H201	0.781100	0.668200	0.585400
H2021	H202	0.810900	0.719000	0.633900
C1411	C141	0.826200	0.597800	0.629400
H2031	H203	0.859200	0.613800	0.615700
H2041	H204	0.811200	0.547800	0.609500
C1421	C142	0.871100	0.499400	0.700300
H2051	H205	0.854500	0.454400	0.677000
H2061	H206	0.907100	0.509200	0.691000
N851	N85	0.978000	0.798500	0.698330
H2071	H207	0.005100	0.791100	0.678300
C1431	C143	0.976400	0.721100	0.730400
H2081	H208	0.943300	0.720200	0.746500
H2091	H209	0.976800	0.670500	0.707900
N861	N86	0.975560	0.997000	0.693060
H2101	H210	0.003400	0.001700	0.673700
C1441	C144	0.979300	0.074200	0.723700
H2111	H211	0.987300	0.123000	0.702000
H2121	H212	0.943800	0.084200	0.733900
C1451	C145	0.925800	0.966700	0.652500
H2131	H213	0.893900	0.971200	0.670100
H2141	H214	0.921600	0.008200	0.623700
C1461	C146	0.926500	0.811200	0.661700
H2151	H215	0.920600	0.759800	0.639800
H2161	H216	0.896500	0.815700	0.682100
N871	N87	0.926990	0.882800	0.630430
C1471	C147	0.967200	0.883400	0.590990
H2171	H217	0.001800	0.901700	0.609600
H2181	H218	0.971200	0.823100	0.580900
C1481	C148	0.952600	0.927800	0.542300
O211	O21	0.900400	0.925200	0.521000
O221	O22	0.943400	0.008400	0.541800
N881	N88	0.874470	0.720900	0.064450
C1491	C149	0.909300	0.716600	0.022200
H2191	H219	0.888400	0.734200	0.989200
H2201	H220	0.918600	0.655700	0.018800
C1501	C150	0.959000	0.768300	0.032300
O231	O23	0.986300	0.754500	0.082100
N891	N89	0.879380	0.462600	0.758600
C1511	C151	0.923000	0.510800	0.790700
C1521	C152	0.955400	0.512200	0.847300
O241	O24	0.964100	0.418700	0.846500
N901	N90	0.665080	0.697100	0.687400
C1531	C153	0.633800	0.615400	0.677700
C1541	C154	0.891400	0.202800	0.839500
C1551	C155	0.588100	0.619400	0.629600
O251	O25	0.537420	0.582500	0.603100
Fe61	Fe6	0.347000	0.326810	0.848000
Ni61	Ni6	0.271100	0.084950	0.720360
N911	N91	0.390230	0.446700	0.941440
N921	N92	0.438790	0.193400	0.880010
N931	N93	0.272520	0.248200	0.922840
N941	N94	0.303670	0.199500	0.759010
N951	N95	0.421990	0.405900	0.774920
N961	N96	0.261510	0.468200	0.815740
N971	N97	0.202720	0.359900	0.982690
H2211	H221	0.183500	0.368500	0.009900
N981	N98	0.313050	0.337200	0.021890
H2221	H222	0.333200	0.340800	0.994900
N991	N99	0.246300	0.150500	0.648500
H2231	H223	0.222400	0.115300	0.628600
N1001	N100	0.302000	0.015800	0.791000
H2241	H224	0.326600	0.050600	0.810400
N1011	N101	0.342170	0.069300	0.688100
H2251	H225	0.364100	0.112400	0.703000
N1021	N102	0.200640	0.095900	0.755830
H2261	H226	0.176800	0.054200	0.742400
C1561	C156	0.319580	0.248400	0.792140
C1571	C157	0.375190	0.400800	0.905930
C1581	C158	0.392930	0.379900	0.802680
C1591	C159	0.403990	0.243300	0.868250
C1601	C160	0.300880	0.274400	0.893280
C1611	C161	0.292580	0.412500	0.827480
C1621	C162	0.286200	0.422500	0.027100
H2271	H227	0.312100	0.469300	0.025700
H2281	H228	0.272300	0.425800	0.060600
C1631	C163	0.242800	0.434100	0.981800
H2291	H229	0.257200	0.435100	0.948500
H2301	H230	0.223900	0.488500	0.985400
C1641	C164	0.351300	0.306500	0.069330
H2311	H231	0.330500	0.304900	0.098600
H2321	H232	0.379900	0.349000	0.077700
C1651	C165	0.161840	0.352400	0.934610
H2331	H233	0.140900	0.405700	0.930000
H2341	H234	0.181600	0.346500	0.904700
C1661	C166	0.332900	0.934200	0.778900
H2351	H235	0.343600	0.905000	0.812200
H2361	H236	0.308300	0.896600	0.756600
C1671	C167	0.250200	0.001600	0.821700
H2371	H237	0.230100	0.950100	0.808800
H2381	H238	0.263400	0.994000	0.858800
C1681	C168	0.219800	0.074900	0.815560
H2391	H239	0.240100	0.124400	0.831300
H2401	H240	0.188000	0.067900	0.833200
C1691	C169	0.175600	0.176400	0.745700
H2411	H241	0.142500	0.178400	0.761700
H2421	H242	0.200000	0.219000	0.764000
C1701	C170	0.215300	0.207700	0.666600
H2431	H243	0.240500	0.235800	0.693600
H2441	H244	0.208700	0.249200	0.637900
C1711	C171	0.292700	0.164900	0.623000
H2451	H245	0.281100	0.168200	0.585400
H2461	H246	0.310900	0.219000	0.633900
C1721	C172	0.326200	0.097800	0.629400
H2471	H247	0.359200	0.113800	0.615700
H2481	H248	0.311200	0.047800	0.609500
C1731	C173	0.371100	0.999400	0.700300
H2491	H249	0.354500	0.954400	0.677000
H2501	H250	0.407100	0.009200	0.691000
N1031	N103	0.478000	0.298500	0.698330
H2511	H251	0.505100	0.291100	0.678300
C1741	C174	0.476400	0.221100	0.730400
H2521	H252	0.443300	0.220200	0.746500
H2531	H253	0.476800	0.170500	0.707900
N1041	N104	0.475560	0.497000	0.693060
H2541	H254	0.503400	0.501700	0.673700
C1751	C175	0.479300	0.574200	0.723700
H2551	H255	0.487300	0.623000	0.702000
H2561	H256	0.443800	0.584200	0.733900
C1761	C176	0.425800	0.466700	0.652500
H2571	H257	0.393900	0.471200	0.670100
H2581	H258	0.421600	0.508200	0.623700
C1771	C177	0.426500	0.311200	0.661700
H2591	H259	0.420600	0.259800	0.639800
H2601	H260	0.396500	0.315700	0.682100
N1051	N105	0.426990	0.382800	0.630430
C1781	C178	0.467200	0.383400	0.590990
H2611	H261	0.501800	0.401700	0.609600
H2621	H262	0.471200	0.323100	0.580900
C1791	C179	0.452600	0.427800	0.542300
O261	O26	0.400400	0.425200	0.521000
O271	O27	0.443400	0.508400	0.541800
N1061	N106	0.374470	0.220900	0.064450
C1801	C180	0.409300	0.216600	0.022200
H2631	H263	0.388400	0.234200	0.989200
H2641	H264	0.418600	0.155700	0.018800
C1811	C181	0.459000	0.268300	0.032300
O281	O28	0.486300	0.254500	0.082100
N1071	N107	0.379380	0.962600	0.758600
C1821	C182	0.423000	0.010800	0.790700
C1831	C183	0.455400	0.012200	0.847300
O291	O29	0.464100	0.918700	0.846500
N1081	N108	0.165080	0.197100	0.687400
C1841	C184	0.133800	0.115400	0.677700
C1851	C185	0.391400	0.702800	0.839500
C1861	C186	0.088100	0.119400	0.629600
O301	O30	0.037420	0.082500	0.603100
Fe71	Fe7	0.153000	0.826810	0.652000
Ni71	Ni7	0.228900	0.584950	0.779640
N1091	N109	0.109770	0.946700	0.558560
N1101	N110	0.061210	0.693400	0.619990
N1111	N111	0.227480	0.748200	0.577160
N1121	N112	0.196330	0.699500	0.740990
N1131	N113	0.078010	0.905900	0.725080
N1141	N114	0.238490	0.968200	0.684260
N1151	N115	0.297280	0.859900	0.517310
H2651	H265	0.316500	0.868500	0.490100
N1161	N116	0.186950	0.837200	0.478110
H2661	H266	0.166800	0.840800	0.505100
N1171	N117	0.253700	0.650500	0.851500
H2671	H267	0.277600	0.615300	0.871400
N1181	N118	0.198000	0.515800	0.709000
H2681	H268	0.173400	0.550600	0.689600
N1191	N119	0.157830	0.569300	0.811900
H2691	H269	0.135900	0.612400	0.797000
N1201	N120	0.299360	0.595900	0.744170
H2701	H270	0.323200	0.554200	0.757600
C1871	C187	0.180420	0.748400	0.707860
C1881	C188	0.124810	0.900800	0.594070
C1891	C189	0.107070	0.879900	0.697320
C1901	C190	0.096010	0.743300	0.631750
C1911	C191	0.199120	0.774400	0.606720
C1921	C192	0.207420	0.912500	0.672520
C1931	C193	0.213800	0.922500	0.472900
H2711	H271	0.187900	0.969300	0.474300
H2721	H272	0.227700	0.925800	0.439400
C1941	C194	0.257200	0.934100	0.518200
H2731	H273	0.242800	0.935100	0.551500
H2741	H274	0.276100	0.988500	0.514600
C1951	C195	0.148700	0.806500	0.430670
H2751	H275	0.169500	0.804900	0.401400
H2761	H276	0.120100	0.849000	0.422300
C1961	C196	0.338160	0.852400	0.565390
H2771	H277	0.359100	0.905700	0.570000
H2781	H278	0.318400	0.846500	0.595300
C1971	C197	0.167100	0.434200	0.721100
H2791	H279	0.156400	0.405000	0.687800
H2801	H280	0.191700	0.396600	0.743400
C1981	C198	0.249800	0.501600	0.678300
H2811	H281	0.269900	0.450100	0.691200
H2821	H282	0.236600	0.494000	0.641200
C1991	C199	0.280200	0.574900	0.684440
H2831	H283	0.259900	0.624400	0.668700
H2841	H284	0.312000	0.567900	0.666800
C2001	C200	0.324400	0.676400	0.754300
H2851	H285	0.357500	0.678400	0.738300
H2861	H286	0.300000	0.719000	0.736000
C2011	C201	0.284700	0.707700	0.833400
H2871	H287	0.259500	0.735800	0.806400
H2881	H288	0.291300	0.749200	0.862100
C2021	C202	0.207300	0.664900	0.877000
H2891	H289	0.218900	0.668200	0.914600
H2901	H290	0.189100	0.719000	0.866100
C2031	C203	0.173800	0.597800	0.870600
H2911	H291	0.140800	0.613800	0.884300
H2921	H292	0.188800	0.547800	0.890500
C2041	C204	0.128900	0.499400	0.799700
H2931	H293	0.145500	0.454400	0.823000
H2941	H294	0.092900	0.509200	0.809000
N1211	N121	0.022000	0.798500	0.801670
H2951	H295	0.994900	0.791100	0.821700
C2051	C205	0.023600	0.721100	0.769600
H2961	H296	0.056700	0.720200	0.753500
H2971	H297	0.023200	0.670500	0.792100
N1221	N122	0.024440	0.997000	0.806940
H2981	H298	0.996600	0.001700	0.826300
C2061	C206	0.020700	0.074200	0.776300
H2991	H299	0.012700	0.123000	0.798000
H3001	H300	0.056200	0.084200	0.766100
C2071	C207	0.074200	0.966700	0.847500
H3011	H301	0.106100	0.971200	0.829900
H3021	H302	0.078400	0.008200	0.876300
C2081	C208	0.073500	0.811200	0.838300
H3031	H303	0.079400	0.759800	0.860200
H3041	H304	0.103500	0.815700	0.817900
N1231	N123	0.073010	0.882800	0.869570
C2091	C209	0.032800	0.883400	0.909010
H3051	H305	0.998200	0.901700	0.890400
H3061	H306	0.028800	0.823100	0.919100
C2101	C210	0.047400	0.927800	0.957700
O311	O31	0.099600	0.925200	0.979000
O321	O32	0.056600	0.008400	0.958200
N1241	N124	0.125530	0.720900	0.435550
C2111	C211	0.090700	0.716600	0.477800
H3071	H307	0.111600	0.734200	0.510800
H3081	H308	0.081400	0.655700	0.481200
C2121	C212	0.041000	0.768300	0.467700
O331	O33	0.013700	0.754500	0.417900
N1251	N125	0.120620	0.462600	0.741400
C2131	C213	0.077000	0.510800	0.709300
C2141	C214	0.044600	0.512200	0.652700
O341	O34	0.035900	0.418700	0.653500
N1261	N126	0.334920	0.697100	0.812600
C2151	C215	0.366200	0.615400	0.822300
C2161	C216	0.108600	0.202800	0.660500
C2171	C217	0.411900	0.619400	0.870400
O351	O35	0.462580	0.582500	0.896900
Fe81	Fe8	0.653000	0.326810	0.652000
Ni81	Ni8	0.728900	0.084950	0.779640
N1271	N127	0.609770	0.446700	0.558560
N1281	N128	0.561210	0.193400	0.619990
N1291	N129	0.727480	0.248200	0.577160
N1301	N130	0.696330	0.199500	0.740990
N1311	N131	0.578010	0.405900	0.725080
N1321	N132	0.738490	0.468200	0.684260
N1331	N133	0.797280	0.359900	0.517310
H3091	H309	0.816500	0.368500	0.490100
N1341	N134	0.686950	0.337200	0.478110
H3101	H310	0.666800	0.340800	0.505100
N1351	N135	0.753700	0.150500	0.851500
H3111	H311	0.777600	0.115300	0.871400
N1361	N136	0.698000	0.015800	0.709000
H3121	H312	0.673400	0.050600	0.689600
N1371	N137	0.657830	0.069300	0.811900
H3131	H313	0.635900	0.112400	0.797000
N1381	N138	0.799360	0.095900	0.744170
H3141	H314	0.823200	0.054200	0.757600
C2181	C218	0.680420	0.248400	0.707860
C2191	C219	0.624810	0.400800	0.594070
C2201	C220	0.607070	0.379900	0.697320
C2211	C221	0.596010	0.243300	0.631750
C2221	C222	0.699120	0.274400	0.606720
C2231	C223	0.707420	0.412500	0.672520
C2241	C224	0.713800	0.422500	0.472900
H3151	H315	0.687900	0.469300	0.474300
H3161	H316	0.727700	0.425800	0.439400
C2251	C225	0.757200	0.434100	0.518200
H3171	H317	0.742800	0.435100	0.551500
H3181	H318	0.776100	0.488500	0.514600
C2261	C226	0.648700	0.306500	0.430670
H3191	H319	0.669500	0.304900	0.401400
H3201	H320	0.620100	0.349000	0.422300
C2271	C227	0.838160	0.352400	0.565390
H3211	H321	0.859100	0.405700	0.570000
H3221	H322	0.818400	0.346500	0.595300
C2281	C228	0.667100	0.934200	0.721100
H3231	H323	0.656400	0.905000	0.687800
H3241	H324	0.691700	0.896600	0.743400
C2291	C229	0.749800	0.001600	0.678300
H3251	H325	0.769900	0.950100	0.691200
H3261	H326	0.736600	0.994000	0.641200
C2301	C230	0.780200	0.074900	0.684440
H3271	H327	0.759900	0.124400	0.668700
H3281	H328	0.812000	0.067900	0.666800
C2311	C231	0.824400	0.176400	0.754300
H3291	H329	0.857500	0.178400	0.738300
H3301	H330	0.800000	0.219000	0.736000
C2321	C232	0.784700	0.207700	0.833400
H3311	H331	0.759500	0.235800	0.806400
H3321	H332	0.791300	0.249200	0.862100
C2331	C233	0.707300	0.164900	0.877000
H3331	H333	0.718900	0.168200	0.914600
H3341	H334	0.689100	0.219000	0.866100
C2341	C234	0.673800	0.097800	0.870600
H3351	H335	0.640800	0.113800	0.884300
H3361	H336	0.688800	0.047800	0.890500
C2351	C235	0.628900	0.999400	0.799700
H3371	H337	0.645500	0.954400	0.823000
H3381	H338	0.592900	0.009200	0.809000
N1391	N139	0.522000	0.298500	0.801670
H3391	H339	0.494900	0.291100	0.821700
C2361	C236	0.523600	0.221100	0.769600
H3401	H340	0.556700	0.220200	0.753500
H3411	H341	0.523200	0.170500	0.792100
N1401	N140	0.524440	0.497000	0.806940
H3421	H342	0.496600	0.501700	0.826300
C2371	C237	0.520700	0.574200	0.776300
H3431	H343	0.512700	0.623000	0.798000
H3441	H344	0.556200	0.584200	0.766100
C2381	C238	0.574200	0.466700	0.847500
H3451	H345	0.606100	0.471200	0.829900
H3461	H346	0.578400	0.508200	0.876300
C2391	C239	0.573500	0.311200	0.838300
H3471	H347	0.579400	0.259800	0.860200
H3481	H348	0.603500	0.315700	0.817900
N1411	N141	0.573010	0.382800	0.869570
C2401	C240	0.532800	0.383400	0.909010
H3491	H349	0.498200	0.401700	0.890400
H3501	H350	0.528800	0.323100	0.919100
C2411	C241	0.547400	0.427800	0.957700
O361	O36	0.599600	0.425200	0.979000
O371	O37	0.556600	0.508400	0.958200
N1421	N142	0.625530	0.220900	0.435550
C2421	C242	0.590700	0.216600	0.477800
H3511	H351	0.611600	0.234200	0.510800
H3521	H352	0.581400	0.155700	0.481200
C2431	C243	0.541000	0.268300	0.467700
O381	O38	0.513700	0.254500	0.417900
N1431	N143	0.620620	0.962600	0.741400
C2441	C244	0.577000	0.010800	0.709300
C2451	C245	0.544600	0.012200	0.652700
O391	O39	0.535900	0.918700	0.653500
N1441	N144	0.834920	0.197100	0.812600
C2461	C246	0.866200	0.115400	0.822300
C2471	C247	0.608600	0.702800	0.660500
C2481	C248	0.911900	0.119400	0.870400
O401	O40	0.962580	0.082500	0.896900
Ni91	Ni9	0.250000	0.250000	0.000000
Ni101	Ni10	0.750000	0.250000	0.500000
Ni111	Ni11	0.750000	0.750000	0.000000
Ni121	Ni12	0.250000	0.750000	0.500000
Ni131	Ni13	0.000000	0.095330	0.250000
Ni141	Ni14	0.500000	0.595330	0.250000
Ni151	Ni15	0.000000	0.904670	0.750000
Ni161	Ni16	0.500000	0.404670	0.750000
