data_QEKLID01_freeONLY_PM
_symmetry_space_group_name_H-M	'P1'
_cell_length_a	7.873300
_cell_length_b	10.143200
_cell_length_c	13.528000
_cell_angle_alpha	68.355000
_cell_angle_beta	79.645000
_cell_angle_gamma	70.702000
_symmetry_Int_Tables_number 1

loop_
_symmetry_equiv_pos_as_xyz
'x,y,z'

loop_
_atom_site_label
_atom_site_type_symbol
_atom_site_fract_x
_atom_site_fract_y
_atom_site_fract_z
Cd11	Cd1	0.826670	0.655900	0.543360
Cd21	Cd2	0.173330	0.344100	0.456640
Cd31	Cd3	0.500000	0.000000	0.500000
H11	H1	0.853300	0.131800	0.556500
H21	H2	0.797500	0.222900	0.828700
H31	H3	0.830300	0.815700	0.841900
H41	H4	0.602300	0.166800	0.973200
H51	H5	0.550900	0.111900	0.156600
H61	H6	0.887300	0.703900	0.196900
H71	H7	0.935700	0.759300	0.012700
H81	H8	0.586900	0.222400	0.279400
H91	H9	0.723400	0.354400	0.137000
H101	H10	0.656500	0.523900	0.121900
H111	H11	0.845900	0.427700	0.165800
H121	H12	0.576200	0.465600	0.400700
H131	H13	0.752200	0.497200	0.334800
H141	H14	0.563000	0.594400	0.291000
H151	H15	0.146700	0.868200	0.443500
H161	H16	0.202500	0.777100	0.171300
H171	H17	0.169700	0.184300	0.158100
H181	H18	0.397700	0.833200	0.026800
H191	H19	0.449100	0.888100	0.843400
H201	H20	0.112700	0.296100	0.803100
H211	H21	0.064300	0.240700	0.987300
H221	H22	0.413100	0.777600	0.720600
H231	H23	0.276600	0.645600	0.863000
H241	H24	0.343500	0.476100	0.878100
H251	H25	0.154100	0.572300	0.834200
H261	H26	0.423800	0.534400	0.599300
H271	H27	0.247800	0.502800	0.665200
H281	H28	0.437000	0.405600	0.709000
C11	C1	0.839800	0.957700	0.690700
C21	C2	0.842300	0.102100	0.630500
C31	C3	0.827900	0.202500	0.682600
C41	C4	0.809000	0.155800	0.794400
C51	C5	0.806900	0.012300	0.855100
C61	C6	0.826200	0.913400	0.802300
C71	C7	0.776300	0.971100	0.974200
C81	C8	0.660500	0.073400	0.018100
C91	C9	0.628100	0.040800	0.128400
C101	C10	0.712600	0.901500	0.194500
C111	C11	0.829000	0.797100	0.151800
C121	C12	0.859800	0.830600	0.041000
C131	C13	0.843200	0.849800	0.638500
C141	C14	0.837900	0.354600	0.624100
C151	C15	0.684900	0.867700	0.314800
C161	C16	0.578000	0.282300	0.319300
C171	C17	0.724000	0.428000	0.165400
C181	C18	0.632000	0.496500	0.330300
C191	C19	0.160200	0.042300	0.309300
C201	C20	0.157700	0.897900	0.369500
C211	C21	0.172100	0.797500	0.317400
C221	C22	0.191000	0.844200	0.205600
C231	C23	0.193100	0.987700	0.144900
C241	C24	0.173800	0.086600	0.197700
C251	C25	0.223700	0.028900	0.025800
C261	C26	0.339500	0.926600	0.981900
C271	C27	0.371900	0.959200	0.871600
C281	C28	0.287400	0.098500	0.805500
C291	C29	0.171000	0.202900	0.848200
C301	C30	0.140200	0.169400	0.959000
C311	C31	0.156800	0.150200	0.361500
C321	C32	0.162100	0.645400	0.375900
C331	C33	0.315100	0.132300	0.685200
C341	C34	0.422000	0.717700	0.680700
C351	C35	0.276000	0.572000	0.834600
C361	C36	0.368000	0.503500	0.669700
N11	N1	0.640000	0.394500	0.276300
N21	N2	0.360000	0.605500	0.723700
O11	O1	0.883900	0.716100	0.686200
O21	O2	0.798500	0.900400	0.541700
O31	O3	0.881100	0.396700	0.521100
O41	O4	0.797800	0.446700	0.672300
O51	O5	0.580600	0.971400	0.345400
O61	O6	0.765700	0.743600	0.372000
O71	O7	0.501700	0.247500	0.416400
O81	O8	0.116100	0.283900	0.313800
O91	O9	0.201500	0.099600	0.458300
O101	O10	0.118900	0.603300	0.478900
O111	O11	0.202200	0.553300	0.327700
O121	O12	0.419400	0.028600	0.654600
O131	O13	0.234300	0.256400	0.628000
O141	O14	0.498300	0.752500	0.583600
