data_QEPZUH_charged_PM
_symmetry_space_group_name_H-M	'P1'
_cell_length_a	23.871300
_cell_length_b	23.871300
_cell_length_c	32.565000
_cell_angle_alpha	90.000000
_cell_angle_beta	90.000000
_cell_angle_gamma	120.000000
_symmetry_Int_Tables_number 1

loop_
_symmetry_equiv_pos_as_xyz
'x,y,z'

loop_
_atom_site_label
_atom_site_type_symbol
_atom_site_fract_x
_atom_site_fract_y
_atom_site_fract_z
Cu11	Cu1	0.778890	0.118380	0.682810
Cu21	Cu2	0.339490	0.221110	0.349480
Cu31	Cu3	0.881620	0.660510	0.016140
Cu41	Cu4	0.660510	0.881620	0.317190
Cu51	Cu5	0.118380	0.778890	0.650520
Cu61	Cu6	0.221110	0.339490	0.983860
Cu71	Cu7	0.600020	0.600020	0.666670
Cu81	Cu8	0.000000	0.399980	0.333330
Cu91	Cu9	0.399980	0.000000	0.000000
H11	H1	0.588300	0.403200	0.611300
H21	H2	0.591100	0.473100	0.663400
H31	H3	0.672500	0.624800	0.583200
H41	H4	0.669700	0.554900	0.531100
H51	H5	0.483900	0.397500	0.493700
H61	H6	0.537900	0.466300	0.508000
H71	H7	0.502300	0.410800	0.540300
H81	H8	0.561800	0.264400	0.429600
H91	H9	0.601100	0.243100	0.457800
H101	H10	0.637200	0.298800	0.425600
H111	H11	0.731500	0.467800	0.574100
H121	H12	0.768200	0.452300	0.540000
H131	H13	0.728200	0.400500	0.573600
H141	H14	0.647900	0.232900	0.585000
H151	H15	0.603700	0.235000	0.550200
H161	H16	0.640800	0.294300	0.579700
H171	H17	0.828800	0.224600	0.530400
H181	H18	0.881700	0.288800	0.509700
H191	H19	0.834400	0.229800	0.482400
H201	H20	0.729600	0.407300	0.444300
H211	H21	0.756700	0.375700	0.413900
H221	H22	0.804100	0.432500	0.442600
H231	H23	0.698500	0.134700	0.546000
H241	H24	0.708000	0.081300	0.602400
H251	H25	0.783600	0.245500	0.667300
H261	H26	0.774000	0.298900	0.610900
H271	H27	0.807400	0.250400	0.421200
H281	H28	0.880000	0.277700	0.367800
H291	H29	0.972200	0.461500	0.405800
H301	H30	0.899500	0.434200	0.459200
H311	H31	0.446900	0.351800	0.371600
H321	H32	0.380000	0.185100	0.431000
H331	H33	0.465500	0.232800	0.475700
H341	H34	0.532300	0.399400	0.416300
H351	H35	0.763900	0.053200	0.765000
H361	H36	0.826700	0.034800	0.809500
H371	H37	0.978600	0.136300	0.738500
H381	H38	0.915900	0.154900	0.694000
H391	H39	0.817100	0.681000	0.939700
H401	H40	0.851700	0.751600	0.882900
H411	H41	0.033000	0.850600	0.931700
H421	H42	0.998500	0.780100	0.988500
H431	H43	0.023600	0.765700	0.809900
H441	H44	0.943900	0.963300	0.894400
H451	H45	0.961900	0.924000	0.924900
H461	H46	0.894600	0.890100	0.902800
H471	H47	0.042100	0.226500	0.825800
H481	H48	0.878000	0.977700	0.767800
H491	H49	0.879100	0.925600	0.796600
H501	H50	0.928600	0.955200	0.760300
H511	H51	0.814900	0.411700	0.277970
H521	H52	0.882000	0.408900	0.330070
H531	H53	0.952300	0.327500	0.249870
H541	H54	0.885200	0.330300	0.197770
H551	H55	0.913600	0.516100	0.160370
H561	H56	0.928400	0.462100	0.174670
H571	H57	0.908500	0.497700	0.206970
H581	H58	0.702600	0.438200	0.096270
H591	H59	0.642000	0.398900	0.124470
H601	H60	0.661600	0.362800	0.092270
H611	H61	0.736300	0.268500	0.240770
H621	H62	0.684100	0.231800	0.206670
H631	H63	0.672300	0.271800	0.240270
H641	H64	0.585000	0.352100	0.251670
H651	H65	0.631300	0.396300	0.216870
H661	H66	0.653500	0.359200	0.246370
H671	H67	0.395800	0.171200	0.197070
H681	H68	0.407100	0.118300	0.176370
H691	H69	0.395400	0.165600	0.149070
H701	H70	0.677700	0.270400	0.110970
H711	H71	0.619000	0.243300	0.080570
H721	H72	0.628400	0.195900	0.109270
H731	H73	0.436200	0.301500	0.212670
H741	H74	0.373300	0.292000	0.269070
H751	H75	0.461900	0.216400	0.333970
H761	H76	0.524900	0.226000	0.277570
H771	H77	0.443000	0.192600	0.087870
H781	H78	0.397700	0.120000	0.034470
H791	H79	0.489300	0.027800	0.072470
H801	H80	0.534700	0.100500	0.125870
H811	H81	0.904900	0.553100	0.038270
H821	H82	0.805100	0.620000	0.097670
H831	H83	0.767300	0.534500	0.142370
H841	H84	0.867100	0.467700	0.082970
H851	H85	0.289300	0.236100	0.431670
H861	H86	0.208100	0.173300	0.476170
H871	H87	0.157700	0.021400	0.405170
H881	H88	0.239000	0.084100	0.360670
H891	H89	0.863900	0.182900	0.606370
H901	H90	0.899900	0.148300	0.549570
H911	H91	0.817600	0.967000	0.598370
H921	H92	0.781600	0.001500	0.655170
H931	H93	0.742100	0.976400	0.476570
H941	H94	0.019400	0.056100	0.561070
H951	H95	0.962100	0.038100	0.591570
H961	H96	0.995500	0.105400	0.569470
H971	H97	0.184400	0.957900	0.492470
H981	H98	0.099700	0.122000	0.434470
H991	H99	0.046500	0.120900	0.463270
H1001	H100	0.026600	0.071400	0.426970
H1011	H101	0.596800	0.185100	0.944630
H1021	H102	0.526900	0.118000	0.996730
H1031	H103	0.375200	0.047700	0.916530
H1041	H104	0.445100	0.114800	0.864430
H1051	H105	0.602500	0.086400	0.827030
H1061	H106	0.533700	0.071600	0.841330
H1071	H107	0.589200	0.091500	0.873630
H1081	H108	0.735600	0.297400	0.762930
H1091	H109	0.756900	0.358000	0.791130
H1101	H110	0.701200	0.338400	0.758930
H1111	H111	0.532200	0.263700	0.907430
H1121	H112	0.547700	0.315900	0.873330
H1131	H113	0.599500	0.327700	0.906930
H1141	H114	0.767100	0.415000	0.918330
H1151	H115	0.765000	0.368700	0.883530
H1161	H116	0.705700	0.346500	0.913030
H1171	H117	0.775400	0.604200	0.863730
H1181	H118	0.711200	0.592900	0.843030
H1191	H119	0.770200	0.604600	0.815730
H1201	H120	0.592700	0.322300	0.777630
H1211	H121	0.624300	0.381000	0.747230
H1221	H122	0.567500	0.371600	0.775930
H1231	H123	0.865300	0.563800	0.879330
H1241	H124	0.918700	0.626700	0.935730
H1251	H125	0.754500	0.538100	0.000630
H1261	H126	0.701100	0.475100	0.944230
H1271	H127	0.749600	0.557000	0.754530
H1281	H128	0.722300	0.602300	0.701130
H1291	H129	0.538500	0.510700	0.739130
H1301	H130	0.565800	0.465300	0.792530
H1311	H131	0.648200	0.095100	0.704930
H1321	H132	0.814900	0.194900	0.764330
H1331	H133	0.767200	0.232700	0.809030
H1341	H134	0.600600	0.132900	0.749630
H1351	H135	0.946800	0.710700	0.098330
H1361	H136	0.965200	0.791900	0.142830
H1371	H137	0.863700	0.842300	0.071830
H1381	H138	0.845100	0.761000	0.027330
H1391	H139	0.319000	0.136100	0.273030
H1401	H140	0.248400	0.100100	0.216230
H1411	H141	0.149400	0.182400	0.265030
H1421	H142	0.219900	0.218400	0.321830
H1431	H143	0.234300	0.257900	0.143230
H1441	H144	0.036700	0.980600	0.227730
H1451	H145	0.076000	0.037900	0.258230
H1461	H146	0.109900	0.004500	0.236130
H1471	H147	0.773500	0.815600	0.159130
H1481	H148	0.022300	0.900300	0.101130
H1491	H149	0.074400	0.953500	0.129930
H1501	H150	0.044800	0.973400	0.093630
H1511	H151	0.185100	0.596800	0.388700
H1521	H152	0.118000	0.526900	0.336600
H1531	H153	0.047700	0.375200	0.416800
H1541	H154	0.114800	0.445100	0.468900
H1551	H155	0.086400	0.602500	0.506300
H1561	H156	0.071600	0.533700	0.492000
H1571	H157	0.091500	0.589200	0.459700
H1581	H158	0.297400	0.735600	0.570400
H1591	H159	0.358000	0.756900	0.542200
H1601	H160	0.338400	0.701200	0.574400
H1611	H161	0.263700	0.532200	0.425900
H1621	H162	0.315900	0.547700	0.460000
H1631	H163	0.327700	0.599500	0.426400
H1641	H164	0.415000	0.767100	0.415000
H1651	H165	0.368700	0.765000	0.449800
H1661	H166	0.346500	0.705700	0.420300
H1671	H167	0.604200	0.775400	0.469600
H1681	H168	0.592900	0.711200	0.490300
H1691	H169	0.604600	0.770200	0.517600
H1701	H170	0.322300	0.592700	0.555700
H1711	H171	0.381000	0.624300	0.586100
H1721	H172	0.371600	0.567500	0.557400
H1731	H173	0.563800	0.865300	0.454000
H1741	H174	0.626700	0.918700	0.397600
H1751	H175	0.538100	0.754500	0.332700
H1761	H176	0.475100	0.701100	0.389100
H1771	H177	0.557000	0.749600	0.578800
H1781	H178	0.602300	0.722300	0.632200
H1791	H179	0.510700	0.538500	0.594200
H1801	H180	0.465300	0.565800	0.540800
H1811	H181	0.095100	0.648200	0.628400
H1821	H182	0.194900	0.814900	0.569000
H1831	H183	0.232700	0.767200	0.524300
H1841	H184	0.132900	0.600600	0.583700
H1851	H185	0.710700	0.946800	0.235000
H1861	H186	0.791900	0.965200	0.190500
H1871	H187	0.842300	0.863700	0.261500
H1881	H188	0.761000	0.845100	0.306000
H1891	H189	0.136100	0.319000	0.060300
H1901	H190	0.100100	0.248400	0.117100
H1911	H191	0.182400	0.149400	0.068300
H1921	H192	0.218400	0.219900	0.011500
H1931	H193	0.257900	0.234300	0.190100
H1941	H194	0.980600	0.036700	0.105600
H1951	H195	0.037900	0.076000	0.075100
H1961	H196	0.004500	0.109900	0.097200
H1971	H197	0.815600	0.773500	0.174200
H1981	H198	0.900300	0.022300	0.232200
H1991	H199	0.953500	0.074400	0.203400
H2001	H200	0.973400	0.044800	0.239700
H2011	H201	0.403200	0.588300	0.722030
H2021	H202	0.473100	0.591100	0.669930
H2031	H203	0.624800	0.672500	0.750130
H2041	H204	0.554900	0.669700	0.802230
H2051	H205	0.397500	0.483900	0.839630
H2061	H206	0.466300	0.537900	0.825330
H2071	H207	0.410800	0.502300	0.793030
H2081	H208	0.264400	0.561800	0.903730
H2091	H209	0.243100	0.601100	0.875530
H2101	H210	0.298800	0.637200	0.907730
H2111	H211	0.467800	0.731500	0.759230
H2121	H212	0.452300	0.768200	0.793330
H2131	H213	0.400500	0.728200	0.759730
H2141	H214	0.232900	0.647900	0.748330
H2151	H215	0.235000	0.603700	0.783130
H2161	H216	0.294300	0.640800	0.753630
H2171	H217	0.224600	0.828800	0.802930
H2181	H218	0.288800	0.881700	0.823630
H2191	H219	0.229800	0.834400	0.850930
H2201	H220	0.407300	0.729600	0.889030
H2211	H221	0.375700	0.756700	0.919430
H2221	H222	0.432500	0.804100	0.890730
H2231	H223	0.134700	0.698500	0.787330
H2241	H224	0.081300	0.708000	0.730930
H2251	H225	0.245500	0.783600	0.666030
H2261	H226	0.298900	0.774000	0.722430
H2271	H227	0.250400	0.807400	0.912130
H2281	H228	0.277700	0.880000	0.965530
H2291	H229	0.461500	0.972200	0.927530
H2301	H230	0.434200	0.899500	0.874130
H2311	H231	0.351800	0.446900	0.961730
H2321	H232	0.185100	0.380000	0.902330
H2331	H233	0.232800	0.465500	0.857630
H2341	H234	0.399400	0.532300	0.917030
H2351	H235	0.053200	0.763900	0.568330
H2361	H236	0.034800	0.826700	0.523830
H2371	H237	0.136300	0.978600	0.594830
H2381	H238	0.154900	0.915900	0.639330
H2391	H239	0.681000	0.817100	0.393630
H2401	H240	0.751600	0.851700	0.450430
H2411	H241	0.850600	0.033000	0.401630
H2421	H242	0.780100	0.998500	0.344830
H2431	H243	0.765700	0.023600	0.523430
H2441	H244	0.963300	0.943900	0.438930
H2451	H245	0.924000	0.961900	0.408430
H2461	H246	0.890100	0.894600	0.430530
H2471	H247	0.226500	0.042100	0.507530
H2481	H248	0.977700	0.878000	0.565530
H2491	H249	0.925600	0.879100	0.536730
H2501	H250	0.955200	0.928600	0.573030
H2511	H251	0.411700	0.814900	0.055370
H2521	H252	0.408900	0.882000	0.003270
H2531	H253	0.327500	0.952300	0.083470
H2541	H254	0.330300	0.885200	0.135570
H2551	H255	0.516100	0.913600	0.172970
H2561	H256	0.462100	0.928400	0.158670
H2571	H257	0.497700	0.908500	0.126370
H2581	H258	0.438200	0.702600	0.237070
H2591	H259	0.398900	0.642000	0.208870
H2601	H260	0.362800	0.661600	0.241070
H2611	H261	0.268500	0.736300	0.092570
H2621	H262	0.231800	0.684100	0.126670
H2631	H263	0.271800	0.672300	0.093070
H2641	H264	0.352100	0.585000	0.081670
H2651	H265	0.396300	0.631300	0.116470
H2661	H266	0.359200	0.653500	0.086970
H2671	H267	0.171200	0.395800	0.136270
H2681	H268	0.118300	0.407100	0.156970
H2691	H269	0.165600	0.395400	0.184270
H2701	H270	0.270400	0.677700	0.222370
H2711	H271	0.243300	0.619000	0.252770
H2721	H272	0.195900	0.628400	0.224070
H2731	H273	0.301500	0.436200	0.120670
H2741	H274	0.292000	0.373300	0.064270
H2751	H275	0.216400	0.461900	0.999370
H2761	H276	0.226000	0.524900	0.055770
H2771	H277	0.192600	0.443000	0.245470
H2781	H278	0.120000	0.397700	0.298870
H2791	H279	0.027800	0.489300	0.260870
H2801	H280	0.100500	0.534700	0.207470
H2811	H281	0.553100	0.904900	0.295070
H2821	H282	0.620000	0.805100	0.235670
H2831	H283	0.534500	0.767300	0.190970
H2841	H284	0.467700	0.867100	0.250370
H2851	H285	0.236100	0.289300	0.901670
H2861	H286	0.173300	0.208100	0.857170
H2871	H287	0.021400	0.157700	0.928170
H2881	H288	0.084100	0.239000	0.972670
H2891	H289	0.182900	0.863900	0.726970
H2901	H290	0.148300	0.899900	0.783770
H2911	H291	0.967000	0.817600	0.734970
H2921	H292	0.001500	0.781600	0.678170
H2931	H293	0.976400	0.742100	0.856770
H2941	H294	0.056100	0.019400	0.772270
H2951	H295	0.038100	0.962100	0.741770
H2961	H296	0.105400	0.995500	0.763870
H2971	H297	0.957900	0.184400	0.840870
H2981	H298	0.122000	0.099700	0.898870
H2991	H299	0.120900	0.046500	0.870070
H3001	H300	0.071400	0.026600	0.906370
C11	C1	0.604900	0.446900	0.605700
C21	C2	0.606600	0.489300	0.637240
C31	C3	0.655900	0.581100	0.588690
C41	C4	0.654200	0.538800	0.557150
C51	C5	0.628700	0.471700	0.565650
C61	C6	0.626000	0.427300	0.531290
C71	C7	0.572700	0.399200	0.506380
C81	C8	0.564100	0.351100	0.479800
C91	C9	0.608700	0.331200	0.478090
C101	C10	0.662000	0.359300	0.503000
C111	C11	0.670600	0.407400	0.529610
C121	C12	0.518700	0.420600	0.512800
C131	C13	0.601500	0.279100	0.444400
C141	C14	0.730100	0.434500	0.556800
C151	C15	0.706800	0.331900	0.503500
C161	C16	0.700900	0.289500	0.535800
C171	C17	0.742400	0.263000	0.537300
C181	C18	0.789900	0.278900	0.506400
C191	C19	0.795900	0.321300	0.474000
C201	C20	0.754300	0.347700	0.472500
C211	C21	0.642900	0.260200	0.565500
C221	C22	0.838400	0.253100	0.507300
C231	C23	0.761800	0.394900	0.440500
C241	C24	0.735400	0.222040	0.572940
C251	C25	0.715600	0.156970	0.570410
C261	C26	0.721300	0.125100	0.604100
C271	C27	0.766400	0.223200	0.642850
C281	C28	0.760800	0.255100	0.609160
C291	C29	0.846400	0.339580	0.445330
C301	C30	0.840600	0.292910	0.418050
C311	C31	0.884000	0.309200	0.386190
C321	C32	0.939000	0.418900	0.408880
C331	C33	0.895600	0.402590	0.440750
C341	C34	0.450660	0.327630	0.392680
C351	C35	0.410920	0.228560	0.427980
C361	C36	0.461710	0.256890	0.454570
C371	C37	0.506980	0.320580	0.450210
C381	C38	0.501450	0.355960	0.419260
C391	C39	0.807700	0.070150	0.759600
C401	C40	0.844900	0.059270	0.785920
C411	C41	0.908400	0.083830	0.778070
C421	C42	0.934800	0.119370	0.743920
C431	C43	0.897700	0.130350	0.717600
C441	C44	0.859700	0.714500	0.938120
C451	C45	0.880700	0.757200	0.903810
C461	C46	0.946000	0.808500	0.901420
C471	C47	0.990400	0.817100	0.933340
C481	C48	0.969400	0.774400	0.967640
C491	C49	0.971300	0.849700	0.863300
C501	C50	0.968400	0.903100	0.864800
C511	C51	0.939500	0.921800	0.899900
C521	C52	0.962400	0.081500	0.810400
C531	C53	0.954800	0.019600	0.810200
C541	C54	0.905200	0.964000	0.780800
C551	C55	0.842000	0.395100	0.272370
C561	C56	0.882700	0.393400	0.303910
C571	C57	0.925200	0.344100	0.255360
C581	C58	0.884600	0.345800	0.223820
C591	C59	0.843000	0.371300	0.232320
C601	C60	0.801300	0.374000	0.197960
C611	C61	0.826500	0.427300	0.173050
C621	C62	0.787000	0.435900	0.146470
C631	C63	0.722500	0.391300	0.144760
C641	C64	0.697300	0.338000	0.169670
C651	C65	0.736800	0.329400	0.196280
C661	C66	0.901900	0.481300	0.179470
C671	C67	0.677600	0.398500	0.111070
C681	C68	0.704400	0.269900	0.223470
C691	C69	0.625100	0.293200	0.170170
C701	C70	0.588600	0.299100	0.202470
C711	C71	0.520600	0.257600	0.203970
C721	C72	0.489000	0.210100	0.173070
C731	C73	0.525400	0.204100	0.140670
C741	C74	0.593400	0.245700	0.139170
C751	C75	0.617300	0.357100	0.232170
C761	C76	0.414700	0.161600	0.173970
C771	C77	0.633100	0.238200	0.107170
C781	C78	0.486640	0.264600	0.239610
C791	C79	0.441370	0.284400	0.237080
C801	C80	0.403800	0.278700	0.270770
C811	C81	0.456800	0.233600	0.309520
C821	C82	0.494300	0.239200	0.275830
C831	C83	0.493180	0.153600	0.112000
C841	C84	0.452310	0.159400	0.084720
C851	C85	0.425200	0.116000	0.052860
C861	C86	0.479900	0.061000	0.075550
C871	C87	0.506990	0.104400	0.107420
C881	C88	0.876970	0.549340	0.059350
C891	C89	0.817640	0.589080	0.094650
C901	C90	0.795180	0.538290	0.121240
C911	C91	0.813600	0.493020	0.116880
C921	C92	0.854510	0.498550	0.085930
C931	C93	0.262450	0.192300	0.426270
C941	C94	0.214370	0.155100	0.452590
C951	C95	0.175430	0.091600	0.444740
C961	C96	0.184570	0.065200	0.410590
C971	C97	0.232650	0.102300	0.384270
C981	C98	0.854800	0.140300	0.604790
C991	C99	0.876500	0.119300	0.570480
C1001	C100	0.862500	0.054000	0.568090
C1011	C101	0.826700	0.009600	0.600010
C1021	C102	0.805000	0.030600	0.634310
C1031	C103	0.878400	0.028700	0.529970
C1041	C104	0.934700	0.031600	0.531470
C1051	C105	0.982300	0.060500	0.566570
C1061	C106	0.119100	0.037600	0.477070
C1071	C107	0.064800	0.045200	0.476870
C1081	C108	0.058800	0.094800	0.447470
C1091	C109	0.553100	0.158000	0.939030
C1101	C110	0.510700	0.117300	0.970570
C1111	C111	0.418900	0.074800	0.922020
C1121	C112	0.461200	0.115400	0.890480
C1131	C113	0.528300	0.157000	0.898980
C1141	C114	0.572700	0.198700	0.864620
C1151	C115	0.600800	0.173500	0.839710
C1161	C116	0.648900	0.213000	0.813130
C1171	C117	0.668800	0.277500	0.811420
C1181	C118	0.640700	0.302700	0.836330
C1191	C119	0.592600	0.263200	0.862940
C1201	C120	0.579400	0.098100	0.846130
C1211	C121	0.720900	0.322400	0.777730
C1221	C122	0.565500	0.295600	0.890130
C1231	C123	0.668100	0.374900	0.836830
C1241	C124	0.710500	0.411400	0.869130
C1251	C125	0.737000	0.479400	0.870630
C1261	C126	0.721100	0.511000	0.839730
C1271	C127	0.678700	0.474600	0.807330
C1281	C128	0.652300	0.406600	0.805830
C1291	C129	0.739800	0.382700	0.898830
C1301	C130	0.746900	0.585300	0.840630
C1311	C131	0.605100	0.366900	0.773830
C1321	C132	0.777960	0.513360	0.906270
C1331	C133	0.843030	0.558630	0.903740
C1341	C134	0.874900	0.596200	0.937430
C1351	C135	0.776800	0.543200	0.976180
C1361	C136	0.744900	0.505700	0.942490
C1371	C137	0.660420	0.506820	0.778660
C1381	C138	0.707090	0.547690	0.751380
C1391	C139	0.690800	0.574800	0.719520
C1401	C140	0.581100	0.520100	0.742210
C1411	C141	0.597410	0.493010	0.774080
C1421	C142	0.672370	0.123030	0.726010
C1431	C143	0.771440	0.182360	0.761310
C1441	C144	0.743110	0.204820	0.787900
C1451	C145	0.679420	0.186400	0.783540
C1461	C146	0.644040	0.145490	0.752590
C1471	C147	0.929850	0.737550	0.092930
C1481	C148	0.940730	0.785630	0.119250
C1491	C149	0.916170	0.824570	0.111400
C1501	C150	0.880630	0.815430	0.077250
C1511	C151	0.869650	0.767350	0.050930
C1521	C152	0.285500	0.145200	0.271450
C1531	C153	0.242800	0.123500	0.237140
C1541	C154	0.191500	0.137500	0.234750
C1551	C155	0.182900	0.173300	0.266670
C1561	C156	0.225600	0.195000	0.300970
C1571	C157	0.150300	0.121600	0.196630
C1581	C158	0.096900	0.065300	0.198130
C1591	C159	0.078200	0.017700	0.233230
C1601	C160	0.918500	0.880900	0.143730
C1611	C161	0.980400	0.935200	0.143530
C1621	C162	0.036000	0.941200	0.114130
C1631	C163	0.158000	0.553100	0.394300
C1641	C164	0.117300	0.510700	0.362760
C1651	C165	0.074800	0.418900	0.411310
C1661	C166	0.115400	0.461200	0.442850
C1671	C167	0.157000	0.528300	0.434350
C1681	C168	0.198700	0.572700	0.468710
C1691	C169	0.173500	0.600800	0.493620
C1701	C170	0.213000	0.648900	0.520200
C1711	C171	0.277500	0.668800	0.521910
C1721	C172	0.302700	0.640700	0.497000
C1731	C173	0.263200	0.592600	0.470390
C1741	C174	0.098100	0.579400	0.487200
C1751	C175	0.322400	0.720900	0.555600
C1761	C176	0.295600	0.565500	0.443200
C1771	C177	0.374900	0.668100	0.496500
C1781	C178	0.411400	0.710500	0.464200
C1791	C179	0.479400	0.737000	0.462700
C1801	C180	0.511000	0.721100	0.493600
C1811	C181	0.474600	0.678700	0.526000
C1821	C182	0.406600	0.652300	0.527500
C1831	C183	0.382700	0.739800	0.434500
C1841	C184	0.585300	0.746900	0.492700
C1851	C185	0.366900	0.605100	0.559500
C1861	C186	0.513360	0.777960	0.427060
C1871	C187	0.558630	0.843030	0.429590
C1881	C188	0.596200	0.874900	0.395900
C1891	C189	0.543200	0.776800	0.357150
C1901	C190	0.505700	0.744900	0.390840
C1911	C191	0.506820	0.660420	0.554670
C1921	C192	0.547690	0.707090	0.581950
C1931	C193	0.574800	0.690800	0.613810
C1941	C194	0.520100	0.581100	0.591120
C1951	C195	0.493010	0.597410	0.559250
C1961	C196	0.123030	0.672370	0.607320
C1971	C197	0.182360	0.771440	0.572020
C1981	C198	0.204820	0.743110	0.545430
C1991	C199	0.186400	0.679420	0.549790
C2001	C200	0.145490	0.644040	0.580740
C2011	C201	0.737550	0.929850	0.240400
C2021	C202	0.785630	0.940730	0.214080
C2031	C203	0.824570	0.916170	0.221930
C2041	C204	0.815430	0.880630	0.256080
C2051	C205	0.767350	0.869650	0.282400
C2061	C206	0.145200	0.285500	0.061880
C2071	C207	0.123500	0.242800	0.096190
C2081	C208	0.137500	0.191500	0.098580
C2091	C209	0.173300	0.182900	0.066660
C2101	C210	0.195000	0.225600	0.032360
C2111	C211	0.121600	0.150300	0.136700
C2121	C212	0.065300	0.096900	0.135200
C2131	C213	0.017700	0.078200	0.100100
C2141	C214	0.880900	0.918500	0.189600
C2151	C215	0.935200	0.980400	0.189800
C2161	C216	0.941200	0.036000	0.219200
C2171	C217	0.446900	0.604900	0.727630
C2181	C218	0.489300	0.606600	0.696090
C2191	C219	0.581100	0.655900	0.744640
C2201	C220	0.538800	0.654200	0.776180
C2211	C221	0.471700	0.628700	0.767680
C2221	C222	0.427300	0.626000	0.802040
C2231	C223	0.399200	0.572700	0.826950
C2241	C224	0.351100	0.564100	0.853530
C2251	C225	0.331200	0.608700	0.855240
C2261	C226	0.359300	0.662000	0.830330
C2271	C227	0.407400	0.670600	0.803720
C2281	C228	0.420600	0.518700	0.820530
C2291	C229	0.279100	0.601500	0.888930
C2301	C230	0.434500	0.730100	0.776530
C2311	C231	0.331900	0.706800	0.829830
C2321	C232	0.289500	0.700900	0.797530
C2331	C233	0.263000	0.742400	0.796030
C2341	C234	0.278900	0.789900	0.826930
C2351	C235	0.321300	0.795900	0.859330
C2361	C236	0.347700	0.754300	0.860830
C2371	C237	0.260200	0.642900	0.767830
C2381	C238	0.253100	0.838400	0.826030
C2391	C239	0.394900	0.761800	0.892830
C2401	C240	0.222040	0.735400	0.760390
C2411	C241	0.156970	0.715600	0.762920
C2421	C242	0.125100	0.721300	0.729230
C2431	C243	0.223200	0.766400	0.690480
C2441	C244	0.255100	0.760800	0.724170
C2451	C245	0.339580	0.846400	0.888000
C2461	C246	0.292910	0.840600	0.915280
C2471	C247	0.309200	0.884000	0.947140
C2481	C248	0.418900	0.939000	0.924450
C2491	C249	0.402590	0.895600	0.892580
C2501	C250	0.327630	0.450660	0.940650
C2511	C251	0.228560	0.410920	0.905350
C2521	C252	0.256890	0.461710	0.878760
C2531	C253	0.320580	0.506980	0.883120
C2541	C254	0.355960	0.501450	0.914070
C2551	C255	0.070150	0.807700	0.573730
C2561	C256	0.059270	0.844900	0.547410
C2571	C257	0.083830	0.908400	0.555260
C2581	C258	0.119370	0.934800	0.589410
C2591	C259	0.130350	0.897700	0.615730
C2601	C260	0.714500	0.859700	0.395210
C2611	C261	0.757200	0.880700	0.429520
C2621	C262	0.808500	0.946000	0.431910
C2631	C263	0.817100	0.990400	0.399990
C2641	C264	0.774400	0.969400	0.365690
C2651	C265	0.849700	0.971300	0.470030
C2661	C266	0.903100	0.968400	0.468530
C2671	C267	0.921800	0.939500	0.433430
C2681	C268	0.081500	0.962400	0.522930
C2691	C269	0.019600	0.954800	0.523130
C2701	C270	0.964000	0.905200	0.552530
C2711	C271	0.395100	0.842000	0.060970
C2721	C272	0.393400	0.882700	0.029430
C2731	C273	0.344100	0.925200	0.077980
C2741	C274	0.345800	0.884600	0.109520
C2751	C275	0.371300	0.843000	0.101020
C2761	C276	0.374000	0.801300	0.135380
C2771	C277	0.427300	0.826500	0.160290
C2781	C278	0.435900	0.787000	0.186870
C2791	C279	0.391300	0.722500	0.188580
C2801	C280	0.338000	0.697300	0.163670
C2811	C281	0.329400	0.736800	0.137060
C2821	C282	0.481300	0.901900	0.153870
C2831	C283	0.398500	0.677600	0.222270
C2841	C284	0.269900	0.704400	0.109870
C2851	C285	0.293200	0.625100	0.163170
C2861	C286	0.299100	0.588600	0.130870
C2871	C287	0.257600	0.520600	0.129370
C2881	C288	0.210100	0.489000	0.160270
C2891	C289	0.204100	0.525400	0.192670
C2901	C290	0.245700	0.593400	0.194170
C2911	C291	0.357100	0.617300	0.101170
C2921	C292	0.161600	0.414700	0.159370
C2931	C293	0.238200	0.633100	0.226170
C2941	C294	0.264600	0.486640	0.093730
C2951	C295	0.284400	0.441370	0.096260
C2961	C296	0.278700	0.403800	0.062570
C2971	C297	0.233600	0.456800	0.023820
C2981	C298	0.239200	0.494300	0.057510
C2991	C299	0.153600	0.493180	0.221340
C3001	C300	0.159400	0.452310	0.248620
C3011	C301	0.116000	0.425200	0.280480
C3021	C302	0.061000	0.479900	0.257790
C3031	C303	0.104400	0.506990	0.225920
C3041	C304	0.549340	0.876970	0.273990
C3051	C305	0.589080	0.817640	0.238690
C3061	C306	0.538290	0.795180	0.212100
C3071	C307	0.493020	0.813600	0.216460
C3081	C308	0.498550	0.854510	0.247410
C3091	C309	0.192300	0.262450	0.907070
C3101	C310	0.155100	0.214370	0.880750
C3111	C311	0.091600	0.175430	0.888600
C3121	C312	0.065200	0.184570	0.922750
C3131	C313	0.102300	0.232650	0.949070
C3141	C314	0.140300	0.854800	0.728550
C3151	C315	0.119300	0.876500	0.762860
C3161	C316	0.054000	0.862500	0.765250
C3171	C317	0.009600	0.826700	0.733330
C3181	C318	0.030600	0.805000	0.699030
C3191	C319	0.028700	0.878400	0.803370
C3201	C320	0.031600	0.934700	0.801870
C3211	C321	0.060500	0.982300	0.766770
C3221	C322	0.037600	0.119100	0.856270
C3231	C323	0.045200	0.064800	0.856470
C3241	C324	0.094800	0.058800	0.885870
C3251	C325	0.000000	0.833000	0.833330
C3261	C326	0.000000	0.767300	0.833330
C3271	C327	0.000000	0.130300	0.833330
C3281	C328	0.000000	0.192000	0.833330
C3291	C329	0.000000	0.011500	0.833330
C3301	C330	0.000000	0.951000	0.833330
C3311	C331	0.833000	0.000000	0.500000
C3321	C332	0.767300	0.000000	0.500000
C3331	C333	0.130300	0.000000	0.500000
C3341	C334	0.192000	0.000000	0.500000
C3351	C335	0.011500	0.000000	0.500000
C3361	C336	0.951000	0.000000	0.500000
C3371	C337	0.167000	0.167000	0.166670
C3381	C338	0.232700	0.232700	0.166670
C3391	C339	0.869700	0.869700	0.166670
C3401	C340	0.808000	0.808000	0.166670
C3411	C341	0.988500	0.988500	0.166670
C3421	C342	0.049000	0.049000	0.166670
N11	N1	0.632100	0.556300	0.628740
N21	N2	0.746700	0.158200	0.640320
N31	N3	0.933100	0.372200	0.381600
N41	N4	0.405390	0.263930	0.397040
N51	N5	0.834100	0.105690	0.725440
N61	N6	0.904100	0.723100	0.970030
N71	N7	0.924200	0.367900	0.295410
N81	N8	0.411500	0.253300	0.306990
N91	N9	0.439100	0.066900	0.048270
N101	N10	0.858540	0.594610	0.063710
N111	N11	0.271590	0.165900	0.392110
N121	N12	0.819000	0.095900	0.636700
N131	N13	0.443700	0.075800	0.962070
N141	N14	0.841800	0.588500	0.973650
N151	N15	0.627800	0.560900	0.714930
N161	N16	0.736070	0.141460	0.730370
N171	N17	0.894310	0.728410	0.058770
N181	N18	0.276900	0.181000	0.303360
N191	N19	0.075800	0.443700	0.371260
N201	N20	0.588500	0.841800	0.359680
N211	N21	0.560900	0.627800	0.618400
N221	N22	0.141460	0.736070	0.602960
N231	N23	0.728410	0.894310	0.274560
N241	N24	0.181000	0.276900	0.029970
N251	N25	0.556300	0.632100	0.704590
N261	N26	0.158200	0.746700	0.693010
N271	N27	0.372200	0.933100	0.951730
N281	N28	0.263930	0.405390	0.936290
N291	N29	0.105690	0.834100	0.607890
N301	N30	0.723100	0.904100	0.363300
N311	N31	0.367900	0.924200	0.037930
N321	N32	0.253300	0.411500	0.026350
N331	N33	0.066900	0.439100	0.285070
N341	N34	0.594610	0.858540	0.269630
N351	N35	0.165900	0.271590	0.941230
N361	N36	0.095900	0.819000	0.696640
O11	O1	0.693000	0.021000	0.680100
O21	O2	0.867800	0.212600	0.682100
O31	O3	0.328000	0.307000	0.346770
O41	O4	0.344800	0.132200	0.348770
O51	O5	0.979000	0.672000	0.013430
O61	O6	0.787400	0.655200	0.015430
O71	O7	0.672000	0.979000	0.319900
O81	O8	0.655200	0.787400	0.317900
O91	O9	0.021000	0.693000	0.653230
O101	O10	0.212600	0.867800	0.651230
O111	O11	0.307000	0.328000	0.986570
O121	O12	0.132200	0.344800	0.984570
O131	O13	0.691600	0.691600	0.666670
O141	O14	0.000000	0.308400	0.333330
O151	O15	0.308400	0.000000	0.000000
