data_QESRAI_freeONLY_PM
_symmetry_space_group_name_H-M	'P1'
_cell_length_a	14.018900
_cell_length_b	13.479200
_cell_length_c	14.278700
_cell_angle_alpha	90.000000
_cell_angle_beta	90.466000
_cell_angle_gamma	90.000000
_symmetry_Int_Tables_number 1

loop_
_symmetry_equiv_pos_as_xyz
'x,y,z'

loop_
_atom_site_label
_atom_site_type_symbol
_atom_site_fract_x
_atom_site_fract_y
_atom_site_fract_z
Zn11	Zn1	0.121600	0.130300	0.734200
Zn21	Zn2	0.974100	0.730100	0.874200
P11	P1	0.146500	0.612800	0.773700
P21	P2	0.974800	0.253200	0.607200
O11	O1	0.058300	0.182900	0.623700
O21	O2	0.087000	0.994800	0.760100
O31	O3	0.249500	0.613300	0.811100
O41	O4	0.889000	0.221200	0.662500
O51	O5	0.008100	0.865000	0.664900
O61	O6	0.084300	0.649600	0.853100
O71	O7	0.948700	0.253800	0.504400
O81	O8	0.138800	0.680300	0.689300
O91	O9	0.003600	0.357900	0.635900
O101	O10	0.119900	0.506600	0.750500
Zn31	Zn3	0.621600	0.630300	0.734200
Zn41	Zn4	0.474100	0.230100	0.874200
P31	P3	0.646500	0.112800	0.773700
P41	P4	0.474800	0.753200	0.607200
O111	O11	0.558300	0.682900	0.623700
O121	O12	0.587000	0.494800	0.760100
O131	O13	0.749500	0.113300	0.811100
O141	O14	0.389000	0.721200	0.662500
O151	O15	0.508100	0.365000	0.664900
O161	O16	0.584300	0.149600	0.853100
O171	O17	0.448700	0.753800	0.504400
O181	O18	0.638800	0.180300	0.689300
O191	O19	0.503600	0.857900	0.635900
O201	O20	0.619900	0.006600	0.750500
Zn51	Zn5	0.878400	0.130300	0.765800
Zn61	Zn6	0.025900	0.730100	0.625800
P51	P5	0.853500	0.612800	0.726300
P61	P6	0.025200	0.253200	0.892800
O211	O21	0.941700	0.182900	0.876300
O221	O22	0.913000	0.994800	0.739900
O231	O23	0.750500	0.613300	0.688900
O241	O24	0.111000	0.221200	0.837500
O251	O25	0.991900	0.865000	0.835100
O261	O26	0.915700	0.649600	0.646900
O271	O27	0.051300	0.253800	0.995600
O281	O28	0.861200	0.680300	0.810700
O291	O29	0.996400	0.357900	0.864100
O301	O30	0.880100	0.506600	0.749500
Zn71	Zn7	0.378400	0.630300	0.765800
Zn81	Zn8	0.525900	0.230100	0.625800
P71	P7	0.353500	0.112800	0.726300
P81	P8	0.525200	0.753200	0.892800
O311	O31	0.441700	0.682900	0.876300
O321	O32	0.413000	0.494800	0.739900
O331	O33	0.250500	0.113300	0.688900
O341	O34	0.611000	0.721200	0.837500
O351	O35	0.491900	0.365000	0.835100
O361	O36	0.415700	0.149600	0.646900
O371	O37	0.551300	0.753800	0.995600
O381	O38	0.361200	0.180300	0.810700
O391	O39	0.496400	0.857900	0.864100
O401	O40	0.380100	0.006600	0.749500
Zn91	Zn9	0.878400	0.869700	0.265800
Zn101	Zn10	0.025900	0.269900	0.125800
P91	P9	0.853500	0.387200	0.226300
P101	P10	0.025200	0.746800	0.392800
O411	O41	0.941700	0.817100	0.376300
O421	O42	0.913000	0.005200	0.239900
O431	O43	0.750500	0.386700	0.188900
O441	O44	0.111000	0.778800	0.337500
O451	O45	0.991900	0.135000	0.335100
O461	O46	0.915700	0.350400	0.146900
O471	O47	0.051300	0.746200	0.495600
O481	O48	0.861200	0.319700	0.310700
O491	O49	0.996400	0.642100	0.364100
O501	O50	0.880100	0.493400	0.249500
Zn111	Zn11	0.378400	0.369700	0.265800
Zn121	Zn12	0.525900	0.769900	0.125800
P111	P11	0.353500	0.887200	0.226300
P121	P12	0.525200	0.246800	0.392800
O511	O51	0.441700	0.317100	0.376300
O521	O52	0.413000	0.505200	0.239900
O531	O53	0.250500	0.886700	0.188900
O541	O54	0.611000	0.278800	0.337500
O551	O55	0.491900	0.635000	0.335100
O561	O56	0.415700	0.850400	0.146900
O571	O57	0.551300	0.246200	0.495600
O581	O58	0.361200	0.819700	0.310700
O591	O59	0.496400	0.142100	0.364100
O601	O60	0.380100	0.993400	0.249500
Zn131	Zn13	0.121600	0.869700	0.234200
Zn141	Zn14	0.974100	0.269900	0.374200
P131	P13	0.146500	0.387200	0.273700
P141	P14	0.974800	0.746800	0.107200
O611	O61	0.058300	0.817100	0.123700
O621	O62	0.087000	0.005200	0.260100
O631	O63	0.249500	0.386700	0.311100
O641	O64	0.889000	0.778800	0.162500
O651	O65	0.008100	0.135000	0.164900
O661	O66	0.084300	0.350400	0.353100
O671	O67	0.948700	0.746200	0.004400
O681	O68	0.138800	0.319700	0.189300
O691	O69	0.003600	0.642100	0.135900
O701	O70	0.119900	0.493400	0.250500
Zn151	Zn15	0.621600	0.369700	0.234200
Zn161	Zn16	0.474100	0.769900	0.374200
P151	P15	0.646500	0.887200	0.273700
P161	P16	0.474800	0.246800	0.107200
O711	O71	0.558300	0.317100	0.123700
O721	O72	0.587000	0.505200	0.260100
O731	O73	0.749500	0.886700	0.311100
O741	O74	0.389000	0.278800	0.162500
O751	O75	0.508100	0.635000	0.164900
O761	O76	0.584300	0.850400	0.353100
O771	O77	0.448700	0.246200	0.004400
O781	O78	0.638800	0.819700	0.189300
O791	O79	0.503600	0.142100	0.135900
O801	O80	0.619900	0.993400	0.250500
Zn171	Zn17	0.000000	0.434100	0.750000
P171	P17	0.000000	0.930400	0.750000
Zn181	Zn18	0.500000	0.934100	0.750000
P181	P18	0.500000	0.430400	0.750000
Zn191	Zn19	0.000000	0.565900	0.250000
P191	P19	0.000000	0.069600	0.250000
Zn201	Zn20	0.500000	0.065900	0.250000
P201	P20	0.500000	0.569600	0.250000
