data_QETHUT_freeONLY_PM
_symmetry_space_group_name_H-M	'P1'
_cell_length_a	9.074000
_cell_length_b	9.230000
_cell_length_c	9.309000
_cell_angle_alpha	76.446000
_cell_angle_beta	87.343000
_cell_angle_gamma	89.388000
_symmetry_Int_Tables_number 1

loop_
_symmetry_equiv_pos_as_xyz
'x,y,z'

loop_
_atom_site_label
_atom_site_type_symbol
_atom_site_fract_x
_atom_site_fract_y
_atom_site_fract_z
P11	P1	0.187440	0.381850	0.902580
P21	P2	0.617550	0.371700	0.676340
P31	P3	0.646060	0.168190	0.145660
Al11	Al1	0.839340	0.374670	0.925860
Al21	Al2	0.434330	0.132200	0.911930
Al31	Al3	0.619030	0.390990	0.341890
F11	F1	0.394190	0.986390	0.083640
O11	O1	0.502630	0.254820	0.737200
O21	O2	0.652060	0.999140	0.187790
O31	O3	0.262060	0.232800	0.928730
O41	O4	0.533210	0.233260	0.033110
O51	O5	0.617900	0.223700	0.288750
O61	O6	0.752840	0.357300	0.769430
O71	O7	0.024640	0.361800	0.877300
O81	O8	0.675400	0.355100	0.522800
O91	O9	0.198000	0.452500	0.035650
O101	O10	0.799950	0.230400	0.080650
O111	O11	0.554450	0.528500	0.661900
O121	O12	0.250300	0.490100	0.763220
P41	P4	0.812560	0.618150	0.097420
P51	P5	0.382450	0.628300	0.323660
P61	P6	0.353940	0.831810	0.854340
Al41	Al4	0.160660	0.625330	0.074140
Al51	Al5	0.565670	0.867800	0.088070
Al61	Al6	0.380970	0.609010	0.658110
F21	F2	0.605810	0.013610	0.916360
O131	O13	0.497370	0.745180	0.262800
O141	O14	0.347940	0.000860	0.812210
O151	O15	0.737940	0.767200	0.071270
O161	O16	0.466790	0.766740	0.966890
O171	O17	0.382100	0.776300	0.711250
O181	O18	0.247160	0.642700	0.230570
O191	O19	0.975360	0.638200	0.122700
O201	O20	0.324600	0.644900	0.477200
O211	O21	0.802000	0.547500	0.964350
O221	O22	0.200050	0.769600	0.919350
O231	O23	0.445550	0.471500	0.338100
O241	O24	0.749700	0.509900	0.236780
