data_QINSUD_freeONLY_PM
_symmetry_space_group_name_H-M	'P1'
_cell_length_a	8.926000
_cell_length_b	12.767000
_cell_length_c	9.196000
_cell_angle_alpha	90.000000
_cell_angle_beta	90.000000
_cell_angle_gamma	90.000000
_symmetry_Int_Tables_number 1

loop_
_symmetry_equiv_pos_as_xyz
'x,y,z'

loop_
_atom_site_label
_atom_site_type_symbol
_atom_site_fract_x
_atom_site_fract_y
_atom_site_fract_z
O11	O1	0.482750	0.663300	0.419540
O21	O2	0.298500	0.458250	0.374820
O31	O3	0.134850	0.458490	0.192990
C11	C1	0.254850	0.482510	0.251120
H11	H1	0.319800	0.523400	0.196000
O41	O4	0.017250	0.336700	0.919540
O51	O5	0.201500	0.541750	0.874820
O61	O6	0.365150	0.541510	0.692990
C21	C2	0.245150	0.517490	0.751120
H21	H2	0.180200	0.476600	0.696000
O71	O7	0.517250	0.163300	0.580460
O81	O8	0.701500	0.958250	0.625180
O91	O9	0.865150	0.958490	0.807010
C31	C3	0.745150	0.982510	0.748880
H31	H3	0.680200	0.023400	0.804000
O101	O10	0.982750	0.836700	0.080460
O111	O11	0.798500	0.041750	0.125180
O121	O12	0.634850	0.041510	0.307010
C41	C4	0.754850	0.017490	0.248880
H41	H4	0.819800	0.976600	0.304000
O131	O13	0.517250	0.336700	0.580460
O141	O14	0.701500	0.541750	0.625180
O151	O15	0.865150	0.541510	0.807010
C51	C5	0.745150	0.517490	0.748880
H51	H5	0.680200	0.476600	0.804000
O161	O16	0.982750	0.663300	0.080460
O171	O17	0.798500	0.458250	0.125180
O181	O18	0.634850	0.458490	0.307010
C61	C6	0.754850	0.482510	0.248880
H61	H6	0.819800	0.523400	0.304000
O191	O19	0.482750	0.836700	0.419540
O201	O20	0.298500	0.041750	0.374820
O211	O21	0.134850	0.041510	0.192990
C71	C7	0.254850	0.017490	0.251120
H71	H7	0.319800	0.976600	0.196000
O221	O22	0.017250	0.163300	0.919540
O231	O23	0.201500	0.958250	0.874820
O241	O24	0.365150	0.958490	0.692990
C81	C8	0.245150	0.982510	0.751120
H81	H8	0.180200	0.023400	0.696000
Mn11	Mn1	0.500000	0.500000	0.500000
Mn21	Mn2	0.000000	0.500000	0.000000
Mn31	Mn3	0.500000	0.000000	0.500000
Mn41	Mn4	0.000000	0.000000	0.000000
C91	C9	0.488300	0.750000	0.475400
H91	H9	0.498300	0.750000	0.576100
C101	C10	0.011700	0.250000	0.975400
H101	H10	0.001700	0.250000	0.076100
C111	C11	0.511700	0.250000	0.524600
H111	H11	0.501700	0.250000	0.423900
C121	C12	0.988300	0.750000	0.024600
H121	H12	0.998300	0.750000	0.923900
