data_QITDOO_freeONLY_PM
_symmetry_space_group_name_H-M	'P1'
_cell_length_a	30.760000
_cell_length_b	30.760000
_cell_length_c	16.103000
_cell_angle_alpha	90.000000
_cell_angle_beta	90.000000
_cell_angle_gamma	90.000000
_symmetry_Int_Tables_number 1

loop_
_symmetry_equiv_pos_as_xyz
'x,y,z'

loop_
_atom_site_label
_atom_site_type_symbol
_atom_site_fract_x
_atom_site_fract_y
_atom_site_fract_z
C11	C1	0.103700	0.682100	0.818500
C21	C2	0.139500	0.651400	0.793500
C31	C3	0.126600	0.615700	0.748900
H11	H1	0.097300	0.612700	0.735500
C41	C4	0.155700	0.583700	0.723000
H21	H2	0.145700	0.560200	0.692200
C51	C5	0.199100	0.586800	0.742700
C61	C6	0.228400	0.552100	0.709100
C71	C7	0.214000	0.621500	0.792600
C81	C8	0.258200	0.624500	0.812500
H31	H3	0.277800	0.603600	0.794300
C91	C9	0.271800	0.659200	0.859900
H41	H4	0.301200	0.661600	0.872600
C101	C10	0.243400	0.691100	0.889600
H51	H5	0.253200	0.713000	0.924800
C111	C11	0.199800	0.689200	0.865000
H61	H6	0.180800	0.711000	0.882200
C121	C12	0.184000	0.655200	0.815100
C131	C13	0.920200	0.670400	0.544700
C141	C14	0.894000	0.633600	0.513500
C151	C15	0.850200	0.634800	0.534200
H71	H7	0.839400	0.658100	0.564700
C161	C16	0.822000	0.601500	0.509900
H81	H8	0.792600	0.603600	0.522800
C171	C17	0.836900	0.565700	0.467400
C181	C18	0.804800	0.530100	0.450200
C191	C19	0.881500	0.563700	0.440800
C201	C20	0.899200	0.529800	0.389700
H91	H9	0.880700	0.508300	0.369800
C211	C21	0.941900	0.527900	0.369500
H101	H10	0.952200	0.504800	0.337700
C221	C22	0.971100	0.560600	0.396500
H111	H11	0.000300	0.559300	0.382100
C231	C23	0.955700	0.594600	0.444300
H121	H12	0.975000	0.615700	0.462900
C241	C24	0.910800	0.597800	0.466000
C251	C25	0.956000	0.670100	0.817900
C261	C26	0.919900	0.639600	0.794800
C271	C27	0.878900	0.647700	0.825900
H131	H13	0.874200	0.671100	0.861200
C281	C28	0.844100	0.619900	0.803500
H141	H14	0.816600	0.625100	0.825400
C291	C29	0.849600	0.585500	0.750600
C301	C30	0.808900	0.562000	0.724100
C311	C31	0.892300	0.575300	0.717100
C321	C32	0.901600	0.540600	0.664200
H151	H15	0.879400	0.522100	0.647000
C331	C33	0.942600	0.533800	0.638100
H161	H16	0.947900	0.509700	0.604500
C341	C34	0.977800	0.560600	0.658300
H171	H17	0.005500	0.555200	0.637900
C351	C35	0.969500	0.594900	0.709100
H181	H18	0.992300	0.613100	0.724100
C361	C36	0.927200	0.603800	0.740000
O11	O1	0.065450	0.674250	0.792400
O21	O2	0.110280	0.715010	0.864200
O31	O3	0.034100	0.678530	0.636200
O41	O4	0.249590	0.527340	0.757200
O51	O5	0.917600	0.772000	0.722200
O61	O6	0.230970	0.547300	0.630400
O71	O7	0.954010	0.683800	0.504300
O81	O8	0.909260	0.689080	0.609500
O91	O9	0.768660	0.530220	0.488500
O101	O10	0.812050	0.502170	0.395400
O111	O11	0.972530	0.695110	0.766000
O121	O12	0.968120	0.670080	0.892600
O131	O13	0.809390	0.540500	0.658000
O141	O14	0.775330	0.564700	0.766900
La11	La1	0.027170	0.730130	0.879400
La21	La2	0.975720	0.735900	0.629230
C371	C37	0.603700	0.182100	0.318500
C381	C38	0.639500	0.151400	0.293500
C391	C39	0.626600	0.115700	0.248900
H191	H19	0.597300	0.112700	0.235500
C401	C40	0.655700	0.083700	0.223000
H201	H20	0.645700	0.060200	0.192200
C411	C41	0.699100	0.086800	0.242700
C421	C42	0.728400	0.052100	0.209100
C431	C43	0.714000	0.121500	0.292600
C441	C44	0.758200	0.124500	0.312500
H211	H21	0.777800	0.103600	0.294300
C451	C45	0.771800	0.159200	0.359900
H221	H22	0.801200	0.161600	0.372600
C461	C46	0.743400	0.191100	0.389600
H231	H23	0.753200	0.213000	0.424800
C471	C47	0.699800	0.189200	0.365000
H241	H24	0.680800	0.211000	0.382200
C481	C48	0.684000	0.155200	0.315100
C491	C49	0.420200	0.170400	0.044700
C501	C50	0.394000	0.133600	0.013500
C511	C51	0.350200	0.134800	0.034200
H251	H25	0.339400	0.158100	0.064700
C521	C52	0.322000	0.101500	0.009900
H261	H26	0.292600	0.103600	0.022800
C531	C53	0.336900	0.065700	0.967400
C541	C54	0.304800	0.030100	0.950200
C551	C55	0.381500	0.063700	0.940800
C561	C56	0.399200	0.029800	0.889700
H271	H27	0.380700	0.008300	0.869800
C571	C57	0.441900	0.027900	0.869500
H281	H28	0.452200	0.004800	0.837700
C581	C58	0.471100	0.060600	0.896500
H291	H29	0.500300	0.059300	0.882100
C591	C59	0.455700	0.094600	0.944300
H301	H30	0.475000	0.115700	0.962900
C601	C60	0.410800	0.097800	0.966000
C611	C61	0.456000	0.170100	0.317900
C621	C62	0.419900	0.139600	0.294800
C631	C63	0.378900	0.147700	0.325900
H311	H31	0.374200	0.171100	0.361200
C641	C64	0.344100	0.119900	0.303500
H321	H32	0.316600	0.125100	0.325400
C651	C65	0.349600	0.085500	0.250600
C661	C66	0.308900	0.062000	0.224100
C671	C67	0.392300	0.075300	0.217100
C681	C68	0.401600	0.040600	0.164200
H331	H33	0.379400	0.022100	0.147000
C691	C69	0.442600	0.033800	0.138100
H341	H34	0.447900	0.009700	0.104500
C701	C70	0.477800	0.060600	0.158300
H351	H35	0.505500	0.055200	0.137900
C711	C71	0.469500	0.094900	0.209100
H361	H36	0.492300	0.113100	0.224100
C721	C72	0.427200	0.103800	0.240000
O151	O15	0.565450	0.174250	0.292400
O161	O16	0.610280	0.215010	0.364200
O171	O17	0.534100	0.178530	0.136200
O181	O18	0.749590	0.027340	0.257200
O191	O19	0.417600	0.272000	0.222200
O201	O20	0.730970	0.047300	0.130400
O211	O21	0.454010	0.183800	0.004300
O221	O22	0.409260	0.189080	0.109500
O231	O23	0.268660	0.030220	0.988500
O241	O24	0.312050	0.002170	0.895400
O251	O25	0.472530	0.195110	0.266000
O261	O26	0.468120	0.170080	0.392600
O271	O27	0.309390	0.040500	0.158000
O281	O28	0.275330	0.064700	0.266900
La31	La3	0.527170	0.230130	0.379400
La41	La4	0.475720	0.235900	0.129230
C731	C73	0.396300	0.817900	0.318500
C741	C74	0.360500	0.848600	0.293500
C751	C75	0.373400	0.884300	0.248900
H371	H37	0.402700	0.887300	0.235500
C761	C76	0.344300	0.916300	0.223000
H381	H38	0.354300	0.939800	0.192200
C771	C77	0.300900	0.913200	0.242700
C781	C78	0.271600	0.947900	0.209100
C791	C79	0.286000	0.878500	0.292600
C801	C80	0.241800	0.875500	0.312500
H391	H39	0.222200	0.896400	0.294300
C811	C81	0.228200	0.840800	0.359900
H401	H40	0.198800	0.838400	0.372600
C821	C82	0.256600	0.808900	0.389600
H411	H41	0.246800	0.787000	0.424800
C831	C83	0.300200	0.810800	0.365000
H421	H42	0.319200	0.789000	0.382200
C841	C84	0.316000	0.844800	0.315100
C851	C85	0.579800	0.829600	0.044700
C861	C86	0.606000	0.866400	0.013500
C871	C87	0.649800	0.865200	0.034200
H431	H43	0.660600	0.841900	0.064700
C881	C88	0.678000	0.898500	0.009900
H441	H44	0.707400	0.896400	0.022800
C891	C89	0.663100	0.934300	0.967400
C901	C90	0.695200	0.969900	0.950200
C911	C91	0.618500	0.936300	0.940800
C921	C92	0.600800	0.970200	0.889700
H451	H45	0.619300	0.991700	0.869800
C931	C93	0.558100	0.972100	0.869500
H461	H46	0.547800	0.995200	0.837700
C941	C94	0.528900	0.939400	0.896500
H471	H47	0.499700	0.940700	0.882100
C951	C95	0.544300	0.905400	0.944300
H481	H48	0.525000	0.884300	0.962900
C961	C96	0.589200	0.902200	0.966000
C971	C97	0.544000	0.829900	0.317900
C981	C98	0.580100	0.860400	0.294800
C991	C99	0.621100	0.852300	0.325900
H491	H49	0.625800	0.828900	0.361200
C1001	C100	0.655900	0.880100	0.303500
H501	H50	0.683400	0.874900	0.325400
C1011	C101	0.650400	0.914500	0.250600
C1021	C102	0.691100	0.938000	0.224100
C1031	C103	0.607700	0.924700	0.217100
C1041	C104	0.598400	0.959400	0.164200
H511	H51	0.620600	0.977900	0.147000
C1051	C105	0.557400	0.966200	0.138100
H521	H52	0.552100	0.990300	0.104500
C1061	C106	0.522200	0.939400	0.158300
H531	H53	0.494500	0.944800	0.137900
C1071	C107	0.530500	0.905100	0.209100
H541	H54	0.507700	0.886900	0.224100
C1081	C108	0.572800	0.896200	0.240000
O291	O29	0.434550	0.825750	0.292400
O301	O30	0.389720	0.784990	0.364200
O311	O31	0.465900	0.821470	0.136200
O321	O32	0.250410	0.972660	0.257200
O331	O33	0.582400	0.728000	0.222200
O341	O34	0.269030	0.952700	0.130400
O351	O35	0.545990	0.816200	0.004300
O361	O36	0.590740	0.810920	0.109500
O371	O37	0.731340	0.969780	0.988500
O381	O38	0.687950	0.997830	0.895400
O391	O39	0.527470	0.804890	0.266000
O401	O40	0.531880	0.829920	0.392600
O411	O41	0.690610	0.959500	0.158000
O421	O42	0.724670	0.935300	0.266900
La51	La5	0.472830	0.769870	0.379400
La61	La6	0.524280	0.764100	0.129230
C1091	C109	0.896300	0.317900	0.818500
C1101	C110	0.860500	0.348600	0.793500
C1111	C111	0.873400	0.384300	0.748900
H551	H55	0.902700	0.387300	0.735500
C1121	C112	0.844300	0.416300	0.723000
H561	H56	0.854300	0.439800	0.692200
C1131	C113	0.800900	0.413200	0.742700
C1141	C114	0.771600	0.447900	0.709100
C1151	C115	0.786000	0.378500	0.792600
C1161	C116	0.741800	0.375500	0.812500
H571	H57	0.722200	0.396400	0.794300
C1171	C117	0.728200	0.340800	0.859900
H581	H58	0.698800	0.338400	0.872600
C1181	C118	0.756600	0.308900	0.889600
H591	H59	0.746800	0.287000	0.924800
C1191	C119	0.800200	0.310800	0.865000
H601	H60	0.819200	0.289000	0.882200
C1201	C120	0.816000	0.344800	0.815100
C1211	C121	0.079800	0.329600	0.544700
C1221	C122	0.106000	0.366400	0.513500
C1231	C123	0.149800	0.365200	0.534200
H611	H61	0.160600	0.341900	0.564700
C1241	C124	0.178000	0.398500	0.509900
H621	H62	0.207400	0.396400	0.522800
C1251	C125	0.163100	0.434300	0.467400
C1261	C126	0.195200	0.469900	0.450200
C1271	C127	0.118500	0.436300	0.440800
C1281	C128	0.100800	0.470200	0.389700
H631	H63	0.119300	0.491700	0.369800
C1291	C129	0.058100	0.472100	0.369500
H641	H64	0.047800	0.495200	0.337700
C1301	C130	0.028900	0.439400	0.396500
H651	H65	0.999700	0.440700	0.382100
C1311	C131	0.044300	0.405400	0.444300
H661	H66	0.025000	0.384300	0.462900
C1321	C132	0.089200	0.402200	0.466000
C1331	C133	0.044000	0.329900	0.817900
C1341	C134	0.080100	0.360400	0.794800
C1351	C135	0.121100	0.352300	0.825900
H671	H67	0.125800	0.328900	0.861200
C1361	C136	0.155900	0.380100	0.803500
H681	H68	0.183400	0.374900	0.825400
C1371	C137	0.150400	0.414500	0.750600
C1381	C138	0.191100	0.438000	0.724100
C1391	C139	0.107700	0.424700	0.717100
C1401	C140	0.098400	0.459400	0.664200
H691	H69	0.120600	0.477900	0.647000
C1411	C141	0.057400	0.466200	0.638100
H701	H70	0.052100	0.490300	0.604500
C1421	C142	0.022200	0.439400	0.658300
H711	H71	0.994500	0.444800	0.637900
C1431	C143	0.030500	0.405100	0.709100
H721	H72	0.007700	0.386900	0.724100
C1441	C144	0.072800	0.396200	0.740000
O431	O43	0.934550	0.325750	0.792400
O441	O44	0.889720	0.284990	0.864200
O451	O45	0.965900	0.321470	0.636200
O461	O46	0.750410	0.472660	0.757200
O471	O47	0.082400	0.228000	0.722200
O481	O48	0.769030	0.452700	0.630400
O491	O49	0.045990	0.316200	0.504300
O501	O50	0.090740	0.310920	0.609500
O511	O51	0.231340	0.469780	0.488500
O521	O52	0.187950	0.497830	0.395400
O531	O53	0.027470	0.304890	0.766000
O541	O54	0.031880	0.329920	0.892600
O551	O55	0.190610	0.459500	0.658000
O561	O56	0.224670	0.435300	0.766900
La71	La7	0.972830	0.269870	0.879400
La81	La8	0.024280	0.264100	0.629230
C1451	C145	0.317900	0.603700	0.068500
C1461	C146	0.348600	0.639500	0.043500
C1471	C147	0.384300	0.626600	0.998900
H731	H73	0.387300	0.597300	0.985500
C1481	C148	0.416300	0.655700	0.973000
H741	H74	0.439800	0.645700	0.942200
C1491	C149	0.413200	0.699100	0.992700
C1501	C150	0.447900	0.728400	0.959100
C1511	C151	0.378500	0.714000	0.042600
C1521	C152	0.375500	0.758200	0.062500
H751	H75	0.396400	0.777800	0.044300
C1531	C153	0.340800	0.771800	0.109900
H761	H76	0.338400	0.801200	0.122600
C1541	C154	0.308900	0.743400	0.139600
H771	H77	0.287000	0.753200	0.174800
C1551	C155	0.310800	0.699800	0.115000
H781	H78	0.289000	0.680800	0.132200
C1561	C156	0.344800	0.684000	0.065100
C1571	C157	0.329600	0.420200	0.794700
C1581	C158	0.366400	0.394000	0.763500
C1591	C159	0.365200	0.350200	0.784200
H791	H79	0.341900	0.339400	0.814700
C1601	C160	0.398500	0.322000	0.759900
H801	H80	0.396400	0.292600	0.772800
C1611	C161	0.434300	0.336900	0.717400
C1621	C162	0.469900	0.304800	0.700200
C1631	C163	0.436300	0.381500	0.690800
C1641	C164	0.470200	0.399200	0.639700
H811	H81	0.491700	0.380700	0.619800
C1651	C165	0.472100	0.441900	0.619500
H821	H82	0.495200	0.452200	0.587700
C1661	C166	0.439400	0.471100	0.646500
H831	H83	0.440700	0.500300	0.632100
C1671	C167	0.405400	0.455700	0.694300
H841	H84	0.384300	0.475000	0.712900
C1681	C168	0.402200	0.410800	0.716000
C1691	C169	0.329900	0.456000	0.067900
C1701	C170	0.360400	0.419900	0.044800
C1711	C171	0.352300	0.378900	0.075900
H851	H85	0.328900	0.374200	0.111200
C1721	C172	0.380100	0.344100	0.053500
H861	H86	0.374900	0.316600	0.075400
C1731	C173	0.414500	0.349600	0.000600
C1741	C174	0.438000	0.308900	0.974100
C1751	C175	0.424700	0.392300	0.967100
C1761	C176	0.459400	0.401600	0.914200
H871	H87	0.477900	0.379400	0.897000
C1771	C177	0.466200	0.442600	0.888100
H881	H88	0.490300	0.447900	0.854500
C1781	C178	0.439400	0.477800	0.908300
H891	H89	0.444800	0.505500	0.887900
C1791	C179	0.405100	0.469500	0.959100
H901	H90	0.386900	0.492300	0.974100
C1801	C180	0.396200	0.427200	0.990000
O571	O57	0.325750	0.565450	0.042400
O581	O58	0.284990	0.610280	0.114200
O591	O59	0.321470	0.534100	0.886200
O601	O60	0.472660	0.749590	0.007200
O611	O61	0.228000	0.417600	0.972200
O621	O62	0.452700	0.730970	0.880400
O631	O63	0.316200	0.454010	0.754300
O641	O64	0.310920	0.409260	0.859500
O651	O65	0.469780	0.268660	0.738500
O661	O66	0.497830	0.312050	0.645400
O671	O67	0.304890	0.472530	0.016000
O681	O68	0.329920	0.468120	0.142600
O691	O69	0.459500	0.309390	0.908000
O701	O70	0.435300	0.275330	0.016900
La91	La9	0.269870	0.527170	0.129400
La101	La10	0.264100	0.475720	0.879230
C1811	C181	0.817900	0.103700	0.568500
C1821	C182	0.848600	0.139500	0.543500
C1831	C183	0.884300	0.126600	0.498900
H911	H91	0.887300	0.097300	0.485500
C1841	C184	0.916300	0.155700	0.473000
H921	H92	0.939800	0.145700	0.442200
C1851	C185	0.913200	0.199100	0.492700
C1861	C186	0.947900	0.228400	0.459100
C1871	C187	0.878500	0.214000	0.542600
C1881	C188	0.875500	0.258200	0.562500
H931	H93	0.896400	0.277800	0.544300
C1891	C189	0.840800	0.271800	0.609900
H941	H94	0.838400	0.301200	0.622600
C1901	C190	0.808900	0.243400	0.639600
H951	H95	0.787000	0.253200	0.674800
C1911	C191	0.810800	0.199800	0.615000
H961	H96	0.789000	0.180800	0.632200
C1921	C192	0.844800	0.184000	0.565100
C1931	C193	0.829600	0.920200	0.294700
C1941	C194	0.866400	0.894000	0.263500
C1951	C195	0.865200	0.850200	0.284200
H971	H97	0.841900	0.839400	0.314700
C1961	C196	0.898500	0.822000	0.259900
H981	H98	0.896400	0.792600	0.272800
C1971	C197	0.934300	0.836900	0.217400
C1981	C198	0.969900	0.804800	0.200200
C1991	C199	0.936300	0.881500	0.190800
C2001	C200	0.970200	0.899200	0.139700
H991	H99	0.991700	0.880700	0.119800
C2011	C201	0.972100	0.941900	0.119500
H1001	H100	0.995200	0.952200	0.087700
C2021	C202	0.939400	0.971100	0.146500
H1011	H101	0.940700	0.000300	0.132100
C2031	C203	0.905400	0.955700	0.194300
H1021	H102	0.884300	0.975000	0.212900
C2041	C204	0.902200	0.910800	0.216000
C2051	C205	0.829900	0.956000	0.567900
C2061	C206	0.860400	0.919900	0.544800
C2071	C207	0.852300	0.878900	0.575900
H1031	H103	0.828900	0.874200	0.611200
C2081	C208	0.880100	0.844100	0.553500
H1041	H104	0.874900	0.816600	0.575400
C2091	C209	0.914500	0.849600	0.500600
C2101	C210	0.938000	0.808900	0.474100
C2111	C211	0.924700	0.892300	0.467100
C2121	C212	0.959400	0.901600	0.414200
H1051	H105	0.977900	0.879400	0.397000
C2131	C213	0.966200	0.942600	0.388100
H1061	H106	0.990300	0.947900	0.354500
C2141	C214	0.939400	0.977800	0.408300
H1071	H107	0.944800	0.005500	0.387900
C2151	C215	0.905100	0.969500	0.459100
H1081	H108	0.886900	0.992300	0.474100
C2161	C216	0.896200	0.927200	0.490000
O711	O71	0.825750	0.065450	0.542400
O721	O72	0.784990	0.110280	0.614200
O731	O73	0.821470	0.034100	0.386200
O741	O74	0.972660	0.249590	0.507200
O751	O75	0.728000	0.917600	0.472200
O761	O76	0.952700	0.230970	0.380400
O771	O77	0.816200	0.954010	0.254300
O781	O78	0.810920	0.909260	0.359500
O791	O79	0.969780	0.768660	0.238500
O801	O80	0.997830	0.812050	0.145400
O811	O81	0.804890	0.972530	0.516000
O821	O82	0.829920	0.968120	0.642600
O831	O83	0.959500	0.809390	0.408000
O841	O84	0.935300	0.775330	0.516900
La111	La11	0.769870	0.027170	0.629400
La121	La12	0.764100	0.975720	0.379230
C2171	C217	0.182100	0.896300	0.568500
C2181	C218	0.151400	0.860500	0.543500
C2191	C219	0.115700	0.873400	0.498900
H1091	H109	0.112700	0.902700	0.485500
C2201	C220	0.083700	0.844300	0.473000
H1101	H110	0.060200	0.854300	0.442200
C2211	C221	0.086800	0.800900	0.492700
C2221	C222	0.052100	0.771600	0.459100
C2231	C223	0.121500	0.786000	0.542600
C2241	C224	0.124500	0.741800	0.562500
H1111	H111	0.103600	0.722200	0.544300
C2251	C225	0.159200	0.728200	0.609900
H1121	H112	0.161600	0.698800	0.622600
C2261	C226	0.191100	0.756600	0.639600
H1131	H113	0.213000	0.746800	0.674800
C2271	C227	0.189200	0.800200	0.615000
H1141	H114	0.211000	0.819200	0.632200
C2281	C228	0.155200	0.816000	0.565100
C2291	C229	0.170400	0.079800	0.294700
C2301	C230	0.133600	0.106000	0.263500
C2311	C231	0.134800	0.149800	0.284200
H1151	H115	0.158100	0.160600	0.314700
C2321	C232	0.101500	0.178000	0.259900
H1161	H116	0.103600	0.207400	0.272800
C2331	C233	0.065700	0.163100	0.217400
C2341	C234	0.030100	0.195200	0.200200
C2351	C235	0.063700	0.118500	0.190800
C2361	C236	0.029800	0.100800	0.139700
H1171	H117	0.008300	0.119300	0.119800
C2371	C237	0.027900	0.058100	0.119500
H1181	H118	0.004800	0.047800	0.087700
C2381	C238	0.060600	0.028900	0.146500
H1191	H119	0.059300	0.999700	0.132100
C2391	C239	0.094600	0.044300	0.194300
H1201	H120	0.115700	0.025000	0.212900
C2401	C240	0.097800	0.089200	0.216000
C2411	C241	0.170100	0.044000	0.567900
C2421	C242	0.139600	0.080100	0.544800
C2431	C243	0.147700	0.121100	0.575900
H1211	H121	0.171100	0.125800	0.611200
C2441	C244	0.119900	0.155900	0.553500
H1221	H122	0.125100	0.183400	0.575400
C2451	C245	0.085500	0.150400	0.500600
C2461	C246	0.062000	0.191100	0.474100
C2471	C247	0.075300	0.107700	0.467100
C2481	C248	0.040600	0.098400	0.414200
H1231	H123	0.022100	0.120600	0.397000
C2491	C249	0.033800	0.057400	0.388100
H1241	H124	0.009700	0.052100	0.354500
C2501	C250	0.060600	0.022200	0.408300
H1251	H125	0.055200	0.994500	0.387900
C2511	C251	0.094900	0.030500	0.459100
H1261	H126	0.113100	0.007700	0.474100
C2521	C252	0.103800	0.072800	0.490000
O851	O85	0.174250	0.934550	0.542400
O861	O86	0.215010	0.889720	0.614200
O871	O87	0.178530	0.965900	0.386200
O881	O88	0.027340	0.750410	0.507200
O891	O89	0.272000	0.082400	0.472200
O901	O90	0.047300	0.769030	0.380400
O911	O91	0.183800	0.045990	0.254300
O921	O92	0.189080	0.090740	0.359500
O931	O93	0.030220	0.231340	0.238500
O941	O94	0.002170	0.187950	0.145400
O951	O95	0.195110	0.027470	0.516000
O961	O96	0.170080	0.031880	0.642600
O971	O97	0.040500	0.190610	0.408000
O981	O98	0.064700	0.224670	0.516900
La131	La13	0.230130	0.972830	0.629400
La141	La14	0.235900	0.024280	0.379230
C2531	C253	0.682100	0.396300	0.068500
C2541	C254	0.651400	0.360500	0.043500
C2551	C255	0.615700	0.373400	0.998900
H1271	H127	0.612700	0.402700	0.985500
C2561	C256	0.583700	0.344300	0.973000
H1281	H128	0.560200	0.354300	0.942200
C2571	C257	0.586800	0.300900	0.992700
C2581	C258	0.552100	0.271600	0.959100
C2591	C259	0.621500	0.286000	0.042600
C2601	C260	0.624500	0.241800	0.062500
H1291	H129	0.603600	0.222200	0.044300
C2611	C261	0.659200	0.228200	0.109900
H1301	H130	0.661600	0.198800	0.122600
C2621	C262	0.691100	0.256600	0.139600
H1311	H131	0.713000	0.246800	0.174800
C2631	C263	0.689200	0.300200	0.115000
H1321	H132	0.711000	0.319200	0.132200
C2641	C264	0.655200	0.316000	0.065100
C2651	C265	0.670400	0.579800	0.794700
C2661	C266	0.633600	0.606000	0.763500
C2671	C267	0.634800	0.649800	0.784200
H1331	H133	0.658100	0.660600	0.814700
C2681	C268	0.601500	0.678000	0.759900
H1341	H134	0.603600	0.707400	0.772800
C2691	C269	0.565700	0.663100	0.717400
C2701	C270	0.530100	0.695200	0.700200
C2711	C271	0.563700	0.618500	0.690800
C2721	C272	0.529800	0.600800	0.639700
H1351	H135	0.508300	0.619300	0.619800
C2731	C273	0.527900	0.558100	0.619500
H1361	H136	0.504800	0.547800	0.587700
C2741	C274	0.560600	0.528900	0.646500
H1371	H137	0.559300	0.499700	0.632100
C2751	C275	0.594600	0.544300	0.694300
H1381	H138	0.615700	0.525000	0.712900
C2761	C276	0.597800	0.589200	0.716000
C2771	C277	0.670100	0.544000	0.067900
C2781	C278	0.639600	0.580100	0.044800
C2791	C279	0.647700	0.621100	0.075900
H1391	H139	0.671100	0.625800	0.111200
C2801	C280	0.619900	0.655900	0.053500
H1401	H140	0.625100	0.683400	0.075400
C2811	C281	0.585500	0.650400	0.000600
C2821	C282	0.562000	0.691100	0.974100
C2831	C283	0.575300	0.607700	0.967100
C2841	C284	0.540600	0.598400	0.914200
H1411	H141	0.522100	0.620600	0.897000
C2851	C285	0.533800	0.557400	0.888100
H1421	H142	0.509700	0.552100	0.854500
C2861	C286	0.560600	0.522200	0.908300
H1431	H143	0.555200	0.494500	0.887900
C2871	C287	0.594900	0.530500	0.959100
H1441	H144	0.613100	0.507700	0.974100
C2881	C288	0.603800	0.572800	0.990000
O991	O99	0.674250	0.434550	0.042400
O1001	O100	0.715010	0.389720	0.114200
O1011	O101	0.678530	0.465900	0.886200
O1021	O102	0.527340	0.250410	0.007200
O1031	O103	0.772000	0.582400	0.972200
O1041	O104	0.547300	0.269030	0.880400
O1051	O105	0.683800	0.545990	0.754300
O1061	O106	0.689080	0.590740	0.859500
O1071	O107	0.530220	0.731340	0.738500
O1081	O108	0.502170	0.687950	0.645400
O1091	O109	0.695110	0.527470	0.016000
O1101	O110	0.670080	0.531880	0.142600
O1111	O111	0.540500	0.690610	0.908000
O1121	O112	0.564700	0.724670	0.016900
La151	La15	0.730130	0.472830	0.129400
La161	La16	0.735900	0.524280	0.879230
C2891	C289	0.103700	0.317900	0.318500
C2901	C290	0.139500	0.348600	0.293500
C2911	C291	0.126600	0.384300	0.248900
H1451	H145	0.097300	0.387300	0.235500
C2921	C292	0.155700	0.416300	0.223000
H1461	H146	0.145700	0.439800	0.192200
C2931	C293	0.199100	0.413200	0.242700
C2941	C294	0.228400	0.447900	0.209100
C2951	C295	0.214000	0.378500	0.292600
C2961	C296	0.258200	0.375500	0.312500
H1471	H147	0.277800	0.396400	0.294300
C2971	C297	0.271800	0.340800	0.359900
H1481	H148	0.301200	0.338400	0.372600
C2981	C298	0.243400	0.308900	0.389600
H1491	H149	0.253200	0.287000	0.424800
C2991	C299	0.199800	0.310800	0.365000
H1501	H150	0.180800	0.289000	0.382200
C3001	C300	0.184000	0.344800	0.315100
C3011	C301	0.920200	0.329600	0.044700
C3021	C302	0.894000	0.366400	0.013500
C3031	C303	0.850200	0.365200	0.034200
H1511	H151	0.839400	0.341900	0.064700
C3041	C304	0.822000	0.398500	0.009900
H1521	H152	0.792600	0.396400	0.022800
C3051	C305	0.836900	0.434300	0.967400
C3061	C306	0.804800	0.469900	0.950200
C3071	C307	0.881500	0.436300	0.940800
C3081	C308	0.899200	0.470200	0.889700
H1531	H153	0.880700	0.491700	0.869800
C3091	C309	0.941900	0.472100	0.869500
H1541	H154	0.952200	0.495200	0.837700
C3101	C310	0.971100	0.439400	0.896500
H1551	H155	0.000300	0.440700	0.882100
C3111	C311	0.955700	0.405400	0.944300
H1561	H156	0.975000	0.384300	0.962900
C3121	C312	0.910800	0.402200	0.966000
C3131	C313	0.956000	0.329900	0.317900
C3141	C314	0.919900	0.360400	0.294800
C3151	C315	0.878900	0.352300	0.325900
H1571	H157	0.874200	0.328900	0.361200
C3161	C316	0.844100	0.380100	0.303500
H1581	H158	0.816600	0.374900	0.325400
C3171	C317	0.849600	0.414500	0.250600
C3181	C318	0.808900	0.438000	0.224100
C3191	C319	0.892300	0.424700	0.217100
C3201	C320	0.901600	0.459400	0.164200
H1591	H159	0.879400	0.477900	0.147000
C3211	C321	0.942600	0.466200	0.138100
H1601	H160	0.947900	0.490300	0.104500
C3221	C322	0.977800	0.439400	0.158300
H1611	H161	0.005500	0.444800	0.137900
C3231	C323	0.969500	0.405100	0.209100
H1621	H162	0.992300	0.386900	0.224100
C3241	C324	0.927200	0.396200	0.240000
O1131	O113	0.065450	0.325750	0.292400
O1141	O114	0.110280	0.284990	0.364200
O1151	O115	0.034100	0.321470	0.136200
O1161	O116	0.249590	0.472660	0.257200
O1171	O117	0.917600	0.228000	0.222200
O1181	O118	0.230970	0.452700	0.130400
O1191	O119	0.954010	0.316200	0.004300
O1201	O120	0.909260	0.310920	0.109500
O1211	O121	0.768660	0.469780	0.988500
O1221	O122	0.812050	0.497830	0.895400
O1231	O123	0.972530	0.304890	0.266000
O1241	O124	0.968120	0.329920	0.392600
O1251	O125	0.809390	0.459500	0.158000
O1261	O126	0.775330	0.435300	0.266900
La171	La17	0.027170	0.269870	0.379400
La181	La18	0.975720	0.264100	0.129230
C3251	C325	0.603700	0.817900	0.818500
C3261	C326	0.639500	0.848600	0.793500
C3271	C327	0.626600	0.884300	0.748900
H1631	H163	0.597300	0.887300	0.735500
C3281	C328	0.655700	0.916300	0.723000
H1641	H164	0.645700	0.939800	0.692200
C3291	C329	0.699100	0.913200	0.742700
C3301	C330	0.728400	0.947900	0.709100
C3311	C331	0.714000	0.878500	0.792600
C3321	C332	0.758200	0.875500	0.812500
H1651	H165	0.777800	0.896400	0.794300
C3331	C333	0.771800	0.840800	0.859900
H1661	H166	0.801200	0.838400	0.872600
C3341	C334	0.743400	0.808900	0.889600
H1671	H167	0.753200	0.787000	0.924800
C3351	C335	0.699800	0.810800	0.865000
H1681	H168	0.680800	0.789000	0.882200
C3361	C336	0.684000	0.844800	0.815100
C3371	C337	0.420200	0.829600	0.544700
C3381	C338	0.394000	0.866400	0.513500
C3391	C339	0.350200	0.865200	0.534200
H1691	H169	0.339400	0.841900	0.564700
C3401	C340	0.322000	0.898500	0.509900
H1701	H170	0.292600	0.896400	0.522800
C3411	C341	0.336900	0.934300	0.467400
C3421	C342	0.304800	0.969900	0.450200
C3431	C343	0.381500	0.936300	0.440800
C3441	C344	0.399200	0.970200	0.389700
H1711	H171	0.380700	0.991700	0.369800
C3451	C345	0.441900	0.972100	0.369500
H1721	H172	0.452200	0.995200	0.337700
C3461	C346	0.471100	0.939400	0.396500
H1731	H173	0.500300	0.940700	0.382100
C3471	C347	0.455700	0.905400	0.444300
H1741	H174	0.475000	0.884300	0.462900
C3481	C348	0.410800	0.902200	0.466000
C3491	C349	0.456000	0.829900	0.817900
C3501	C350	0.419900	0.860400	0.794800
C3511	C351	0.378900	0.852300	0.825900
H1751	H175	0.374200	0.828900	0.861200
C3521	C352	0.344100	0.880100	0.803500
H1761	H176	0.316600	0.874900	0.825400
C3531	C353	0.349600	0.914500	0.750600
C3541	C354	0.308900	0.938000	0.724100
C3551	C355	0.392300	0.924700	0.717100
C3561	C356	0.401600	0.959400	0.664200
H1771	H177	0.379400	0.977900	0.647000
C3571	C357	0.442600	0.966200	0.638100
H1781	H178	0.447900	0.990300	0.604500
C3581	C358	0.477800	0.939400	0.658300
H1791	H179	0.505500	0.944800	0.637900
C3591	C359	0.469500	0.905100	0.709100
H1801	H180	0.492300	0.886900	0.724100
C3601	C360	0.427200	0.896200	0.740000
O1271	O127	0.565450	0.825750	0.792400
O1281	O128	0.610280	0.784990	0.864200
O1291	O129	0.534100	0.821470	0.636200
O1301	O130	0.749590	0.972660	0.757200
O1311	O131	0.417600	0.728000	0.722200
O1321	O132	0.730970	0.952700	0.630400
O1331	O133	0.454010	0.816200	0.504300
O1341	O134	0.409260	0.810920	0.609500
O1351	O135	0.268660	0.969780	0.488500
O1361	O136	0.312050	0.997830	0.395400
O1371	O137	0.472530	0.804890	0.766000
O1381	O138	0.468120	0.829920	0.892600
O1391	O139	0.309390	0.959500	0.658000
O1401	O140	0.275330	0.935300	0.766900
La191	La19	0.527170	0.769870	0.879400
La201	La20	0.475720	0.764100	0.629230
C3611	C361	0.396300	0.182100	0.818500
C3621	C362	0.360500	0.151400	0.793500
C3631	C363	0.373400	0.115700	0.748900
H1811	H181	0.402700	0.112700	0.735500
C3641	C364	0.344300	0.083700	0.723000
H1821	H182	0.354300	0.060200	0.692200
C3651	C365	0.300900	0.086800	0.742700
C3661	C366	0.271600	0.052100	0.709100
C3671	C367	0.286000	0.121500	0.792600
C3681	C368	0.241800	0.124500	0.812500
H1831	H183	0.222200	0.103600	0.794300
C3691	C369	0.228200	0.159200	0.859900
H1841	H184	0.198800	0.161600	0.872600
C3701	C370	0.256600	0.191100	0.889600
H1851	H185	0.246800	0.213000	0.924800
C3711	C371	0.300200	0.189200	0.865000
H1861	H186	0.319200	0.211000	0.882200
C3721	C372	0.316000	0.155200	0.815100
C3731	C373	0.579800	0.170400	0.544700
C3741	C374	0.606000	0.133600	0.513500
C3751	C375	0.649800	0.134800	0.534200
H1871	H187	0.660600	0.158100	0.564700
C3761	C376	0.678000	0.101500	0.509900
H1881	H188	0.707400	0.103600	0.522800
C3771	C377	0.663100	0.065700	0.467400
C3781	C378	0.695200	0.030100	0.450200
C3791	C379	0.618500	0.063700	0.440800
C3801	C380	0.600800	0.029800	0.389700
H1891	H189	0.619300	0.008300	0.369800
C3811	C381	0.558100	0.027900	0.369500
H1901	H190	0.547800	0.004800	0.337700
C3821	C382	0.528900	0.060600	0.396500
H1911	H191	0.499700	0.059300	0.382100
C3831	C383	0.544300	0.094600	0.444300
H1921	H192	0.525000	0.115700	0.462900
C3841	C384	0.589200	0.097800	0.466000
C3851	C385	0.544000	0.170100	0.817900
C3861	C386	0.580100	0.139600	0.794800
C3871	C387	0.621100	0.147700	0.825900
H1931	H193	0.625800	0.171100	0.861200
C3881	C388	0.655900	0.119900	0.803500
H1941	H194	0.683400	0.125100	0.825400
C3891	C389	0.650400	0.085500	0.750600
C3901	C390	0.691100	0.062000	0.724100
C3911	C391	0.607700	0.075300	0.717100
C3921	C392	0.598400	0.040600	0.664200
H1951	H195	0.620600	0.022100	0.647000
C3931	C393	0.557400	0.033800	0.638100
H1961	H196	0.552100	0.009700	0.604500
C3941	C394	0.522200	0.060600	0.658300
H1971	H197	0.494500	0.055200	0.637900
C3951	C395	0.530500	0.094900	0.709100
H1981	H198	0.507700	0.113100	0.724100
C3961	C396	0.572800	0.103800	0.740000
O1411	O141	0.434550	0.174250	0.792400
O1421	O142	0.389720	0.215010	0.864200
O1431	O143	0.465900	0.178530	0.636200
O1441	O144	0.250410	0.027340	0.757200
O1451	O145	0.582400	0.272000	0.722200
O1461	O146	0.269030	0.047300	0.630400
O1471	O147	0.545990	0.183800	0.504300
O1481	O148	0.590740	0.189080	0.609500
O1491	O149	0.731340	0.030220	0.488500
O1501	O150	0.687950	0.002170	0.395400
O1511	O151	0.527470	0.195110	0.766000
O1521	O152	0.531880	0.170080	0.892600
O1531	O153	0.690610	0.040500	0.658000
O1541	O154	0.724670	0.064700	0.766900
La211	La21	0.472830	0.230130	0.879400
La221	La22	0.524280	0.235900	0.629230
C3971	C397	0.896300	0.682100	0.318500
C3981	C398	0.860500	0.651400	0.293500
C3991	C399	0.873400	0.615700	0.248900
H1991	H199	0.902700	0.612700	0.235500
C4001	C400	0.844300	0.583700	0.223000
H2001	H200	0.854300	0.560200	0.192200
C4011	C401	0.800900	0.586800	0.242700
C4021	C402	0.771600	0.552100	0.209100
C4031	C403	0.786000	0.621500	0.292600
C4041	C404	0.741800	0.624500	0.312500
H2011	H201	0.722200	0.603600	0.294300
C4051	C405	0.728200	0.659200	0.359900
H2021	H202	0.698800	0.661600	0.372600
C4061	C406	0.756600	0.691100	0.389600
H2031	H203	0.746800	0.713000	0.424800
C4071	C407	0.800200	0.689200	0.365000
H2041	H204	0.819200	0.711000	0.382200
C4081	C408	0.816000	0.655200	0.315100
C4091	C409	0.079800	0.670400	0.044700
C4101	C410	0.106000	0.633600	0.013500
C4111	C411	0.149800	0.634800	0.034200
H2051	H205	0.160600	0.658100	0.064700
C4121	C412	0.178000	0.601500	0.009900
H2061	H206	0.207400	0.603600	0.022800
C4131	C413	0.163100	0.565700	0.967400
C4141	C414	0.195200	0.530100	0.950200
C4151	C415	0.118500	0.563700	0.940800
C4161	C416	0.100800	0.529800	0.889700
H2071	H207	0.119300	0.508300	0.869800
C4171	C417	0.058100	0.527900	0.869500
H2081	H208	0.047800	0.504800	0.837700
C4181	C418	0.028900	0.560600	0.896500
H2091	H209	0.999700	0.559300	0.882100
C4191	C419	0.044300	0.594600	0.944300
H2101	H210	0.025000	0.615700	0.962900
C4201	C420	0.089200	0.597800	0.966000
C4211	C421	0.044000	0.670100	0.317900
C4221	C422	0.080100	0.639600	0.294800
C4231	C423	0.121100	0.647700	0.325900
H2111	H211	0.125800	0.671100	0.361200
C4241	C424	0.155900	0.619900	0.303500
H2121	H212	0.183400	0.625100	0.325400
C4251	C425	0.150400	0.585500	0.250600
C4261	C426	0.191100	0.562000	0.224100
C4271	C427	0.107700	0.575300	0.217100
C4281	C428	0.098400	0.540600	0.164200
H2131	H213	0.120600	0.522100	0.147000
C4291	C429	0.057400	0.533800	0.138100
H2141	H214	0.052100	0.509700	0.104500
C4301	C430	0.022200	0.560600	0.158300
H2151	H215	0.994500	0.555200	0.137900
C4311	C431	0.030500	0.594900	0.209100
H2161	H216	0.007700	0.613100	0.224100
C4321	C432	0.072800	0.603800	0.240000
O1551	O155	0.934550	0.674250	0.292400
O1561	O156	0.889720	0.715010	0.364200
O1571	O157	0.965900	0.678530	0.136200
O1581	O158	0.750410	0.527340	0.257200
O1591	O159	0.082400	0.772000	0.222200
O1601	O160	0.769030	0.547300	0.130400
O1611	O161	0.045990	0.683800	0.004300
O1621	O162	0.090740	0.689080	0.109500
O1631	O163	0.231340	0.530220	0.988500
O1641	O164	0.187950	0.502170	0.895400
O1651	O165	0.027470	0.695110	0.266000
O1661	O166	0.031880	0.670080	0.392600
O1671	O167	0.190610	0.540500	0.158000
O1681	O168	0.224670	0.564700	0.266900
La231	La23	0.972830	0.730130	0.379400
La241	La24	0.024280	0.735900	0.129230
C4331	C433	0.317900	0.396300	0.568500
C4341	C434	0.348600	0.360500	0.543500
C4351	C435	0.384300	0.373400	0.498900
H2171	H217	0.387300	0.402700	0.485500
C4361	C436	0.416300	0.344300	0.473000
H2181	H218	0.439800	0.354300	0.442200
C4371	C437	0.413200	0.300900	0.492700
C4381	C438	0.447900	0.271600	0.459100
C4391	C439	0.378500	0.286000	0.542600
C4401	C440	0.375500	0.241800	0.562500
H2191	H219	0.396400	0.222200	0.544300
C4411	C441	0.340800	0.228200	0.609900
H2201	H220	0.338400	0.198800	0.622600
C4421	C442	0.308900	0.256600	0.639600
H2211	H221	0.287000	0.246800	0.674800
C4431	C443	0.310800	0.300200	0.615000
H2221	H222	0.289000	0.319200	0.632200
C4441	C444	0.344800	0.316000	0.565100
C4451	C445	0.329600	0.579800	0.294700
C4461	C446	0.366400	0.606000	0.263500
C4471	C447	0.365200	0.649800	0.284200
H2231	H223	0.341900	0.660600	0.314700
C4481	C448	0.398500	0.678000	0.259900
H2241	H224	0.396400	0.707400	0.272800
C4491	C449	0.434300	0.663100	0.217400
C4501	C450	0.469900	0.695200	0.200200
C4511	C451	0.436300	0.618500	0.190800
C4521	C452	0.470200	0.600800	0.139700
H2251	H225	0.491700	0.619300	0.119800
C4531	C453	0.472100	0.558100	0.119500
H2261	H226	0.495200	0.547800	0.087700
C4541	C454	0.439400	0.528900	0.146500
H2271	H227	0.440700	0.499700	0.132100
C4551	C455	0.405400	0.544300	0.194300
H2281	H228	0.384300	0.525000	0.212900
C4561	C456	0.402200	0.589200	0.216000
C4571	C457	0.329900	0.544000	0.567900
C4581	C458	0.360400	0.580100	0.544800
C4591	C459	0.352300	0.621100	0.575900
H2291	H229	0.328900	0.625800	0.611200
C4601	C460	0.380100	0.655900	0.553500
H2301	H230	0.374900	0.683400	0.575400
C4611	C461	0.414500	0.650400	0.500600
C4621	C462	0.438000	0.691100	0.474100
C4631	C463	0.424700	0.607700	0.467100
C4641	C464	0.459400	0.598400	0.414200
H2311	H231	0.477900	0.620600	0.397000
C4651	C465	0.466200	0.557400	0.388100
H2321	H232	0.490300	0.552100	0.354500
C4661	C466	0.439400	0.522200	0.408300
H2331	H233	0.444800	0.494500	0.387900
C4671	C467	0.405100	0.530500	0.459100
H2341	H234	0.386900	0.507700	0.474100
C4681	C468	0.396200	0.572800	0.490000
O1691	O169	0.325750	0.434550	0.542400
O1701	O170	0.284990	0.389720	0.614200
O1711	O171	0.321470	0.465900	0.386200
O1721	O172	0.472660	0.250410	0.507200
O1731	O173	0.228000	0.582400	0.472200
O1741	O174	0.452700	0.269030	0.380400
O1751	O175	0.316200	0.545990	0.254300
O1761	O176	0.310920	0.590740	0.359500
O1771	O177	0.469780	0.731340	0.238500
O1781	O178	0.497830	0.687950	0.145400
O1791	O179	0.304890	0.527470	0.516000
O1801	O180	0.329920	0.531880	0.642600
O1811	O181	0.459500	0.690610	0.408000
O1821	O182	0.435300	0.724670	0.516900
La251	La25	0.269870	0.472830	0.629400
La261	La26	0.264100	0.524280	0.379230
C4691	C469	0.817900	0.896300	0.068500
C4701	C470	0.848600	0.860500	0.043500
C4711	C471	0.884300	0.873400	0.998900
H2351	H235	0.887300	0.902700	0.985500
C4721	C472	0.916300	0.844300	0.973000
H2361	H236	0.939800	0.854300	0.942200
C4731	C473	0.913200	0.800900	0.992700
C4741	C474	0.947900	0.771600	0.959100
C4751	C475	0.878500	0.786000	0.042600
C4761	C476	0.875500	0.741800	0.062500
H2371	H237	0.896400	0.722200	0.044300
C4771	C477	0.840800	0.728200	0.109900
H2381	H238	0.838400	0.698800	0.122600
C4781	C478	0.808900	0.756600	0.139600
H2391	H239	0.787000	0.746800	0.174800
C4791	C479	0.810800	0.800200	0.115000
H2401	H240	0.789000	0.819200	0.132200
C4801	C480	0.844800	0.816000	0.065100
C4811	C481	0.829600	0.079800	0.794700
C4821	C482	0.866400	0.106000	0.763500
C4831	C483	0.865200	0.149800	0.784200
H2411	H241	0.841900	0.160600	0.814700
C4841	C484	0.898500	0.178000	0.759900
H2421	H242	0.896400	0.207400	0.772800
C4851	C485	0.934300	0.163100	0.717400
C4861	C486	0.969900	0.195200	0.700200
C4871	C487	0.936300	0.118500	0.690800
C4881	C488	0.970200	0.100800	0.639700
H2431	H243	0.991700	0.119300	0.619800
C4891	C489	0.972100	0.058100	0.619500
H2441	H244	0.995200	0.047800	0.587700
C4901	C490	0.939400	0.028900	0.646500
H2451	H245	0.940700	0.999700	0.632100
C4911	C491	0.905400	0.044300	0.694300
H2461	H246	0.884300	0.025000	0.712900
C4921	C492	0.902200	0.089200	0.716000
C4931	C493	0.829900	0.044000	0.067900
C4941	C494	0.860400	0.080100	0.044800
C4951	C495	0.852300	0.121100	0.075900
H2471	H247	0.828900	0.125800	0.111200
C4961	C496	0.880100	0.155900	0.053500
H2481	H248	0.874900	0.183400	0.075400
C4971	C497	0.914500	0.150400	0.000600
C4981	C498	0.938000	0.191100	0.974100
C4991	C499	0.924700	0.107700	0.967100
C5001	C500	0.959400	0.098400	0.914200
H2491	H249	0.977900	0.120600	0.897000
C5011	C501	0.966200	0.057400	0.888100
H2501	H250	0.990300	0.052100	0.854500
C5021	C502	0.939400	0.022200	0.908300
H2511	H251	0.944800	0.994500	0.887900
C5031	C503	0.905100	0.030500	0.959100
H2521	H252	0.886900	0.007700	0.974100
C5041	C504	0.896200	0.072800	0.990000
O1831	O183	0.825750	0.934550	0.042400
O1841	O184	0.784990	0.889720	0.114200
O1851	O185	0.821470	0.965900	0.886200
O1861	O186	0.972660	0.750410	0.007200
O1871	O187	0.728000	0.082400	0.972200
O1881	O188	0.952700	0.769030	0.880400
O1891	O189	0.816200	0.045990	0.754300
O1901	O190	0.810920	0.090740	0.859500
O1911	O191	0.969780	0.231340	0.738500
O1921	O192	0.997830	0.187950	0.645400
O1931	O193	0.804890	0.027470	0.016000
O1941	O194	0.829920	0.031880	0.142600
O1951	O195	0.959500	0.190610	0.908000
O1961	O196	0.935300	0.224670	0.016900
La271	La27	0.769870	0.972830	0.129400
La281	La28	0.764100	0.024280	0.879230
C5051	C505	0.182100	0.103700	0.068500
C5061	C506	0.151400	0.139500	0.043500
C5071	C507	0.115700	0.126600	0.998900
H2531	H253	0.112700	0.097300	0.985500
C5081	C508	0.083700	0.155700	0.973000
H2541	H254	0.060200	0.145700	0.942200
C5091	C509	0.086800	0.199100	0.992700
C5101	C510	0.052100	0.228400	0.959100
C5111	C511	0.121500	0.214000	0.042600
C5121	C512	0.124500	0.258200	0.062500
H2551	H255	0.103600	0.277800	0.044300
C5131	C513	0.159200	0.271800	0.109900
H2561	H256	0.161600	0.301200	0.122600
C5141	C514	0.191100	0.243400	0.139600
H2571	H257	0.213000	0.253200	0.174800
C5151	C515	0.189200	0.199800	0.115000
H2581	H258	0.211000	0.180800	0.132200
C5161	C516	0.155200	0.184000	0.065100
C5171	C517	0.170400	0.920200	0.794700
C5181	C518	0.133600	0.894000	0.763500
C5191	C519	0.134800	0.850200	0.784200
H2591	H259	0.158100	0.839400	0.814700
C5201	C520	0.101500	0.822000	0.759900
H2601	H260	0.103600	0.792600	0.772800
C5211	C521	0.065700	0.836900	0.717400
C5221	C522	0.030100	0.804800	0.700200
C5231	C523	0.063700	0.881500	0.690800
C5241	C524	0.029800	0.899200	0.639700
H2611	H261	0.008300	0.880700	0.619800
C5251	C525	0.027900	0.941900	0.619500
H2621	H262	0.004800	0.952200	0.587700
C5261	C526	0.060600	0.971100	0.646500
H2631	H263	0.059300	0.000300	0.632100
C5271	C527	0.094600	0.955700	0.694300
H2641	H264	0.115700	0.975000	0.712900
C5281	C528	0.097800	0.910800	0.716000
C5291	C529	0.170100	0.956000	0.067900
C5301	C530	0.139600	0.919900	0.044800
C5311	C531	0.147700	0.878900	0.075900
H2651	H265	0.171100	0.874200	0.111200
C5321	C532	0.119900	0.844100	0.053500
H2661	H266	0.125100	0.816600	0.075400
C5331	C533	0.085500	0.849600	0.000600
C5341	C534	0.062000	0.808900	0.974100
C5351	C535	0.075300	0.892300	0.967100
C5361	C536	0.040600	0.901600	0.914200
H2671	H267	0.022100	0.879400	0.897000
C5371	C537	0.033800	0.942600	0.888100
H2681	H268	0.009700	0.947900	0.854500
C5381	C538	0.060600	0.977800	0.908300
H2691	H269	0.055200	0.005500	0.887900
C5391	C539	0.094900	0.969500	0.959100
H2701	H270	0.113100	0.992300	0.974100
C5401	C540	0.103800	0.927200	0.990000
O1971	O197	0.174250	0.065450	0.042400
O1981	O198	0.215010	0.110280	0.114200
O1991	O199	0.178530	0.034100	0.886200
O2001	O200	0.027340	0.249590	0.007200
O2011	O201	0.272000	0.917600	0.972200
O2021	O202	0.047300	0.230970	0.880400
O2031	O203	0.183800	0.954010	0.754300
O2041	O204	0.189080	0.909260	0.859500
O2051	O205	0.030220	0.768660	0.738500
O2061	O206	0.002170	0.812050	0.645400
O2071	O207	0.195110	0.972530	0.016000
O2081	O208	0.170080	0.968120	0.142600
O2091	O209	0.040500	0.809390	0.908000
O2101	O210	0.064700	0.775330	0.016900
La291	La29	0.230130	0.027170	0.129400
La301	La30	0.235900	0.975720	0.879230
C5411	C541	0.682100	0.603700	0.568500
C5421	C542	0.651400	0.639500	0.543500
C5431	C543	0.615700	0.626600	0.498900
H2711	H271	0.612700	0.597300	0.485500
C5441	C544	0.583700	0.655700	0.473000
H2721	H272	0.560200	0.645700	0.442200
C5451	C545	0.586800	0.699100	0.492700
C5461	C546	0.552100	0.728400	0.459100
C5471	C547	0.621500	0.714000	0.542600
C5481	C548	0.624500	0.758200	0.562500
H2731	H273	0.603600	0.777800	0.544300
C5491	C549	0.659200	0.771800	0.609900
H2741	H274	0.661600	0.801200	0.622600
C5501	C550	0.691100	0.743400	0.639600
H2751	H275	0.713000	0.753200	0.674800
C5511	C551	0.689200	0.699800	0.615000
H2761	H276	0.711000	0.680800	0.632200
C5521	C552	0.655200	0.684000	0.565100
C5531	C553	0.670400	0.420200	0.294700
C5541	C554	0.633600	0.394000	0.263500
C5551	C555	0.634800	0.350200	0.284200
H2771	H277	0.658100	0.339400	0.314700
C5561	C556	0.601500	0.322000	0.259900
H2781	H278	0.603600	0.292600	0.272800
C5571	C557	0.565700	0.336900	0.217400
C5581	C558	0.530100	0.304800	0.200200
C5591	C559	0.563700	0.381500	0.190800
C5601	C560	0.529800	0.399200	0.139700
H2791	H279	0.508300	0.380700	0.119800
C5611	C561	0.527900	0.441900	0.119500
H2801	H280	0.504800	0.452200	0.087700
C5621	C562	0.560600	0.471100	0.146500
H2811	H281	0.559300	0.500300	0.132100
C5631	C563	0.594600	0.455700	0.194300
H2821	H282	0.615700	0.475000	0.212900
C5641	C564	0.597800	0.410800	0.216000
C5651	C565	0.670100	0.456000	0.567900
C5661	C566	0.639600	0.419900	0.544800
C5671	C567	0.647700	0.378900	0.575900
H2831	H283	0.671100	0.374200	0.611200
C5681	C568	0.619900	0.344100	0.553500
H2841	H284	0.625100	0.316600	0.575400
C5691	C569	0.585500	0.349600	0.500600
C5701	C570	0.562000	0.308900	0.474100
C5711	C571	0.575300	0.392300	0.467100
C5721	C572	0.540600	0.401600	0.414200
H2851	H285	0.522100	0.379400	0.397000
C5731	C573	0.533800	0.442600	0.388100
H2861	H286	0.509700	0.447900	0.354500
C5741	C574	0.560600	0.477800	0.408300
H2871	H287	0.555200	0.505500	0.387900
C5751	C575	0.594900	0.469500	0.459100
H2881	H288	0.613100	0.492300	0.474100
C5761	C576	0.603800	0.427200	0.490000
O2111	O211	0.674250	0.565450	0.542400
O2121	O212	0.715010	0.610280	0.614200
O2131	O213	0.678530	0.534100	0.386200
O2141	O214	0.527340	0.749590	0.507200
O2151	O215	0.772000	0.417600	0.472200
O2161	O216	0.547300	0.730970	0.380400
O2171	O217	0.683800	0.454010	0.254300
O2181	O218	0.689080	0.409260	0.359500
O2191	O219	0.530220	0.268660	0.238500
O2201	O220	0.502170	0.312050	0.145400
O2211	O221	0.695110	0.472530	0.516000
O2221	O222	0.670080	0.468120	0.642600
O2231	O223	0.540500	0.309390	0.408000
O2241	O224	0.564700	0.275330	0.516900
La311	La31	0.730130	0.527170	0.629400
La321	La32	0.735900	0.475720	0.379230
