data_QIWDOR_freeONLY_PM
_symmetry_space_group_name_H-M	'P1'
_cell_length_a	10.205600
_cell_length_b	10.819300
_cell_length_c	13.094700
_cell_angle_alpha	91.510300
_cell_angle_beta	112.935000
_cell_angle_gamma	90.000000
_symmetry_Int_Tables_number 1

loop_
_symmetry_equiv_pos_as_xyz
'x,y,z'

loop_
_atom_site_label
_atom_site_type_symbol
_atom_site_fract_x
_atom_site_fract_y
_atom_site_fract_z
Cu11	Cu1	0.225480	0.738680	0.395060
Cu21	Cu2	0.830420	0.761320	0.604940
Cu31	Cu3	0.169580	0.238680	0.395060
Cu41	Cu4	0.774520	0.261320	0.604940
H11	H1	0.586100	0.597300	0.985800
H21	H2	0.702000	0.045700	0.455800
H31	H3	0.430100	0.780200	0.198800
H41	H4	0.379800	0.170400	0.153400
H51	H5	0.521400	0.793700	0.518000
H61	H6	0.030900	0.970400	0.696000
H71	H7	0.561800	0.999000	0.918800
H81	H8	0.226400	0.329600	0.846600
H91	H9	0.003400	0.706300	0.482000
H101	H10	0.555300	0.939000	0.314800
H111	H11	0.364800	0.333600	0.266400
H121	H12	0.759500	0.439000	0.314800
H131	H13	0.444700	0.061000	0.685200
H141	H14	0.996600	0.293700	0.518000
H151	H15	0.438200	0.001000	0.081200
H161	H16	0.098400	0.166400	0.733600
H171	H17	0.399700	0.097300	0.985800
H181	H18	0.665100	0.470400	0.696000
H191	H19	0.600300	0.902700	0.014200
H201	H20	0.246200	0.454300	0.544200
H211	H21	0.298000	0.954300	0.544200
H221	H22	0.753800	0.545700	0.455800
H231	H23	0.643000	0.501000	0.081200
H241	H24	0.569900	0.219800	0.801200
H251	H25	0.231300	0.719800	0.801200
H261	H26	0.635200	0.666400	0.733600
H271	H27	0.768700	0.280200	0.198800
H281	H28	0.413900	0.402700	0.014200
H291	H29	0.334900	0.529600	0.304000
H301	H30	0.969100	0.029600	0.304000
H311	H31	0.478600	0.206300	0.482000
H321	H32	0.240500	0.561000	0.685200
H331	H33	0.620200	0.829600	0.846600
H341	H34	0.357000	0.499000	0.918800
H351	H35	0.901600	0.833600	0.266400
H361	H36	0.773600	0.670400	0.153400
C11	C1	0.473800	0.209600	0.787000
C21	C2	0.729400	0.725400	0.185200
C31	C3	0.581800	0.432400	0.646800
C41	C4	0.335800	0.422000	0.558000
C51	C5	0.182600	0.983100	0.634800
C61	C6	0.447100	0.323800	0.252800
C71	C7	0.686800	0.290400	0.213000
C81	C8	0.680700	0.387300	0.281200
C91	C9	0.578100	0.210400	0.166200
C101	C10	0.741100	0.908100	0.300400
C111	C11	0.552900	0.676200	0.747200
C121	C12	0.222200	0.922000	0.558000
C131	C13	0.452200	0.483100	0.634800
C141	C14	0.544200	0.774600	0.814800
C151	C15	0.805700	0.823800	0.252800
C161	C16	0.935000	0.067600	0.353200
C171	C17	0.440700	0.591900	0.699600
C181	C18	0.440300	0.454600	0.965800
C191	C19	0.951100	0.222200	0.479600
C201	C20	0.471500	0.277800	0.520400
C211	C21	0.817400	0.016900	0.365200
C221	C22	0.474500	0.045400	0.034200
C231	C23	0.065000	0.932400	0.646800
C241	C24	0.600500	0.887300	0.281200
C251	C25	0.455800	0.225400	0.185200
C261	C26	0.411900	0.289600	0.833800
C271	C27	0.559300	0.408100	0.300400
C281	C28	0.559700	0.545400	0.034200
C291	C29	0.525500	0.954600	0.965800
C301	C30	0.319300	0.612700	0.718800
C311	C31	0.777800	0.078000	0.442000
C321	C32	0.664200	0.578000	0.442000
C331	C33	0.048900	0.777800	0.520400
C341	C34	0.547800	0.516900	0.365200
C351	C35	0.270600	0.274600	0.814800
C361	C36	0.588100	0.710400	0.166200
C371	C37	0.258900	0.091900	0.699600
C381	C38	0.528500	0.722200	0.479600
C391	C39	0.526200	0.790400	0.213000
C401	C40	0.399500	0.112700	0.718800
C411	C41	0.421900	0.789600	0.833800
C421	C42	0.418200	0.567600	0.353200
C431	C43	0.313200	0.709600	0.787000
C441	C44	0.194300	0.176200	0.747200
N11	N1	0.343500	0.319000	0.501600
N21	N2	0.012700	0.524000	0.287400
N31	N3	0.158100	0.819000	0.501600
N41	N4	0.998900	0.830000	0.589800
N51	N5	0.725300	0.976000	0.712600
N61	N6	0.409100	0.670000	0.410200
N71	N7	0.001100	0.170000	0.410200
N81	N8	0.656500	0.681000	0.498400
N91	N9	0.274700	0.024000	0.287400
N101	N10	0.841900	0.181000	0.498400
N111	N11	0.987300	0.476000	0.712600
N121	N12	0.590900	0.330000	0.589800
O11	O1	0.350400	0.011000	0.384200
O21	O2	0.821300	0.099800	0.716800
O31	O3	0.406000	0.883100	0.901600
O41	O4	0.082800	0.608300	0.275400
O51	O5	0.895500	0.599800	0.716800
O61	O6	0.807400	0.891700	0.724600
O71	O7	0.178700	0.900200	0.283200
O81	O8	0.192600	0.108300	0.275400
O91	O9	0.495600	0.383100	0.901600
O101	O10	0.504400	0.616900	0.098400
O111	O11	0.966200	0.489000	0.615800
O121	O12	0.033800	0.511000	0.384200
O131	O13	0.104500	0.400200	0.283200
O141	O14	0.649600	0.989000	0.615800
O151	O15	0.594000	0.116900	0.098400
O161	O16	0.917200	0.391700	0.724600
