data_QIYCEI_freeONLY_PM
_symmetry_space_group_name_H-M	'P1'
_cell_length_a	17.930400
_cell_length_b	18.832100
_cell_length_c	20.292200
_cell_angle_alpha	90.000000
_cell_angle_beta	90.000000
_cell_angle_gamma	90.000000
_symmetry_Int_Tables_number 1

loop_
_symmetry_equiv_pos_as_xyz
'x,y,z'

loop_
_atom_site_label
_atom_site_type_symbol
_atom_site_fract_x
_atom_site_fract_y
_atom_site_fract_z
Ag11	Ag1	0.164790	0.632980	0.151930
Si11	Si1	0.552840	0.674560	0.129860
Si21	Si2	0.028870	0.823700	0.423170
N11	N1	0.293100	0.640500	0.139500
N21	N2	0.621600	0.794100	0.935200
N31	N3	0.132100	0.704300	0.241600
N41	N4	0.896900	0.028100	0.357100
C11	C1	0.324800	0.704500	0.142600
H11	H1	0.292800	0.744300	0.147300
C21	C2	0.400400	0.717200	0.139500
H21	H2	0.418800	0.764400	0.142700
C31	C3	0.449700	0.660700	0.131500
C41	C4	0.416700	0.594700	0.123800
H31	H3	0.446500	0.554100	0.115100
C51	C5	0.338200	0.588200	0.129000
H41	H4	0.317200	0.542100	0.124400
C61	C6	0.601600	0.584600	0.132600
H51	H5	0.585700	0.556000	0.094800
H61	H6	0.588300	0.560100	0.173600
H71	H7	0.655700	0.591600	0.131000
C71	C7	0.580500	0.736200	0.199200
H81	H8	0.624600	0.763800	0.184800
H91	H9	0.539300	0.770400	0.206300
C81	C8	0.596500	0.706200	0.256600
H101	H10	0.583800	0.738900	0.292500
H111	H11	0.649900	0.695200	0.258400
H121	H12	0.567700	0.662300	0.261500
C91	C9	0.576800	0.720900	0.049700
C101	C10	0.652700	0.724800	0.029300
H131	H13	0.691400	0.703700	0.054600
C111	C11	0.667400	0.759400	0.973300
H141	H14	0.717900	0.758600	0.959400
C121	C12	0.550100	0.792300	0.955200
H151	H15	0.513800	0.817000	0.929900
C131	C13	0.526900	0.755500	0.011700
H161	H16	0.475500	0.754900	0.023300
C141	C14	0.074500	0.751900	0.233300
H171	H17	0.054300	0.759200	0.190500
C151	C15	0.046000	0.788600	0.285400
H181	H18	0.006700	0.821300	0.277300
C161	C16	0.071200	0.780600	0.348900
C171	C17	0.133700	0.735200	0.353700
H191	H19	0.156800	0.727900	0.395200
C181	C18	0.161800	0.701100	0.298100
H201	H20	0.206000	0.673800	0.302900
C191	C19	0.101200	0.850100	0.481800
H211	H21	0.133000	0.808700	0.492500
H221	H22	0.133100	0.887300	0.462000
C201	C20	0.063100	0.879600	0.547100
H231	H23	0.101800	0.894300	0.578400
H241	H24	0.032300	0.842300	0.567000
H251	H25	0.031600	0.920500	0.536200
C211	C21	0.963200	0.759500	0.463900
H261	H26	0.993600	0.721000	0.483400
H271	H27	0.938700	0.784700	0.500900
C221	C22	0.899000	0.723300	0.420600
H281	H28	0.870200	0.690500	0.448200
H291	H29	0.921700	0.697000	0.384100
H301	H30	0.865900	0.760100	0.403100
C231	C23	0.977600	0.906200	0.396800
C241	C24	0.900300	0.904700	0.379100
H311	H31	0.873400	0.861300	0.380100
C251	C25	0.866600	0.964400	0.361200
H321	H32	0.815200	0.960900	0.350200
C261	C26	0.970400	0.030200	0.371100
H331	H33	0.996200	0.074000	0.366800
C271	C27	0.010400	0.969700	0.391800
H341	H34	0.061800	0.974200	0.402500
Ag21	Ag2	0.335210	0.367020	0.651930
Si31	Si3	0.947160	0.325440	0.629860
Si41	Si4	0.471130	0.176300	0.923170
N51	N5	0.206900	0.359500	0.639500
N61	N6	0.878400	0.205900	0.435200
N71	N7	0.367900	0.295700	0.741600
N81	N8	0.603100	0.971900	0.857100
C281	C28	0.175200	0.295500	0.642600
H351	H35	0.207200	0.255700	0.647300
C291	C29	0.099600	0.282800	0.639500
H361	H36	0.081200	0.235600	0.642700
C301	C30	0.050300	0.339300	0.631500
C311	C31	0.083300	0.405300	0.623800
H371	H37	0.053500	0.445900	0.615100
C321	C32	0.161800	0.411800	0.629000
H381	H38	0.182800	0.457900	0.624400
C331	C33	0.898400	0.415400	0.632600
H391	H39	0.914300	0.444000	0.594800
H401	H40	0.911700	0.439900	0.673600
H411	H41	0.844300	0.408400	0.631000
C341	C34	0.919500	0.263800	0.699200
H421	H42	0.875400	0.236200	0.684800
H431	H43	0.960700	0.229600	0.706300
C351	C35	0.903500	0.293800	0.756600
H441	H44	0.916200	0.261100	0.792500
H451	H45	0.850100	0.304800	0.758400
H461	H46	0.932300	0.337700	0.761500
C361	C36	0.923200	0.279100	0.549700
C371	C37	0.847300	0.275200	0.529300
H471	H47	0.808600	0.296300	0.554600
C381	C38	0.832600	0.240600	0.473300
H481	H48	0.782100	0.241400	0.459400
C391	C39	0.949900	0.207700	0.455200
H491	H49	0.986200	0.183000	0.429900
C401	C40	0.973100	0.244500	0.511700
H501	H50	0.024500	0.245100	0.523300
C411	C41	0.425500	0.248100	0.733300
H511	H51	0.445700	0.240800	0.690500
C421	C42	0.454000	0.211400	0.785400
H521	H52	0.493300	0.178700	0.777300
C431	C43	0.428800	0.219400	0.848900
C441	C44	0.366300	0.264800	0.853700
H531	H53	0.343200	0.272100	0.895200
C451	C45	0.338200	0.298900	0.798100
H541	H54	0.294000	0.326200	0.802900
C461	C46	0.398800	0.149900	0.981800
H551	H55	0.367000	0.191300	0.992500
H561	H56	0.366900	0.112700	0.962000
C471	C47	0.436900	0.120400	0.047100
H571	H57	0.398200	0.105700	0.078400
H581	H58	0.467700	0.157700	0.067000
H591	H59	0.468400	0.079500	0.036200
C481	C48	0.536800	0.240500	0.963900
H601	H60	0.506400	0.279000	0.983400
H611	H61	0.561300	0.215300	0.000900
C491	C49	0.601000	0.276700	0.920600
H621	H62	0.629800	0.309500	0.948200
H631	H63	0.578300	0.303000	0.884100
H641	H64	0.634100	0.239900	0.903100
C501	C50	0.522400	0.093800	0.896800
C511	C51	0.599700	0.095300	0.879100
H651	H65	0.626600	0.138700	0.880100
C521	C52	0.633400	0.035600	0.861200
H661	H66	0.684800	0.039100	0.850200
C531	C53	0.529600	0.969800	0.871100
H671	H67	0.503800	0.926000	0.866800
C541	C54	0.489600	0.030300	0.891800
H681	H68	0.438200	0.025800	0.902500
Ag31	Ag3	0.835210	0.132980	0.348070
Si51	Si5	0.447160	0.174560	0.370140
Si61	Si6	0.971130	0.323700	0.076830
N91	N9	0.706900	0.140500	0.360500
N101	N10	0.378400	0.294100	0.564800
N111	N11	0.867900	0.204300	0.258400
N121	N12	0.103100	0.528100	0.142900
C551	C55	0.675200	0.204500	0.357400
H691	H69	0.707200	0.244300	0.352700
C561	C56	0.599600	0.217200	0.360500
H701	H70	0.581200	0.264400	0.357300
C571	C57	0.550300	0.160700	0.368500
C581	C58	0.583300	0.094700	0.376200
H711	H71	0.553500	0.054100	0.384900
C591	C59	0.661800	0.088200	0.371000
H721	H72	0.682800	0.042100	0.375600
C601	C60	0.398400	0.084600	0.367400
H731	H73	0.414300	0.056000	0.405200
H741	H74	0.411700	0.060100	0.326400
H751	H75	0.344300	0.091600	0.369000
C611	C61	0.419500	0.236200	0.300800
H761	H76	0.375400	0.263800	0.315200
H771	H77	0.460700	0.270400	0.293700
C621	C62	0.403500	0.206200	0.243400
H781	H78	0.416200	0.238900	0.207500
H791	H79	0.350100	0.195200	0.241600
H801	H80	0.432300	0.162300	0.238500
C631	C63	0.423200	0.220900	0.450300
C641	C64	0.347300	0.224800	0.470700
H811	H81	0.308600	0.203700	0.445400
C651	C65	0.332600	0.259400	0.526700
H821	H82	0.282100	0.258600	0.540600
C661	C66	0.449900	0.292300	0.544800
H831	H83	0.486200	0.317000	0.570100
C671	C67	0.473100	0.255500	0.488300
H841	H84	0.524500	0.254900	0.476700
C681	C68	0.925500	0.251900	0.266700
H851	H85	0.945700	0.259200	0.309500
C691	C69	0.954000	0.288600	0.214600
H861	H86	0.993300	0.321300	0.222700
C701	C70	0.928800	0.280600	0.151100
C711	C71	0.866300	0.235200	0.146300
H871	H87	0.843200	0.227900	0.104800
C721	C72	0.838200	0.201100	0.201900
H881	H88	0.794000	0.173800	0.197100
C731	C73	0.898800	0.350100	0.018200
H891	H89	0.867000	0.308700	0.007500
H901	H90	0.866900	0.387300	0.038000
C741	C74	0.936900	0.379600	0.952900
H911	H91	0.898200	0.394300	0.921600
H921	H92	0.967700	0.342300	0.933000
H931	H93	0.968400	0.420500	0.963800
C751	C75	0.036800	0.259500	0.036100
H941	H94	0.006400	0.221000	0.016600
H951	H95	0.061300	0.284700	0.999100
C761	C76	0.101000	0.223300	0.079400
H961	H96	0.129800	0.190500	0.051800
H971	H97	0.078300	0.197000	0.115900
H981	H98	0.134100	0.260100	0.096900
C771	C77	0.022400	0.406200	0.103200
C781	C78	0.099700	0.404700	0.120900
H991	H99	0.126600	0.361300	0.119900
C791	C79	0.133400	0.464400	0.138800
H1001	H100	0.184800	0.460900	0.149800
C801	C80	0.029600	0.530200	0.128900
H1011	H101	0.003800	0.574000	0.133200
C811	C81	0.989600	0.469700	0.108200
H1021	H102	0.938200	0.474200	0.097500
Ag41	Ag4	0.664790	0.867020	0.848070
Si71	Si7	0.052840	0.825440	0.870140
Si81	Si8	0.528870	0.676300	0.576830
N131	N13	0.793100	0.859500	0.860500
N141	N14	0.121600	0.705900	0.064800
N151	N15	0.632100	0.795700	0.758400
N161	N16	0.396900	0.471900	0.642900
C821	C82	0.824800	0.795500	0.857400
H1031	H103	0.792800	0.755700	0.852700
C831	C83	0.900400	0.782800	0.860500
H1041	H104	0.918800	0.735600	0.857300
C841	C84	0.949700	0.839300	0.868500
C851	C85	0.916700	0.905300	0.876200
H1051	H105	0.946500	0.945900	0.884900
C861	C86	0.838200	0.911800	0.871000
H1061	H106	0.817200	0.957900	0.875600
C871	C87	0.101600	0.915400	0.867400
H1071	H107	0.085700	0.944000	0.905200
H1081	H108	0.088300	0.939900	0.826400
H1091	H109	0.155700	0.908400	0.869000
C881	C88	0.080500	0.763800	0.800800
H1101	H110	0.124600	0.736200	0.815200
H1111	H111	0.039300	0.729600	0.793700
C891	C89	0.096500	0.793800	0.743400
H1121	H112	0.083800	0.761100	0.707500
H1131	H113	0.149900	0.804800	0.741600
H1141	H114	0.067700	0.837700	0.738500
C901	C90	0.076800	0.779100	0.950300
C911	C91	0.152700	0.775200	0.970700
H1151	H115	0.191400	0.796300	0.945400
C921	C92	0.167400	0.740600	0.026700
H1161	H116	0.217900	0.741400	0.040600
C931	C93	0.050100	0.707700	0.044800
H1171	H117	0.013800	0.683000	0.070100
C941	C94	0.026900	0.744500	0.988300
H1181	H118	0.975500	0.745100	0.976700
C951	C95	0.574500	0.748100	0.766700
H1191	H119	0.554300	0.740800	0.809500
C961	C96	0.546000	0.711400	0.714600
H1201	H120	0.506700	0.678700	0.722700
C971	C97	0.571200	0.719400	0.651100
C981	C98	0.633700	0.764800	0.646300
H1211	H121	0.656800	0.772100	0.604800
C991	C99	0.661800	0.798900	0.701900
H1221	H122	0.706000	0.826200	0.697100
C1001	C100	0.601200	0.649900	0.518200
H1231	H123	0.633000	0.691300	0.507500
H1241	H124	0.633100	0.612700	0.538000
C1011	C101	0.563100	0.620400	0.452900
H1251	H125	0.601800	0.605700	0.421600
H1261	H126	0.532300	0.657700	0.433000
H1271	H127	0.531600	0.579500	0.463800
C1021	C102	0.463200	0.740500	0.536100
H1281	H128	0.493600	0.779000	0.516600
H1291	H129	0.438700	0.715300	0.499100
C1031	C103	0.399000	0.776700	0.579400
H1301	H130	0.370200	0.809500	0.551800
H1311	H131	0.421700	0.803000	0.615900
H1321	H132	0.365900	0.739900	0.596900
C1041	C104	0.477600	0.593800	0.603200
C1051	C105	0.400300	0.595300	0.620900
H1331	H133	0.373400	0.638700	0.619900
C1061	C106	0.366600	0.535600	0.638800
H1341	H134	0.315200	0.539100	0.649800
C1071	C107	0.470400	0.469800	0.628900
H1351	H135	0.496200	0.426000	0.633200
C1081	C108	0.510400	0.530300	0.608200
H1361	H136	0.561800	0.525800	0.597500
Ag51	Ag5	0.657790	0.373940	0.159350
Si91	Si9	0.957670	0.476400	0.362100
Si101	Si10	0.356080	0.501310	0.353620
N171	N17	0.557400	0.405800	0.232200
N181	N18	0.358200	0.750800	0.353700
N191	N19	0.756900	0.413200	0.220800
N201	N20	0.867800	0.585700	0.554200
C1091	C109	0.803300	0.465500	0.206100
H1371	H137	0.798100	0.487600	0.164300
C1101	C110	0.858900	0.490300	0.247600
H1381	H138	0.886200	0.531700	0.235800
C1111	C111	0.875700	0.454800	0.307300
C1121	C112	0.828700	0.400800	0.321200
H1391	H139	0.835500	0.374100	0.360500
C1131	C113	0.770600	0.383700	0.278900
H1401	H140	0.737500	0.347400	0.292900
C1141	C114	0.020100	0.542100	0.317000
H1411	H141	0.063100	0.553800	0.344700
H1421	H142	0.991800	0.585400	0.307300
H1431	H143	0.037400	0.520800	0.275600
C1151	C115	0.005000	0.395800	0.383900
H1441	H144	0.967600	0.361600	0.400800
H1451	H145	0.026900	0.375100	0.343400
C1161	C116	0.071300	0.404200	0.439100
H1461	H146	0.095700	0.358100	0.445900
H1471	H147	0.049700	0.420500	0.480800
H1481	H148	0.108100	0.438800	0.423700
C1171	C117	0.919500	0.520200	0.437600
C1181	C118	0.842800	0.519800	0.456100
H1491	H149	0.806100	0.497100	0.429700
C1191	C119	0.823400	0.555500	0.516900
H1501	H150	0.772300	0.555700	0.529200
C1201	C120	0.939100	0.587400	0.537300
H1511	H151	0.974100	0.607200	0.567300
C1211	C121	0.964400	0.561600	0.477800
H1521	H152	0.013700	0.572500	0.464000
C1221	C122	0.566200	0.439600	0.291700
H1531	H153	0.614700	0.443700	0.310000
C1231	C123	0.507800	0.467100	0.324800
H1541	H154	0.517700	0.490000	0.365600
C1241	C124	0.435800	0.464500	0.304000
C1251	C125	0.427600	0.432300	0.246500
H1551	H155	0.379200	0.431000	0.227600
C1261	C126	0.485000	0.400900	0.212700
H1561	H156	0.473700	0.374600	0.174100
C1271	C127	0.362000	0.463600	0.439300
H1571	H157	0.310800	0.462300	0.457500
H1581	H158	0.379100	0.413700	0.435500
C1281	C128	0.413800	0.501900	0.492000
H1591	H159	0.462900	0.478900	0.492600
H1601	H160	0.391000	0.498300	0.535700
H1611	H161	0.419600	0.552000	0.480100
C1291	C129	0.263000	0.484300	0.306300
H1621	H162	0.239100	0.521800	0.283200
C1301	C130	0.230000	0.411800	0.306900
H1631	H163	0.182900	0.412100	0.282200
H1641	H164	0.220300	0.397200	0.352500
H1651	H165	0.264700	0.378300	0.286300
C1311	C131	0.360900	0.601600	0.354900
C1321	C132	0.323000	0.640000	0.404200
H1661	H166	0.296800	0.616100	0.438400
C1331	C133	0.325000	0.712800	0.401400
H1671	H167	0.301000	0.738300	0.435900
C1341	C134	0.395100	0.714400	0.310600
H1681	H168	0.422300	0.739500	0.277900
C1351	C135	0.397200	0.639300	0.309300
H1691	H169	0.424700	0.615600	0.275900
Ag61	Ag6	0.842210	0.626060	0.659350
Si111	Si11	0.542330	0.523600	0.862100
Si121	Si12	0.143920	0.498690	0.853620
N211	N21	0.942600	0.594200	0.732200
N221	N22	0.141800	0.249200	0.853700
N231	N23	0.743100	0.586800	0.720800
N241	N24	0.632200	0.414300	0.054200
C1361	C136	0.696700	0.534500	0.706100
H1701	H170	0.701900	0.512400	0.664300
C1371	C137	0.641100	0.509700	0.747600
H1711	H171	0.613800	0.468300	0.735800
C1381	C138	0.624300	0.545200	0.807300
C1391	C139	0.671300	0.599200	0.821200
H1721	H172	0.664500	0.625900	0.860500
C1401	C140	0.729400	0.616300	0.778900
H1731	H173	0.762500	0.652600	0.792900
C1411	C141	0.479900	0.457900	0.817000
H1741	H174	0.436900	0.446200	0.844700
H1751	H175	0.508200	0.414600	0.807300
H1761	H176	0.462600	0.479200	0.775600
C1421	C142	0.495000	0.604200	0.883900
H1771	H177	0.532400	0.638400	0.900800
H1781	H178	0.473100	0.624900	0.843400
C1431	C143	0.428700	0.595800	0.939100
H1791	H179	0.404300	0.641900	0.945900
H1801	H180	0.450300	0.579500	0.980800
H1811	H181	0.391900	0.561200	0.923700
C1441	C144	0.580500	0.479800	0.937600
C1451	C145	0.657200	0.480200	0.956100
H1821	H182	0.693900	0.502900	0.929700
C1461	C146	0.676600	0.444500	0.016900
H1831	H183	0.727700	0.444300	0.029200
C1471	C147	0.560900	0.412600	0.037300
H1841	H184	0.525900	0.392800	0.067300
C1481	C148	0.535600	0.438400	0.977800
H1851	H185	0.486300	0.427500	0.964000
C1491	C149	0.933800	0.560400	0.791700
H1861	H186	0.885300	0.556300	0.810000
C1501	C150	0.992200	0.532900	0.824800
H1871	H187	0.982300	0.510000	0.865600
C1511	C151	0.064200	0.535500	0.804000
C1521	C152	0.072400	0.567700	0.746500
H1881	H188	0.120800	0.569000	0.727600
C1531	C153	0.015000	0.599100	0.712700
H1891	H189	0.026300	0.625400	0.674100
C1541	C154	0.138000	0.536400	0.939300
H1901	H190	0.189200	0.537700	0.957500
H1911	H191	0.120900	0.586300	0.935500
C1551	C155	0.086200	0.498100	0.992000
H1921	H192	0.037100	0.521100	0.992600
H1931	H193	0.109000	0.501700	0.035700
H1941	H194	0.080400	0.448000	0.980100
C1561	C156	0.237000	0.515700	0.806300
H1951	H195	0.260900	0.478200	0.783200
C1571	C157	0.270000	0.588200	0.806900
H1961	H196	0.317100	0.587900	0.782200
H1971	H197	0.279700	0.602800	0.852500
H1981	H198	0.235300	0.621700	0.786300
C1581	C158	0.139100	0.398400	0.854900
C1591	C159	0.177000	0.360000	0.904200
H1991	H199	0.203200	0.383900	0.938400
C1601	C160	0.175000	0.287200	0.901400
H2001	H200	0.199000	0.261700	0.935900
C1611	C161	0.104900	0.285600	0.810600
H2011	H201	0.077700	0.260500	0.777900
C1621	C162	0.102800	0.360700	0.809300
H2021	H202	0.075300	0.384400	0.775900
Ag71	Ag7	0.342210	0.873940	0.340650
Si131	Si13	0.042330	0.976400	0.137900
Si141	Si14	0.643920	0.001310	0.146380
N251	N25	0.442600	0.905800	0.267800
N261	N26	0.641800	0.250800	0.146300
N271	N27	0.243100	0.913200	0.279200
N281	N28	0.132200	0.085700	0.945800
C1631	C163	0.196700	0.965500	0.293900
H2031	H203	0.201900	0.987600	0.335700
C1641	C164	0.141100	0.990300	0.252400
H2041	H204	0.113800	0.031700	0.264200
C1651	C165	0.124300	0.954800	0.192700
C1661	C166	0.171300	0.900800	0.178800
H2051	H205	0.164500	0.874100	0.139500
C1671	C167	0.229400	0.883700	0.221100
H2061	H206	0.262500	0.847400	0.207100
C1681	C168	0.979900	0.042100	0.183000
H2071	H207	0.936900	0.053800	0.155300
H2081	H208	0.008200	0.085400	0.192700
H2091	H209	0.962600	0.020800	0.224400
C1691	C169	0.995000	0.895800	0.116100
H2101	H210	0.032400	0.861600	0.099200
H2111	H211	0.973100	0.875100	0.156600
C1701	C170	0.928700	0.904200	0.060900
H2121	H212	0.904300	0.858100	0.054100
H2131	H213	0.950300	0.920500	0.019200
H2141	H214	0.891900	0.938800	0.076300
C1711	C171	0.080500	0.020200	0.062400
C1721	C172	0.157200	0.019800	0.043900
H2151	H215	0.193900	0.997100	0.070300
C1731	C173	0.176600	0.055500	0.983100
H2161	H216	0.227700	0.055700	0.970800
C1741	C174	0.060900	0.087400	0.962700
H2171	H217	0.025900	0.107200	0.932700
C1751	C175	0.035600	0.061600	0.022200
H2181	H218	0.986300	0.072500	0.036000
C1761	C176	0.433800	0.939600	0.208300
H2191	H219	0.385300	0.943700	0.190000
C1771	C177	0.492200	0.967100	0.175200
H2201	H220	0.482300	0.990000	0.134400
C1781	C178	0.564200	0.964500	0.196000
C1791	C179	0.572400	0.932300	0.253500
H2211	H221	0.620800	0.931000	0.272400
C1801	C180	0.515000	0.900900	0.287300
H2221	H222	0.526300	0.874600	0.325900
C1811	C181	0.638000	0.963600	0.060700
H2231	H223	0.689200	0.962300	0.042500
H2241	H224	0.620900	0.913700	0.064500
C1821	C182	0.586200	0.001900	0.008000
H2251	H225	0.537100	0.978900	0.007400
H2261	H226	0.609000	0.998300	0.964300
H2271	H227	0.580400	0.052000	0.019900
C1831	C183	0.737000	0.984300	0.193700
H2281	H228	0.760900	0.021800	0.216800
C1841	C184	0.770000	0.911800	0.193100
H2291	H229	0.817100	0.912100	0.217800
H2301	H230	0.779700	0.897200	0.147500
H2311	H231	0.735300	0.878300	0.213700
C1851	C185	0.639100	0.101600	0.145100
C1861	C186	0.677000	0.140000	0.095800
H2321	H232	0.703200	0.116100	0.061600
C1871	C187	0.675000	0.212800	0.098600
H2331	H233	0.699000	0.238300	0.064100
C1881	C188	0.604900	0.214400	0.189400
H2341	H234	0.577700	0.239500	0.222100
C1891	C189	0.602800	0.139300	0.190700
H2351	H235	0.575300	0.115600	0.224100
Ag81	Ag8	0.157790	0.126060	0.840650
Si151	Si15	0.457670	0.023600	0.637900
Si161	Si16	0.856080	0.998690	0.646380
N291	N29	0.057400	0.094200	0.767800
N301	N30	0.858200	0.749200	0.646300
N311	N31	0.256900	0.086800	0.779200
N321	N32	0.367800	0.914300	0.445800
C1901	C190	0.303300	0.034500	0.793900
H2361	H236	0.298100	0.012400	0.835700
C1911	C191	0.358900	0.009700	0.752400
H2371	H237	0.386200	0.968300	0.764200
C1921	C192	0.375700	0.045200	0.692700
C1931	C193	0.328700	0.099200	0.678800
H2381	H238	0.335500	0.125900	0.639500
C1941	C194	0.270600	0.116300	0.721100
H2391	H239	0.237500	0.152600	0.707100
C1951	C195	0.520100	0.957900	0.683000
H2401	H240	0.563100	0.946200	0.655300
H2411	H241	0.491800	0.914600	0.692700
H2421	H242	0.537400	0.979200	0.724400
C1961	C196	0.505000	0.104200	0.616100
H2431	H243	0.467600	0.138400	0.599200
H2441	H244	0.526900	0.124900	0.656600
C1971	C197	0.571300	0.095800	0.560900
H2451	H245	0.595700	0.141900	0.554100
H2461	H246	0.549700	0.079500	0.519200
H2471	H247	0.608100	0.061200	0.576300
C1981	C198	0.419500	0.979800	0.562400
C1991	C199	0.342800	0.980200	0.543900
H2481	H248	0.306100	0.002900	0.570300
C2001	C200	0.323400	0.944500	0.483100
H2491	H249	0.272300	0.944300	0.470800
C2011	C201	0.439100	0.912600	0.462700
H2501	H250	0.474100	0.892800	0.432700
C2021	C202	0.464400	0.938400	0.522200
H2511	H251	0.513700	0.927500	0.536000
C2031	C203	0.066200	0.060400	0.708300
H2521	H252	0.114700	0.056300	0.690000
C2041	C204	0.007800	0.032900	0.675200
H2531	H253	0.017700	0.010000	0.634400
C2051	C205	0.935800	0.035500	0.696000
C2061	C206	0.927600	0.067700	0.753500
H2541	H254	0.879200	0.069000	0.772400
C2071	C207	0.985000	0.099100	0.787300
H2551	H255	0.973700	0.125400	0.825900
C2081	C208	0.862000	0.036400	0.560700
H2561	H256	0.810800	0.037700	0.542500
H2571	H257	0.879100	0.086300	0.564500
C2091	C209	0.913800	0.998100	0.508000
H2581	H258	0.962900	0.021100	0.507400
H2591	H259	0.891000	0.001700	0.464300
H2601	H260	0.919600	0.948000	0.519900
C2101	C210	0.763000	0.015700	0.693700
H2611	H261	0.739100	0.978200	0.716800
C2111	C211	0.730000	0.088200	0.693100
H2621	H262	0.682900	0.087900	0.717800
H2631	H263	0.720300	0.102800	0.647500
H2641	H264	0.764700	0.121700	0.713700
C2121	C212	0.860900	0.898400	0.645100
C2131	C213	0.823000	0.860000	0.595800
H2651	H265	0.796800	0.883900	0.561600
C2141	C214	0.825000	0.787200	0.598600
H2661	H266	0.801000	0.761700	0.564100
C2151	C215	0.895100	0.785600	0.689400
H2671	H267	0.922300	0.760500	0.722100
C2161	C216	0.897200	0.860700	0.690700
H2681	H268	0.924700	0.884400	0.724100
