data_QIYDOT_freeONLY_PM
_symmetry_space_group_name_H-M	'P1'
_cell_length_a	37.706900
_cell_length_b	37.706900
_cell_length_c	37.706900
_cell_angle_alpha	60.070300
_cell_angle_beta	75.491100
_cell_angle_gamma	104.509000
_symmetry_Int_Tables_number 1

loop_
_symmetry_equiv_pos_as_xyz
'x,y,z'

loop_
_atom_site_label
_atom_site_type_symbol
_atom_site_fract_x
_atom_site_fract_y
_atom_site_fract_z
Cu11	Cu1	0.000000	0.215350	0.784650
Cu21	Cu2	0.755680	0.127840	0.372160
Cu31	Cu3	0.675260	0.087630	0.412370
Cu41	Cu4	0.500000	0.372160	0.872160
Cu51	Cu5	0.500000	0.627840	0.127840
Cu61	Cu6	0.244320	0.872160	0.627840
Cu71	Cu7	0.000000	0.784650	0.215350
Cu81	Cu8	0.500000	0.412370	0.912370
Cu91	Cu9	0.000000	0.715350	0.284650
Cu101	Cu10	0.000000	0.284650	0.715350
Cu111	Cu11	0.324740	0.912370	0.587630
Cu121	Cu12	0.500000	0.587630	0.087630
H11	H1	0.781300	0.083400	0.550100
H21	H2	0.341600	0.721700	0.650100
H31	H3	0.684300	0.750000	0.565700
H41	H4	0.226100	0.937400	0.316300
H51	H5	0.601700	0.019200	0.417500
H61	H6	0.527300	0.045600	0.518300
H71	H7	0.416100	0.622000	0.032500
H81	H8	0.398300	0.980800	0.582500
H91	H9	0.658400	0.150100	0.221700
H101	H10	0.654500	0.122000	0.294100
H111	H11	0.589400	0.330400	0.892200
H121	H12	0.366500	0.449900	0.331400
H131	H13	0.226100	0.183700	0.562600
H141	H14	0.563900	0.545600	0.981700
H151	H15	0.773900	0.457600	0.288700
H161	H16	0.222600	0.741000	0.669600
H171	H17	0.253700	0.042400	0.183700
H181	H18	0.315700	0.565700	0.750000
H191	H19	0.773900	0.211300	0.042400
H201	H20	0.093700	0.286900	0.801400
H211	H21	0.589400	0.759000	0.018400
H221	H22	0.410600	0.392200	0.830400
H231	H23	0.860600	0.806500	0.335900
H241	H24	0.345500	0.051400	0.532500
H251	H25	0.857600	0.664100	0.196500
H261	H26	0.093700	0.895100	0.193200
H271	H27	0.911700	0.604900	0.301400
H281	H28	0.777400	0.169600	0.241000
H291	H29	0.416100	0.448600	0.205900
H301	H30	0.906300	0.713100	0.198600
H311	H31	0.253700	0.437400	0.788700
H321	H32	0.410600	0.518400	0.259000
H331	H33	0.589400	0.481600	0.741000
H341	H34	0.218700	0.802100	0.831400
H351	H35	0.366500	0.416600	0.802100
H361	H36	0.746300	0.288700	0.937400
H371	H37	0.658400	0.278300	0.349900
H381	H38	0.777400	0.018400	0.392200
H391	H39	0.139400	0.193500	0.664100
H401	H40	0.371800	0.650100	0.008300
H411	H41	0.142400	0.696500	0.164100
H421	H42	0.684300	0.434300	0.250000
H431	H43	0.088300	0.801400	0.104900
H441	H44	0.911700	0.213100	0.693200
H451	H45	0.436100	0.481700	0.045600
H461	H46	0.777400	0.259000	0.330400
H471	H47	0.226100	0.788700	0.957600
H481	H48	0.563300	0.582500	0.019200
H491	H49	0.633500	0.550100	0.668600
H501	H50	0.860600	0.164100	0.693500
H511	H51	0.601700	0.082500	0.480800
H521	H52	0.371800	0.221700	0.119900
H531	H53	0.860600	0.554100	0.303500
H541	H54	0.315700	0.250000	0.434300
H551	H55	0.658400	0.880100	0.491700
H561	H56	0.583900	0.532500	0.122000
H571	H57	0.416100	0.467500	0.878000
H581	H58	0.226100	0.542400	0.711300
H591	H59	0.436700	0.519200	0.082500
H601	H60	0.093700	0.698600	0.213100
H611	H61	0.341600	0.849900	0.778300
H621	H62	0.410600	0.241000	0.981600
H631	H63	0.583900	0.378000	0.967500
H641	H64	0.781300	0.331400	0.302100
H651	H65	0.746300	0.957600	0.816300
H661	H66	0.139400	0.803500	0.054100
H671	H67	0.906300	0.104900	0.806800
H681	H68	0.345500	0.878000	0.705900
H691	H69	0.315700	0.065700	0.250000
H701	H70	0.746300	0.683700	0.542400
H711	H71	0.911700	0.198600	0.895100
H721	H72	0.472700	0.954400	0.481700
H731	H73	0.857600	0.693500	0.445900
H741	H74	0.218700	0.668600	0.697900
H751	H75	0.527300	0.981700	0.454400
H761	H76	0.633500	0.302100	0.916600
H771	H77	0.781300	0.949900	0.416600
H781	H78	0.563300	0.480800	0.917500
H791	H79	0.093700	0.306800	0.604900
H801	H80	0.906300	0.301400	0.786900
H811	H81	0.139400	0.445900	0.696500
H821	H82	0.654500	0.032500	0.551400
H831	H83	0.860600	0.196500	0.945900
H841	H84	0.222600	0.892200	0.518400
H851	H85	0.583900	0.705900	0.948600
H861	H86	0.563900	0.518300	0.954400
H871	H87	0.345500	0.794100	0.622000
H881	H88	0.345500	0.967500	0.448600
H891	H89	0.088300	0.193200	0.713100
H901	H90	0.583900	0.551400	0.794100
H911	H91	0.773900	0.816300	0.437400
H921	H92	0.857600	0.054100	0.806500
H931	H93	0.589400	0.607800	0.169600
H941	H94	0.371800	0.380100	0.278300
H951	H95	0.366500	0.168600	0.050100
H961	H96	0.633500	0.831400	0.949900
H971	H97	0.773900	0.062600	0.683700
H981	H98	0.911700	0.806800	0.286900
H991	H99	0.315700	0.750000	0.934300
H1001	H100	0.857600	0.303500	0.835900
H1011	H101	0.218700	0.916600	0.449900
H1021	H102	0.253700	0.316300	0.457600
H1031	H103	0.436700	0.417500	0.980800
H1041	H104	0.253700	0.711300	0.062600
H1051	H105	0.139400	0.835900	0.306500
H1061	H106	0.633500	0.583400	0.197900
H1071	H107	0.628200	0.778300	0.880100
H1081	H108	0.088300	0.786900	0.306800
H1091	H109	0.366500	0.697900	0.083400
H1101	H110	0.906300	0.693200	0.395100
H1111	H111	0.371800	0.491700	0.849900
H1121	H112	0.654500	0.948600	0.467500
H1131	H113	0.684300	0.934300	0.750000
H1141	H114	0.777400	0.107800	0.481600
H1151	H115	0.088300	0.395100	0.698600
H1161	H116	0.218700	0.050100	0.583400
H1171	H117	0.341600	0.119900	0.508300
H1181	H118	0.658400	0.008300	0.619900
H1191	H119	0.410600	0.669600	0.107800
H1201	H120	0.781300	0.197900	0.168600
H1211	H121	0.398300	0.917500	0.519200
H1221	H122	0.142400	0.945900	0.193500
H1231	H123	0.654500	0.205900	0.378000
H1241	H124	0.222600	0.830400	0.759000
H1251	H125	0.628200	0.619900	0.721700
H1261	H126	0.142400	0.306500	0.554100
H1271	H127	0.341600	0.991700	0.380100
H1281	H128	0.142400	0.335900	0.803500
H1291	H129	0.628200	0.508300	0.150100
H1301	H130	0.684300	0.250000	0.065700
H1311	H131	0.222600	0.981600	0.607800
H1321	H132	0.416100	0.294100	0.051400
H1331	H133	0.746300	0.562600	0.211300
H1341	H134	0.436100	0.454400	0.018300
H1351	H135	0.472700	0.018300	0.545600
H1361	H136	0.628200	0.349900	0.991700
C11	C1	0.447000	0.533300	0.180500
C21	C2	0.086100	0.336100	0.750000
C31	C3	0.597180	0.509510	0.737130
C41	C4	0.102980	0.718780	0.181200
C51	C5	0.458000	0.998600	0.540600
C61	C6	0.376490	0.682590	0.073100
C71	C7	0.913900	0.750000	0.336100
C81	C8	0.279800	0.688170	0.676750
C91	C9	0.500000	0.510480	0.010480
C101	C10	0.460800	0.459400	0.998600
C111	C11	0.856300	0.250000	0.893700
C121	C12	0.620300	0.528250	0.154150
C131	C13	0.947500	0.750000	0.302500
C141	C14	0.271400	0.557700	0.729500
C151	C15	0.275600	0.172300	0.514300
C161	C16	0.868600	0.282700	0.846500
C171	C17	0.763200	0.013200	0.750000
C181	C18	0.870800	0.153500	0.715100
C191	C19	0.826500	0.750000	0.423500
C201	C20	0.623510	0.550410	0.693900
C211	C21	0.741700	0.968300	0.790200
C221	C22	0.704700	0.954700	0.750000
C231	C23	0.286200	0.872500	0.680500
C241	C24	0.720200	0.043450	0.591630
C251	C25	0.553000	0.466700	0.819500
C261	C26	0.258300	0.290200	0.468300
C271	C27	0.313400	0.485700	0.789900
C281	C28	0.623510	0.806100	0.949590
C291	C29	0.620300	0.774450	0.907950
C301	C30	0.337200	0.364700	0.357100
C311	C31	0.758500	0.790200	0.468100
C321	C32	0.753360	0.262870	0.334310
C331	C33	0.376490	0.449590	0.306100
C341	C34	0.897020	0.115800	0.784180
C351	C35	0.413100	0.937200	0.524100
C361	C36	0.458000	0.959400	0.501400
C371	C37	0.086100	0.836100	0.250000
C381	C38	0.763200	0.250000	0.986800
C391	C39	0.173500	0.423500	0.750000
C401	C40	0.406030	0.268770	0.051140
C411	C41	0.704700	0.454700	0.250000
C421	C42	0.724400	0.210100	0.103300
C431	C43	0.870800	0.784900	0.346500
C441	C44	0.712800	0.713700	0.557700
C451	C45	0.755690	0.949590	0.426900
C461	C46	0.826500	0.250000	0.923500
C471	C47	0.856300	0.606300	0.250000
C481	C48	0.593970	0.731230	0.948860
C491	C49	0.379700	0.225550	0.092050
C501	C50	0.246640	0.009510	0.587670
C511	C51	0.680090	0.137260	0.268770
C521	C52	0.086100	0.750000	0.163900
C531	C53	0.417590	0.427470	0.856960
C541	C54	0.856300	0.106300	0.750000
C551	C55	0.662800	0.527500	0.194300
C561	C56	0.379700	0.471750	0.845850
C571	C57	0.364920	0.456550	0.823250
C581	C58	0.236800	0.250000	0.513200
C591	C59	0.899980	0.218780	0.884200
C601	C60	0.131400	0.284900	0.585900
C611	C61	0.712800	0.270500	0.000900
C621	C62	0.402820	0.237130	0.009510
C631	C63	0.278200	0.642900	0.694300
C641	C64	0.713800	0.127500	0.319500
C651	C65	0.479040	0.989520	0.510480
C661	C66	0.715570	0.225450	0.356960
C671	C67	0.713800	0.086300	0.466700
C681	C68	0.284430	0.927470	0.490120
C691	C69	0.797800	0.750000	0.452200
C701	C70	0.129200	0.215100	0.653500
C711	C71	0.236800	0.750000	0.013200
C721	C72	0.680090	0.042830	0.551140
C731	C73	0.129200	0.782700	0.085900
C741	C74	0.284430	0.774550	0.643040
C751	C75	0.680090	0.231230	0.362740
C761	C76	0.582410	0.572530	0.143040
C771	C77	0.682400	0.154150	0.225550
C781	C78	0.728600	0.442300	0.270500
C791	C79	0.287200	0.729500	0.999100
C801	C80	0.682400	0.907950	0.471750
C811	C81	0.755690	0.073100	0.550410
C821	C82	0.202200	0.250000	0.547800
C831	C83	0.086100	0.250000	0.663900
C841	C84	0.870800	0.217300	0.914100
C851	C85	0.278200	0.972500	0.364700
C861	C86	0.286200	0.913700	0.533300
C871	C87	0.500000	0.489520	0.989520
C881	C88	0.704700	0.250000	0.045300
C891	C89	0.100020	0.215820	0.681200
C901	C90	0.553000	0.372500	0.913700
C911	C91	0.680090	0.948860	0.457170
C921	C92	0.797800	0.250000	0.952200
C931	C93	0.271400	0.213700	0.499100
C941	C94	0.447000	0.627500	0.086300
C951	C95	0.317600	0.845850	0.774450
C961	C96	0.236800	0.486800	0.750000
C971	C97	0.313400	0.327700	0.396700
C981	C98	0.337200	0.472500	0.805700
C991	C99	0.758500	0.031900	0.709800
C1001	C100	0.052500	0.302500	0.750000
C1011	C101	0.868600	0.715100	0.414100
C1021	C102	0.662800	0.305700	0.972500
C1031	C103	0.704700	0.750000	0.545300
C1041	C104	0.623510	0.317410	0.926900
C1051	C105	0.143700	0.893700	0.250000
C1061	C106	0.202200	0.452200	0.750000
C1071	C107	0.715570	0.143040	0.274550
C1081	C108	0.897020	0.681200	0.218780
C1091	C109	0.376490	0.193900	0.050410
C1101	C110	0.271400	0.000900	0.286300
C1111	C111	0.052500	0.250000	0.697500
C1121	C112	0.202200	0.952200	0.250000
C1131	C113	0.284430	0.856960	0.725450
C1141	C114	0.582410	0.509880	0.774550
C1151	C115	0.413100	0.975900	0.562800
C1161	C116	0.635080	0.543450	0.176750
C1171	C117	0.337200	0.142900	0.135300
C1181	C118	0.686600	0.672300	0.603300
C1191	C119	0.542000	0.040600	0.498600
C1201	C120	0.715570	0.072530	0.509880
C1211	C121	0.313400	0.103300	0.172300
C1221	C122	0.720200	0.311830	0.323250
C1231	C123	0.319910	0.051140	0.542830
C1241	C124	0.052500	0.750000	0.197500
C1251	C125	0.721800	0.357100	0.305700
C1261	C126	0.947500	0.250000	0.802500
C1271	C127	0.100020	0.781220	0.115800
C1281	C128	0.947500	0.197500	0.750000
C1291	C129	0.258300	0.468100	0.773400
C1301	C130	0.406030	0.637260	0.042830
C1311	C131	0.402820	0.490490	0.262870
C1321	C132	0.721800	0.864700	0.472500
C1331	C133	0.720200	0.176750	0.188170
C1341	C134	0.947500	0.697500	0.250000
C1351	C135	0.244310	0.693900	0.682590
C1361	C136	0.753360	0.165690	0.237130
C1371	C137	0.913900	0.663900	0.250000
C1381	C138	0.052500	0.802500	0.250000
C1391	C139	0.682400	0.274450	0.345850
C1401	C140	0.797800	0.047800	0.750000
C1411	C141	0.763200	0.513200	0.250000
C1421	C142	0.620300	0.592050	0.725550
C1431	C143	0.582410	0.725450	0.990120
C1441	C144	0.143700	0.250000	0.606300
C1451	C145	0.586900	0.062800	0.475900
C1461	C146	0.913900	0.250000	0.836100
C1471	C147	0.753360	0.087670	0.509510
C1481	C148	0.856300	0.750000	0.393700
C1491	C149	0.539200	0.498600	0.959400
C1501	C150	0.379700	0.407950	0.274450
C1511	C151	0.287200	0.286300	0.442300
C1521	C152	0.317600	0.092050	0.528250
C1531	C153	0.713800	0.180500	0.372500
C1541	C154	0.406030	0.448860	0.231230
C1551	C155	0.279800	0.823250	0.811830
C1561	C156	0.724400	0.396700	0.289900
C1571	C157	0.826500	0.576500	0.250000
C1581	C158	0.129200	0.846500	0.284900
C1591	C159	0.278200	0.805700	0.857100
C1601	C160	0.241500	0.968100	0.290200
C1611	C161	0.295300	0.750000	0.954700
C1621	C162	0.100020	0.818800	0.284180
C1631	C163	0.364920	0.676750	0.043450
C1641	C164	0.724400	0.014300	0.672300
C1651	C165	0.102980	0.884200	0.215820
C1661	C166	0.763200	0.750000	0.486800
C1671	C167	0.586900	0.024100	0.437200
C1681	C168	0.287200	0.057700	0.213700
C1691	C169	0.295300	0.250000	0.454700
C1701	C170	0.635080	0.591630	0.688170
C1711	C171	0.319910	0.862740	0.731230
C1721	C172	0.402820	0.412330	0.834310
C1731	C173	0.131400	0.717300	0.153500
C1741	C174	0.364920	0.408370	0.311830
C1751	C175	0.275600	0.603300	0.710100
C1761	C176	0.826500	0.076500	0.750000
C1771	C177	0.538700	0.562800	0.024100
C1781	C178	0.520960	0.010480	0.489520
C1791	C179	0.582410	0.356960	0.927470
C1801	C180	0.417590	0.274550	0.009880
C1811	C181	0.721800	0.027500	0.635300
C1821	C182	0.868600	0.085900	0.784900
C1831	C183	0.286200	0.966700	0.586300
C1841	C184	0.597180	0.587670	0.165690
C1851	C185	0.319910	0.768770	0.637260
C1861	C186	0.279800	0.956550	0.408370
C1871	C187	0.236800	0.986800	0.250000
C1881	C188	0.287200	0.500900	0.770500
C1891	C189	0.286200	0.819500	0.627500
C1901	C190	0.244310	0.817410	0.806100
C1911	C191	0.244310	0.050410	0.573100
C1921	C192	0.721800	0.194300	0.142900
C1931	C193	0.143700	0.393700	0.750000
C1941	C194	0.313400	0.710100	0.014300
C1951	C195	0.246640	0.912330	0.490490
C1961	C196	0.100020	0.384200	0.718780
C1971	C197	0.376490	0.426900	0.817410
C1981	C198	0.279800	0.091630	0.543450
C1991	C199	0.597180	0.334310	0.912330
C2001	C200	0.131400	0.914100	0.215100
C2011	C201	0.593970	0.542830	0.137260
C2021	C202	0.728600	0.229500	0.057700
C2031	C203	0.317600	0.725550	0.654150
C2041	C204	0.241500	0.531700	0.726600
C2051	C205	0.241500	0.773400	0.968300
C2061	C206	0.258300	0.726600	0.031900
C2071	C207	0.241500	0.209800	0.531900
C2081	C208	0.720200	0.908370	0.456550
C2091	C209	0.553000	0.586300	0.127500
C2101	C210	0.538700	0.475900	0.937200
C2111	C211	0.129200	0.414100	0.717300
C2121	C212	0.662800	0.635300	0.642900
C2131	C213	0.686600	0.514300	0.210100
C2141	C214	0.897020	0.281220	0.818800
C2151	C215	0.275600	0.985700	0.327700
C2161	C216	0.758500	0.226600	0.031700
C2171	C217	0.131400	0.346500	0.782700
C2181	C218	0.870800	0.585900	0.282700
C2191	C219	0.899980	0.784180	0.318800
C2201	C220	0.868600	0.653500	0.217300
C2211	C221	0.897020	0.715820	0.384200
C2221	C222	0.712800	0.942300	0.786300
C2231	C223	0.173500	0.923500	0.250000
C2241	C224	0.460800	0.501400	0.040600
C2251	C225	0.712800	0.499100	0.229500
C2261	C226	0.271400	0.770500	0.942300
C2271	C227	0.553000	0.680500	0.033300
C2281	C228	0.202200	0.750000	0.047800
C2291	C229	0.686600	0.289900	0.985700
C2301	C230	0.246640	0.737130	0.665690
C2311	C231	0.402820	0.665690	0.087670
C2321	C232	0.244310	0.926900	0.449590
C2331	C233	0.686600	0.896700	0.827700
C2341	C234	0.682400	0.028250	0.592050
C2351	C235	0.741700	0.709800	0.531700
C2361	C236	0.593970	0.362740	0.957170
C2371	C237	0.275600	0.789900	0.896700
C2381	C238	0.899980	0.181200	0.715820
C2391	C239	0.753360	0.990490	0.412330
C2401	C240	0.284430	0.009880	0.572530
C2411	C241	0.102980	0.318800	0.781220
C2421	C242	0.899980	0.615800	0.281220
C2431	C243	0.728600	0.786300	0.500900
C2441	C244	0.364920	0.188170	0.091630
C2451	C245	0.295300	0.545300	0.750000
C2461	C246	0.461300	0.437200	0.975900
C2471	C247	0.662800	0.857100	0.864700
C2481	C248	0.593970	0.551140	0.768770
C2491	C249	0.741700	0.273400	0.968100
C2501	C250	0.258300	0.031700	0.209800
C2511	C251	0.758500	0.468300	0.273400
C2521	C252	0.715570	0.990120	0.427470
C2531	C253	0.755690	0.182590	0.193900
C2541	C254	0.295300	0.045300	0.250000
C2551	C255	0.713800	0.033300	0.413700
C2561	C256	0.741700	0.531900	0.226600
C2571	C257	0.102980	0.284180	0.615800
C2581	C258	0.542000	0.001400	0.459400
C2591	C259	0.913900	0.163900	0.750000
C2601	C260	0.379700	0.654150	0.028250
C2611	C261	0.417590	0.643040	0.072530
C2621	C262	0.728600	0.999100	0.713700
C2631	C263	0.447000	0.413700	0.872500
C2641	C264	0.724400	0.827700	0.485700
C2651	C265	0.620300	0.345850	0.971750
C2661	C266	0.461300	0.524100	0.062800
C2671	C267	0.755690	0.306100	0.317410
C2681	C268	0.539200	0.540600	0.001400
C2691	C269	0.337200	0.694300	0.027500
C2701	C270	0.173500	0.250000	0.576500
C2711	C271	0.246640	0.834310	0.762870
C2721	C272	0.623510	0.573100	0.182590
C2731	C273	0.597180	0.762870	0.990490
C2741	C274	0.143700	0.750000	0.106300
C2751	C275	0.797800	0.547800	0.250000
C2761	C276	0.417590	0.490120	0.225450
C2771	C277	0.317600	0.971750	0.407950
C2781	C278	0.447000	0.319500	0.966700
C2791	C279	0.278200	0.135300	0.527500
C2801	C280	0.173500	0.750000	0.076500
C2811	C281	0.406030	0.457170	0.862740
C2821	C282	0.635080	0.811830	0.908370
C2831	C283	0.635080	0.323250	0.956550
C2841	C284	0.319910	0.957170	0.448860
N11	N1	0.500000	0.554100	0.054100
N21	N2	0.500000	0.445900	0.945900
N31	N3	0.608200	0.054100	0.445900
N41	N4	0.391800	0.945900	0.554100
O11	O1	0.750520	0.182140	0.359120
O21	O2	0.959690	0.238230	0.718660
O31	O3	0.043110	0.821650	0.218660
O41	O4	0.249480	0.817860	0.640880
O51	O5	0.680320	0.074600	0.466420
O61	O6	0.956890	0.278540	0.761770
O71	O7	0.000000	0.658640	0.341360
O81	O8	0.040310	0.321650	0.721460
O91	O9	0.959690	0.221460	0.821650
O101	O10	0.959690	0.678350	0.278540
O111	O11	0.680320	0.146740	0.394280
O121	O12	0.043110	0.261770	0.778540
O131	O13	0.000000	0.841360	0.158640
O141	O14	0.249480	0.931620	0.609640
O151	O15	0.541020	0.574600	0.105720
O161	O16	0.541020	0.466420	0.853260
O171	O17	0.043110	0.281340	0.678350
O181	O18	0.750520	0.140880	0.317860
O191	O19	0.750520	0.109640	0.431620
O201	O20	0.956890	0.738230	0.221460
O211	O21	0.249480	0.859120	0.682140
O221	O22	0.541260	0.682140	0.068380
O231	O23	0.458740	0.390360	0.859120
O241	O24	0.541020	0.394280	0.925400
O251	O25	0.458740	0.317860	0.931620
O261	O26	0.541260	0.431620	0.817860
O271	O27	0.959690	0.781340	0.261770
O281	O28	0.541260	0.609640	0.140880
O291	O29	0.458980	0.353260	0.966420
O301	O30	0.820720	0.160360	0.339640
O311	O31	0.750520	0.068380	0.390360
O321	O32	0.040310	0.761770	0.281340
O331	O33	0.680320	0.033580	0.425400
O341	O34	0.458980	0.605720	0.074600
O351	O35	0.249480	0.890360	0.568380
O361	O36	0.000000	0.341360	0.658640
O371	O37	0.956890	0.178350	0.781340
O381	O38	0.500000	0.339640	0.839640
O391	O39	0.000000	0.158640	0.841360
O401	O40	0.040310	0.778540	0.178350
O411	O41	0.040310	0.218660	0.738230
O421	O42	0.541020	0.646740	0.033580
O431	O43	0.043110	0.721460	0.238230
O441	O44	0.319680	0.966420	0.574600
O451	O45	0.458740	0.568380	0.182140
O461	O46	0.956890	0.718660	0.321650
O471	O47	0.458980	0.425400	0.894280
O481	O48	0.458740	0.640880	0.109640
O491	O49	0.179280	0.839640	0.660360
O501	O50	0.680320	0.105720	0.353260
O511	O51	0.500000	0.660360	0.160360
O521	O52	0.319680	0.894280	0.646740
O531	O53	0.541260	0.359120	0.890360
O541	O54	0.458980	0.533580	0.146740
O551	O55	0.319680	0.925400	0.533580
O561	O56	0.319680	0.853260	0.605720
