data_QOBWEJ01_freeONLY_PM
_symmetry_space_group_name_H-M	'P1'
_cell_length_a	10.184200
_cell_length_b	9.980300
_cell_length_c	10.437500
_cell_angle_alpha	90.000000
_cell_angle_beta	92.312000
_cell_angle_gamma	90.000000
_symmetry_Int_Tables_number 1

loop_
_symmetry_equiv_pos_as_xyz
'x,y,z'

loop_
_atom_site_label
_atom_site_type_symbol
_atom_site_fract_x
_atom_site_fract_y
_atom_site_fract_z
Zn11	Zn1	0.872280	0.288570	0.121080
Zn21	Zn2	0.583060	0.237460	0.398690
Zn31	Zn3	0.362640	0.464050	0.107140
Zn41	Zn4	0.079180	0.573070	0.375210
P11	P1	0.067460	0.532830	0.070530
P21	P2	0.883730	0.323790	0.431320
P31	P3	0.385510	0.490480	0.412350
P41	P4	0.571830	0.216280	0.094120
O11	O1	0.936200	0.457400	0.061900
O21	O2	0.908000	0.257300	0.302000
O31	O3	0.684500	0.313600	0.063000
O41	O4	0.069100	0.624300	0.954500
O51	O5	0.596700	0.158400	0.228500
O61	O6	0.430200	0.345200	0.424200
O71	O7	0.467400	0.579400	0.503700
O81	O8	0.737100	0.331500	0.457200
O91	O9	0.440700	0.290800	0.083200
O101	O10	0.561600	0.100900	0.998500
O111	O11	0.398200	0.543000	0.275500
O121	O12	0.179100	0.429900	0.070000
O131	O13	0.934700	0.468500	0.435100
O141	O14	0.956500	0.242400	0.536700
O151	O15	0.239200	0.492500	0.448100
O161	O16	0.076600	0.618100	0.193800
Zn51	Zn5	0.127720	0.788570	0.878920
Zn61	Zn6	0.416940	0.737460	0.601310
Zn71	Zn7	0.637360	0.964050	0.892860
Zn81	Zn8	0.920820	0.073070	0.624790
P51	P5	0.932540	0.032830	0.929470
P61	P6	0.116270	0.823790	0.568680
P71	P7	0.614490	0.990480	0.587650
P81	P8	0.428170	0.716280	0.905880
O171	O17	0.063800	0.957400	0.938100
O181	O18	0.092000	0.757300	0.698000
O191	O19	0.315500	0.813600	0.937000
O201	O20	0.930900	0.124300	0.045500
O211	O21	0.403300	0.658400	0.771500
O221	O22	0.569800	0.845200	0.575800
O231	O23	0.532600	0.079400	0.496300
O241	O24	0.262900	0.831500	0.542800
O251	O25	0.559300	0.790800	0.916800
O261	O26	0.438400	0.600900	0.001500
O271	O27	0.601800	0.043000	0.724500
O281	O28	0.820900	0.929900	0.930000
O291	O29	0.065300	0.968500	0.564900
O301	O30	0.043500	0.742400	0.463300
O311	O31	0.760800	0.992500	0.551900
O321	O32	0.923400	0.118100	0.806200
