data_QOCBUH_freeONLY_PM
_symmetry_space_group_name_H-M	'P1'
_cell_length_a	25.297000
_cell_length_b	4.886100
_cell_length_c	24.268000
_cell_angle_alpha	90.000000
_cell_angle_beta	118.285000
_cell_angle_gamma	90.000000
_symmetry_Int_Tables_number 1

loop_
_symmetry_equiv_pos_as_xyz
'x,y,z'

loop_
_atom_site_label
_atom_site_type_symbol
_atom_site_fract_x
_atom_site_fract_y
_atom_site_fract_z
Be11	Be1	0.182250	0.324000	0.748030
Be21	Be2	0.059090	0.339800	0.840700
Be31	Be3	0.262660	0.483100	0.072070
P11	P1	0.239520	0.837720	0.815490
P21	P2	0.066010	0.511330	0.725430
P31	P3	0.177400	0.522700	0.934600
O11	O1	0.217500	0.533900	0.811910
O21	O2	0.266170	0.930400	0.883710
O31	O3	0.287710	0.853900	0.796290
O41	O4	0.185000	0.013300	0.773670
O51	O5	0.113610	0.415700	0.708840
O61	O6	0.069120	0.833200	0.730250
H11	H1	0.104200	0.882800	0.745000
O71	O7	0.003880	0.461900	0.671460
O81	O8	0.075750	0.393700	0.786110
O91	O9	0.111630	0.450100	0.906210
O101	O10	0.207350	0.459200	0.003460
O111	O11	0.209330	0.340600	0.904690
O121	O12	0.183620	0.820900	0.920300
O131	O13	0.056560	0.006100	0.851640
H21	H2	0.053900	0.979600	0.883600
Be41	Be4	0.682250	0.824000	0.748030
Be51	Be5	0.559090	0.839800	0.840700
Be61	Be6	0.762660	0.983100	0.072070
P41	P4	0.739520	0.337720	0.815490
P51	P5	0.566010	0.011330	0.725430
P61	P6	0.677400	0.022700	0.934600
O141	O14	0.717500	0.033900	0.811910
O151	O15	0.766170	0.430400	0.883710
O161	O16	0.787710	0.353900	0.796290
O171	O17	0.685000	0.513300	0.773670
O181	O18	0.613610	0.915700	0.708840
O191	O19	0.569120	0.333200	0.730250
H31	H3	0.604200	0.382800	0.745000
O201	O20	0.503880	0.961900	0.671460
O211	O21	0.575750	0.893700	0.786110
O221	O22	0.611630	0.950100	0.906210
O231	O23	0.707350	0.959200	0.003460
O241	O24	0.709330	0.840600	0.904690
O251	O25	0.683620	0.320900	0.920300
O261	O26	0.556560	0.506100	0.851640
H41	H4	0.553900	0.479600	0.883600
Be71	Be7	0.817750	0.324000	0.751970
Be81	Be8	0.940910	0.339800	0.659300
Be91	Be9	0.737340	0.483100	0.427930
P71	P7	0.760480	0.837720	0.684510
P81	P8	0.933990	0.511330	0.774570
P91	P9	0.822600	0.522700	0.565400
O271	O27	0.782500	0.533900	0.688090
O281	O28	0.733830	0.930400	0.616290
O291	O29	0.712290	0.853900	0.703710
O301	O30	0.815000	0.013300	0.726330
O311	O31	0.886390	0.415700	0.791160
O321	O32	0.930880	0.833200	0.769750
H51	H5	0.895800	0.882800	0.755000
O331	O33	0.996120	0.461900	0.828540
O341	O34	0.924250	0.393700	0.713890
O351	O35	0.888370	0.450100	0.593790
O361	O36	0.792650	0.459200	0.496540
O371	O37	0.790670	0.340600	0.595310
O381	O38	0.816380	0.820900	0.579700
O391	O39	0.943440	0.006100	0.648360
H61	H6	0.946100	0.979600	0.616400
Be101	Be10	0.317750	0.824000	0.751970
Be111	Be11	0.440910	0.839800	0.659300
Be121	Be12	0.237340	0.983100	0.427930
P101	P10	0.260480	0.337720	0.684510
P111	P11	0.433990	0.011330	0.774570
P121	P12	0.322600	0.022700	0.565400
O401	O40	0.282500	0.033900	0.688090
O411	O41	0.233830	0.430400	0.616290
O421	O42	0.212290	0.353900	0.703710
O431	O43	0.315000	0.513300	0.726330
O441	O44	0.386390	0.915700	0.791160
O451	O45	0.430880	0.333200	0.769750
H71	H7	0.395800	0.382800	0.755000
O461	O46	0.496120	0.961900	0.828540
O471	O47	0.424250	0.893700	0.713890
O481	O48	0.388370	0.950100	0.593790
O491	O49	0.292650	0.959200	0.496540
O501	O50	0.290670	0.840600	0.595310
O511	O51	0.316380	0.320900	0.579700
O521	O52	0.443440	0.506100	0.648360
H81	H8	0.446100	0.479600	0.616400
Be131	Be13	0.817750	0.676000	0.251970
Be141	Be14	0.940910	0.660200	0.159300
Be151	Be15	0.737340	0.516900	0.927930
P131	P13	0.760480	0.162280	0.184510
P141	P14	0.933990	0.488670	0.274570
P151	P15	0.822600	0.477300	0.065400
O531	O53	0.782500	0.466100	0.188090
O541	O54	0.733830	0.069600	0.116290
O551	O55	0.712290	0.146100	0.203710
O561	O56	0.815000	0.986700	0.226330
O571	O57	0.886390	0.584300	0.291160
O581	O58	0.930880	0.166800	0.269750
H91	H9	0.895800	0.117200	0.255000
O591	O59	0.996120	0.538100	0.328540
O601	O60	0.924250	0.606300	0.213890
O611	O61	0.888370	0.549900	0.093790
O621	O62	0.792650	0.540800	0.996540
O631	O63	0.790670	0.659400	0.095310
O641	O64	0.816380	0.179100	0.079700
O651	O65	0.943440	0.993900	0.148360
H101	H10	0.946100	0.020400	0.116400
Be161	Be16	0.317750	0.176000	0.251970
Be171	Be17	0.440910	0.160200	0.159300
Be181	Be18	0.237340	0.016900	0.927930
P161	P16	0.260480	0.662280	0.184510
P171	P17	0.433990	0.988670	0.274570
P181	P18	0.322600	0.977300	0.065400
O661	O66	0.282500	0.966100	0.188090
O671	O67	0.233830	0.569600	0.116290
O681	O68	0.212290	0.646100	0.203710
O691	O69	0.315000	0.486700	0.226330
O701	O70	0.386390	0.084300	0.291160
O711	O71	0.430880	0.666800	0.269750
H111	H11	0.395800	0.617200	0.255000
O721	O72	0.496120	0.038100	0.328540
O731	O73	0.424250	0.106300	0.213890
O741	O74	0.388370	0.049900	0.093790
O751	O75	0.292650	0.040800	0.996540
O761	O76	0.290670	0.159400	0.095310
O771	O77	0.316380	0.679100	0.079700
O781	O78	0.443440	0.493900	0.148360
H121	H12	0.446100	0.520400	0.116400
Be191	Be19	0.182250	0.676000	0.248030
Be201	Be20	0.059090	0.660200	0.340700
Be211	Be21	0.262660	0.516900	0.572070
P191	P19	0.239520	0.162280	0.315490
P201	P20	0.066010	0.488670	0.225430
P211	P21	0.177400	0.477300	0.434600
O791	O79	0.217500	0.466100	0.311910
O801	O80	0.266170	0.069600	0.383710
O811	O81	0.287710	0.146100	0.296290
O821	O82	0.185000	0.986700	0.273670
O831	O83	0.113610	0.584300	0.208840
O841	O84	0.069120	0.166800	0.230250
H131	H13	0.104200	0.117200	0.245000
O851	O85	0.003880	0.538100	0.171460
O861	O86	0.075750	0.606300	0.286110
O871	O87	0.111630	0.549900	0.406210
O881	O88	0.207350	0.540800	0.503460
O891	O89	0.209330	0.659400	0.404690
O901	O90	0.183620	0.179100	0.420300
O911	O91	0.056560	0.993900	0.351640
H141	H14	0.053900	0.020400	0.383600
Be221	Be22	0.682250	0.176000	0.248030
Be231	Be23	0.559090	0.160200	0.340700
Be241	Be24	0.762660	0.016900	0.572070
P221	P22	0.739520	0.662280	0.315490
P231	P23	0.566010	0.988670	0.225430
P241	P24	0.677400	0.977300	0.434600
O921	O92	0.717500	0.966100	0.311910
O931	O93	0.766170	0.569600	0.383710
O941	O94	0.787710	0.646100	0.296290
O951	O95	0.685000	0.486700	0.273670
O961	O96	0.613610	0.084300	0.208840
O971	O97	0.569120	0.666800	0.230250
H151	H15	0.604200	0.617200	0.245000
O981	O98	0.503880	0.038100	0.171460
O991	O99	0.575750	0.106300	0.286110
O1001	O100	0.611630	0.049900	0.406210
O1011	O101	0.707350	0.040800	0.503460
O1021	O102	0.709330	0.159400	0.404690
O1031	O103	0.683620	0.679100	0.420300
O1041	O104	0.556560	0.493900	0.351640
H161	H16	0.553900	0.520400	0.383600
