data_QODHUO11_freeONLY_PM
_symmetry_space_group_name_H-M	'P1'
_cell_length_a	22.087000
_cell_length_b	16.317200
_cell_length_c	25.627900
_cell_angle_alpha	90.000000
_cell_angle_beta	115.265000
_cell_angle_gamma	90.000000
_symmetry_Int_Tables_number 1

loop_
_symmetry_equiv_pos_as_xyz
'x,y,z'

loop_
_atom_site_label
_atom_site_type_symbol
_atom_site_fract_x
_atom_site_fract_y
_atom_site_fract_z
Ag11	Ag1	0.822960	0.252120	0.867230
Ag21	Ag2	0.343970	0.457170	0.367760
C11	C1	0.623700	0.256800	0.502400
C21	C2	0.735300	0.065200	0.388200
H11	H1	0.713400	0.058600	0.348400
C31	C3	0.277600	0.637700	0.008900
H21	H2	0.298500	0.634000	0.048900
C41	C4	0.003300	0.383700	0.996500
H31	H3	0.022800	0.382200	0.036600
C51	C5	0.943500	0.343300	0.964800
H41	H4	0.923300	0.315200	0.984800
C61	C6	0.219600	0.652100	0.891900
H51	H5	0.199600	0.656500	0.851900
C71	C7	0.533200	0.312100	0.411200
H61	H6	0.555000	0.291200	0.390000
C81	C8	0.097700	0.469900	0.001000
C91	C9	0.798100	0.084000	0.504900
H71	H7	0.820400	0.088300	0.544900
C101	C10	0.559800	0.301900	0.470100
C111	C11	0.179200	0.456300	0.181500
H81	H8	0.135200	0.438800	0.161600
C121	C12	0.033400	0.426200	0.967100
C131	C13	0.709800	0.226900	0.587600
C141	C14	0.743300	0.237300	0.651400
C151	C15	0.525900	0.335200	0.500100
H91	H9	0.543000	0.330500	0.540000
C161	C16	0.180400	0.502300	0.088400
C171	C17	0.182500	0.551700	0.006700
C181	C18	0.826000	0.040800	0.474100
H101	H10	0.868000	0.017600	0.494400
C191	C19	0.215100	0.601300	0.977400
C201	C20	0.185500	0.609800	0.918200
H111	H11	0.143500	0.587500	0.896300
C211	C21	0.736200	0.120900	0.474900
C221	C22	0.307900	0.504800	0.242700
H121	H12	0.352100	0.521200	0.263400
C231	C23	0.466600	0.375300	0.469300
H131	H13	0.444300	0.397600	0.489600
C241	C24	0.705600	0.172100	0.505200
C251	C25	0.308100	0.679700	0.978900
H141	H14	0.349700	0.703600	0.999900
C261	C26	0.472800	0.354400	0.384000
H151	H15	0.455300	0.362100	0.344300
C271	C27	0.943600	0.383500	0.879600
H161	H16	0.923900	0.382400	0.839400
C281	C28	0.002300	0.427200	0.907100
H171	H17	0.020500	0.456500	0.886100
C291	C29	0.704000	0.110300	0.415200
H181	H18	0.662100	0.133400	0.393900
C301	C30	0.278200	0.516600	0.183300
H191	H19	0.302200	0.540200	0.164800
C311	C31	0.212300	0.492400	0.152000
C321	C32	0.828300	0.207100	0.744600
H201	H20	0.867700	0.179500	0.767200
C331	C33	0.715400	0.289400	0.678100
H211	H21	0.677300	0.319800	0.656300
C341	C34	0.802300	0.197500	0.685100
H221	H22	0.824000	0.165100	0.668500
C351	C35	0.211900	0.446500	0.240400
H231	H23	0.189000	0.422100	0.259500
C361	C36	0.745000	0.295300	0.737200
H241	H24	0.725700	0.330000	0.754700
N11	N1	0.913300	0.342600	0.907220
N21	N2	0.280000	0.687200	0.921400
N31	N3	0.275900	0.470900	0.271700
N41	N4	0.122800	0.462700	0.058900
N51	N5	0.126300	0.511200	0.973150
N61	N6	0.211500	0.549900	0.064850
N71	N7	0.439000	0.384300	0.412100
N81	N8	0.795700	0.030300	0.416560
N91	N9	0.800400	0.253600	0.771300
N101	N10	0.648000	0.210500	0.472600
N111	N11	0.738200	0.177500	0.563140
N121	N12	0.652900	0.268100	0.559230
Ag31	Ag3	0.322960	0.752120	0.867230
Ag41	Ag4	0.843970	0.957170	0.367760
C371	C37	0.123700	0.756800	0.502400
C381	C38	0.235300	0.565200	0.388200
H251	H25	0.213400	0.558600	0.348400
C391	C39	0.777600	0.137700	0.008900
H261	H26	0.798500	0.134000	0.048900
C401	C40	0.503300	0.883700	0.996500
H271	H27	0.522800	0.882200	0.036600
C411	C41	0.443500	0.843300	0.964800
H281	H28	0.423300	0.815200	0.984800
C421	C42	0.719600	0.152100	0.891900
H291	H29	0.699600	0.156500	0.851900
C431	C43	0.033200	0.812100	0.411200
H301	H30	0.055000	0.791200	0.390000
C441	C44	0.597700	0.969900	0.001000
C451	C45	0.298100	0.584000	0.504900
H311	H31	0.320400	0.588300	0.544900
C461	C46	0.059800	0.801900	0.470100
C471	C47	0.679200	0.956300	0.181500
H321	H32	0.635200	0.938800	0.161600
C481	C48	0.533400	0.926200	0.967100
C491	C49	0.209800	0.726900	0.587600
C501	C50	0.243300	0.737300	0.651400
C511	C51	0.025900	0.835200	0.500100
H331	H33	0.043000	0.830500	0.540000
C521	C52	0.680400	0.002300	0.088400
C531	C53	0.682500	0.051700	0.006700
C541	C54	0.326000	0.540800	0.474100
H341	H34	0.368000	0.517600	0.494400
C551	C55	0.715100	0.101300	0.977400
C561	C56	0.685500	0.109800	0.918200
H351	H35	0.643500	0.087500	0.896300
C571	C57	0.236200	0.620900	0.474900
C581	C58	0.807900	0.004800	0.242700
H361	H36	0.852100	0.021200	0.263400
C591	C59	0.966600	0.875300	0.469300
H371	H37	0.944300	0.897600	0.489600
C601	C60	0.205600	0.672100	0.505200
C611	C61	0.808100	0.179700	0.978900
H381	H38	0.849700	0.203600	0.999900
C621	C62	0.972800	0.854400	0.384000
H391	H39	0.955300	0.862100	0.344300
C631	C63	0.443600	0.883500	0.879600
H401	H40	0.423900	0.882400	0.839400
C641	C64	0.502300	0.927200	0.907100
H411	H41	0.520500	0.956500	0.886100
C651	C65	0.204000	0.610300	0.415200
H421	H42	0.162100	0.633400	0.393900
C661	C66	0.778200	0.016600	0.183300
H431	H43	0.802200	0.040200	0.164800
C671	C67	0.712300	0.992400	0.152000
C681	C68	0.328300	0.707100	0.744600
H441	H44	0.367700	0.679500	0.767200
C691	C69	0.215400	0.789400	0.678100
H451	H45	0.177300	0.819800	0.656300
C701	C70	0.302300	0.697500	0.685100
H461	H46	0.324000	0.665100	0.668500
C711	C71	0.711900	0.946500	0.240400
H471	H47	0.689000	0.922100	0.259500
C721	C72	0.245000	0.795300	0.737200
H481	H48	0.225700	0.830000	0.754700
N131	N13	0.413300	0.842600	0.907220
N141	N14	0.780000	0.187200	0.921400
N151	N15	0.775900	0.970900	0.271700
N161	N16	0.622800	0.962700	0.058900
N171	N17	0.626300	0.011200	0.973150
N181	N18	0.711500	0.049900	0.064850
N191	N19	0.939000	0.884300	0.412100
N201	N20	0.295700	0.530300	0.416560
N211	N21	0.300400	0.753600	0.771300
N221	N22	0.148000	0.710500	0.472600
N231	N23	0.238200	0.677500	0.563140
N241	N24	0.152900	0.768100	0.559230
Ag51	Ag5	0.177040	0.252120	0.632770
Ag61	Ag6	0.656030	0.457170	0.132240
C731	C73	0.376300	0.256800	0.997600
C741	C74	0.264700	0.065200	0.111800
H491	H49	0.286600	0.058600	0.151600
C751	C75	0.722400	0.637700	0.491100
H501	H50	0.701500	0.634000	0.451100
C761	C76	0.996700	0.383700	0.503500
H511	H51	0.977200	0.382200	0.463400
C771	C77	0.056500	0.343300	0.535200
H521	H52	0.076700	0.315200	0.515200
C781	C78	0.780400	0.652100	0.608100
H531	H53	0.800400	0.656500	0.648100
C791	C79	0.466800	0.312100	0.088800
H541	H54	0.445000	0.291200	0.110000
C801	C80	0.902300	0.469900	0.499000
C811	C81	0.201900	0.084000	0.995100
H551	H55	0.179600	0.088300	0.955100
C821	C82	0.440200	0.301900	0.029900
C831	C83	0.820800	0.456300	0.318500
H561	H56	0.864800	0.438800	0.338400
C841	C84	0.966600	0.426200	0.532900
C851	C85	0.290200	0.226900	0.912400
C861	C86	0.256700	0.237300	0.848600
C871	C87	0.474100	0.335200	0.999900
H571	H57	0.457000	0.330500	0.960000
C881	C88	0.819600	0.502300	0.411600
C891	C89	0.817500	0.551700	0.493300
C901	C90	0.174000	0.040800	0.025900
H581	H58	0.132000	0.017600	0.005600
C911	C91	0.784900	0.601300	0.522600
C921	C92	0.814500	0.609800	0.581800
H591	H59	0.856500	0.587500	0.603700
C931	C93	0.263800	0.120900	0.025100
C941	C94	0.692100	0.504800	0.257300
H601	H60	0.647900	0.521200	0.236600
C951	C95	0.533400	0.375300	0.030700
H611	H61	0.555700	0.397600	0.010400
C961	C96	0.294400	0.172100	0.994800
C971	C97	0.691900	0.679700	0.521100
H621	H62	0.650300	0.703600	0.500100
C981	C98	0.527200	0.354400	0.116000
H631	H63	0.544700	0.362100	0.155700
C991	C99	0.056400	0.383500	0.620400
H641	H64	0.076100	0.382400	0.660600
C1001	C100	0.997700	0.427200	0.592900
H651	H65	0.979500	0.456500	0.613900
C1011	C101	0.296000	0.110300	0.084800
H661	H66	0.337900	0.133400	0.106100
C1021	C102	0.721800	0.516600	0.316700
H671	H67	0.697800	0.540200	0.335200
C1031	C103	0.787700	0.492400	0.348000
C1041	C104	0.171700	0.207100	0.755400
H681	H68	0.132300	0.179500	0.732800
C1051	C105	0.284600	0.289400	0.821900
H691	H69	0.322700	0.319800	0.843700
C1061	C106	0.197700	0.197500	0.814900
H701	H70	0.176000	0.165100	0.831500
C1071	C107	0.788100	0.446500	0.259600
H711	H71	0.811000	0.422100	0.240500
C1081	C108	0.255000	0.295300	0.762800
H721	H72	0.274300	0.330000	0.745300
N251	N25	0.086700	0.342600	0.592780
N261	N26	0.720000	0.687200	0.578600
N271	N27	0.724100	0.470900	0.228300
N281	N28	0.877200	0.462700	0.441100
N291	N29	0.873700	0.511200	0.526850
N301	N30	0.788500	0.549900	0.435150
N311	N31	0.561000	0.384300	0.087900
N321	N32	0.204300	0.030300	0.083440
N331	N33	0.199600	0.253600	0.728700
N341	N34	0.352000	0.210500	0.027400
N351	N35	0.261800	0.177500	0.936860
N361	N36	0.347100	0.268100	0.940770
Ag71	Ag7	0.677040	0.752120	0.632770
Ag81	Ag8	0.156030	0.957170	0.132240
C1091	C109	0.876300	0.756800	0.997600
C1101	C110	0.764700	0.565200	0.111800
H731	H73	0.786600	0.558600	0.151600
C1111	C111	0.222400	0.137700	0.491100
H741	H74	0.201500	0.134000	0.451100
C1121	C112	0.496700	0.883700	0.503500
H751	H75	0.477200	0.882200	0.463400
C1131	C113	0.556500	0.843300	0.535200
H761	H76	0.576700	0.815200	0.515200
C1141	C114	0.280400	0.152100	0.608100
H771	H77	0.300400	0.156500	0.648100
C1151	C115	0.966800	0.812100	0.088800
H781	H78	0.945000	0.791200	0.110000
C1161	C116	0.402300	0.969900	0.499000
C1171	C117	0.701900	0.584000	0.995100
H791	H79	0.679600	0.588300	0.955100
C1181	C118	0.940200	0.801900	0.029900
C1191	C119	0.320800	0.956300	0.318500
H801	H80	0.364800	0.938800	0.338400
C1201	C120	0.466600	0.926200	0.532900
C1211	C121	0.790200	0.726900	0.912400
C1221	C122	0.756700	0.737300	0.848600
C1231	C123	0.974100	0.835200	0.999900
H811	H81	0.957000	0.830500	0.960000
C1241	C124	0.319600	0.002300	0.411600
C1251	C125	0.317500	0.051700	0.493300
C1261	C126	0.674000	0.540800	0.025900
H821	H82	0.632000	0.517600	0.005600
C1271	C127	0.284900	0.101300	0.522600
C1281	C128	0.314500	0.109800	0.581800
H831	H83	0.356500	0.087500	0.603700
C1291	C129	0.763800	0.620900	0.025100
C1301	C130	0.192100	0.004800	0.257300
H841	H84	0.147900	0.021200	0.236600
C1311	C131	0.033400	0.875300	0.030700
H851	H85	0.055700	0.897600	0.010400
C1321	C132	0.794400	0.672100	0.994800
C1331	C133	0.191900	0.179700	0.521100
H861	H86	0.150300	0.203600	0.500100
C1341	C134	0.027200	0.854400	0.116000
H871	H87	0.044700	0.862100	0.155700
C1351	C135	0.556400	0.883500	0.620400
H881	H88	0.576100	0.882400	0.660600
C1361	C136	0.497700	0.927200	0.592900
H891	H89	0.479500	0.956500	0.613900
C1371	C137	0.796000	0.610300	0.084800
H901	H90	0.837900	0.633400	0.106100
C1381	C138	0.221800	0.016600	0.316700
H911	H91	0.197800	0.040200	0.335200
C1391	C139	0.287700	0.992400	0.348000
C1401	C140	0.671700	0.707100	0.755400
H921	H92	0.632300	0.679500	0.732800
C1411	C141	0.784600	0.789400	0.821900
H931	H93	0.822700	0.819800	0.843700
C1421	C142	0.697700	0.697500	0.814900
H941	H94	0.676000	0.665100	0.831500
C1431	C143	0.288100	0.946500	0.259600
H951	H95	0.311000	0.922100	0.240500
C1441	C144	0.755000	0.795300	0.762800
H961	H96	0.774300	0.830000	0.745300
N371	N37	0.586700	0.842600	0.592780
N381	N38	0.220000	0.187200	0.578600
N391	N39	0.224100	0.970900	0.228300
N401	N40	0.377200	0.962700	0.441100
N411	N41	0.373700	0.011200	0.526850
N421	N42	0.288500	0.049900	0.435150
N431	N43	0.061000	0.884300	0.087900
N441	N44	0.704300	0.530300	0.083440
N451	N45	0.699600	0.753600	0.728700
N461	N46	0.852000	0.710500	0.027400
N471	N47	0.761800	0.677500	0.936860
N481	N48	0.847100	0.768100	0.940770
Ag91	Ag9	0.177040	0.747880	0.132770
Ag101	Ag10	0.656030	0.542830	0.632240
C1451	C145	0.376300	0.743200	0.497600
C1461	C146	0.264700	0.934800	0.611800
H971	H97	0.286600	0.941400	0.651600
C1471	C147	0.722400	0.362300	0.991100
H981	H98	0.701500	0.366000	0.951100
C1481	C148	0.996700	0.616300	0.003500
H991	H99	0.977200	0.617800	0.963400
C1491	C149	0.056500	0.656700	0.035200
H1001	H100	0.076700	0.684800	0.015200
C1501	C150	0.780400	0.347900	0.108100
H1011	H101	0.800400	0.343500	0.148100
C1511	C151	0.466800	0.687900	0.588800
H1021	H102	0.445000	0.708800	0.610000
C1521	C152	0.902300	0.530100	0.999000
C1531	C153	0.201900	0.916000	0.495100
H1031	H103	0.179600	0.911700	0.455100
C1541	C154	0.440200	0.698100	0.529900
C1551	C155	0.820800	0.543700	0.818500
H1041	H104	0.864800	0.561200	0.838400
C1561	C156	0.966600	0.573800	0.032900
C1571	C157	0.290200	0.773100	0.412400
C1581	C158	0.256700	0.762700	0.348600
C1591	C159	0.474100	0.664800	0.499900
H1051	H105	0.457000	0.669500	0.460000
C1601	C160	0.819600	0.497700	0.911600
C1611	C161	0.817500	0.448300	0.993300
C1621	C162	0.174000	0.959200	0.525900
H1061	H106	0.132000	0.982400	0.505600
C1631	C163	0.784900	0.398700	0.022600
C1641	C164	0.814500	0.390200	0.081800
H1071	H107	0.856500	0.412500	0.103700
C1651	C165	0.263800	0.879100	0.525100
C1661	C166	0.692100	0.495200	0.757300
H1081	H108	0.647900	0.478800	0.736600
C1671	C167	0.533400	0.624700	0.530700
H1091	H109	0.555700	0.602400	0.510400
C1681	C168	0.294400	0.827900	0.494800
C1691	C169	0.691900	0.320300	0.021100
H1101	H110	0.650300	0.296400	0.000100
C1701	C170	0.527200	0.645600	0.616000
H1111	H111	0.544700	0.637900	0.655700
C1711	C171	0.056400	0.616500	0.120400
H1121	H112	0.076100	0.617600	0.160600
C1721	C172	0.997700	0.572800	0.092900
H1131	H113	0.979500	0.543500	0.113900
C1731	C173	0.296000	0.889700	0.584800
H1141	H114	0.337900	0.866600	0.606100
C1741	C174	0.721800	0.483400	0.816700
H1151	H115	0.697800	0.459800	0.835200
C1751	C175	0.787700	0.507600	0.848000
C1761	C176	0.171700	0.792900	0.255400
H1161	H116	0.132300	0.820500	0.232800
C1771	C177	0.284600	0.710600	0.321900
H1171	H117	0.322700	0.680200	0.343700
C1781	C178	0.197700	0.802500	0.314900
H1181	H118	0.176000	0.834900	0.331500
C1791	C179	0.788100	0.553500	0.759600
H1191	H119	0.811000	0.577900	0.740500
C1801	C180	0.255000	0.704700	0.262800
H1201	H120	0.274300	0.670000	0.245300
N491	N49	0.086700	0.657400	0.092780
N501	N50	0.720000	0.312800	0.078600
N511	N51	0.724100	0.529100	0.728300
N521	N52	0.877200	0.537300	0.941100
N531	N53	0.873700	0.488800	0.026850
N541	N54	0.788500	0.450100	0.935150
N551	N55	0.561000	0.615700	0.587900
N561	N56	0.204300	0.969700	0.583440
N571	N57	0.199600	0.746400	0.228700
N581	N58	0.352000	0.789500	0.527400
N591	N59	0.261800	0.822500	0.436860
N601	N60	0.347100	0.731900	0.440770
Ag111	Ag11	0.677040	0.247880	0.132770
Ag121	Ag12	0.156030	0.042830	0.632240
C1811	C181	0.876300	0.243200	0.497600
C1821	C182	0.764700	0.434800	0.611800
H1211	H121	0.786600	0.441400	0.651600
C1831	C183	0.222400	0.862300	0.991100
H1221	H122	0.201500	0.866000	0.951100
C1841	C184	0.496700	0.116300	0.003500
H1231	H123	0.477200	0.117800	0.963400
C1851	C185	0.556500	0.156700	0.035200
H1241	H124	0.576700	0.184800	0.015200
C1861	C186	0.280400	0.847900	0.108100
H1251	H125	0.300400	0.843500	0.148100
C1871	C187	0.966800	0.187900	0.588800
H1261	H126	0.945000	0.208800	0.610000
C1881	C188	0.402300	0.030100	0.999000
C1891	C189	0.701900	0.416000	0.495100
H1271	H127	0.679600	0.411700	0.455100
C1901	C190	0.940200	0.198100	0.529900
C1911	C191	0.320800	0.043700	0.818500
H1281	H128	0.364800	0.061200	0.838400
C1921	C192	0.466600	0.073800	0.032900
C1931	C193	0.790200	0.273100	0.412400
C1941	C194	0.756700	0.262700	0.348600
C1951	C195	0.974100	0.164800	0.499900
H1291	H129	0.957000	0.169500	0.460000
C1961	C196	0.319600	0.997700	0.911600
C1971	C197	0.317500	0.948300	0.993300
C1981	C198	0.674000	0.459200	0.525900
H1301	H130	0.632000	0.482400	0.505600
C1991	C199	0.284900	0.898700	0.022600
C2001	C200	0.314500	0.890200	0.081800
H1311	H131	0.356500	0.912500	0.103700
C2011	C201	0.763800	0.379100	0.525100
C2021	C202	0.192100	0.995200	0.757300
H1321	H132	0.147900	0.978800	0.736600
C2031	C203	0.033400	0.124700	0.530700
H1331	H133	0.055700	0.102400	0.510400
C2041	C204	0.794400	0.327900	0.494800
C2051	C205	0.191900	0.820300	0.021100
H1341	H134	0.150300	0.796400	0.000100
C2061	C206	0.027200	0.145600	0.616000
H1351	H135	0.044700	0.137900	0.655700
C2071	C207	0.556400	0.116500	0.120400
H1361	H136	0.576100	0.117600	0.160600
C2081	C208	0.497700	0.072800	0.092900
H1371	H137	0.479500	0.043500	0.113900
C2091	C209	0.796000	0.389700	0.584800
H1381	H138	0.837900	0.366600	0.606100
C2101	C210	0.221800	0.983400	0.816700
H1391	H139	0.197800	0.959800	0.835200
C2111	C211	0.287700	0.007600	0.848000
C2121	C212	0.671700	0.292900	0.255400
H1401	H140	0.632300	0.320500	0.232800
C2131	C213	0.784600	0.210600	0.321900
H1411	H141	0.822700	0.180200	0.343700
C2141	C214	0.697700	0.302500	0.314900
H1421	H142	0.676000	0.334900	0.331500
C2151	C215	0.288100	0.053500	0.759600
H1431	H143	0.311000	0.077900	0.740500
C2161	C216	0.755000	0.204700	0.262800
H1441	H144	0.774300	0.170000	0.245300
N611	N61	0.586700	0.157400	0.092780
N621	N62	0.220000	0.812800	0.078600
N631	N63	0.224100	0.029100	0.728300
N641	N64	0.377200	0.037300	0.941100
N651	N65	0.373700	0.988800	0.026850
N661	N66	0.288500	0.950100	0.935150
N671	N67	0.061000	0.115700	0.587900
N681	N68	0.704300	0.469700	0.583440
N691	N69	0.699600	0.246400	0.228700
N701	N70	0.852000	0.289500	0.527400
N711	N71	0.761800	0.322500	0.436860
N721	N72	0.847100	0.231900	0.440770
Ag131	Ag13	0.822960	0.747880	0.367230
Ag141	Ag14	0.343970	0.542830	0.867760
C2171	C217	0.623700	0.743200	0.002400
C2181	C218	0.735300	0.934800	0.888200
H1451	H145	0.713400	0.941400	0.848400
C2191	C219	0.277600	0.362300	0.508900
H1461	H146	0.298500	0.366000	0.548900
C2201	C220	0.003300	0.616300	0.496500
H1471	H147	0.022800	0.617800	0.536600
C2211	C221	0.943500	0.656700	0.464800
H1481	H148	0.923300	0.684800	0.484800
C2221	C222	0.219600	0.347900	0.391900
H1491	H149	0.199600	0.343500	0.351900
C2231	C223	0.533200	0.687900	0.911200
H1501	H150	0.555000	0.708800	0.890000
C2241	C224	0.097700	0.530100	0.501000
C2251	C225	0.798100	0.916000	0.004900
H1511	H151	0.820400	0.911700	0.044900
C2261	C226	0.559800	0.698100	0.970100
C2271	C227	0.179200	0.543700	0.681500
H1521	H152	0.135200	0.561200	0.661600
C2281	C228	0.033400	0.573800	0.467100
C2291	C229	0.709800	0.773100	0.087600
C2301	C230	0.743300	0.762700	0.151400
C2311	C231	0.525900	0.664800	0.000100
H1531	H153	0.543000	0.669500	0.040000
C2321	C232	0.180400	0.497700	0.588400
C2331	C233	0.182500	0.448300	0.506700
C2341	C234	0.826000	0.959200	0.974100
H1541	H154	0.868000	0.982400	0.994400
C2351	C235	0.215100	0.398700	0.477400
C2361	C236	0.185500	0.390200	0.418200
H1551	H155	0.143500	0.412500	0.396300
C2371	C237	0.736200	0.879100	0.974900
C2381	C238	0.307900	0.495200	0.742700
H1561	H156	0.352100	0.478800	0.763400
C2391	C239	0.466600	0.624700	0.969300
H1571	H157	0.444300	0.602400	0.989600
C2401	C240	0.705600	0.827900	0.005200
C2411	C241	0.308100	0.320300	0.478900
H1581	H158	0.349700	0.296400	0.499900
C2421	C242	0.472800	0.645600	0.884000
H1591	H159	0.455300	0.637900	0.844300
C2431	C243	0.943600	0.616500	0.379600
H1601	H160	0.923900	0.617600	0.339400
C2441	C244	0.002300	0.572800	0.407100
H1611	H161	0.020500	0.543500	0.386100
C2451	C245	0.704000	0.889700	0.915200
H1621	H162	0.662100	0.866600	0.893900
C2461	C246	0.278200	0.483400	0.683300
H1631	H163	0.302200	0.459800	0.664800
C2471	C247	0.212300	0.507600	0.652000
C2481	C248	0.828300	0.792900	0.244600
H1641	H164	0.867700	0.820500	0.267200
C2491	C249	0.715400	0.710600	0.178100
H1651	H165	0.677300	0.680200	0.156300
C2501	C250	0.802300	0.802500	0.185100
H1661	H166	0.824000	0.834900	0.168500
C2511	C251	0.211900	0.553500	0.740400
H1671	H167	0.189000	0.577900	0.759500
C2521	C252	0.745000	0.704700	0.237200
H1681	H168	0.725700	0.670000	0.254700
N731	N73	0.913300	0.657400	0.407220
N741	N74	0.280000	0.312800	0.421400
N751	N75	0.275900	0.529100	0.771700
N761	N76	0.122800	0.537300	0.558900
N771	N77	0.126300	0.488800	0.473150
N781	N78	0.211500	0.450100	0.564850
N791	N79	0.439000	0.615700	0.912100
N801	N80	0.795700	0.969700	0.916560
N811	N81	0.800400	0.746400	0.271300
N821	N82	0.648000	0.789500	0.972600
N831	N83	0.738200	0.822500	0.063140
N841	N84	0.652900	0.731900	0.059230
Ag151	Ag15	0.322960	0.247880	0.367230
Ag161	Ag16	0.843970	0.042830	0.867760
C2531	C253	0.123700	0.243200	0.002400
C2541	C254	0.235300	0.434800	0.888200
H1691	H169	0.213400	0.441400	0.848400
C2551	C255	0.777600	0.862300	0.508900
H1701	H170	0.798500	0.866000	0.548900
C2561	C256	0.503300	0.116300	0.496500
H1711	H171	0.522800	0.117800	0.536600
C2571	C257	0.443500	0.156700	0.464800
H1721	H172	0.423300	0.184800	0.484800
C2581	C258	0.719600	0.847900	0.391900
H1731	H173	0.699600	0.843500	0.351900
C2591	C259	0.033200	0.187900	0.911200
H1741	H174	0.055000	0.208800	0.890000
C2601	C260	0.597700	0.030100	0.501000
C2611	C261	0.298100	0.416000	0.004900
H1751	H175	0.320400	0.411700	0.044900
C2621	C262	0.059800	0.198100	0.970100
C2631	C263	0.679200	0.043700	0.681500
H1761	H176	0.635200	0.061200	0.661600
C2641	C264	0.533400	0.073800	0.467100
C2651	C265	0.209800	0.273100	0.087600
C2661	C266	0.243300	0.262700	0.151400
C2671	C267	0.025900	0.164800	0.000100
H1771	H177	0.043000	0.169500	0.040000
C2681	C268	0.680400	0.997700	0.588400
C2691	C269	0.682500	0.948300	0.506700
C2701	C270	0.326000	0.459200	0.974100
H1781	H178	0.368000	0.482400	0.994400
C2711	C271	0.715100	0.898700	0.477400
C2721	C272	0.685500	0.890200	0.418200
H1791	H179	0.643500	0.912500	0.396300
C2731	C273	0.236200	0.379100	0.974900
C2741	C274	0.807900	0.995200	0.742700
H1801	H180	0.852100	0.978800	0.763400
C2751	C275	0.966600	0.124700	0.969300
H1811	H181	0.944300	0.102400	0.989600
C2761	C276	0.205600	0.327900	0.005200
C2771	C277	0.808100	0.820300	0.478900
H1821	H182	0.849700	0.796400	0.499900
C2781	C278	0.972800	0.145600	0.884000
H1831	H183	0.955300	0.137900	0.844300
C2791	C279	0.443600	0.116500	0.379600
H1841	H184	0.423900	0.117600	0.339400
C2801	C280	0.502300	0.072800	0.407100
H1851	H185	0.520500	0.043500	0.386100
C2811	C281	0.204000	0.389700	0.915200
H1861	H186	0.162100	0.366600	0.893900
C2821	C282	0.778200	0.983400	0.683300
H1871	H187	0.802200	0.959800	0.664800
C2831	C283	0.712300	0.007600	0.652000
C2841	C284	0.328300	0.292900	0.244600
H1881	H188	0.367700	0.320500	0.267200
C2851	C285	0.215400	0.210600	0.178100
H1891	H189	0.177300	0.180200	0.156300
C2861	C286	0.302300	0.302500	0.185100
H1901	H190	0.324000	0.334900	0.168500
C2871	C287	0.711900	0.053500	0.740400
H1911	H191	0.689000	0.077900	0.759500
C2881	C288	0.245000	0.204700	0.237200
H1921	H192	0.225700	0.170000	0.254700
N851	N85	0.413300	0.157400	0.407220
N861	N86	0.780000	0.812800	0.421400
N871	N87	0.775900	0.029100	0.771700
N881	N88	0.622800	0.037300	0.558900
N891	N89	0.626300	0.988800	0.473150
N901	N90	0.711500	0.950100	0.564850
N911	N91	0.939000	0.115700	0.912100
N921	N92	0.295700	0.469700	0.916560
N931	N93	0.300400	0.246400	0.271300
N941	N94	0.148000	0.289500	0.972600
N951	N95	0.238200	0.322500	0.063140
N961	N96	0.152900	0.231900	0.059230
