data_QODHUO12_freeONLY_PM
_symmetry_space_group_name_H-M	'P1'
_cell_length_a	22.063900
_cell_length_b	16.338200
_cell_length_c	25.617000
_cell_angle_alpha	90.000000
_cell_angle_beta	115.311000
_cell_angle_gamma	90.000000
_symmetry_Int_Tables_number 1

loop_
_symmetry_equiv_pos_as_xyz
'x,y,z'

loop_
_atom_site_label
_atom_site_type_symbol
_atom_site_fract_x
_atom_site_fract_y
_atom_site_fract_z
Ag11	Ag1	0.844070	0.457440	0.367830
Ag21	Ag2	0.322960	0.252140	0.867250
C11	C1	0.123700	0.257000	0.502400
C21	C2	0.778000	0.637700	0.009200
H11	H1	0.798700	0.634100	0.049300
C31	C3	0.235100	0.065000	0.388300
H21	H2	0.213200	0.058300	0.348500
C41	C4	0.597800	0.470000	0.001000
C51	C5	0.298100	0.084200	0.504900
H31	H3	0.320400	0.088600	0.544900
C61	C6	0.033100	0.312200	0.411100
H41	H4	0.054500	0.290800	0.389900
C71	C7	0.443700	0.343000	0.964900
H51	H5	0.423600	0.314800	0.984800
C81	C8	0.503400	0.383500	0.996500
H61	H6	0.523000	0.382100	0.036700
C91	C9	0.060000	0.302200	0.470200
C101	C10	0.209900	0.226900	0.587700
C111	C11	0.678900	0.456100	0.181300
H71	H7	0.634800	0.438500	0.161400
C121	C12	0.719800	0.652000	0.892100
H81	H8	0.699800	0.656300	0.852000
C131	C13	0.682500	0.551800	0.006800
C141	C14	0.533400	0.426200	0.967100
C151	C15	0.680500	0.502100	0.088300
C161	C16	0.243600	0.237400	0.651700
C171	C17	0.026100	0.335600	0.500000
H91	H9	0.043400	0.330900	0.539900
C181	C18	0.715500	0.601100	0.977600
C191	C19	0.325900	0.040900	0.474100
H101	H10	0.368100	0.017700	0.494300
C201	C20	0.685700	0.609600	0.918500
H111	H11	0.643600	0.587400	0.896600
C211	C21	0.808500	0.679700	0.979400
H121	H12	0.850100	0.703600	0.000500
C221	C22	0.973500	0.354700	0.384100
H131	H13	0.956400	0.362900	0.344500
C231	C23	0.235900	0.121000	0.474500
C241	C24	0.966800	0.375400	0.469600
H141	H14	0.944300	0.397300	0.489900
C251	C25	0.205400	0.172100	0.505100
C261	C26	0.203900	0.110100	0.415200
H151	H15	0.161800	0.132900	0.393900
C271	C27	0.807600	0.504900	0.242500
H161	H16	0.851900	0.521500	0.263200
C281	C28	0.502400	0.426900	0.907200
H171	H17	0.520500	0.456300	0.886200
C291	C29	0.443800	0.383000	0.879600
H181	H18	0.424300	0.381500	0.839500
C301	C30	0.215700	0.289100	0.678200
H191	H19	0.177500	0.319300	0.656400
C311	C31	0.302300	0.197500	0.684900
H201	H20	0.323800	0.165000	0.668100
C321	C32	0.328300	0.207400	0.744300
H211	H21	0.367800	0.179800	0.766900
C331	C33	0.712300	0.492400	0.152000
C341	C34	0.778100	0.516700	0.183200
H221	H22	0.802100	0.540500	0.164800
C351	C35	0.712300	0.446700	0.240600
H231	H23	0.689600	0.422500	0.260000
C361	C36	0.245400	0.295100	0.737400
H241	H24	0.226100	0.329700	0.754900
N11	N1	0.939300	0.384700	0.412220
N21	N2	0.295500	0.030500	0.416770
N31	N3	0.300800	0.253600	0.771140
N41	N4	0.153100	0.268200	0.559280
N51	N5	0.148000	0.210100	0.472600
N61	N6	0.238300	0.177800	0.563060
N71	N7	0.413400	0.342300	0.907250
N81	N8	0.780200	0.687000	0.921630
N91	N9	0.776100	0.471100	0.271590
N101	N10	0.622800	0.462700	0.058810
N111	N11	0.626330	0.511300	0.973040
N121	N12	0.711500	0.549700	0.064810
Ag31	Ag3	0.344070	0.957440	0.367830
Ag41	Ag4	0.822960	0.752140	0.867250
C371	C37	0.623700	0.757000	0.502400
C381	C38	0.278000	0.137700	0.009200
H251	H25	0.298700	0.134100	0.049300
C391	C39	0.735100	0.565000	0.388300
H261	H26	0.713200	0.558300	0.348500
C401	C40	0.097800	0.970000	0.001000
C411	C41	0.798100	0.584200	0.504900
H271	H27	0.820400	0.588600	0.544900
C421	C42	0.533100	0.812200	0.411100
H281	H28	0.554500	0.790800	0.389900
C431	C43	0.943700	0.843000	0.964900
H291	H29	0.923600	0.814800	0.984800
C441	C44	0.003400	0.883500	0.996500
H301	H30	0.023000	0.882100	0.036700
C451	C45	0.560000	0.802200	0.470200
C461	C46	0.709900	0.726900	0.587700
C471	C47	0.178900	0.956100	0.181300
H311	H31	0.134800	0.938500	0.161400
C481	C48	0.219800	0.152000	0.892100
H321	H32	0.199800	0.156300	0.852000
C491	C49	0.182500	0.051800	0.006800
C501	C50	0.033400	0.926200	0.967100
C511	C51	0.180500	0.002100	0.088300
C521	C52	0.743600	0.737400	0.651700
C531	C53	0.526100	0.835600	0.500000
H331	H33	0.543400	0.830900	0.539900
C541	C54	0.215500	0.101100	0.977600
C551	C55	0.825900	0.540900	0.474100
H341	H34	0.868100	0.517700	0.494300
C561	C56	0.185700	0.109600	0.918500
H351	H35	0.143600	0.087400	0.896600
C571	C57	0.308500	0.179700	0.979400
H361	H36	0.350100	0.203600	0.000500
C581	C58	0.473500	0.854700	0.384100
H371	H37	0.456400	0.862900	0.344500
C591	C59	0.735900	0.621000	0.474500
C601	C60	0.466800	0.875400	0.469600
H381	H38	0.444300	0.897300	0.489900
C611	C61	0.705400	0.672100	0.505100
C621	C62	0.703900	0.610100	0.415200
H391	H39	0.661800	0.632900	0.393900
C631	C63	0.307600	0.004900	0.242500
H401	H40	0.351900	0.021500	0.263200
C641	C64	0.002400	0.926900	0.907200
H411	H41	0.020500	0.956300	0.886200
C651	C65	0.943800	0.883000	0.879600
H421	H42	0.924300	0.881500	0.839500
C661	C66	0.715700	0.789100	0.678200
H431	H43	0.677500	0.819300	0.656400
C671	C67	0.802300	0.697500	0.684900
H441	H44	0.823800	0.665000	0.668100
C681	C68	0.828300	0.707400	0.744300
H451	H45	0.867800	0.679800	0.766900
C691	C69	0.212300	0.992400	0.152000
C701	C70	0.278100	0.016700	0.183200
H461	H46	0.302100	0.040500	0.164800
C711	C71	0.212300	0.946700	0.240600
H471	H47	0.189600	0.922500	0.260000
C721	C72	0.745400	0.795100	0.737400
H481	H48	0.726100	0.829700	0.754900
N131	N13	0.439300	0.884700	0.412220
N141	N14	0.795500	0.530500	0.416770
N151	N15	0.800800	0.753600	0.771140
N161	N16	0.653100	0.768200	0.559280
N171	N17	0.648000	0.710100	0.472600
N181	N18	0.738300	0.677800	0.563060
N191	N19	0.913400	0.842300	0.907250
N201	N20	0.280200	0.187000	0.921630
N211	N21	0.276100	0.971100	0.271590
N221	N22	0.122800	0.962700	0.058810
N231	N23	0.126330	0.011300	0.973040
N241	N24	0.211500	0.049700	0.064810
Ag51	Ag5	0.155930	0.457440	0.132170
Ag61	Ag6	0.677040	0.252140	0.632750
C731	C73	0.876300	0.257000	0.997600
C741	C74	0.222000	0.637700	0.490800
H491	H49	0.201300	0.634100	0.450700
C751	C75	0.764900	0.065000	0.111700
H501	H50	0.786800	0.058300	0.151500
C761	C76	0.402200	0.470000	0.499000
C771	C77	0.701900	0.084200	0.995100
H511	H51	0.679600	0.088600	0.955100
C781	C78	0.966900	0.312200	0.088900
H521	H52	0.945500	0.290800	0.110100
C791	C79	0.556300	0.343000	0.535100
H531	H53	0.576400	0.314800	0.515200
C801	C80	0.496600	0.383500	0.503500
H541	H54	0.477000	0.382100	0.463300
C811	C81	0.940000	0.302200	0.029800
C821	C82	0.790100	0.226900	0.912300
C831	C83	0.321100	0.456100	0.318700
H551	H55	0.365200	0.438500	0.338600
C841	C84	0.280200	0.652000	0.607900
H561	H56	0.300200	0.656300	0.648000
C851	C85	0.317500	0.551800	0.493200
C861	C86	0.466600	0.426200	0.532900
C871	C87	0.319500	0.502100	0.411700
C881	C88	0.756400	0.237400	0.848300
C891	C89	0.973900	0.335600	0.000000
H571	H57	0.956600	0.330900	0.960100
C901	C90	0.284500	0.601100	0.522400
C911	C91	0.674100	0.040900	0.025900
H581	H58	0.631900	0.017700	0.005700
C921	C92	0.314300	0.609600	0.581500
H591	H59	0.356400	0.587400	0.603400
C931	C93	0.191500	0.679700	0.520600
H601	H60	0.149900	0.703600	0.499500
C941	C94	0.026500	0.354700	0.115900
H611	H61	0.043600	0.362900	0.155500
C951	C95	0.764100	0.121000	0.025500
C961	C96	0.033200	0.375400	0.030400
H621	H62	0.055700	0.397300	0.010100
C971	C97	0.794600	0.172100	0.994900
C981	C98	0.796100	0.110100	0.084800
H631	H63	0.838200	0.132900	0.106100
C991	C99	0.192400	0.504900	0.257500
H641	H64	0.148100	0.521500	0.236800
C1001	C100	0.497600	0.426900	0.592800
H651	H65	0.479500	0.456300	0.613800
C1011	C101	0.556200	0.383000	0.620400
H661	H66	0.575700	0.381500	0.660500
C1021	C102	0.784300	0.289100	0.821800
H671	H67	0.822500	0.319300	0.843600
C1031	C103	0.697700	0.197500	0.815100
H681	H68	0.676200	0.165000	0.831900
C1041	C104	0.671700	0.207400	0.755700
H691	H69	0.632200	0.179800	0.733100
C1051	C105	0.287700	0.492400	0.348000
C1061	C106	0.221900	0.516700	0.316800
H701	H70	0.197900	0.540500	0.335200
C1071	C107	0.287700	0.446700	0.259400
H711	H71	0.310400	0.422500	0.240000
C1081	C108	0.754600	0.295100	0.762600
H721	H72	0.773900	0.329700	0.745100
N251	N25	0.060700	0.384700	0.087780
N261	N26	0.704500	0.030500	0.083230
N271	N27	0.699200	0.253600	0.728860
N281	N28	0.846900	0.268200	0.940720
N291	N29	0.852000	0.210100	0.027400
N301	N30	0.761700	0.177800	0.936940
N311	N31	0.586600	0.342300	0.592750
N321	N32	0.219800	0.687000	0.578370
N331	N33	0.223900	0.471100	0.228410
N341	N34	0.377200	0.462700	0.441190
N351	N35	0.373670	0.511300	0.526960
N361	N36	0.288500	0.549700	0.435190
Ag71	Ag7	0.655930	0.957440	0.132170
Ag81	Ag8	0.177040	0.752140	0.632750
C1091	C109	0.376300	0.757000	0.997600
C1101	C110	0.722000	0.137700	0.490800
H731	H73	0.701300	0.134100	0.450700
C1111	C111	0.264900	0.565000	0.111700
H741	H74	0.286800	0.558300	0.151500
C1121	C112	0.902200	0.970000	0.499000
C1131	C113	0.201900	0.584200	0.995100
H751	H75	0.179600	0.588600	0.955100
C1141	C114	0.466900	0.812200	0.088900
H761	H76	0.445500	0.790800	0.110100
C1151	C115	0.056300	0.843000	0.535100
H771	H77	0.076400	0.814800	0.515200
C1161	C116	0.996600	0.883500	0.503500
H781	H78	0.977000	0.882100	0.463300
C1171	C117	0.440000	0.802200	0.029800
C1181	C118	0.290100	0.726900	0.912300
C1191	C119	0.821100	0.956100	0.318700
H791	H79	0.865200	0.938500	0.338600
C1201	C120	0.780200	0.152000	0.607900
H801	H80	0.800200	0.156300	0.648000
C1211	C121	0.817500	0.051800	0.493200
C1221	C122	0.966600	0.926200	0.532900
C1231	C123	0.819500	0.002100	0.411700
C1241	C124	0.256400	0.737400	0.848300
C1251	C125	0.473900	0.835600	0.000000
H811	H81	0.456600	0.830900	0.960100
C1261	C126	0.784500	0.101100	0.522400
C1271	C127	0.174100	0.540900	0.025900
H821	H82	0.131900	0.517700	0.005700
C1281	C128	0.814300	0.109600	0.581500
H831	H83	0.856400	0.087400	0.603400
C1291	C129	0.691500	0.179700	0.520600
H841	H84	0.649900	0.203600	0.499500
C1301	C130	0.526500	0.854700	0.115900
H851	H85	0.543600	0.862900	0.155500
C1311	C131	0.264100	0.621000	0.025500
C1321	C132	0.533200	0.875400	0.030400
H861	H86	0.555700	0.897300	0.010100
C1331	C133	0.294600	0.672100	0.994900
C1341	C134	0.296100	0.610100	0.084800
H871	H87	0.338200	0.632900	0.106100
C1351	C135	0.692400	0.004900	0.257500
H881	H88	0.648100	0.021500	0.236800
C1361	C136	0.997600	0.926900	0.592800
H891	H89	0.979500	0.956300	0.613800
C1371	C137	0.056200	0.883000	0.620400
H901	H90	0.075700	0.881500	0.660500
C1381	C138	0.284300	0.789100	0.821800
H911	H91	0.322500	0.819300	0.843600
C1391	C139	0.197700	0.697500	0.815100
H921	H92	0.176200	0.665000	0.831900
C1401	C140	0.171700	0.707400	0.755700
H931	H93	0.132200	0.679800	0.733100
C1411	C141	0.787700	0.992400	0.348000
C1421	C142	0.721900	0.016700	0.316800
H941	H94	0.697900	0.040500	0.335200
C1431	C143	0.787700	0.946700	0.259400
H951	H95	0.810400	0.922500	0.240000
C1441	C144	0.254600	0.795100	0.762600
H961	H96	0.273900	0.829700	0.745100
N371	N37	0.560700	0.884700	0.087780
N381	N38	0.204500	0.530500	0.083230
N391	N39	0.199200	0.753600	0.728860
N401	N40	0.346900	0.768200	0.940720
N411	N41	0.352000	0.710100	0.027400
N421	N42	0.261700	0.677800	0.936940
N431	N43	0.086600	0.842300	0.592750
N441	N44	0.719800	0.187000	0.578370
N451	N45	0.723900	0.971100	0.228410
N461	N46	0.877200	0.962700	0.441190
N471	N47	0.873670	0.011300	0.526960
N481	N48	0.788500	0.049700	0.435190
Ag91	Ag9	0.155930	0.542560	0.632170
Ag101	Ag10	0.677040	0.747860	0.132750
C1451	C145	0.876300	0.743000	0.497600
C1461	C146	0.222000	0.362300	0.990800
H971	H97	0.201300	0.365900	0.950700
C1471	C147	0.764900	0.935000	0.611700
H981	H98	0.786800	0.941700	0.651500
C1481	C148	0.402200	0.530000	0.999000
C1491	C149	0.701900	0.915800	0.495100
H991	H99	0.679600	0.911400	0.455100
C1501	C150	0.966900	0.687800	0.588900
H1001	H100	0.945500	0.709200	0.610100
C1511	C151	0.556300	0.657000	0.035100
H1011	H101	0.576400	0.685200	0.015200
C1521	C152	0.496600	0.616500	0.003500
H1021	H102	0.477000	0.617900	0.963300
C1531	C153	0.940000	0.697800	0.529800
C1541	C154	0.790100	0.773100	0.412300
C1551	C155	0.321100	0.543900	0.818700
H1031	H103	0.365200	0.561500	0.838600
C1561	C156	0.280200	0.348000	0.107900
H1041	H104	0.300200	0.343700	0.148000
C1571	C157	0.317500	0.448200	0.993200
C1581	C158	0.466600	0.573800	0.032900
C1591	C159	0.319500	0.497900	0.911700
C1601	C160	0.756400	0.762600	0.348300
C1611	C161	0.973900	0.664400	0.500000
H1051	H105	0.956600	0.669100	0.460100
C1621	C162	0.284500	0.398900	0.022400
C1631	C163	0.674100	0.959100	0.525900
H1061	H106	0.631900	0.982300	0.505700
C1641	C164	0.314300	0.390400	0.081500
H1071	H107	0.356400	0.412600	0.103400
C1651	C165	0.191500	0.320300	0.020600
H1081	H108	0.149900	0.296400	0.999500
C1661	C166	0.026500	0.645300	0.615900
H1091	H109	0.043600	0.637100	0.655500
C1671	C167	0.764100	0.879000	0.525500
C1681	C168	0.033200	0.624600	0.530400
H1101	H110	0.055700	0.602700	0.510100
C1691	C169	0.794600	0.827900	0.494900
C1701	C170	0.796100	0.889900	0.584800
H1111	H111	0.838200	0.867100	0.606100
C1711	C171	0.192400	0.495100	0.757500
H1121	H112	0.148100	0.478500	0.736800
C1721	C172	0.497600	0.573100	0.092800
H1131	H113	0.479500	0.543700	0.113800
C1731	C173	0.556200	0.617000	0.120400
H1141	H114	0.575700	0.618500	0.160500
C1741	C174	0.784300	0.710900	0.321800
H1151	H115	0.822500	0.680700	0.343600
C1751	C175	0.697700	0.802500	0.315100
H1161	H116	0.676200	0.835000	0.331900
C1761	C176	0.671700	0.792600	0.255700
H1171	H117	0.632200	0.820200	0.233100
C1771	C177	0.287700	0.507600	0.848000
C1781	C178	0.221900	0.483300	0.816800
H1181	H118	0.197900	0.459500	0.835200
C1791	C179	0.287700	0.553300	0.759400
H1191	H119	0.310400	0.577500	0.740000
C1801	C180	0.754600	0.704900	0.262600
H1201	H120	0.773900	0.670300	0.245100
N491	N49	0.060700	0.615300	0.587780
N501	N50	0.704500	0.969500	0.583230
N511	N51	0.699200	0.746400	0.228860
N521	N52	0.846900	0.731800	0.440720
N531	N53	0.852000	0.789900	0.527400
N541	N54	0.761700	0.822200	0.436940
N551	N55	0.586600	0.657700	0.092750
N561	N56	0.219800	0.313000	0.078370
N571	N57	0.223900	0.528900	0.728410
N581	N58	0.377200	0.537300	0.941190
N591	N59	0.373670	0.488700	0.026960
N601	N60	0.288500	0.450300	0.935190
Ag111	Ag11	0.655930	0.042560	0.632170
Ag121	Ag12	0.177040	0.247860	0.132750
C1811	C181	0.376300	0.243000	0.497600
C1821	C182	0.722000	0.862300	0.990800
H1211	H121	0.701300	0.865900	0.950700
C1831	C183	0.264900	0.435000	0.611700
H1221	H122	0.286800	0.441700	0.651500
C1841	C184	0.902200	0.030000	0.999000
C1851	C185	0.201900	0.415800	0.495100
H1231	H123	0.179600	0.411400	0.455100
C1861	C186	0.466900	0.187800	0.588900
H1241	H124	0.445500	0.209200	0.610100
C1871	C187	0.056300	0.157000	0.035100
H1251	H125	0.076400	0.185200	0.015200
C1881	C188	0.996600	0.116500	0.003500
H1261	H126	0.977000	0.117900	0.963300
C1891	C189	0.440000	0.197800	0.529800
C1901	C190	0.290100	0.273100	0.412300
C1911	C191	0.821100	0.043900	0.818700
H1271	H127	0.865200	0.061500	0.838600
C1921	C192	0.780200	0.848000	0.107900
H1281	H128	0.800200	0.843700	0.148000
C1931	C193	0.817500	0.948200	0.993200
C1941	C194	0.966600	0.073800	0.032900
C1951	C195	0.819500	0.997900	0.911700
C1961	C196	0.256400	0.262600	0.348300
C1971	C197	0.473900	0.164400	0.500000
H1291	H129	0.456600	0.169100	0.460100
C1981	C198	0.784500	0.898900	0.022400
C1991	C199	0.174100	0.459100	0.525900
H1301	H130	0.131900	0.482300	0.505700
C2001	C200	0.814300	0.890400	0.081500
H1311	H131	0.856400	0.912600	0.103400
C2011	C201	0.691500	0.820300	0.020600
H1321	H132	0.649900	0.796400	0.999500
C2021	C202	0.526500	0.145300	0.615900
H1331	H133	0.543600	0.137100	0.655500
C2031	C203	0.264100	0.379000	0.525500
C2041	C204	0.533200	0.124600	0.530400
H1341	H134	0.555700	0.102700	0.510100
C2051	C205	0.294600	0.327900	0.494900
C2061	C206	0.296100	0.389900	0.584800
H1351	H135	0.338200	0.367100	0.606100
C2071	C207	0.692400	0.995100	0.757500
H1361	H136	0.648100	0.978500	0.736800
C2081	C208	0.997600	0.073100	0.092800
H1371	H137	0.979500	0.043700	0.113800
C2091	C209	0.056200	0.117000	0.120400
H1381	H138	0.075700	0.118500	0.160500
C2101	C210	0.284300	0.210900	0.321800
H1391	H139	0.322500	0.180700	0.343600
C2111	C211	0.197700	0.302500	0.315100
H1401	H140	0.176200	0.335000	0.331900
C2121	C212	0.171700	0.292600	0.255700
H1411	H141	0.132200	0.320200	0.233100
C2131	C213	0.787700	0.007600	0.848000
C2141	C214	0.721900	0.983300	0.816800
H1421	H142	0.697900	0.959500	0.835200
C2151	C215	0.787700	0.053300	0.759400
H1431	H143	0.810400	0.077500	0.740000
C2161	C216	0.254600	0.204900	0.262600
H1441	H144	0.273900	0.170300	0.245100
N611	N61	0.560700	0.115300	0.587780
N621	N62	0.204500	0.469500	0.583230
N631	N63	0.199200	0.246400	0.228860
N641	N64	0.346900	0.231800	0.440720
N651	N65	0.352000	0.289900	0.527400
N661	N66	0.261700	0.322200	0.436940
N671	N67	0.086600	0.157700	0.092750
N681	N68	0.719800	0.813000	0.078370
N691	N69	0.723900	0.028900	0.728410
N701	N70	0.877200	0.037300	0.941190
N711	N71	0.873670	0.988700	0.026960
N721	N72	0.788500	0.950300	0.935190
Ag131	Ag13	0.844070	0.542560	0.867830
Ag141	Ag14	0.322960	0.747860	0.367250
C2171	C217	0.123700	0.743000	0.002400
C2181	C218	0.778000	0.362300	0.509200
H1451	H145	0.798700	0.365900	0.549300
C2191	C219	0.235100	0.935000	0.888300
H1461	H146	0.213200	0.941700	0.848500
C2201	C220	0.597800	0.530000	0.501000
C2211	C221	0.298100	0.915800	0.004900
H1471	H147	0.320400	0.911400	0.044900
C2221	C222	0.033100	0.687800	0.911100
H1481	H148	0.054500	0.709200	0.889900
C2231	C223	0.443700	0.657000	0.464900
H1491	H149	0.423600	0.685200	0.484800
C2241	C224	0.503400	0.616500	0.496500
H1501	H150	0.523000	0.617900	0.536700
C2251	C225	0.060000	0.697800	0.970200
C2261	C226	0.209900	0.773100	0.087700
C2271	C227	0.678900	0.543900	0.681300
H1511	H151	0.634800	0.561500	0.661400
C2281	C228	0.719800	0.348000	0.392100
H1521	H152	0.699800	0.343700	0.352000
C2291	C229	0.682500	0.448200	0.506800
C2301	C230	0.533400	0.573800	0.467100
C2311	C231	0.680500	0.497900	0.588300
C2321	C232	0.243600	0.762600	0.151700
C2331	C233	0.026100	0.664400	0.000000
H1531	H153	0.043400	0.669100	0.039900
C2341	C234	0.715500	0.398900	0.477600
C2351	C235	0.325900	0.959100	0.974100
H1541	H154	0.368100	0.982300	0.994300
C2361	C236	0.685700	0.390400	0.418500
H1551	H155	0.643600	0.412600	0.396600
C2371	C237	0.808500	0.320300	0.479400
H1561	H156	0.850100	0.296400	0.500500
C2381	C238	0.973500	0.645300	0.884100
H1571	H157	0.956400	0.637100	0.844500
C2391	C239	0.235900	0.879000	0.974500
C2401	C240	0.966800	0.624600	0.969600
H1581	H158	0.944300	0.602700	0.989900
C2411	C241	0.205400	0.827900	0.005100
C2421	C242	0.203900	0.889900	0.915200
H1591	H159	0.161800	0.867100	0.893900
C2431	C243	0.807600	0.495100	0.742500
H1601	H160	0.851900	0.478500	0.763200
C2441	C244	0.502400	0.573100	0.407200
H1611	H161	0.520500	0.543700	0.386200
C2451	C245	0.443800	0.617000	0.379600
H1621	H162	0.424300	0.618500	0.339500
C2461	C246	0.215700	0.710900	0.178200
H1631	H163	0.177500	0.680700	0.156400
C2471	C247	0.302300	0.802500	0.184900
H1641	H164	0.323800	0.835000	0.168100
C2481	C248	0.328300	0.792600	0.244300
H1651	H165	0.367800	0.820200	0.266900
C2491	C249	0.712300	0.507600	0.652000
C2501	C250	0.778100	0.483300	0.683200
H1661	H166	0.802100	0.459500	0.664800
C2511	C251	0.712300	0.553300	0.740600
H1671	H167	0.689600	0.577500	0.760000
C2521	C252	0.245400	0.704900	0.237400
H1681	H168	0.226100	0.670300	0.254900
N731	N73	0.939300	0.615300	0.912220
N741	N74	0.295500	0.969500	0.916770
N751	N75	0.300800	0.746400	0.271140
N761	N76	0.153100	0.731800	0.059280
N771	N77	0.148000	0.789900	0.972600
N781	N78	0.238300	0.822200	0.063060
N791	N79	0.413400	0.657700	0.407250
N801	N80	0.780200	0.313000	0.421630
N811	N81	0.776100	0.528900	0.771590
N821	N82	0.622800	0.537300	0.558810
N831	N83	0.626330	0.488700	0.473040
N841	N84	0.711500	0.450300	0.564810
Ag151	Ag15	0.344070	0.042560	0.867830
Ag161	Ag16	0.822960	0.247860	0.367250
C2531	C253	0.623700	0.243000	0.002400
C2541	C254	0.278000	0.862300	0.509200
H1691	H169	0.298700	0.865900	0.549300
C2551	C255	0.735100	0.435000	0.888300
H1701	H170	0.713200	0.441700	0.848500
C2561	C256	0.097800	0.030000	0.501000
C2571	C257	0.798100	0.415800	0.004900
H1711	H171	0.820400	0.411400	0.044900
C2581	C258	0.533100	0.187800	0.911100
H1721	H172	0.554500	0.209200	0.889900
C2591	C259	0.943700	0.157000	0.464900
H1731	H173	0.923600	0.185200	0.484800
C2601	C260	0.003400	0.116500	0.496500
H1741	H174	0.023000	0.117900	0.536700
C2611	C261	0.560000	0.197800	0.970200
C2621	C262	0.709900	0.273100	0.087700
C2631	C263	0.178900	0.043900	0.681300
H1751	H175	0.134800	0.061500	0.661400
C2641	C264	0.219800	0.848000	0.392100
H1761	H176	0.199800	0.843700	0.352000
C2651	C265	0.182500	0.948200	0.506800
C2661	C266	0.033400	0.073800	0.467100
C2671	C267	0.180500	0.997900	0.588300
C2681	C268	0.743600	0.262600	0.151700
C2691	C269	0.526100	0.164400	0.000000
H1771	H177	0.543400	0.169100	0.039900
C2701	C270	0.215500	0.898900	0.477600
C2711	C271	0.825900	0.459100	0.974100
H1781	H178	0.868100	0.482300	0.994300
C2721	C272	0.185700	0.890400	0.418500
H1791	H179	0.143600	0.912600	0.396600
C2731	C273	0.308500	0.820300	0.479400
H1801	H180	0.350100	0.796400	0.500500
C2741	C274	0.473500	0.145300	0.884100
H1811	H181	0.456400	0.137100	0.844500
C2751	C275	0.735900	0.379000	0.974500
C2761	C276	0.466800	0.124600	0.969600
H1821	H182	0.444300	0.102700	0.989900
C2771	C277	0.705400	0.327900	0.005100
C2781	C278	0.703900	0.389900	0.915200
H1831	H183	0.661800	0.367100	0.893900
C2791	C279	0.307600	0.995100	0.742500
H1841	H184	0.351900	0.978500	0.763200
C2801	C280	0.002400	0.073100	0.407200
H1851	H185	0.020500	0.043700	0.386200
C2811	C281	0.943800	0.117000	0.379600
H1861	H186	0.924300	0.118500	0.339500
C2821	C282	0.715700	0.210900	0.178200
H1871	H187	0.677500	0.180700	0.156400
C2831	C283	0.802300	0.302500	0.184900
H1881	H188	0.823800	0.335000	0.168100
C2841	C284	0.828300	0.292600	0.244300
H1891	H189	0.867800	0.320200	0.266900
C2851	C285	0.212300	0.007600	0.652000
C2861	C286	0.278100	0.983300	0.683200
H1901	H190	0.302100	0.959500	0.664800
C2871	C287	0.212300	0.053300	0.740600
H1911	H191	0.189600	0.077500	0.760000
C2881	C288	0.745400	0.204900	0.237400
H1921	H192	0.726100	0.170300	0.254900
N851	N85	0.439300	0.115300	0.912220
N861	N86	0.795500	0.469500	0.916770
N871	N87	0.800800	0.246400	0.271140
N881	N88	0.653100	0.231800	0.059280
N891	N89	0.648000	0.289900	0.972600
N901	N90	0.738300	0.322200	0.063060
N911	N91	0.913400	0.157700	0.407250
N921	N92	0.280200	0.813000	0.421630
N931	N93	0.276100	0.028900	0.771590
N941	N94	0.122800	0.037300	0.558810
N951	N95	0.126330	0.988700	0.473040
N961	N96	0.211500	0.950300	0.564810
