data_QODHUO06_freeONLY_PM
_symmetry_space_group_name_H-M	'P1'
_cell_length_a	22.050100
_cell_length_b	16.507900
_cell_length_c	25.596000
_cell_angle_alpha	90.000000
_cell_angle_beta	115.291000
_cell_angle_gamma	90.000000
_symmetry_Int_Tables_number 1

loop_
_symmetry_equiv_pos_as_xyz
'x,y,z'

loop_
_atom_site_label
_atom_site_type_symbol
_atom_site_fract_x
_atom_site_fract_y
_atom_site_fract_z
Ag11	Ag1	0.344230	0.542630	0.367550
Ag21	Ag2	0.322660	0.246110	0.867000
C11	C1	0.123800	0.243500	0.501400
C21	C2	0.598000	0.029300	0.000200
C31	C3	0.720300	0.847700	0.891700
H11	H1	0.700600	0.843100	0.851600
C41	C4	0.032800	0.188500	0.410200
H21	H2	0.054300	0.209500	0.388800
C51	C5	0.059700	0.198700	0.469200
C61	C6	0.777800	0.861600	0.009000
H31	H3	0.798600	0.865000	0.049100
C71	C7	0.444000	0.155800	0.964100
H41	H4	0.423900	0.183500	0.984200
C81	C8	0.235200	0.435500	0.388200
H51	H5	0.213400	0.442500	0.348300
C91	C9	0.297800	0.416000	0.504600
H61	H6	0.320000	0.411800	0.544600
C101	C10	0.243000	0.263200	0.650600
C111	C11	0.682400	0.947800	0.006100
C121	C12	0.503600	0.115500	0.995800
H71	H7	0.523200	0.116700	0.036000
C131	C13	0.209700	0.273900	0.587000
C141	C14	0.025800	0.164900	0.499000
H81	H8	0.043100	0.169400	0.539000
C151	C15	0.533500	0.073400	0.966100
C161	C16	0.235700	0.378700	0.474000
C171	C17	0.205400	0.328000	0.504400
C181	C18	0.679200	0.044100	0.180600
H91	H9	0.635200	0.061900	0.160500
C191	C19	0.204000	0.390300	0.414600
H101	H10	0.162000	0.367700	0.393000
C201	C20	0.966900	0.125000	0.468600
H111	H11	0.944700	0.102800	0.489000
C211	C21	0.715300	0.898100	0.976900
C221	C22	0.680200	0.997900	0.087400
C231	C23	0.712500	0.008300	0.151300
C241	C24	0.807800	0.819900	0.978800
H121	H12	0.849200	0.795500	0.999700
C251	C25	0.325300	0.459400	0.473400
H131	H13	0.367400	0.482600	0.493800
C261	C26	0.973300	0.146400	0.383600
H141	H14	0.956000	0.138700	0.343800
C271	C27	0.502000	0.072700	0.906500
H151	H15	0.519800	0.043300	0.885400
C281	C28	0.807100	0.995100	0.241900
H161	H16	0.851300	0.978500	0.262800
C291	C29	0.686300	0.890100	0.917500
H171	H17	0.644500	0.912700	0.895200
C301	C30	0.712200	0.053300	0.240200
H181	H18	0.689500	0.077400	0.259500
C311	C31	0.443900	0.116400	0.878900
H191	H19	0.424400	0.117900	0.838800
C321	C32	0.245300	0.204700	0.736600
H201	H20	0.226300	0.170000	0.754100
C331	C33	0.302300	0.301500	0.684400
H211	H21	0.324300	0.333200	0.667800
C341	C34	0.328300	0.292000	0.743600
H221	H22	0.367500	0.319700	0.766200
C351	C35	0.778100	0.983500	0.182900
H231	H23	0.802100	0.959500	0.164700
C361	C36	0.215100	0.211300	0.677300
H241	H24	0.176700	0.181600	0.655400
N11	N1	0.939200	0.116200	0.411400
N21	N2	0.295600	0.470000	0.416900
N31	N3	0.300800	0.245700	0.770400
N41	N4	0.147800	0.289600	0.471800
N51	N5	0.238000	0.322600	0.562140
N61	N6	0.152900	0.232800	0.558800
N71	N7	0.780000	0.813300	0.921300
N81	N8	0.413600	0.157200	0.906700
N91	N9	0.775400	0.029000	0.270800
N101	N10	0.626100	0.987900	0.972540
N111	N11	0.622900	0.037000	0.058000
N121	N12	0.711500	0.950500	0.064100
Ag31	Ag3	0.844230	0.042630	0.367550
Ag41	Ag4	0.822660	0.746110	0.867000
C371	C37	0.623800	0.743500	0.501400
C381	C38	0.098000	0.529300	0.000200
C391	C39	0.220300	0.347700	0.891700
H251	H25	0.200600	0.343100	0.851600
C401	C40	0.532800	0.688500	0.410200
H261	H26	0.554300	0.709500	0.388800
C411	C41	0.559700	0.698700	0.469200
C421	C42	0.277800	0.361600	0.009000
H271	H27	0.298600	0.365000	0.049100
C431	C43	0.944000	0.655800	0.964100
H281	H28	0.923900	0.683500	0.984200
C441	C44	0.735200	0.935500	0.388200
H291	H29	0.713400	0.942500	0.348300
C451	C45	0.797800	0.916000	0.504600
H301	H30	0.820000	0.911800	0.544600
C461	C46	0.743000	0.763200	0.650600
C471	C47	0.182400	0.447800	0.006100
C481	C48	0.003600	0.615500	0.995800
H311	H31	0.023200	0.616700	0.036000
C491	C49	0.709700	0.773900	0.587000
C501	C50	0.525800	0.664900	0.499000
H321	H32	0.543100	0.669400	0.539000
C511	C51	0.033500	0.573400	0.966100
C521	C52	0.735700	0.878700	0.474000
C531	C53	0.705400	0.828000	0.504400
C541	C54	0.179200	0.544100	0.180600
H331	H33	0.135200	0.561900	0.160500
C551	C55	0.704000	0.890300	0.414600
H341	H34	0.662000	0.867700	0.393000
C561	C56	0.466900	0.625000	0.468600
H351	H35	0.444700	0.602800	0.489000
C571	C57	0.215300	0.398100	0.976900
C581	C58	0.180200	0.497900	0.087400
C591	C59	0.212500	0.508300	0.151300
C601	C60	0.307800	0.319900	0.978800
H361	H36	0.349200	0.295500	0.999700
C611	C61	0.825300	0.959400	0.473400
H371	H37	0.867400	0.982600	0.493800
C621	C62	0.473300	0.646400	0.383600
H381	H38	0.456000	0.638700	0.343800
C631	C63	0.002000	0.572700	0.906500
H391	H39	0.019800	0.543300	0.885400
C641	C64	0.307100	0.495100	0.241900
H401	H40	0.351300	0.478500	0.262800
C651	C65	0.186300	0.390100	0.917500
H411	H41	0.144500	0.412700	0.895200
C661	C66	0.212200	0.553300	0.240200
H421	H42	0.189500	0.577400	0.259500
C671	C67	0.943900	0.616400	0.878900
H431	H43	0.924400	0.617900	0.838800
C681	C68	0.745300	0.704700	0.736600
H441	H44	0.726300	0.670000	0.754100
C691	C69	0.802300	0.801500	0.684400
H451	H45	0.824300	0.833200	0.667800
C701	C70	0.828300	0.792000	0.743600
H461	H46	0.867500	0.819700	0.766200
C711	C71	0.278100	0.483500	0.182900
H471	H47	0.302100	0.459500	0.164700
C721	C72	0.715100	0.711300	0.677300
H481	H48	0.676700	0.681600	0.655400
N131	N13	0.439200	0.616200	0.411400
N141	N14	0.795600	0.970000	0.416900
N151	N15	0.800800	0.745700	0.770400
N161	N16	0.647800	0.789600	0.471800
N171	N17	0.738000	0.822600	0.562140
N181	N18	0.652900	0.732800	0.558800
N191	N19	0.280000	0.313300	0.921300
N201	N20	0.913600	0.657200	0.906700
N211	N21	0.275400	0.529000	0.270800
N221	N22	0.126100	0.487900	0.972540
N231	N23	0.122900	0.537000	0.058000
N241	N24	0.211500	0.450500	0.064100
Ag51	Ag5	0.655770	0.542630	0.132450
Ag61	Ag6	0.677340	0.246110	0.633000
C731	C73	0.876200	0.243500	0.998600
C741	C74	0.402000	0.029300	0.499800
C751	C75	0.279700	0.847700	0.608300
H491	H49	0.299400	0.843100	0.648400
C761	C76	0.967200	0.188500	0.089800
H501	H50	0.945700	0.209500	0.111200
C771	C77	0.940300	0.198700	0.030800
C781	C78	0.222200	0.861600	0.491000
H511	H51	0.201400	0.865000	0.450900
C791	C79	0.556000	0.155800	0.535900
H521	H52	0.576100	0.183500	0.515800
C801	C80	0.764800	0.435500	0.111800
H531	H53	0.786600	0.442500	0.151700
C811	C81	0.702200	0.416000	0.995400
H541	H54	0.680000	0.411800	0.955400
C821	C82	0.757000	0.263200	0.849400
C831	C83	0.317600	0.947800	0.493900
C841	C84	0.496400	0.115500	0.504200
H551	H55	0.476800	0.116700	0.464000
C851	C85	0.790300	0.273900	0.913000
C861	C86	0.974200	0.164900	0.001000
H561	H56	0.956900	0.169400	0.961000
C871	C87	0.466500	0.073400	0.533900
C881	C88	0.764300	0.378700	0.026000
C891	C89	0.794600	0.328000	0.995600
C901	C90	0.320800	0.044100	0.319400
H571	H57	0.364800	0.061900	0.339500
C911	C91	0.796000	0.390300	0.085400
H581	H58	0.838000	0.367700	0.107000
C921	C92	0.033100	0.125000	0.031400
H591	H59	0.055300	0.102800	0.011000
C931	C93	0.284700	0.898100	0.523100
C941	C94	0.319800	0.997900	0.412600
C951	C95	0.287500	0.008300	0.348700
C961	C96	0.192200	0.819900	0.521200
H601	H60	0.150800	0.795500	0.500300
C971	C97	0.674700	0.459400	0.026600
H611	H61	0.632600	0.482600	0.006200
C981	C98	0.026700	0.146400	0.116400
H621	H62	0.044000	0.138700	0.156200
C991	C99	0.498000	0.072700	0.593500
H631	H63	0.480200	0.043300	0.614600
C1001	C100	0.192900	0.995100	0.258100
H641	H64	0.148700	0.978500	0.237200
C1011	C101	0.313700	0.890100	0.582500
H651	H65	0.355500	0.912700	0.604800
C1021	C102	0.287800	0.053300	0.259800
H661	H66	0.310500	0.077400	0.240500
C1031	C103	0.556100	0.116400	0.621100
H671	H67	0.575600	0.117900	0.661200
C1041	C104	0.754700	0.204700	0.763400
H681	H68	0.773700	0.170000	0.745900
C1051	C105	0.697700	0.301500	0.815600
H691	H69	0.675700	0.333200	0.832200
C1061	C106	0.671700	0.292000	0.756400
H701	H70	0.632500	0.319700	0.733800
C1071	C107	0.221900	0.983500	0.317100
H711	H71	0.197900	0.959500	0.335300
C1081	C108	0.784900	0.211300	0.822700
H721	H72	0.823300	0.181600	0.844600
N251	N25	0.060800	0.116200	0.088600
N261	N26	0.704400	0.470000	0.083100
N271	N27	0.699200	0.245700	0.729600
N281	N28	0.852200	0.289600	0.028200
N291	N29	0.762000	0.322600	0.937860
N301	N30	0.847100	0.232800	0.941200
N311	N31	0.220000	0.813300	0.578700
N321	N32	0.586400	0.157200	0.593300
N331	N33	0.224600	0.029000	0.229200
N341	N34	0.373900	0.987900	0.527460
N351	N35	0.377100	0.037000	0.442000
N361	N36	0.288500	0.950500	0.435900
Ag71	Ag7	0.155770	0.042630	0.132450
Ag81	Ag8	0.177340	0.746110	0.633000
C1091	C109	0.376200	0.743500	0.998600
C1101	C110	0.902000	0.529300	0.499800
C1111	C111	0.779700	0.347700	0.608300
H731	H73	0.799400	0.343100	0.648400
C1121	C112	0.467200	0.688500	0.089800
H741	H74	0.445700	0.709500	0.111200
C1131	C113	0.440300	0.698700	0.030800
C1141	C114	0.722200	0.361600	0.491000
H751	H75	0.701400	0.365000	0.450900
C1151	C115	0.056000	0.655800	0.535900
H761	H76	0.076100	0.683500	0.515800
C1161	C116	0.264800	0.935500	0.111800
H771	H77	0.286600	0.942500	0.151700
C1171	C117	0.202200	0.916000	0.995400
H781	H78	0.180000	0.911800	0.955400
C1181	C118	0.257000	0.763200	0.849400
C1191	C119	0.817600	0.447800	0.493900
C1201	C120	0.996400	0.615500	0.504200
H791	H79	0.976800	0.616700	0.464000
C1211	C121	0.290300	0.773900	0.913000
C1221	C122	0.474200	0.664900	0.001000
H801	H80	0.456900	0.669400	0.961000
C1231	C123	0.966500	0.573400	0.533900
C1241	C124	0.264300	0.878700	0.026000
C1251	C125	0.294600	0.828000	0.995600
C1261	C126	0.820800	0.544100	0.319400
H811	H81	0.864800	0.561900	0.339500
C1271	C127	0.296000	0.890300	0.085400
H821	H82	0.338000	0.867700	0.107000
C1281	C128	0.533100	0.625000	0.031400
H831	H83	0.555300	0.602800	0.011000
C1291	C129	0.784700	0.398100	0.523100
C1301	C130	0.819800	0.497900	0.412600
C1311	C131	0.787500	0.508300	0.348700
C1321	C132	0.692200	0.319900	0.521200
H841	H84	0.650800	0.295500	0.500300
C1331	C133	0.174700	0.959400	0.026600
H851	H85	0.132600	0.982600	0.006200
C1341	C134	0.526700	0.646400	0.116400
H861	H86	0.544000	0.638700	0.156200
C1351	C135	0.998000	0.572700	0.593500
H871	H87	0.980200	0.543300	0.614600
C1361	C136	0.692900	0.495100	0.258100
H881	H88	0.648700	0.478500	0.237200
C1371	C137	0.813700	0.390100	0.582500
H891	H89	0.855500	0.412700	0.604800
C1381	C138	0.787800	0.553300	0.259800
H901	H90	0.810500	0.577400	0.240500
C1391	C139	0.056100	0.616400	0.621100
H911	H91	0.075600	0.617900	0.661200
C1401	C140	0.254700	0.704700	0.763400
H921	H92	0.273700	0.670000	0.745900
C1411	C141	0.197700	0.801500	0.815600
H931	H93	0.175700	0.833200	0.832200
C1421	C142	0.171700	0.792000	0.756400
H941	H94	0.132500	0.819700	0.733800
C1431	C143	0.721900	0.483500	0.317100
H951	H95	0.697900	0.459500	0.335300
C1441	C144	0.284900	0.711300	0.822700
H961	H96	0.323300	0.681600	0.844600
N371	N37	0.560800	0.616200	0.088600
N381	N38	0.204400	0.970000	0.083100
N391	N39	0.199200	0.745700	0.729600
N401	N40	0.352200	0.789600	0.028200
N411	N41	0.262000	0.822600	0.937860
N421	N42	0.347100	0.732800	0.941200
N431	N43	0.720000	0.313300	0.578700
N441	N44	0.086400	0.657200	0.593300
N451	N45	0.724600	0.529000	0.229200
N461	N46	0.873900	0.487900	0.527460
N471	N47	0.877100	0.537000	0.442000
N481	N48	0.788500	0.450500	0.435900
Ag91	Ag9	0.655770	0.457370	0.632450
Ag101	Ag10	0.677340	0.753890	0.133000
C1451	C145	0.876200	0.756500	0.498600
C1461	C146	0.402000	0.970700	0.999800
C1471	C147	0.279700	0.152300	0.108300
H971	H97	0.299400	0.156900	0.148400
C1481	C148	0.967200	0.811500	0.589800
H981	H98	0.945700	0.790500	0.611200
C1491	C149	0.940300	0.801300	0.530800
C1501	C150	0.222200	0.138400	0.991000
H991	H99	0.201400	0.135000	0.950900
C1511	C151	0.556000	0.844200	0.035900
H1001	H100	0.576100	0.816500	0.015800
C1521	C152	0.764800	0.564500	0.611800
H1011	H101	0.786600	0.557500	0.651700
C1531	C153	0.702200	0.584000	0.495400
H1021	H102	0.680000	0.588200	0.455400
C1541	C154	0.757000	0.736800	0.349400
C1551	C155	0.317600	0.052200	0.993900
C1561	C156	0.496400	0.884500	0.004200
H1031	H103	0.476800	0.883300	0.964000
C1571	C157	0.790300	0.726100	0.413000
C1581	C158	0.974200	0.835100	0.501000
H1041	H104	0.956900	0.830600	0.461000
C1591	C159	0.466500	0.926600	0.033900
C1601	C160	0.764300	0.621300	0.526000
C1611	C161	0.794600	0.672000	0.495600
C1621	C162	0.320800	0.955900	0.819400
H1051	H105	0.364800	0.938100	0.839500
C1631	C163	0.796000	0.609700	0.585400
H1061	H106	0.838000	0.632300	0.607000
C1641	C164	0.033100	0.875000	0.531400
H1071	H107	0.055300	0.897200	0.511000
C1651	C165	0.284700	0.101900	0.023100
C1661	C166	0.319800	0.002100	0.912600
C1671	C167	0.287500	0.991700	0.848700
C1681	C168	0.192200	0.180100	0.021200
H1081	H108	0.150800	0.204500	0.000300
C1691	C169	0.674700	0.540600	0.526600
H1091	H109	0.632600	0.517400	0.506200
C1701	C170	0.026700	0.853600	0.616400
H1101	H110	0.044000	0.861300	0.656200
C1711	C171	0.498000	0.927300	0.093500
H1111	H111	0.480200	0.956700	0.114600
C1721	C172	0.192900	0.004900	0.758100
H1121	H112	0.148700	0.021500	0.737200
C1731	C173	0.313700	0.109900	0.082500
H1131	H113	0.355500	0.087300	0.104800
C1741	C174	0.287800	0.946700	0.759800
H1141	H114	0.310500	0.922600	0.740500
C1751	C175	0.556100	0.883600	0.121100
H1151	H115	0.575600	0.882100	0.161200
C1761	C176	0.754700	0.795300	0.263400
H1161	H116	0.773700	0.830000	0.245900
C1771	C177	0.697700	0.698500	0.315600
H1171	H117	0.675700	0.666800	0.332200
C1781	C178	0.671700	0.708000	0.256400
H1181	H118	0.632500	0.680300	0.233800
C1791	C179	0.221900	0.016500	0.817100
H1191	H119	0.197900	0.040500	0.835300
C1801	C180	0.784900	0.788700	0.322700
H1201	H120	0.823300	0.818400	0.344600
N491	N49	0.060800	0.883800	0.588600
N501	N50	0.704400	0.530000	0.583100
N511	N51	0.699200	0.754300	0.229600
N521	N52	0.852200	0.710400	0.528200
N531	N53	0.762000	0.677400	0.437860
N541	N54	0.847100	0.767200	0.441200
N551	N55	0.220000	0.186700	0.078700
N561	N56	0.586400	0.842800	0.093300
N571	N57	0.224600	0.971000	0.729200
N581	N58	0.373900	0.012100	0.027460
N591	N59	0.377100	0.963000	0.942000
N601	N60	0.288500	0.049500	0.935900
Ag111	Ag11	0.155770	0.957370	0.632450
Ag121	Ag12	0.177340	0.253890	0.133000
C1811	C181	0.376200	0.256500	0.498600
C1821	C182	0.902000	0.470700	0.999800
C1831	C183	0.779700	0.652300	0.108300
H1211	H121	0.799400	0.656900	0.148400
C1841	C184	0.467200	0.311500	0.589800
H1221	H122	0.445700	0.290500	0.611200
C1851	C185	0.440300	0.301300	0.530800
C1861	C186	0.722200	0.638400	0.991000
H1231	H123	0.701400	0.635000	0.950900
C1871	C187	0.056000	0.344200	0.035900
H1241	H124	0.076100	0.316500	0.015800
C1881	C188	0.264800	0.064500	0.611800
H1251	H125	0.286600	0.057500	0.651700
C1891	C189	0.202200	0.084000	0.495400
H1261	H126	0.180000	0.088200	0.455400
C1901	C190	0.257000	0.236800	0.349400
C1911	C191	0.817600	0.552200	0.993900
C1921	C192	0.996400	0.384500	0.004200
H1271	H127	0.976800	0.383300	0.964000
C1931	C193	0.290300	0.226100	0.413000
C1941	C194	0.474200	0.335100	0.501000
H1281	H128	0.456900	0.330600	0.461000
C1951	C195	0.966500	0.426600	0.033900
C1961	C196	0.264300	0.121300	0.526000
C1971	C197	0.294600	0.172000	0.495600
C1981	C198	0.820800	0.455900	0.819400
H1291	H129	0.864800	0.438100	0.839500
C1991	C199	0.296000	0.109700	0.585400
H1301	H130	0.338000	0.132300	0.607000
C2001	C200	0.533100	0.375000	0.531400
H1311	H131	0.555300	0.397200	0.511000
C2011	C201	0.784700	0.601900	0.023100
C2021	C202	0.819800	0.502100	0.912600
C2031	C203	0.787500	0.491700	0.848700
C2041	C204	0.692200	0.680100	0.021200
H1321	H132	0.650800	0.704500	0.000300
C2051	C205	0.174700	0.040600	0.526600
H1331	H133	0.132600	0.017400	0.506200
C2061	C206	0.526700	0.353600	0.616400
H1341	H134	0.544000	0.361300	0.656200
C2071	C207	0.998000	0.427300	0.093500
H1351	H135	0.980200	0.456700	0.114600
C2081	C208	0.692900	0.504900	0.758100
H1361	H136	0.648700	0.521500	0.737200
C2091	C209	0.813700	0.609900	0.082500
H1371	H137	0.855500	0.587300	0.104800
C2101	C210	0.787800	0.446700	0.759800
H1381	H138	0.810500	0.422600	0.740500
C2111	C211	0.056100	0.383600	0.121100
H1391	H139	0.075600	0.382100	0.161200
C2121	C212	0.254700	0.295300	0.263400
H1401	H140	0.273700	0.330000	0.245900
C2131	C213	0.197700	0.198500	0.315600
H1411	H141	0.175700	0.166800	0.332200
C2141	C214	0.171700	0.208000	0.256400
H1421	H142	0.132500	0.180300	0.233800
C2151	C215	0.721900	0.516500	0.817100
H1431	H143	0.697900	0.540500	0.835300
C2161	C216	0.284900	0.288700	0.322700
H1441	H144	0.323300	0.318400	0.344600
N611	N61	0.560800	0.383800	0.588600
N621	N62	0.204400	0.030000	0.583100
N631	N63	0.199200	0.254300	0.229600
N641	N64	0.352200	0.210400	0.528200
N651	N65	0.262000	0.177400	0.437860
N661	N66	0.347100	0.267200	0.441200
N671	N67	0.720000	0.686700	0.078700
N681	N68	0.086400	0.342800	0.093300
N691	N69	0.724600	0.471000	0.729200
N701	N70	0.873900	0.512100	0.027460
N711	N71	0.877100	0.463000	0.942000
N721	N72	0.788500	0.549500	0.935900
Ag131	Ag13	0.344230	0.457370	0.867550
Ag141	Ag14	0.322660	0.753890	0.367000
C2171	C217	0.123800	0.756500	0.001400
C2181	C218	0.598000	0.970700	0.500200
C2191	C219	0.720300	0.152300	0.391700
H1451	H145	0.700600	0.156900	0.351600
C2201	C220	0.032800	0.811500	0.910200
H1461	H146	0.054300	0.790500	0.888800
C2211	C221	0.059700	0.801300	0.969200
C2221	C222	0.777800	0.138400	0.509000
H1471	H147	0.798600	0.135000	0.549100
C2231	C223	0.444000	0.844200	0.464100
H1481	H148	0.423900	0.816500	0.484200
C2241	C224	0.235200	0.564500	0.888200
H1491	H149	0.213400	0.557500	0.848300
C2251	C225	0.297800	0.584000	0.004600
H1501	H150	0.320000	0.588200	0.044600
C2261	C226	0.243000	0.736800	0.150600
C2271	C227	0.682400	0.052200	0.506100
C2281	C228	0.503600	0.884500	0.495800
H1511	H151	0.523200	0.883300	0.536000
C2291	C229	0.209700	0.726100	0.087000
C2301	C230	0.025800	0.835100	0.999000
H1521	H152	0.043100	0.830600	0.039000
C2311	C231	0.533500	0.926600	0.466100
C2321	C232	0.235700	0.621300	0.974000
C2331	C233	0.205400	0.672000	0.004400
C2341	C234	0.679200	0.955900	0.680600
H1531	H153	0.635200	0.938100	0.660500
C2351	C235	0.204000	0.609700	0.914600
H1541	H154	0.162000	0.632300	0.893000
C2361	C236	0.966900	0.875000	0.968600
H1551	H155	0.944700	0.897200	0.989000
C2371	C237	0.715300	0.101900	0.476900
C2381	C238	0.680200	0.002100	0.587400
C2391	C239	0.712500	0.991700	0.651300
C2401	C240	0.807800	0.180100	0.478800
H1561	H156	0.849200	0.204500	0.499700
C2411	C241	0.325300	0.540600	0.973400
H1571	H157	0.367400	0.517400	0.993800
C2421	C242	0.973300	0.853600	0.883600
H1581	H158	0.956000	0.861300	0.843800
C2431	C243	0.502000	0.927300	0.406500
H1591	H159	0.519800	0.956700	0.385400
C2441	C244	0.807100	0.004900	0.741900
H1601	H160	0.851300	0.021500	0.762800
C2451	C245	0.686300	0.109900	0.417500
H1611	H161	0.644500	0.087300	0.395200
C2461	C246	0.712200	0.946700	0.740200
H1621	H162	0.689500	0.922600	0.759500
C2471	C247	0.443900	0.883600	0.378900
H1631	H163	0.424400	0.882100	0.338800
C2481	C248	0.245300	0.795300	0.236600
H1641	H164	0.226300	0.830000	0.254100
C2491	C249	0.302300	0.698500	0.184400
H1651	H165	0.324300	0.666800	0.167800
C2501	C250	0.328300	0.708000	0.243600
H1661	H166	0.367500	0.680300	0.266200
C2511	C251	0.778100	0.016500	0.682900
H1671	H167	0.802100	0.040500	0.664700
C2521	C252	0.215100	0.788700	0.177300
H1681	H168	0.176700	0.818400	0.155400
N731	N73	0.939200	0.883800	0.911400
N741	N74	0.295600	0.530000	0.916900
N751	N75	0.300800	0.754300	0.270400
N761	N76	0.147800	0.710400	0.971800
N771	N77	0.238000	0.677400	0.062140
N781	N78	0.152900	0.767200	0.058800
N791	N79	0.780000	0.186700	0.421300
N801	N80	0.413600	0.842800	0.406700
N811	N81	0.775400	0.971000	0.770800
N821	N82	0.626100	0.012100	0.472540
N831	N83	0.622900	0.963000	0.558000
N841	N84	0.711500	0.049500	0.564100
Ag151	Ag15	0.844230	0.957370	0.867550
Ag161	Ag16	0.822660	0.253890	0.367000
C2531	C253	0.623800	0.256500	0.001400
C2541	C254	0.098000	0.470700	0.500200
C2551	C255	0.220300	0.652300	0.391700
H1691	H169	0.200600	0.656900	0.351600
C2561	C256	0.532800	0.311500	0.910200
H1701	H170	0.554300	0.290500	0.888800
C2571	C257	0.559700	0.301300	0.969200
C2581	C258	0.277800	0.638400	0.509000
H1711	H171	0.298600	0.635000	0.549100
C2591	C259	0.944000	0.344200	0.464100
H1721	H172	0.923900	0.316500	0.484200
C2601	C260	0.735200	0.064500	0.888200
H1731	H173	0.713400	0.057500	0.848300
C2611	C261	0.797800	0.084000	0.004600
H1741	H174	0.820000	0.088200	0.044600
C2621	C262	0.743000	0.236800	0.150600
C2631	C263	0.182400	0.552200	0.506100
C2641	C264	0.003600	0.384500	0.495800
H1751	H175	0.023200	0.383300	0.536000
C2651	C265	0.709700	0.226100	0.087000
C2661	C266	0.525800	0.335100	0.999000
H1761	H176	0.543100	0.330600	0.039000
C2671	C267	0.033500	0.426600	0.466100
C2681	C268	0.735700	0.121300	0.974000
C2691	C269	0.705400	0.172000	0.004400
C2701	C270	0.179200	0.455900	0.680600
H1771	H177	0.135200	0.438100	0.660500
C2711	C271	0.704000	0.109700	0.914600
H1781	H178	0.662000	0.132300	0.893000
C2721	C272	0.466900	0.375000	0.968600
H1791	H179	0.444700	0.397200	0.989000
C2731	C273	0.215300	0.601900	0.476900
C2741	C274	0.180200	0.502100	0.587400
C2751	C275	0.212500	0.491700	0.651300
C2761	C276	0.307800	0.680100	0.478800
H1801	H180	0.349200	0.704500	0.499700
C2771	C277	0.825300	0.040600	0.973400
H1811	H181	0.867400	0.017400	0.993800
C2781	C278	0.473300	0.353600	0.883600
H1821	H182	0.456000	0.361300	0.843800
C2791	C279	0.002000	0.427300	0.406500
H1831	H183	0.019800	0.456700	0.385400
C2801	C280	0.307100	0.504900	0.741900
H1841	H184	0.351300	0.521500	0.762800
C2811	C281	0.186300	0.609900	0.417500
H1851	H185	0.144500	0.587300	0.395200
C2821	C282	0.212200	0.446700	0.740200
H1861	H186	0.189500	0.422600	0.759500
C2831	C283	0.943900	0.383600	0.378900
H1871	H187	0.924400	0.382100	0.338800
C2841	C284	0.745300	0.295300	0.236600
H1881	H188	0.726300	0.330000	0.254100
C2851	C285	0.802300	0.198500	0.184400
H1891	H189	0.824300	0.166800	0.167800
C2861	C286	0.828300	0.208000	0.243600
H1901	H190	0.867500	0.180300	0.266200
C2871	C287	0.278100	0.516500	0.682900
H1911	H191	0.302100	0.540500	0.664700
C2881	C288	0.715100	0.288700	0.177300
H1921	H192	0.676700	0.318400	0.155400
N851	N85	0.439200	0.383800	0.911400
N861	N86	0.795600	0.030000	0.916900
N871	N87	0.800800	0.254300	0.270400
N881	N88	0.647800	0.210400	0.971800
N891	N89	0.738000	0.177400	0.062140
N901	N90	0.652900	0.267200	0.058800
N911	N91	0.280000	0.686700	0.421300
N921	N92	0.913600	0.342800	0.406700
N931	N93	0.275400	0.471000	0.770800
N941	N94	0.126100	0.512100	0.472540
N951	N95	0.122900	0.463000	0.558000
N961	N96	0.211500	0.549500	0.564100
