data_QODHUO08_freeONLY_PM
_symmetry_space_group_name_H-M	'P1'
_cell_length_a	21.941600
_cell_length_b	16.773400
_cell_length_c	25.551300
_cell_angle_alpha	90.000000
_cell_angle_beta	115.225000
_cell_angle_gamma	90.000000
_symmetry_Int_Tables_number 1

loop_
_symmetry_equiv_pos_as_xyz
'x,y,z'

loop_
_atom_site_label
_atom_site_type_symbol
_atom_site_fract_x
_atom_site_fract_y
_atom_site_fract_z
Ag11	Ag1	0.344260	0.042410	0.367220
Ag21	Ag2	0.821440	0.244660	0.866810
C11	C1	0.097100	0.029200	0.999400
C21	C2	0.623800	0.243800	0.500700
C31	C3	0.532800	0.189600	0.409700
H11	H1	0.554300	0.210400	0.388300
C41	C4	0.559900	0.199500	0.468100
C51	C5	0.003200	0.115300	0.994700
H21	H2	0.022700	0.116200	0.035000
C61	C6	0.181200	0.947800	0.005500
C71	C7	0.220000	0.848600	0.891400
H31	H3	0.200400	0.844500	0.851300
C81	C8	0.797600	0.416500	0.504400
H41	H4	0.819500	0.413200	0.544500
C91	C9	0.032900	0.073500	0.965200
C101	C10	0.943700	0.155700	0.963300
H51	H5	0.924000	0.183600	0.983600
C111	C11	0.709400	0.274600	0.586000
C121	C12	0.276300	0.862000	0.008300
H61	H6	0.296800	0.865300	0.048500
C131	C13	0.735800	0.434900	0.387900
H71	H7	0.714200	0.441700	0.348100
C141	C14	0.742400	0.263700	0.649700
C151	C15	0.178300	0.043500	0.179300
H81	H8	0.134200	0.061200	0.159100
C161	C16	0.525200	0.165700	0.497600
H91	H9	0.541900	0.170300	0.537500
C171	C17	0.213900	0.898600	0.975900
C181	C18	0.211600	0.008000	0.150600
C191	C19	0.179400	0.998500	0.086500
C201	C20	0.704200	0.389600	0.414200
H101	H10	0.662200	0.367000	0.392200
C211	C21	0.705000	0.327900	0.503600
C221	C22	0.735400	0.378200	0.473200
C231	C23	0.467200	0.126300	0.467000
H111	H11	0.445300	0.103500	0.487500
C241	C24	0.306700	0.820500	0.978400
H121	H12	0.348200	0.796400	0.999700
C251	C25	0.824900	0.459000	0.473300
H131	H13	0.867000	0.482000	0.493800
C261	C26	0.186000	0.890900	0.917400
H141	H14	0.144400	0.913900	0.895000
C271	C27	0.001200	0.073900	0.906100
H151	H15	0.018800	0.044600	0.884900
C281	C28	0.472700	0.148200	0.382500
H161	H16	0.455000	0.141600	0.342600
C291	C29	0.211000	0.052600	0.238700
H171	H17	0.187900	0.076600	0.257800
C301	C30	0.305000	0.994300	0.241100
H181	H18	0.348900	0.976400	0.262300
C311	C31	0.943600	0.117200	0.878100
H191	H19	0.924600	0.119200	0.837900
C321	C32	0.277200	0.983100	0.182100
H201	H20	0.301700	0.959700	0.164100
C331	C33	0.826500	0.293200	0.742300
H211	H21	0.865300	0.321600	0.764800
C341	C34	0.745100	0.205600	0.735500
H221	H22	0.727200	0.169700	0.752900
C351	C35	0.801400	0.302200	0.683500
H231	H23	0.823600	0.333500	0.667000
C361	C36	0.714400	0.213400	0.676700
H241	H24	0.675200	0.185300	0.654900
N11	N1	0.439300	0.117700	0.410300
N21	N2	0.795600	0.469400	0.416700
N31	N3	0.800300	0.247500	0.769600
N41	N4	0.648200	0.289300	0.471200
N51	N5	0.737600	0.322800	0.561600
N61	N6	0.652300	0.234000	0.557700
N71	N7	0.913100	0.156800	0.905700
N81	N8	0.279700	0.813400	0.921300
N91	N9	0.274500	0.028200	0.270000
N101	N10	0.125100	0.987800	0.972000
N111	N11	0.210300	0.951200	0.063100
N121	N12	0.122500	0.037800	0.056900
Ag31	Ag3	0.844260	0.542410	0.367220
Ag41	Ag4	0.321440	0.744660	0.866810
C371	C37	0.597100	0.529200	0.999400
C381	C38	0.123800	0.743800	0.500700
C391	C39	0.032800	0.689600	0.409700
H251	H25	0.054300	0.710400	0.388300
C401	C40	0.059900	0.699500	0.468100
C411	C41	0.503200	0.615300	0.994700
H261	H26	0.522700	0.616200	0.035000
C421	C42	0.681200	0.447800	0.005500
C431	C43	0.720000	0.348600	0.891400
H271	H27	0.700400	0.344500	0.851300
C441	C44	0.297600	0.916500	0.504400
H281	H28	0.319500	0.913200	0.544500
C451	C45	0.532900	0.573500	0.965200
C461	C46	0.443700	0.655700	0.963300
H291	H29	0.424000	0.683600	0.983600
C471	C47	0.209400	0.774600	0.586000
C481	C48	0.776300	0.362000	0.008300
H301	H30	0.796800	0.365300	0.048500
C491	C49	0.235800	0.934900	0.387900
H311	H31	0.214200	0.941700	0.348100
C501	C50	0.242400	0.763700	0.649700
C511	C51	0.678300	0.543500	0.179300
H321	H32	0.634200	0.561200	0.159100
C521	C52	0.025200	0.665700	0.497600
H331	H33	0.041900	0.670300	0.537500
C531	C53	0.713900	0.398600	0.975900
C541	C54	0.711600	0.508000	0.150600
C551	C55	0.679400	0.498500	0.086500
C561	C56	0.204200	0.889600	0.414200
H341	H34	0.162200	0.867000	0.392200
C571	C57	0.205000	0.827900	0.503600
C581	C58	0.235400	0.878200	0.473200
C591	C59	0.967200	0.626300	0.467000
H351	H35	0.945300	0.603500	0.487500
C601	C60	0.806700	0.320500	0.978400
H361	H36	0.848200	0.296400	0.999700
C611	C61	0.324900	0.959000	0.473300
H371	H37	0.367000	0.982000	0.493800
C621	C62	0.686000	0.390900	0.917400
H381	H38	0.644400	0.413900	0.895000
C631	C63	0.501200	0.573900	0.906100
H391	H39	0.518800	0.544600	0.884900
C641	C64	0.972700	0.648200	0.382500
H401	H40	0.955000	0.641600	0.342600
C651	C65	0.711000	0.552600	0.238700
H411	H41	0.687900	0.576600	0.257800
C661	C66	0.805000	0.494300	0.241100
H421	H42	0.848900	0.476400	0.262300
C671	C67	0.443600	0.617200	0.878100
H431	H43	0.424600	0.619200	0.837900
C681	C68	0.777200	0.483100	0.182100
H441	H44	0.801700	0.459700	0.164100
C691	C69	0.326500	0.793200	0.742300
H451	H45	0.365300	0.821600	0.764800
C701	C70	0.245100	0.705600	0.735500
H461	H46	0.227200	0.669700	0.752900
C711	C71	0.301400	0.802200	0.683500
H471	H47	0.323600	0.833500	0.667000
C721	C72	0.214400	0.713400	0.676700
H481	H48	0.175200	0.685300	0.654900
N131	N13	0.939300	0.617700	0.410300
N141	N14	0.295600	0.969400	0.416700
N151	N15	0.300300	0.747500	0.769600
N161	N16	0.148200	0.789300	0.471200
N171	N17	0.237600	0.822800	0.561600
N181	N18	0.152300	0.734000	0.557700
N191	N19	0.413100	0.656800	0.905700
N201	N20	0.779700	0.313400	0.921300
N211	N21	0.774500	0.528200	0.270000
N221	N22	0.625100	0.487800	0.972000
N231	N23	0.710300	0.451200	0.063100
N241	N24	0.622500	0.537800	0.056900
Ag51	Ag5	0.655740	0.042410	0.132780
Ag61	Ag6	0.178560	0.244660	0.633190
C731	C73	0.902900	0.029200	0.500600
C741	C74	0.376200	0.243800	0.999300
C751	C75	0.467200	0.189600	0.090300
H491	H49	0.445700	0.210400	0.111700
C761	C76	0.440100	0.199500	0.031900
C771	C77	0.996800	0.115300	0.505300
H501	H50	0.977300	0.116200	0.465000
C781	C78	0.818800	0.947800	0.494500
C791	C79	0.780000	0.848600	0.608600
H511	H51	0.799600	0.844500	0.648700
C801	C80	0.202400	0.416500	0.995600
H521	H52	0.180500	0.413200	0.955500
C811	C81	0.967100	0.073500	0.534800
C821	C82	0.056300	0.155700	0.536700
H531	H53	0.076000	0.183600	0.516400
C831	C83	0.290600	0.274600	0.914000
C841	C84	0.723700	0.862000	0.491700
H541	H54	0.703200	0.865300	0.451500
C851	C85	0.264200	0.434900	0.112100
H551	H55	0.285800	0.441700	0.151900
C861	C86	0.257600	0.263700	0.850300
C871	C87	0.821700	0.043500	0.320700
H561	H56	0.865800	0.061200	0.340900
C881	C88	0.474800	0.165700	0.002400
H571	H57	0.458100	0.170300	0.962500
C891	C89	0.786100	0.898600	0.524100
C901	C90	0.788400	0.008000	0.349400
C911	C91	0.820600	0.998500	0.413500
C921	C92	0.295800	0.389600	0.085800
H581	H58	0.337800	0.367000	0.107800
C931	C93	0.295000	0.327900	0.996400
C941	C94	0.264600	0.378200	0.026800
C951	C95	0.532800	0.126300	0.033000
H591	H59	0.554700	0.103500	0.012500
C961	C96	0.693300	0.820500	0.521600
H601	H60	0.651800	0.796400	0.500300
C971	C97	0.175100	0.459000	0.026700
H611	H61	0.133000	0.482000	0.006200
C981	C98	0.814000	0.890900	0.582600
H621	H62	0.855600	0.913900	0.605000
C991	C99	0.998800	0.073900	0.593900
H631	H63	0.981200	0.044600	0.615100
C1001	C100	0.527300	0.148200	0.117500
H641	H64	0.545000	0.141600	0.157400
C1011	C101	0.789000	0.052600	0.261300
H651	H65	0.812100	0.076600	0.242200
C1021	C102	0.695000	0.994300	0.258900
H661	H66	0.651100	0.976400	0.237700
C1031	C103	0.056400	0.117200	0.621900
H671	H67	0.075400	0.119200	0.662100
C1041	C104	0.722800	0.983100	0.317900
H681	H68	0.698300	0.959700	0.335900
C1051	C105	0.173500	0.293200	0.757700
H691	H69	0.134700	0.321600	0.735200
C1061	C106	0.254900	0.205600	0.764500
H701	H70	0.272800	0.169700	0.747100
C1071	C107	0.198600	0.302200	0.816500
H711	H71	0.176400	0.333500	0.833000
C1081	C108	0.285600	0.213400	0.823300
H721	H72	0.324800	0.185300	0.845100
N251	N25	0.560700	0.117700	0.089700
N261	N26	0.204400	0.469400	0.083300
N271	N27	0.199700	0.247500	0.730400
N281	N28	0.351800	0.289300	0.028800
N291	N29	0.262400	0.322800	0.938400
N301	N30	0.347700	0.234000	0.942300
N311	N31	0.086900	0.156800	0.594300
N321	N32	0.720300	0.813400	0.578700
N331	N33	0.725500	0.028200	0.230000
N341	N34	0.874900	0.987800	0.528000
N351	N35	0.789700	0.951200	0.436900
N361	N36	0.877500	0.037800	0.443100
Ag71	Ag7	0.155740	0.542410	0.132780
Ag81	Ag8	0.678560	0.744660	0.633190
C1091	C109	0.402900	0.529200	0.500600
C1101	C110	0.876200	0.743800	0.999300
C1111	C111	0.967200	0.689600	0.090300
H731	H73	0.945700	0.710400	0.111700
C1121	C112	0.940100	0.699500	0.031900
C1131	C113	0.496800	0.615300	0.505300
H741	H74	0.477300	0.616200	0.465000
C1141	C114	0.318800	0.447800	0.494500
C1151	C115	0.280000	0.348600	0.608600
H751	H75	0.299600	0.344500	0.648700
C1161	C116	0.702400	0.916500	0.995600
H761	H76	0.680500	0.913200	0.955500
C1171	C117	0.467100	0.573500	0.534800
C1181	C118	0.556300	0.655700	0.536700
H771	H77	0.576000	0.683600	0.516400
C1191	C119	0.790600	0.774600	0.914000
C1201	C120	0.223700	0.362000	0.491700
H781	H78	0.203200	0.365300	0.451500
C1211	C121	0.764200	0.934900	0.112100
H791	H79	0.785800	0.941700	0.151900
C1221	C122	0.757600	0.763700	0.850300
C1231	C123	0.321700	0.543500	0.320700
H801	H80	0.365800	0.561200	0.340900
C1241	C124	0.974800	0.665700	0.002400
H811	H81	0.958100	0.670300	0.962500
C1251	C125	0.286100	0.398600	0.524100
C1261	C126	0.288400	0.508000	0.349400
C1271	C127	0.320600	0.498500	0.413500
C1281	C128	0.795800	0.889600	0.085800
H821	H82	0.837800	0.867000	0.107800
C1291	C129	0.795000	0.827900	0.996400
C1301	C130	0.764600	0.878200	0.026800
C1311	C131	0.032800	0.626300	0.033000
H831	H83	0.054700	0.603500	0.012500
C1321	C132	0.193300	0.320500	0.521600
H841	H84	0.151800	0.296400	0.500300
C1331	C133	0.675100	0.959000	0.026700
H851	H85	0.633000	0.982000	0.006200
C1341	C134	0.314000	0.390900	0.582600
H861	H86	0.355600	0.413900	0.605000
C1351	C135	0.498800	0.573900	0.593900
H871	H87	0.481200	0.544600	0.615100
C1361	C136	0.027300	0.648200	0.117500
H881	H88	0.045000	0.641600	0.157400
C1371	C137	0.289000	0.552600	0.261300
H891	H89	0.312100	0.576600	0.242200
C1381	C138	0.195000	0.494300	0.258900
H901	H90	0.151100	0.476400	0.237700
C1391	C139	0.556400	0.617200	0.621900
H911	H91	0.575400	0.619200	0.662100
C1401	C140	0.222800	0.483100	0.317900
H921	H92	0.198300	0.459700	0.335900
C1411	C141	0.673500	0.793200	0.757700
H931	H93	0.634700	0.821600	0.735200
C1421	C142	0.754900	0.705600	0.764500
H941	H94	0.772800	0.669700	0.747100
C1431	C143	0.698600	0.802200	0.816500
H951	H95	0.676400	0.833500	0.833000
C1441	C144	0.785600	0.713400	0.823300
H961	H96	0.824800	0.685300	0.845100
N371	N37	0.060700	0.617700	0.089700
N381	N38	0.704400	0.969400	0.083300
N391	N39	0.699700	0.747500	0.730400
N401	N40	0.851800	0.789300	0.028800
N411	N41	0.762400	0.822800	0.938400
N421	N42	0.847700	0.734000	0.942300
N431	N43	0.586900	0.656800	0.594300
N441	N44	0.220300	0.313400	0.578700
N451	N45	0.225500	0.528200	0.230000
N461	N46	0.374900	0.487800	0.528000
N471	N47	0.289700	0.451200	0.436900
N481	N48	0.377500	0.537800	0.443100
Ag91	Ag9	0.655740	0.957590	0.632780
Ag101	Ag10	0.178560	0.755340	0.133190
C1451	C145	0.902900	0.970800	0.000600
C1461	C146	0.376200	0.756200	0.499300
C1471	C147	0.467200	0.810400	0.590300
H971	H97	0.445700	0.789600	0.611700
C1481	C148	0.440100	0.800500	0.531900
C1491	C149	0.996800	0.884700	0.005300
H981	H98	0.977300	0.883800	0.965000
C1501	C150	0.818800	0.052200	0.994500
C1511	C151	0.780000	0.151400	0.108600
H991	H99	0.799600	0.155500	0.148700
C1521	C152	0.202400	0.583500	0.495600
H1001	H100	0.180500	0.586800	0.455500
C1531	C153	0.967100	0.926500	0.034800
C1541	C154	0.056300	0.844300	0.036700
H1011	H101	0.076000	0.816400	0.016400
C1551	C155	0.290600	0.725400	0.414000
C1561	C156	0.723700	0.138000	0.991700
H1021	H102	0.703200	0.134700	0.951500
C1571	C157	0.264200	0.565100	0.612100
H1031	H103	0.285800	0.558300	0.651900
C1581	C158	0.257600	0.736300	0.350300
C1591	C159	0.821700	0.956500	0.820700
H1041	H104	0.865800	0.938800	0.840900
C1601	C160	0.474800	0.834300	0.502400
H1051	H105	0.458100	0.829700	0.462500
C1611	C161	0.786100	0.101400	0.024100
C1621	C162	0.788400	0.992000	0.849400
C1631	C163	0.820600	0.001500	0.913500
C1641	C164	0.295800	0.610400	0.585800
H1061	H106	0.337800	0.633000	0.607800
C1651	C165	0.295000	0.672100	0.496400
C1661	C166	0.264600	0.621800	0.526800
C1671	C167	0.532800	0.873700	0.533000
H1071	H107	0.554700	0.896500	0.512500
C1681	C168	0.693300	0.179500	0.021600
H1081	H108	0.651800	0.203600	0.000300
C1691	C169	0.175100	0.541000	0.526700
H1091	H109	0.133000	0.518000	0.506200
C1701	C170	0.814000	0.109100	0.082600
H1101	H110	0.855600	0.086100	0.105000
C1711	C171	0.998800	0.926100	0.093900
H1111	H111	0.981200	0.955400	0.115100
C1721	C172	0.527300	0.851800	0.617500
H1121	H112	0.545000	0.858400	0.657400
C1731	C173	0.789000	0.947400	0.761300
H1131	H113	0.812100	0.923400	0.742200
C1741	C174	0.695000	0.005700	0.758900
H1141	H114	0.651100	0.023600	0.737700
C1751	C175	0.056400	0.882800	0.121900
H1151	H115	0.075400	0.880800	0.162100
C1761	C176	0.722800	0.016900	0.817900
H1161	H116	0.698300	0.040300	0.835900
C1771	C177	0.173500	0.706800	0.257700
H1171	H117	0.134700	0.678400	0.235200
C1781	C178	0.254900	0.794400	0.264500
H1181	H118	0.272800	0.830300	0.247100
C1791	C179	0.198600	0.697800	0.316500
H1191	H119	0.176400	0.666500	0.333000
C1801	C180	0.285600	0.786600	0.323300
H1201	H120	0.324800	0.814700	0.345100
N491	N49	0.560700	0.882300	0.589700
N501	N50	0.204400	0.530600	0.583300
N511	N51	0.199700	0.752500	0.230400
N521	N52	0.351800	0.710700	0.528800
N531	N53	0.262400	0.677200	0.438400
N541	N54	0.347700	0.766000	0.442300
N551	N55	0.086900	0.843200	0.094300
N561	N56	0.720300	0.186600	0.078700
N571	N57	0.725500	0.971800	0.730000
N581	N58	0.874900	0.012200	0.028000
N591	N59	0.789700	0.048800	0.936900
N601	N60	0.877500	0.962200	0.943100
Ag111	Ag11	0.155740	0.457590	0.632780
Ag121	Ag12	0.678560	0.255340	0.133190
C1811	C181	0.402900	0.470800	0.000600
C1821	C182	0.876200	0.256200	0.499300
C1831	C183	0.967200	0.310400	0.590300
H1211	H121	0.945700	0.289600	0.611700
C1841	C184	0.940100	0.300500	0.531900
C1851	C185	0.496800	0.384700	0.005300
H1221	H122	0.477300	0.383800	0.965000
C1861	C186	0.318800	0.552200	0.994500
C1871	C187	0.280000	0.651400	0.108600
H1231	H123	0.299600	0.655500	0.148700
C1881	C188	0.702400	0.083500	0.495600
H1241	H124	0.680500	0.086800	0.455500
C1891	C189	0.467100	0.426500	0.034800
C1901	C190	0.556300	0.344300	0.036700
H1251	H125	0.576000	0.316400	0.016400
C1911	C191	0.790600	0.225400	0.414000
C1921	C192	0.223700	0.638000	0.991700
H1261	H126	0.203200	0.634700	0.951500
C1931	C193	0.764200	0.065100	0.612100
H1271	H127	0.785800	0.058300	0.651900
C1941	C194	0.757600	0.236300	0.350300
C1951	C195	0.321700	0.456500	0.820700
H1281	H128	0.365800	0.438800	0.840900
C1961	C196	0.974800	0.334300	0.502400
H1291	H129	0.958100	0.329700	0.462500
C1971	C197	0.286100	0.601400	0.024100
C1981	C198	0.288400	0.492000	0.849400
C1991	C199	0.320600	0.501500	0.913500
C2001	C200	0.795800	0.110400	0.585800
H1301	H130	0.837800	0.133000	0.607800
C2011	C201	0.795000	0.172100	0.496400
C2021	C202	0.764600	0.121800	0.526800
C2031	C203	0.032800	0.373700	0.533000
H1311	H131	0.054700	0.396500	0.512500
C2041	C204	0.193300	0.679500	0.021600
H1321	H132	0.151800	0.703600	0.000300
C2051	C205	0.675100	0.041000	0.526700
H1331	H133	0.633000	0.018000	0.506200
C2061	C206	0.314000	0.609100	0.082600
H1341	H134	0.355600	0.586100	0.105000
C2071	C207	0.498800	0.426100	0.093900
H1351	H135	0.481200	0.455400	0.115100
C2081	C208	0.027300	0.351800	0.617500
H1361	H136	0.045000	0.358400	0.657400
C2091	C209	0.289000	0.447400	0.761300
H1371	H137	0.312100	0.423400	0.742200
C2101	C210	0.195000	0.505700	0.758900
H1381	H138	0.151100	0.523600	0.737700
C2111	C211	0.556400	0.382800	0.121900
H1391	H139	0.575400	0.380800	0.162100
C2121	C212	0.222800	0.516900	0.817900
H1401	H140	0.198300	0.540300	0.835900
C2131	C213	0.673500	0.206800	0.257700
H1411	H141	0.634700	0.178400	0.235200
C2141	C214	0.754900	0.294400	0.264500
H1421	H142	0.772800	0.330300	0.247100
C2151	C215	0.698600	0.197800	0.316500
H1431	H143	0.676400	0.166500	0.333000
C2161	C216	0.785600	0.286600	0.323300
H1441	H144	0.824800	0.314700	0.345100
N611	N61	0.060700	0.382300	0.589700
N621	N62	0.704400	0.030600	0.583300
N631	N63	0.699700	0.252500	0.230400
N641	N64	0.851800	0.210700	0.528800
N651	N65	0.762400	0.177200	0.438400
N661	N66	0.847700	0.266000	0.442300
N671	N67	0.586900	0.343200	0.094300
N681	N68	0.220300	0.686600	0.078700
N691	N69	0.225500	0.471800	0.730000
N701	N70	0.374900	0.512200	0.028000
N711	N71	0.289700	0.548800	0.936900
N721	N72	0.377500	0.462200	0.943100
Ag131	Ag13	0.344260	0.957590	0.867220
Ag141	Ag14	0.821440	0.755340	0.366810
C2171	C217	0.097100	0.970800	0.499400
C2181	C218	0.623800	0.756200	0.000700
C2191	C219	0.532800	0.810400	0.909700
H1451	H145	0.554300	0.789600	0.888300
C2201	C220	0.559900	0.800500	0.968100
C2211	C221	0.003200	0.884700	0.494700
H1461	H146	0.022700	0.883800	0.535000
C2221	C222	0.181200	0.052200	0.505500
C2231	C223	0.220000	0.151400	0.391400
H1471	H147	0.200400	0.155500	0.351300
C2241	C224	0.797600	0.583500	0.004400
H1481	H148	0.819500	0.586800	0.044500
C2251	C225	0.032900	0.926500	0.465200
C2261	C226	0.943700	0.844300	0.463300
H1491	H149	0.924000	0.816400	0.483600
C2271	C227	0.709400	0.725400	0.086000
C2281	C228	0.276300	0.138000	0.508300
H1501	H150	0.296800	0.134700	0.548500
C2291	C229	0.735800	0.565100	0.887900
H1511	H151	0.714200	0.558300	0.848100
C2301	C230	0.742400	0.736300	0.149700
C2311	C231	0.178300	0.956500	0.679300
H1521	H152	0.134200	0.938800	0.659100
C2321	C232	0.525200	0.834300	0.997600
H1531	H153	0.541900	0.829700	0.037500
C2331	C233	0.213900	0.101400	0.475900
C2341	C234	0.211600	0.992000	0.650600
C2351	C235	0.179400	0.001500	0.586500
C2361	C236	0.704200	0.610400	0.914200
H1541	H154	0.662200	0.633000	0.892200
C2371	C237	0.705000	0.672100	0.003600
C2381	C238	0.735400	0.621800	0.973200
C2391	C239	0.467200	0.873700	0.967000
H1551	H155	0.445300	0.896500	0.987500
C2401	C240	0.306700	0.179500	0.478400
H1561	H156	0.348200	0.203600	0.499700
C2411	C241	0.824900	0.541000	0.973300
H1571	H157	0.867000	0.518000	0.993800
C2421	C242	0.186000	0.109100	0.417400
H1581	H158	0.144400	0.086100	0.395000
C2431	C243	0.001200	0.926100	0.406100
H1591	H159	0.018800	0.955400	0.384900
C2441	C244	0.472700	0.851800	0.882500
H1601	H160	0.455000	0.858400	0.842600
C2451	C245	0.211000	0.947400	0.738700
H1611	H161	0.187900	0.923400	0.757800
C2461	C246	0.305000	0.005700	0.741100
H1621	H162	0.348900	0.023600	0.762300
C2471	C247	0.943600	0.882800	0.378100
H1631	H163	0.924600	0.880800	0.337900
C2481	C248	0.277200	0.016900	0.682100
H1641	H164	0.301700	0.040300	0.664100
C2491	C249	0.826500	0.706800	0.242300
H1651	H165	0.865300	0.678400	0.264800
C2501	C250	0.745100	0.794400	0.235500
H1661	H166	0.727200	0.830300	0.252900
C2511	C251	0.801400	0.697800	0.183500
H1671	H167	0.823600	0.666500	0.167000
C2521	C252	0.714400	0.786600	0.176700
H1681	H168	0.675200	0.814700	0.154900
N731	N73	0.439300	0.882300	0.910300
N741	N74	0.795600	0.530600	0.916700
N751	N75	0.800300	0.752500	0.269600
N761	N76	0.648200	0.710700	0.971200
N771	N77	0.737600	0.677200	0.061600
N781	N78	0.652300	0.766000	0.057700
N791	N79	0.913100	0.843200	0.405700
N801	N80	0.279700	0.186600	0.421300
N811	N81	0.274500	0.971800	0.770000
N821	N82	0.125100	0.012200	0.472000
N831	N83	0.210300	0.048800	0.563100
N841	N84	0.122500	0.962200	0.556900
Ag151	Ag15	0.844260	0.457590	0.867220
Ag161	Ag16	0.321440	0.255340	0.366810
C2531	C253	0.597100	0.470800	0.499400
C2541	C254	0.123800	0.256200	0.000700
C2551	C255	0.032800	0.310400	0.909700
H1691	H169	0.054300	0.289600	0.888300
C2561	C256	0.059900	0.300500	0.968100
C2571	C257	0.503200	0.384700	0.494700
H1701	H170	0.522700	0.383800	0.535000
C2581	C258	0.681200	0.552200	0.505500
C2591	C259	0.720000	0.651400	0.391400
H1711	H171	0.700400	0.655500	0.351300
C2601	C260	0.297600	0.083500	0.004400
H1721	H172	0.319500	0.086800	0.044500
C2611	C261	0.532900	0.426500	0.465200
C2621	C262	0.443700	0.344300	0.463300
H1731	H173	0.424000	0.316400	0.483600
C2631	C263	0.209400	0.225400	0.086000
C2641	C264	0.776300	0.638000	0.508300
H1741	H174	0.796800	0.634700	0.548500
C2651	C265	0.235800	0.065100	0.887900
H1751	H175	0.214200	0.058300	0.848100
C2661	C266	0.242400	0.236300	0.149700
C2671	C267	0.678300	0.456500	0.679300
H1761	H176	0.634200	0.438800	0.659100
C2681	C268	0.025200	0.334300	0.997600
H1771	H177	0.041900	0.329700	0.037500
C2691	C269	0.713900	0.601400	0.475900
C2701	C270	0.711600	0.492000	0.650600
C2711	C271	0.679400	0.501500	0.586500
C2721	C272	0.204200	0.110400	0.914200
H1781	H178	0.162200	0.133000	0.892200
C2731	C273	0.205000	0.172100	0.003600
C2741	C274	0.235400	0.121800	0.973200
C2751	C275	0.967200	0.373700	0.967000
H1791	H179	0.945300	0.396500	0.987500
C2761	C276	0.806700	0.679500	0.478400
H1801	H180	0.848200	0.703600	0.499700
C2771	C277	0.324900	0.041000	0.973300
H1811	H181	0.367000	0.018000	0.993800
C2781	C278	0.686000	0.609100	0.417400
H1821	H182	0.644400	0.586100	0.395000
C2791	C279	0.501200	0.426100	0.406100
H1831	H183	0.518800	0.455400	0.384900
C2801	C280	0.972700	0.351800	0.882500
H1841	H184	0.955000	0.358400	0.842600
C2811	C281	0.711000	0.447400	0.738700
H1851	H185	0.687900	0.423400	0.757800
C2821	C282	0.805000	0.505700	0.741100
H1861	H186	0.848900	0.523600	0.762300
C2831	C283	0.443600	0.382800	0.378100
H1871	H187	0.424600	0.380800	0.337900
C2841	C284	0.777200	0.516900	0.682100
H1881	H188	0.801700	0.540300	0.664100
C2851	C285	0.326500	0.206800	0.242300
H1891	H189	0.365300	0.178400	0.264800
C2861	C286	0.245100	0.294400	0.235500
H1901	H190	0.227200	0.330300	0.252900
C2871	C287	0.301400	0.197800	0.183500
H1911	H191	0.323600	0.166500	0.167000
C2881	C288	0.214400	0.286600	0.176700
H1921	H192	0.175200	0.314700	0.154900
N851	N85	0.939300	0.382300	0.910300
N861	N86	0.295600	0.030600	0.916700
N871	N87	0.300300	0.252500	0.269600
N881	N88	0.148200	0.210700	0.971200
N891	N89	0.237600	0.177200	0.061600
N901	N90	0.152300	0.266000	0.057700
N911	N91	0.413100	0.343200	0.405700
N921	N92	0.779700	0.686600	0.421300
N931	N93	0.774500	0.471800	0.770000
N941	N94	0.625100	0.512200	0.472000
N951	N95	0.710300	0.548800	0.563100
N961	N96	0.622500	0.462200	0.556900
