data_QOFCAR_freeONLY_PM
_symmetry_space_group_name_H-M	'P1'
_cell_length_a	22.038300
_cell_length_b	16.415100
_cell_length_c	25.679000
_cell_angle_alpha	90.000000
_cell_angle_beta	115.404000
_cell_angle_gamma	90.000000
_symmetry_Int_Tables_number 1

loop_
_symmetry_equiv_pos_as_xyz
'x,y,z'

loop_
_atom_site_label
_atom_site_type_symbol
_atom_site_fract_x
_atom_site_fract_y
_atom_site_fract_z
Ag11	Ag1	0.344040	0.041640	0.368110
Ag21	Ag2	0.823050	0.249990	0.867650
C11	C1	0.624280	0.242500	0.502950
C21	C2	0.735700	0.433300	0.389040
H11	H1	0.713900	0.439100	0.349200
C31	C3	0.002810	0.117000	0.996800
H21	H2	0.022200	0.117300	0.036900
C41	C4	0.097310	0.030900	0.001580
C51	C5	0.560130	0.197500	0.470650
C61	C6	0.533200	0.188100	0.411300
H31	H3	0.554400	0.210100	0.390100
C71	C7	0.219760	0.849900	0.892950
H41	H4	0.199500	0.845600	0.853000
C81	C8	0.277800	0.863000	0.009760
H51	H5	0.298600	0.866000	0.049800
C91	C9	0.526720	0.163400	0.500300
H61	H6	0.544200	0.167700	0.540200
C101	C10	0.943470	0.158100	0.965890
H71	H7	0.923400	0.185800	0.986000
C111	C11	0.743070	0.263500	0.651870
C121	C12	0.178130	0.043100	0.181780
H81	H8	0.134200	0.061500	0.161700
C131	C13	0.710350	0.273400	0.588240
C141	C14	0.182110	0.949500	0.007360
C151	C15	0.798560	0.415800	0.505490
H91	H9	0.821100	0.411900	0.545400
C161	C16	0.179750	0.997400	0.088960
C171	C17	0.306410	0.993000	0.243410
H101	H10	0.350500	0.976000	0.264500
C181	C18	0.705780	0.327200	0.505730
C191	C19	0.215380	0.900000	0.978170
C201	C20	0.466930	0.123000	0.469550
H111	H11	0.444600	0.100600	0.489700
C211	C21	0.032980	0.075400	0.967590
C221	C22	0.307870	0.821800	0.979870
H121	H12	0.349500	0.797700	0.000900
C231	C23	0.825620	0.459200	0.474310
H131	H13	0.867400	0.483300	0.494600
C241	C24	0.745700	0.206700	0.737840
H141	H14	0.727100	0.171400	0.755400
C251	C25	0.473490	0.144800	0.384550
H151	H15	0.456300	0.136600	0.344900
C261	C26	0.210540	0.051400	0.240620
H161	H16	0.187400	0.074800	0.259800
C271	C27	0.002300	0.075500	0.907950
H171	H17	0.020900	0.046900	0.887000
C281	C28	0.211310	0.007400	0.152500
C291	C29	0.736230	0.378000	0.475190
C301	C30	0.827240	0.296900	0.744600
H181	H18	0.865900	0.325900	0.767200
C311	C31	0.277570	0.981700	0.184150
H191	H19	0.301600	0.957600	0.166000
C321	C32	0.186350	0.891700	0.918990
H201	H20	0.144400	0.914400	0.896900
C331	C33	0.704610	0.388900	0.415660
H211	H21	0.662600	0.366100	0.394100
C341	C34	0.801990	0.305300	0.685650
H221	H22	0.823500	0.337800	0.669000
C351	C35	0.716020	0.211600	0.678450
H231	H23	0.678400	0.180400	0.656700
C361	C36	0.943220	0.119100	0.880080
H241	H24	0.923400	0.120200	0.840000
N11	N1	0.439510	0.114280	0.412190
N21	N2	0.796170	0.468930	0.417340
N31	N3	0.800190	0.250200	0.771750
N41	N4	0.648110	0.289040	0.473050
N51	N5	0.738460	0.322700	0.563270
N61	N6	0.653520	0.231590	0.559840
N71	N7	0.913220	0.159800	0.907740
N81	N8	0.280140	0.814680	0.922060
N91	N9	0.274770	0.026800	0.271870
N101	N10	0.125900	0.990180	0.973400
N111	N11	0.210910	0.950880	0.064830
N121	N12	0.122010	0.037610	0.059360
Ag31	Ag3	0.844040	0.541640	0.368110
Ag41	Ag4	0.323050	0.749990	0.867650
C371	C37	0.124280	0.742500	0.502950
C381	C38	0.235700	0.933300	0.389040
H251	H25	0.213900	0.939100	0.349200
C391	C39	0.502810	0.617000	0.996800
H261	H26	0.522200	0.617300	0.036900
C401	C40	0.597310	0.530900	0.001580
C411	C41	0.060130	0.697500	0.470650
C421	C42	0.033200	0.688100	0.411300
H271	H27	0.054400	0.710100	0.390100
C431	C43	0.719760	0.349900	0.892950
H281	H28	0.699500	0.345600	0.853000
C441	C44	0.777800	0.363000	0.009760
H291	H29	0.798600	0.366000	0.049800
C451	C45	0.026720	0.663400	0.500300
H301	H30	0.044200	0.667700	0.540200
C461	C46	0.443470	0.658100	0.965890
H311	H31	0.423400	0.685800	0.986000
C471	C47	0.243070	0.763500	0.651870
C481	C48	0.678130	0.543100	0.181780
H321	H32	0.634200	0.561500	0.161700
C491	C49	0.210350	0.773400	0.588240
C501	C50	0.682110	0.449500	0.007360
C511	C51	0.298560	0.915800	0.505490
H331	H33	0.321100	0.911900	0.545400
C521	C52	0.679750	0.497400	0.088960
C531	C53	0.806410	0.493000	0.243410
H341	H34	0.850500	0.476000	0.264500
C541	C54	0.205780	0.827200	0.505730
C551	C55	0.715380	0.400000	0.978170
C561	C56	0.966930	0.623000	0.469550
H351	H35	0.944600	0.600600	0.489700
C571	C57	0.532980	0.575400	0.967590
C581	C58	0.807870	0.321800	0.979870
H361	H36	0.849500	0.297700	0.000900
C591	C59	0.325620	0.959200	0.474310
H371	H37	0.367400	0.983300	0.494600
C601	C60	0.245700	0.706700	0.737840
H381	H38	0.227100	0.671400	0.755400
C611	C61	0.973490	0.644800	0.384550
H391	H39	0.956300	0.636600	0.344900
C621	C62	0.710540	0.551400	0.240620
H401	H40	0.687400	0.574800	0.259800
C631	C63	0.502300	0.575500	0.907950
H411	H41	0.520900	0.546900	0.887000
C641	C64	0.711310	0.507400	0.152500
C651	C65	0.236230	0.878000	0.475190
C661	C66	0.327240	0.796900	0.744600
H421	H42	0.365900	0.825900	0.767200
C671	C67	0.777570	0.481700	0.184150
H431	H43	0.801600	0.457600	0.166000
C681	C68	0.686350	0.391700	0.918990
H441	H44	0.644400	0.414400	0.896900
C691	C69	0.204610	0.888900	0.415660
H451	H45	0.162600	0.866100	0.394100
C701	C70	0.301990	0.805300	0.685650
H461	H46	0.323500	0.837800	0.669000
C711	C71	0.216020	0.711600	0.678450
H471	H47	0.178400	0.680400	0.656700
C721	C72	0.443220	0.619100	0.880080
H481	H48	0.423400	0.620200	0.840000
N131	N13	0.939510	0.614280	0.412190
N141	N14	0.296170	0.968930	0.417340
N151	N15	0.300190	0.750200	0.771750
N161	N16	0.148110	0.789040	0.473050
N171	N17	0.238460	0.822700	0.563270
N181	N18	0.153520	0.731590	0.559840
N191	N19	0.413220	0.659800	0.907740
N201	N20	0.780140	0.314680	0.922060
N211	N21	0.774770	0.526800	0.271870
N221	N22	0.625900	0.490180	0.973400
N231	N23	0.710910	0.450880	0.064830
N241	N24	0.622010	0.537610	0.059360
Ag51	Ag5	0.655960	0.041640	0.131890
Ag61	Ag6	0.176950	0.249990	0.632350
C731	C73	0.375720	0.242500	0.997050
C741	C74	0.264300	0.433300	0.110960
H491	H49	0.286100	0.439100	0.150800
C751	C75	0.997190	0.117000	0.503200
H501	H50	0.977800	0.117300	0.463100
C761	C76	0.902690	0.030900	0.498420
C771	C77	0.439870	0.197500	0.029350
C781	C78	0.466800	0.188100	0.088700
H511	H51	0.445600	0.210100	0.109900
C791	C79	0.780240	0.849900	0.607050
H521	H52	0.800500	0.845600	0.647000
C801	C80	0.722200	0.863000	0.490240
H531	H53	0.701400	0.866000	0.450200
C811	C81	0.473280	0.163400	0.999700
H541	H54	0.455800	0.167700	0.959800
C821	C82	0.056530	0.158100	0.534110
H551	H55	0.076600	0.185800	0.514000
C831	C83	0.256930	0.263500	0.848130
C841	C84	0.821870	0.043100	0.318220
H561	H56	0.865800	0.061500	0.338300
C851	C85	0.289650	0.273400	0.911760
C861	C86	0.817890	0.949500	0.492640
C871	C87	0.201440	0.415800	0.994510
H571	H57	0.178900	0.411900	0.954600
C881	C88	0.820250	0.997400	0.411040
C891	C89	0.693590	0.993000	0.256590
H581	H58	0.649500	0.976000	0.235500
C901	C90	0.294220	0.327200	0.994270
C911	C91	0.784620	0.900000	0.521830
C921	C92	0.533070	0.123000	0.030450
H591	H59	0.555400	0.100600	0.010300
C931	C93	0.967020	0.075400	0.532410
C941	C94	0.692130	0.821800	0.520130
H601	H60	0.650500	0.797700	0.499100
C951	C95	0.174380	0.459200	0.025690
H611	H61	0.132600	0.483300	0.005400
C961	C96	0.254300	0.206700	0.762160
H621	H62	0.272900	0.171400	0.744600
C971	C97	0.526510	0.144800	0.115450
H631	H63	0.543700	0.136600	0.155100
C981	C98	0.789460	0.051400	0.259380
H641	H64	0.812600	0.074800	0.240200
C991	C99	0.997700	0.075500	0.592050
H651	H65	0.979100	0.046900	0.613000
C1001	C100	0.788690	0.007400	0.347500
C1011	C101	0.263770	0.378000	0.024810
C1021	C102	0.172760	0.296900	0.755400
H661	H66	0.134100	0.325900	0.732800
C1031	C103	0.722430	0.981700	0.315850
H671	H67	0.698400	0.957600	0.334000
C1041	C104	0.813650	0.891700	0.581010
H681	H68	0.855600	0.914400	0.603100
C1051	C105	0.295390	0.388900	0.084340
H691	H69	0.337400	0.366100	0.105900
C1061	C106	0.198010	0.305300	0.814350
H701	H70	0.176500	0.337800	0.831000
C1071	C107	0.283980	0.211600	0.821550
H711	H71	0.321600	0.180400	0.843300
C1081	C108	0.056780	0.119100	0.619920
H721	H72	0.076600	0.120200	0.660000
N251	N25	0.560490	0.114280	0.087810
N261	N26	0.203830	0.468930	0.082660
N271	N27	0.199810	0.250200	0.728250
N281	N28	0.351890	0.289040	0.026950
N291	N29	0.261540	0.322700	0.936730
N301	N30	0.346480	0.231590	0.940160
N311	N31	0.086780	0.159800	0.592260
N321	N32	0.719860	0.814680	0.577940
N331	N33	0.725230	0.026800	0.228130
N341	N34	0.874100	0.990180	0.526600
N351	N35	0.789090	0.950880	0.435170
N361	N36	0.877990	0.037610	0.440640
Ag71	Ag7	0.155960	0.541640	0.131890
Ag81	Ag8	0.676950	0.749990	0.632350
C1091	C109	0.875720	0.742500	0.997050
C1101	C110	0.764300	0.933300	0.110960
H731	H73	0.786100	0.939100	0.150800
C1111	C111	0.497190	0.617000	0.503200
H741	H74	0.477800	0.617300	0.463100
C1121	C112	0.402690	0.530900	0.498420
C1131	C113	0.939870	0.697500	0.029350
C1141	C114	0.966800	0.688100	0.088700
H751	H75	0.945600	0.710100	0.109900
C1151	C115	0.280240	0.349900	0.607050
H761	H76	0.300500	0.345600	0.647000
C1161	C116	0.222200	0.363000	0.490240
H771	H77	0.201400	0.366000	0.450200
C1171	C117	0.973280	0.663400	0.999700
H781	H78	0.955800	0.667700	0.959800
C1181	C118	0.556530	0.658100	0.534110
H791	H79	0.576600	0.685800	0.514000
C1191	C119	0.756930	0.763500	0.848130
C1201	C120	0.321870	0.543100	0.318220
H801	H80	0.365800	0.561500	0.338300
C1211	C121	0.789650	0.773400	0.911760
C1221	C122	0.317890	0.449500	0.492640
C1231	C123	0.701440	0.915800	0.994510
H811	H81	0.678900	0.911900	0.954600
C1241	C124	0.320250	0.497400	0.411040
C1251	C125	0.193590	0.493000	0.256590
H821	H82	0.149500	0.476000	0.235500
C1261	C126	0.794220	0.827200	0.994270
C1271	C127	0.284620	0.400000	0.521830
C1281	C128	0.033070	0.623000	0.030450
H831	H83	0.055400	0.600600	0.010300
C1291	C129	0.467020	0.575400	0.532410
C1301	C130	0.192130	0.321800	0.520130
H841	H84	0.150500	0.297700	0.499100
C1311	C131	0.674380	0.959200	0.025690
H851	H85	0.632600	0.983300	0.005400
C1321	C132	0.754300	0.706700	0.762160
H861	H86	0.772900	0.671400	0.744600
C1331	C133	0.026510	0.644800	0.115450
H871	H87	0.043700	0.636600	0.155100
C1341	C134	0.289460	0.551400	0.259380
H881	H88	0.312600	0.574800	0.240200
C1351	C135	0.497700	0.575500	0.592050
H891	H89	0.479100	0.546900	0.613000
C1361	C136	0.288690	0.507400	0.347500
C1371	C137	0.763770	0.878000	0.024810
C1381	C138	0.672760	0.796900	0.755400
H901	H90	0.634100	0.825900	0.732800
C1391	C139	0.222430	0.481700	0.315850
H911	H91	0.198400	0.457600	0.334000
C1401	C140	0.313650	0.391700	0.581010
H921	H92	0.355600	0.414400	0.603100
C1411	C141	0.795390	0.888900	0.084340
H931	H93	0.837400	0.866100	0.105900
C1421	C142	0.698010	0.805300	0.814350
H941	H94	0.676500	0.837800	0.831000
C1431	C143	0.783980	0.711600	0.821550
H951	H95	0.821600	0.680400	0.843300
C1441	C144	0.556780	0.619100	0.619920
H961	H96	0.576600	0.620200	0.660000
N371	N37	0.060490	0.614280	0.087810
N381	N38	0.703830	0.968930	0.082660
N391	N39	0.699810	0.750200	0.728250
N401	N40	0.851890	0.789040	0.026950
N411	N41	0.761540	0.822700	0.936730
N421	N42	0.846480	0.731590	0.940160
N431	N43	0.586780	0.659800	0.592260
N441	N44	0.219860	0.314680	0.577940
N451	N45	0.225230	0.526800	0.228130
N461	N46	0.374100	0.490180	0.526600
N471	N47	0.289090	0.450880	0.435170
N481	N48	0.377990	0.537610	0.440640
Ag91	Ag9	0.655960	0.958360	0.631890
Ag101	Ag10	0.176950	0.750010	0.132350
C1451	C145	0.375720	0.757500	0.497050
C1461	C146	0.264300	0.566700	0.610960
H971	H97	0.286100	0.560900	0.650800
C1471	C147	0.997190	0.883000	0.003200
H981	H98	0.977800	0.882700	0.963100
C1481	C148	0.902690	0.969100	0.998420
C1491	C149	0.439870	0.802500	0.529350
C1501	C150	0.466800	0.811900	0.588700
H991	H99	0.445600	0.789900	0.609900
C1511	C151	0.780240	0.150100	0.107050
H1001	H100	0.800500	0.154400	0.147000
C1521	C152	0.722200	0.137000	0.990240
H1011	H101	0.701400	0.134000	0.950200
C1531	C153	0.473280	0.836600	0.499700
H1021	H102	0.455800	0.832300	0.459800
C1541	C154	0.056530	0.841900	0.034110
H1031	H103	0.076600	0.814200	0.014000
C1551	C155	0.256930	0.736500	0.348130
C1561	C156	0.821870	0.956900	0.818220
H1041	H104	0.865800	0.938500	0.838300
C1571	C157	0.289650	0.726600	0.411760
C1581	C158	0.817890	0.050500	0.992640
C1591	C159	0.201440	0.584200	0.494510
H1051	H105	0.178900	0.588100	0.454600
C1601	C160	0.820250	0.002600	0.911040
C1611	C161	0.693590	0.007000	0.756590
H1061	H106	0.649500	0.024000	0.735500
C1621	C162	0.294220	0.672800	0.494270
C1631	C163	0.784620	0.100000	0.021830
C1641	C164	0.533070	0.877000	0.530450
H1071	H107	0.555400	0.899400	0.510300
C1651	C165	0.967020	0.924600	0.032410
C1661	C166	0.692130	0.178200	0.020130
H1081	H108	0.650500	0.202300	0.999100
C1671	C167	0.174380	0.540800	0.525690
H1091	H109	0.132600	0.516700	0.505400
C1681	C168	0.254300	0.793300	0.262160
H1101	H110	0.272900	0.828600	0.244600
C1691	C169	0.526510	0.855200	0.615450
H1111	H111	0.543700	0.863400	0.655100
C1701	C170	0.789460	0.948600	0.759380
H1121	H112	0.812600	0.925200	0.740200
C1711	C171	0.997700	0.924500	0.092050
H1131	H113	0.979100	0.953100	0.113000
C1721	C172	0.788690	0.992600	0.847500
C1731	C173	0.263770	0.622000	0.524810
C1741	C174	0.172760	0.703100	0.255400
H1141	H114	0.134100	0.674100	0.232800
C1751	C175	0.722430	0.018300	0.815850
H1151	H115	0.698400	0.042400	0.834000
C1761	C176	0.813650	0.108300	0.081010
H1161	H116	0.855600	0.085600	0.103100
C1771	C177	0.295390	0.611100	0.584340
H1171	H117	0.337400	0.633900	0.605900
C1781	C178	0.198010	0.694700	0.314350
H1181	H118	0.176500	0.662200	0.331000
C1791	C179	0.283980	0.788400	0.321550
H1191	H119	0.321600	0.819600	0.343300
C1801	C180	0.056780	0.880900	0.119920
H1201	H120	0.076600	0.879800	0.160000
N491	N49	0.560490	0.885720	0.587810
N501	N50	0.203830	0.531070	0.582660
N511	N51	0.199810	0.749800	0.228250
N521	N52	0.351890	0.710960	0.526950
N531	N53	0.261540	0.677300	0.436730
N541	N54	0.346480	0.768410	0.440160
N551	N55	0.086780	0.840200	0.092260
N561	N56	0.719860	0.185320	0.077940
N571	N57	0.725230	0.973200	0.728130
N581	N58	0.874100	0.009820	0.026600
N591	N59	0.789090	0.049120	0.935170
N601	N60	0.877990	0.962390	0.940640
Ag111	Ag11	0.155960	0.458360	0.631890
Ag121	Ag12	0.676950	0.250010	0.132350
C1811	C181	0.875720	0.257500	0.497050
C1821	C182	0.764300	0.066700	0.610960
H1211	H121	0.786100	0.060900	0.650800
C1831	C183	0.497190	0.383000	0.003200
H1221	H122	0.477800	0.382700	0.963100
C1841	C184	0.402690	0.469100	0.998420
C1851	C185	0.939870	0.302500	0.529350
C1861	C186	0.966800	0.311900	0.588700
H1231	H123	0.945600	0.289900	0.609900
C1871	C187	0.280240	0.650100	0.107050
H1241	H124	0.300500	0.654400	0.147000
C1881	C188	0.222200	0.637000	0.990240
H1251	H125	0.201400	0.634000	0.950200
C1891	C189	0.973280	0.336600	0.499700
H1261	H126	0.955800	0.332300	0.459800
C1901	C190	0.556530	0.341900	0.034110
H1271	H127	0.576600	0.314200	0.014000
C1911	C191	0.756930	0.236500	0.348130
C1921	C192	0.321870	0.456900	0.818220
H1281	H128	0.365800	0.438500	0.838300
C1931	C193	0.789650	0.226600	0.411760
C1941	C194	0.317890	0.550500	0.992640
C1951	C195	0.701440	0.084200	0.494510
H1291	H129	0.678900	0.088100	0.454600
C1961	C196	0.320250	0.502600	0.911040
C1971	C197	0.193590	0.507000	0.756590
H1301	H130	0.149500	0.524000	0.735500
C1981	C198	0.794220	0.172800	0.494270
C1991	C199	0.284620	0.600000	0.021830
C2001	C200	0.033070	0.377000	0.530450
H1311	H131	0.055400	0.399400	0.510300
C2011	C201	0.467020	0.424600	0.032410
C2021	C202	0.192130	0.678200	0.020130
H1321	H132	0.150500	0.702300	0.999100
C2031	C203	0.674380	0.040800	0.525690
H1331	H133	0.632600	0.016700	0.505400
C2041	C204	0.754300	0.293300	0.262160
H1341	H134	0.772900	0.328600	0.244600
C2051	C205	0.026510	0.355200	0.615450
H1351	H135	0.043700	0.363400	0.655100
C2061	C206	0.289460	0.448600	0.759380
H1361	H136	0.312600	0.425200	0.740200
C2071	C207	0.497700	0.424500	0.092050
H1371	H137	0.479100	0.453100	0.113000
C2081	C208	0.288690	0.492600	0.847500
C2091	C209	0.763770	0.122000	0.524810
C2101	C210	0.672760	0.203100	0.255400
H1381	H138	0.634100	0.174100	0.232800
C2111	C211	0.222430	0.518300	0.815850
H1391	H139	0.198400	0.542400	0.834000
C2121	C212	0.313650	0.608300	0.081010
H1401	H140	0.355600	0.585600	0.103100
C2131	C213	0.795390	0.111100	0.584340
H1411	H141	0.837400	0.133900	0.605900
C2141	C214	0.698010	0.194700	0.314350
H1421	H142	0.676500	0.162200	0.331000
C2151	C215	0.783980	0.288400	0.321550
H1431	H143	0.821600	0.319600	0.343300
C2161	C216	0.556780	0.380900	0.119920
H1441	H144	0.576600	0.379800	0.160000
N611	N61	0.060490	0.385720	0.587810
N621	N62	0.703830	0.031070	0.582660
N631	N63	0.699810	0.249800	0.228250
N641	N64	0.851890	0.210960	0.526950
N651	N65	0.761540	0.177300	0.436730
N661	N66	0.846480	0.268410	0.440160
N671	N67	0.586780	0.340200	0.092260
N681	N68	0.219860	0.685320	0.077940
N691	N69	0.225230	0.473200	0.728130
N701	N70	0.374100	0.509820	0.026600
N711	N71	0.289090	0.549120	0.935170
N721	N72	0.377990	0.462390	0.940640
Ag131	Ag13	0.344040	0.958360	0.868110
Ag141	Ag14	0.823050	0.750010	0.367650
C2171	C217	0.624280	0.757500	0.002950
C2181	C218	0.735700	0.566700	0.889040
H1451	H145	0.713900	0.560900	0.849200
C2191	C219	0.002810	0.883000	0.496800
H1461	H146	0.022200	0.882700	0.536900
C2201	C220	0.097310	0.969100	0.501580
C2211	C221	0.560130	0.802500	0.970650
C2221	C222	0.533200	0.811900	0.911300
H1471	H147	0.554400	0.789900	0.890100
C2231	C223	0.219760	0.150100	0.392950
H1481	H148	0.199500	0.154400	0.353000
C2241	C224	0.277800	0.137000	0.509760
H1491	H149	0.298600	0.134000	0.549800
C2251	C225	0.526720	0.836600	0.000300
H1501	H150	0.544200	0.832300	0.040200
C2261	C226	0.943470	0.841900	0.465890
H1511	H151	0.923400	0.814200	0.486000
C2271	C227	0.743070	0.736500	0.151870
C2281	C228	0.178130	0.956900	0.681780
H1521	H152	0.134200	0.938500	0.661700
C2291	C229	0.710350	0.726600	0.088240
C2301	C230	0.182110	0.050500	0.507360
C2311	C231	0.798560	0.584200	0.005490
H1531	H153	0.821100	0.588100	0.045400
C2321	C232	0.179750	0.002600	0.588960
C2331	C233	0.306410	0.007000	0.743410
H1541	H154	0.350500	0.024000	0.764500
C2341	C234	0.705780	0.672800	0.005730
C2351	C235	0.215380	0.100000	0.478170
C2361	C236	0.466930	0.877000	0.969550
H1551	H155	0.444600	0.899400	0.989700
C2371	C237	0.032980	0.924600	0.467590
C2381	C238	0.307870	0.178200	0.479870
H1561	H156	0.349500	0.202300	0.500900
C2391	C239	0.825620	0.540800	0.974310
H1571	H157	0.867400	0.516700	0.994600
C2401	C240	0.745700	0.793300	0.237840
H1581	H158	0.727100	0.828600	0.255400
C2411	C241	0.473490	0.855200	0.884550
H1591	H159	0.456300	0.863400	0.844900
C2421	C242	0.210540	0.948600	0.740620
H1601	H160	0.187400	0.925200	0.759800
C2431	C243	0.002300	0.924500	0.407950
H1611	H161	0.020900	0.953100	0.387000
C2441	C244	0.211310	0.992600	0.652500
C2451	C245	0.736230	0.622000	0.975190
C2461	C246	0.827240	0.703100	0.244600
H1621	H162	0.865900	0.674100	0.267200
C2471	C247	0.277570	0.018300	0.684150
H1631	H163	0.301600	0.042400	0.666000
C2481	C248	0.186350	0.108300	0.418990
H1641	H164	0.144400	0.085600	0.396900
C2491	C249	0.704610	0.611100	0.915660
H1651	H165	0.662600	0.633900	0.894100
C2501	C250	0.801990	0.694700	0.185650
H1661	H166	0.823500	0.662200	0.169000
C2511	C251	0.716020	0.788400	0.178450
H1671	H167	0.678400	0.819600	0.156700
C2521	C252	0.943220	0.880900	0.380080
H1681	H168	0.923400	0.879800	0.340000
N731	N73	0.439510	0.885720	0.912190
N741	N74	0.796170	0.531070	0.917340
N751	N75	0.800190	0.749800	0.271750
N761	N76	0.648110	0.710960	0.973050
N771	N77	0.738460	0.677300	0.063270
N781	N78	0.653520	0.768410	0.059840
N791	N79	0.913220	0.840200	0.407740
N801	N80	0.280140	0.185320	0.422060
N811	N81	0.274770	0.973200	0.771870
N821	N82	0.125900	0.009820	0.473400
N831	N83	0.210910	0.049120	0.564830
N841	N84	0.122010	0.962390	0.559360
Ag151	Ag15	0.844040	0.458360	0.868110
Ag161	Ag16	0.323050	0.250010	0.367650
C2531	C253	0.124280	0.257500	0.002950
C2541	C254	0.235700	0.066700	0.889040
H1691	H169	0.213900	0.060900	0.849200
C2551	C255	0.502810	0.383000	0.496800
H1701	H170	0.522200	0.382700	0.536900
C2561	C256	0.597310	0.469100	0.501580
C2571	C257	0.060130	0.302500	0.970650
C2581	C258	0.033200	0.311900	0.911300
H1711	H171	0.054400	0.289900	0.890100
C2591	C259	0.719760	0.650100	0.392950
H1721	H172	0.699500	0.654400	0.353000
C2601	C260	0.777800	0.637000	0.509760
H1731	H173	0.798600	0.634000	0.549800
C2611	C261	0.026720	0.336600	0.000300
H1741	H174	0.044200	0.332300	0.040200
C2621	C262	0.443470	0.341900	0.465890
H1751	H175	0.423400	0.314200	0.486000
C2631	C263	0.243070	0.236500	0.151870
C2641	C264	0.678130	0.456900	0.681780
H1761	H176	0.634200	0.438500	0.661700
C2651	C265	0.210350	0.226600	0.088240
C2661	C266	0.682110	0.550500	0.507360
C2671	C267	0.298560	0.084200	0.005490
H1771	H177	0.321100	0.088100	0.045400
C2681	C268	0.679750	0.502600	0.588960
C2691	C269	0.806410	0.507000	0.743410
H1781	H178	0.850500	0.524000	0.764500
C2701	C270	0.205780	0.172800	0.005730
C2711	C271	0.715380	0.600000	0.478170
C2721	C272	0.966930	0.377000	0.969550
H1791	H179	0.944600	0.399400	0.989700
C2731	C273	0.532980	0.424600	0.467590
C2741	C274	0.807870	0.678200	0.479870
H1801	H180	0.849500	0.702300	0.500900
C2751	C275	0.325620	0.040800	0.974310
H1811	H181	0.367400	0.016700	0.994600
C2761	C276	0.245700	0.293300	0.237840
H1821	H182	0.227100	0.328600	0.255400
C2771	C277	0.973490	0.355200	0.884550
H1831	H183	0.956300	0.363400	0.844900
C2781	C278	0.710540	0.448600	0.740620
H1841	H184	0.687400	0.425200	0.759800
C2791	C279	0.502300	0.424500	0.407950
H1851	H185	0.520900	0.453100	0.387000
C2801	C280	0.711310	0.492600	0.652500
C2811	C281	0.236230	0.122000	0.975190
C2821	C282	0.327240	0.203100	0.244600
H1861	H186	0.365900	0.174100	0.267200
C2831	C283	0.777570	0.518300	0.684150
H1871	H187	0.801600	0.542400	0.666000
C2841	C284	0.686350	0.608300	0.418990
H1881	H188	0.644400	0.585600	0.396900
C2851	C285	0.204610	0.111100	0.915660
H1891	H189	0.162600	0.133900	0.894100
C2861	C286	0.301990	0.194700	0.185650
H1901	H190	0.323500	0.162200	0.169000
C2871	C287	0.216020	0.288400	0.178450
H1911	H191	0.178400	0.319600	0.156700
C2881	C288	0.443220	0.380900	0.380080
H1921	H192	0.423400	0.379800	0.340000
N851	N85	0.939510	0.385720	0.912190
N861	N86	0.296170	0.031070	0.917340
N871	N87	0.300190	0.249800	0.271750
N881	N88	0.148110	0.210960	0.973050
N891	N89	0.238460	0.177300	0.063270
N901	N90	0.153520	0.268410	0.059840
N911	N91	0.413220	0.340200	0.407740
N921	N92	0.780140	0.685320	0.422060
N931	N93	0.774770	0.473200	0.771870
N941	N94	0.625900	0.509820	0.473400
N951	N95	0.710910	0.549120	0.564830
N961	N96	0.622010	0.462390	0.559360
