data_QOFDIA_freeONLY_PM
_symmetry_space_group_name_H-M	'P1'
_cell_length_a	21.994400
_cell_length_b	16.662100
_cell_length_c	25.636300
_cell_angle_alpha	90.000000
_cell_angle_beta	115.340000
_cell_angle_gamma	90.000000
_symmetry_Int_Tables_number 1

loop_
_symmetry_equiv_pos_as_xyz
'x,y,z'

loop_
_atom_site_label
_atom_site_type_symbol
_atom_site_fract_x
_atom_site_fract_y
_atom_site_fract_z
Ag11	Ag1	0.773780	0.709010	0.368150
Ag21	Ag2	0.295350	0.002210	0.867570
C11	C1	0.153700	0.220000	0.001000
C21	C2	0.127900	0.007200	0.501900
C31	C3	0.922300	0.399800	0.892200
H11	H1	0.902100	0.403600	0.852200
C41	C4	0.127800	0.061700	0.410900
H21	H2	0.085200	0.040400	0.389600
C51	C5	0.903100	0.816600	0.388900
H31	H3	0.885000	0.810300	0.349100
C61	C6	0.981900	0.387000	0.009500
H41	H4	0.000800	0.383400	0.049500
C71	C7	0.074800	0.301400	0.006700
C81	C8	0.159400	0.052000	0.469400
C91	C9	0.158500	0.985900	0.651200
C101	C10	0.243400	0.133500	0.996500
H51	H5	0.264000	0.132600	0.036600
C111	C11	0.271100	0.093200	0.964700
H61	H6	0.311400	0.066000	0.984700
C121	C12	0.222800	0.085800	0.498800
H71	H7	0.245500	0.081300	0.538700
C131	C13	0.049700	0.922700	0.505100
C141	C14	0.183900	0.175400	0.966600
C151	C15	0.960700	0.861600	0.415300
H81	H8	0.980900	0.884400	0.393500
C161	C16	0.251300	0.125700	0.468300
H91	H9	0.293800	0.147700	0.488600
C171	C17	0.127700	0.975400	0.587600
C181	C18	0.957300	0.834000	0.505400
H101	H10	0.975100	0.837400	0.545400
C191	C19	0.190300	0.243100	0.151900
C201	C20	0.252400	0.206900	0.180900
H111	H11	0.275900	0.188000	0.160600
C211	C21	0.158200	0.251800	0.087700
C221	C22	0.160500	0.103700	0.384300
H121	H12	0.138300	0.110800	0.344500
C231	C23	0.982100	0.357900	0.918300
H131	H13	0.001500	0.335100	0.896000
C241	C24	0.988700	0.872600	0.474800
C251	C25	0.012700	0.350200	0.977400
C261	C26	0.211900	0.037600	0.677700
H141	H14	0.228000	0.068000	0.655900
C271	C27	0.186900	0.257100	0.242500
H151	H15	0.164100	0.274800	0.263700
C281	C28	0.899100	0.790700	0.474400
H161	H16	0.878000	0.766400	0.495000
C291	C29	0.279000	0.199200	0.240000
H171	H17	0.321400	0.176200	0.259200
C301	C30	0.922200	0.428800	0.979100
H181	H18	0.902100	0.453800	0.000200
C311	C31	0.156200	0.267900	0.183400
H191	H19	0.113800	0.291300	0.165400
C321	C32	0.155400	0.175300	0.907300
H201	H20	0.116400	0.204300	0.886300
C331	C33	0.133500	0.945300	0.685000
H211	H21	0.095300	0.913300	0.668500
C341	C34	0.241000	0.043600	0.736900
H221	H22	0.276400	0.079500	0.754400
C351	C35	0.167300	0.953900	0.744100
H231	H23	0.151400	0.925200	0.766800
C361	C36	0.185700	0.131400	0.879300
H241	H24	0.165100	0.129800	0.839100
N11	N1	0.871400	0.781300	0.417500
N21	N2	0.221900	0.134800	0.411600
N31	N3	0.220700	0.000100	0.770800
N41	N4	0.074100	0.961000	0.472300
N51	N5	0.156000	0.017500	0.559100
N61	N6	0.074800	0.927300	0.562800
N71	N7	0.243800	0.090600	0.907200
N81	N8	0.246500	0.223400	0.271200
N91	N9	0.892000	0.435100	0.921700
N101	N10	0.186200	0.212900	0.058500
N111	N11	0.103700	0.299000	0.064100
N121	N12	0.097600	0.260600	0.973200
Ag31	Ag3	0.273780	0.209010	0.368150
Ag41	Ag4	0.795350	0.502210	0.867570
C371	C37	0.653700	0.720000	0.001000
C381	C38	0.627900	0.507200	0.501900
C391	C39	0.422300	0.899800	0.892200
H251	H25	0.402100	0.903600	0.852200
C401	C40	0.627800	0.561700	0.410900
H261	H26	0.585200	0.540400	0.389600
C411	C41	0.403100	0.316600	0.388900
H271	H27	0.385000	0.310300	0.349100
C421	C42	0.481900	0.887000	0.009500
H281	H28	0.500800	0.883400	0.049500
C431	C43	0.574800	0.801400	0.006700
C441	C44	0.659400	0.552000	0.469400
C451	C45	0.658500	0.485900	0.651200
C461	C46	0.743400	0.633500	0.996500
H291	H29	0.764000	0.632600	0.036600
C471	C47	0.771100	0.593200	0.964700
H301	H30	0.811400	0.566000	0.984700
C481	C48	0.722800	0.585800	0.498800
H311	H31	0.745500	0.581300	0.538700
C491	C49	0.549700	0.422700	0.505100
C501	C50	0.683900	0.675400	0.966600
C511	C51	0.460700	0.361600	0.415300
H321	H32	0.480900	0.384400	0.393500
C521	C52	0.751300	0.625700	0.468300
H331	H33	0.793800	0.647700	0.488600
C531	C53	0.627700	0.475400	0.587600
C541	C54	0.457300	0.334000	0.505400
H341	H34	0.475100	0.337400	0.545400
C551	C55	0.690300	0.743100	0.151900
C561	C56	0.752400	0.706900	0.180900
H351	H35	0.775900	0.688000	0.160600
C571	C57	0.658200	0.751800	0.087700
C581	C58	0.660500	0.603700	0.384300
H361	H36	0.638300	0.610800	0.344500
C591	C59	0.482100	0.857900	0.918300
H371	H37	0.501500	0.835100	0.896000
C601	C60	0.488700	0.372600	0.474800
C611	C61	0.512700	0.850200	0.977400
C621	C62	0.711900	0.537600	0.677700
H381	H38	0.728000	0.568000	0.655900
C631	C63	0.686900	0.757100	0.242500
H391	H39	0.664100	0.774800	0.263700
C641	C64	0.399100	0.290700	0.474400
H401	H40	0.378000	0.266400	0.495000
C651	C65	0.779000	0.699200	0.240000
H411	H41	0.821400	0.676200	0.259200
C661	C66	0.422200	0.928800	0.979100
H421	H42	0.402100	0.953800	0.000200
C671	C67	0.656200	0.767900	0.183400
H431	H43	0.613800	0.791300	0.165400
C681	C68	0.655400	0.675300	0.907300
H441	H44	0.616400	0.704300	0.886300
C691	C69	0.633500	0.445300	0.685000
H451	H45	0.595300	0.413300	0.668500
C701	C70	0.741000	0.543600	0.736900
H461	H46	0.776400	0.579500	0.754400
C711	C71	0.667300	0.453900	0.744100
H471	H47	0.651400	0.425200	0.766800
C721	C72	0.685700	0.631400	0.879300
H481	H48	0.665100	0.629800	0.839100
N131	N13	0.371400	0.281300	0.417500
N141	N14	0.721900	0.634800	0.411600
N151	N15	0.720700	0.500100	0.770800
N161	N16	0.574100	0.461000	0.472300
N171	N17	0.656000	0.517500	0.559100
N181	N18	0.574800	0.427300	0.562800
N191	N19	0.743800	0.590600	0.907200
N201	N20	0.746500	0.723400	0.271200
N211	N21	0.392000	0.935100	0.921700
N221	N22	0.686200	0.712900	0.058500
N231	N23	0.603700	0.799000	0.064100
N241	N24	0.597600	0.760600	0.973200
Ag51	Ag5	0.226220	0.709010	0.131850
Ag61	Ag6	0.704650	0.002210	0.632430
C731	C73	0.846300	0.220000	0.499000
C741	C74	0.872100	0.007200	0.998100
C751	C75	0.077700	0.399800	0.607800
H491	H49	0.097900	0.403600	0.647800
C761	C76	0.872200	0.061700	0.089100
H501	H50	0.914800	0.040400	0.110400
C771	C77	0.096900	0.816600	0.111100
H511	H51	0.115000	0.810300	0.150900
C781	C78	0.018100	0.387000	0.490500
H521	H52	0.999200	0.383400	0.450500
C791	C79	0.925200	0.301400	0.493300
C801	C80	0.840600	0.052000	0.030600
C811	C81	0.841500	0.985900	0.848800
C821	C82	0.756600	0.133500	0.503500
H531	H53	0.736000	0.132600	0.463400
C831	C83	0.728900	0.093200	0.535300
H541	H54	0.688600	0.066000	0.515300
C841	C84	0.777200	0.085800	0.001200
H551	H55	0.754500	0.081300	0.961300
C851	C85	0.950300	0.922700	0.994900
C861	C86	0.816100	0.175400	0.533400
C871	C87	0.039300	0.861600	0.084700
H561	H56	0.019100	0.884400	0.106500
C881	C88	0.748700	0.125700	0.031700
H571	H57	0.706200	0.147700	0.011400
C891	C89	0.872300	0.975400	0.912400
C901	C90	0.042700	0.834000	0.994600
H581	H58	0.024900	0.837400	0.954600
C911	C91	0.809700	0.243100	0.348100
C921	C92	0.747600	0.206900	0.319100
H591	H59	0.724100	0.188000	0.339400
C931	C93	0.841800	0.251800	0.412300
C941	C94	0.839500	0.103700	0.115700
H601	H60	0.861700	0.110800	0.155500
C951	C95	0.017900	0.357900	0.581700
H611	H61	0.998500	0.335100	0.604000
C961	C96	0.011300	0.872600	0.025200
C971	C97	0.987300	0.350200	0.522600
C981	C98	0.788100	0.037600	0.822300
H621	H62	0.772000	0.068000	0.844100
C991	C99	0.813100	0.257100	0.257500
H631	H63	0.835900	0.274800	0.236300
C1001	C100	0.100900	0.790700	0.025600
H641	H64	0.122000	0.766400	0.005000
C1011	C101	0.721000	0.199200	0.260000
H651	H65	0.678600	0.176200	0.240800
C1021	C102	0.077800	0.428800	0.520900
H661	H66	0.097900	0.453800	0.499800
C1031	C103	0.843800	0.267900	0.316600
H671	H67	0.886200	0.291300	0.334600
C1041	C104	0.844600	0.175300	0.592700
H681	H68	0.883600	0.204300	0.613700
C1051	C105	0.866500	0.945300	0.815000
H691	H69	0.904700	0.913300	0.831500
C1061	C106	0.759000	0.043600	0.763100
H701	H70	0.723600	0.079500	0.745600
C1071	C107	0.832700	0.953900	0.755900
H711	H71	0.848600	0.925200	0.733200
C1081	C108	0.814300	0.131400	0.620700
H721	H72	0.834900	0.129800	0.660900
N251	N25	0.128600	0.781300	0.082500
N261	N26	0.778100	0.134800	0.088400
N271	N27	0.779300	0.000100	0.729200
N281	N28	0.925900	0.961000	0.027700
N291	N29	0.844000	0.017500	0.940900
N301	N30	0.925200	0.927300	0.937200
N311	N31	0.756200	0.090600	0.592800
N321	N32	0.753500	0.223400	0.228800
N331	N33	0.108000	0.435100	0.578300
N341	N34	0.813800	0.212900	0.441500
N351	N35	0.896300	0.299000	0.435900
N361	N36	0.902400	0.260600	0.526800
Ag71	Ag7	0.726220	0.209010	0.131850
Ag81	Ag8	0.204650	0.502210	0.632430
C1091	C109	0.346300	0.720000	0.499000
C1101	C110	0.372100	0.507200	0.998100
C1111	C111	0.577700	0.899800	0.607800
H731	H73	0.597900	0.903600	0.647800
C1121	C112	0.372200	0.561700	0.089100
H741	H74	0.414800	0.540400	0.110400
C1131	C113	0.596900	0.316600	0.111100
H751	H75	0.615000	0.310300	0.150900
C1141	C114	0.518100	0.887000	0.490500
H761	H76	0.499200	0.883400	0.450500
C1151	C115	0.425200	0.801400	0.493300
C1161	C116	0.340600	0.552000	0.030600
C1171	C117	0.341500	0.485900	0.848800
C1181	C118	0.256600	0.633500	0.503500
H771	H77	0.236000	0.632600	0.463400
C1191	C119	0.228900	0.593200	0.535300
H781	H78	0.188600	0.566000	0.515300
C1201	C120	0.277200	0.585800	0.001200
H791	H79	0.254500	0.581300	0.961300
C1211	C121	0.450300	0.422700	0.994900
C1221	C122	0.316100	0.675400	0.533400
C1231	C123	0.539300	0.361600	0.084700
H801	H80	0.519100	0.384400	0.106500
C1241	C124	0.248700	0.625700	0.031700
H811	H81	0.206200	0.647700	0.011400
C1251	C125	0.372300	0.475400	0.912400
C1261	C126	0.542700	0.334000	0.994600
H821	H82	0.524900	0.337400	0.954600
C1271	C127	0.309700	0.743100	0.348100
C1281	C128	0.247600	0.706900	0.319100
H831	H83	0.224100	0.688000	0.339400
C1291	C129	0.341800	0.751800	0.412300
C1301	C130	0.339500	0.603700	0.115700
H841	H84	0.361700	0.610800	0.155500
C1311	C131	0.517900	0.857900	0.581700
H851	H85	0.498500	0.835100	0.604000
C1321	C132	0.511300	0.372600	0.025200
C1331	C133	0.487300	0.850200	0.522600
C1341	C134	0.288100	0.537600	0.822300
H861	H86	0.272000	0.568000	0.844100
C1351	C135	0.313100	0.757100	0.257500
H871	H87	0.335900	0.774800	0.236300
C1361	C136	0.600900	0.290700	0.025600
H881	H88	0.622000	0.266400	0.005000
C1371	C137	0.221000	0.699200	0.260000
H891	H89	0.178600	0.676200	0.240800
C1381	C138	0.577800	0.928800	0.520900
H901	H90	0.597900	0.953800	0.499800
C1391	C139	0.343800	0.767900	0.316600
H911	H91	0.386200	0.791300	0.334600
C1401	C140	0.344600	0.675300	0.592700
H921	H92	0.383600	0.704300	0.613700
C1411	C141	0.366500	0.445300	0.815000
H931	H93	0.404700	0.413300	0.831500
C1421	C142	0.259000	0.543600	0.763100
H941	H94	0.223600	0.579500	0.745600
C1431	C143	0.332700	0.453900	0.755900
H951	H95	0.348600	0.425200	0.733200
C1441	C144	0.314300	0.631400	0.620700
H961	H96	0.334900	0.629800	0.660900
N371	N37	0.628600	0.281300	0.082500
N381	N38	0.278100	0.634800	0.088400
N391	N39	0.279300	0.500100	0.729200
N401	N40	0.425900	0.461000	0.027700
N411	N41	0.344000	0.517500	0.940900
N421	N42	0.425200	0.427300	0.937200
N431	N43	0.256200	0.590600	0.592800
N441	N44	0.253500	0.723400	0.228800
N451	N45	0.608000	0.935100	0.578300
N461	N46	0.313800	0.712900	0.441500
N471	N47	0.396300	0.799000	0.435900
N481	N48	0.402400	0.760600	0.526800
Ag91	Ag9	0.226220	0.290990	0.631850
Ag101	Ag10	0.704650	0.997790	0.132430
C1451	C145	0.846300	0.780000	0.999000
C1461	C146	0.872100	0.992800	0.498100
C1471	C147	0.077700	0.600200	0.107800
H971	H97	0.097900	0.596400	0.147800
C1481	C148	0.872200	0.938300	0.589100
H981	H98	0.914800	0.959600	0.610400
C1491	C149	0.096900	0.183400	0.611100
H991	H99	0.115000	0.189700	0.650900
C1501	C150	0.018100	0.613000	0.990500
H1001	H100	0.999200	0.616600	0.950500
C1511	C151	0.925200	0.698600	0.993300
C1521	C152	0.840600	0.948000	0.530600
C1531	C153	0.841500	0.014100	0.348800
C1541	C154	0.756600	0.866500	0.003500
H1011	H101	0.736000	0.867400	0.963400
C1551	C155	0.728900	0.906800	0.035300
H1021	H102	0.688600	0.934000	0.015300
C1561	C156	0.777200	0.914200	0.501200
H1031	H103	0.754500	0.918700	0.461300
C1571	C157	0.950300	0.077300	0.494900
C1581	C158	0.816100	0.824600	0.033400
C1591	C159	0.039300	0.138400	0.584700
H1041	H104	0.019100	0.115600	0.606500
C1601	C160	0.748700	0.874300	0.531700
H1051	H105	0.706200	0.852300	0.511400
C1611	C161	0.872300	0.024600	0.412400
C1621	C162	0.042700	0.166000	0.494600
H1061	H106	0.024900	0.162600	0.454600
C1631	C163	0.809700	0.756900	0.848100
C1641	C164	0.747600	0.793100	0.819100
H1071	H107	0.724100	0.812000	0.839400
C1651	C165	0.841800	0.748200	0.912300
C1661	C166	0.839500	0.896300	0.615700
H1081	H108	0.861700	0.889200	0.655500
C1671	C167	0.017900	0.642100	0.081700
H1091	H109	0.998500	0.664900	0.104000
C1681	C168	0.011300	0.127400	0.525200
C1691	C169	0.987300	0.649800	0.022600
C1701	C170	0.788100	0.962400	0.322300
H1101	H110	0.772000	0.932000	0.344100
C1711	C171	0.813100	0.742900	0.757500
H1111	H111	0.835900	0.725200	0.736300
C1721	C172	0.100900	0.209300	0.525600
H1121	H112	0.122000	0.233600	0.505000
C1731	C173	0.721000	0.800800	0.760000
H1131	H113	0.678600	0.823800	0.740800
C1741	C174	0.077800	0.571200	0.020900
H1141	H114	0.097900	0.546200	0.999800
C1751	C175	0.843800	0.732100	0.816600
H1151	H115	0.886200	0.708700	0.834600
C1761	C176	0.844600	0.824700	0.092700
H1161	H116	0.883600	0.795700	0.113700
C1771	C177	0.866500	0.054700	0.315000
H1171	H117	0.904700	0.086700	0.331500
C1781	C178	0.759000	0.956400	0.263100
H1181	H118	0.723600	0.920500	0.245600
C1791	C179	0.832700	0.046100	0.255900
H1191	H119	0.848600	0.074800	0.233200
C1801	C180	0.814300	0.868600	0.120700
H1201	H120	0.834900	0.870200	0.160900
N491	N49	0.128600	0.218700	0.582500
N501	N50	0.778100	0.865200	0.588400
N511	N51	0.779300	0.999900	0.229200
N521	N52	0.925900	0.039000	0.527700
N531	N53	0.844000	0.982500	0.440900
N541	N54	0.925200	0.072700	0.437200
N551	N55	0.756200	0.909400	0.092800
N561	N56	0.753500	0.776600	0.728800
N571	N57	0.108000	0.564900	0.078300
N581	N58	0.813800	0.787100	0.941500
N591	N59	0.896300	0.701000	0.935900
N601	N60	0.902400	0.739400	0.026800
Ag111	Ag11	0.726220	0.790990	0.631850
Ag121	Ag12	0.204650	0.497790	0.132430
C1811	C181	0.346300	0.280000	0.999000
C1821	C182	0.372100	0.492800	0.498100
C1831	C183	0.577700	0.100200	0.107800
H1211	H121	0.597900	0.096400	0.147800
C1841	C184	0.372200	0.438300	0.589100
H1221	H122	0.414800	0.459600	0.610400
C1851	C185	0.596900	0.683400	0.611100
H1231	H123	0.615000	0.689700	0.650900
C1861	C186	0.518100	0.113000	0.990500
H1241	H124	0.499200	0.116600	0.950500
C1871	C187	0.425200	0.198600	0.993300
C1881	C188	0.340600	0.448000	0.530600
C1891	C189	0.341500	0.514100	0.348800
C1901	C190	0.256600	0.366500	0.003500
H1251	H125	0.236000	0.367400	0.963400
C1911	C191	0.228900	0.406800	0.035300
H1261	H126	0.188600	0.434000	0.015300
C1921	C192	0.277200	0.414200	0.501200
H1271	H127	0.254500	0.418700	0.461300
C1931	C193	0.450300	0.577300	0.494900
C1941	C194	0.316100	0.324600	0.033400
C1951	C195	0.539300	0.638400	0.584700
H1281	H128	0.519100	0.615600	0.606500
C1961	C196	0.248700	0.374300	0.531700
H1291	H129	0.206200	0.352300	0.511400
C1971	C197	0.372300	0.524600	0.412400
C1981	C198	0.542700	0.666000	0.494600
H1301	H130	0.524900	0.662600	0.454600
C1991	C199	0.309700	0.256900	0.848100
C2001	C200	0.247600	0.293100	0.819100
H1311	H131	0.224100	0.312000	0.839400
C2011	C201	0.341800	0.248200	0.912300
C2021	C202	0.339500	0.396300	0.615700
H1321	H132	0.361700	0.389200	0.655500
C2031	C203	0.517900	0.142100	0.081700
H1331	H133	0.498500	0.164900	0.104000
C2041	C204	0.511300	0.627400	0.525200
C2051	C205	0.487300	0.149800	0.022600
C2061	C206	0.288100	0.462400	0.322300
H1341	H134	0.272000	0.432000	0.344100
C2071	C207	0.313100	0.242900	0.757500
H1351	H135	0.335900	0.225200	0.736300
C2081	C208	0.600900	0.709300	0.525600
H1361	H136	0.622000	0.733600	0.505000
C2091	C209	0.221000	0.300800	0.760000
H1371	H137	0.178600	0.323800	0.740800
C2101	C210	0.577800	0.071200	0.020900
H1381	H138	0.597900	0.046200	0.999800
C2111	C211	0.343800	0.232100	0.816600
H1391	H139	0.386200	0.208700	0.834600
C2121	C212	0.344600	0.324700	0.092700
H1401	H140	0.383600	0.295700	0.113700
C2131	C213	0.366500	0.554700	0.315000
H1411	H141	0.404700	0.586700	0.331500
C2141	C214	0.259000	0.456400	0.263100
H1421	H142	0.223600	0.420500	0.245600
C2151	C215	0.332700	0.546100	0.255900
H1431	H143	0.348600	0.574800	0.233200
C2161	C216	0.314300	0.368600	0.120700
H1441	H144	0.334900	0.370200	0.160900
N611	N61	0.628600	0.718700	0.582500
N621	N62	0.278100	0.365200	0.588400
N631	N63	0.279300	0.499900	0.229200
N641	N64	0.425900	0.539000	0.527700
N651	N65	0.344000	0.482500	0.440900
N661	N66	0.425200	0.572700	0.437200
N671	N67	0.256200	0.409400	0.092800
N681	N68	0.253500	0.276600	0.728800
N691	N69	0.608000	0.064900	0.078300
N701	N70	0.313800	0.287100	0.941500
N711	N71	0.396300	0.201000	0.935900
N721	N72	0.402400	0.239400	0.026800
Ag131	Ag13	0.773780	0.290990	0.868150
Ag141	Ag14	0.295350	0.997790	0.367570
C2171	C217	0.153700	0.780000	0.501000
C2181	C218	0.127900	0.992800	0.001900
C2191	C219	0.922300	0.600200	0.392200
H1451	H145	0.902100	0.596400	0.352200
C2201	C220	0.127800	0.938300	0.910900
H1461	H146	0.085200	0.959600	0.889600
C2211	C221	0.903100	0.183400	0.888900
H1471	H147	0.885000	0.189700	0.849100
C2221	C222	0.981900	0.613000	0.509500
H1481	H148	0.000800	0.616600	0.549500
C2231	C223	0.074800	0.698600	0.506700
C2241	C224	0.159400	0.948000	0.969400
C2251	C225	0.158500	0.014100	0.151200
C2261	C226	0.243400	0.866500	0.496500
H1491	H149	0.264000	0.867400	0.536600
C2271	C227	0.271100	0.906800	0.464700
H1501	H150	0.311400	0.934000	0.484700
C2281	C228	0.222800	0.914200	0.998800
H1511	H151	0.245500	0.918700	0.038700
C2291	C229	0.049700	0.077300	0.005100
C2301	C230	0.183900	0.824600	0.466600
C2311	C231	0.960700	0.138400	0.915300
H1521	H152	0.980900	0.115600	0.893500
C2321	C232	0.251300	0.874300	0.968300
H1531	H153	0.293800	0.852300	0.988600
C2331	C233	0.127700	0.024600	0.087600
C2341	C234	0.957300	0.166000	0.005400
H1541	H154	0.975100	0.162600	0.045400
C2351	C235	0.190300	0.756900	0.651900
C2361	C236	0.252400	0.793100	0.680900
H1551	H155	0.275900	0.812000	0.660600
C2371	C237	0.158200	0.748200	0.587700
C2381	C238	0.160500	0.896300	0.884300
H1561	H156	0.138300	0.889200	0.844500
C2391	C239	0.982100	0.642100	0.418300
H1571	H157	0.001500	0.664900	0.396000
C2401	C240	0.988700	0.127400	0.974800
C2411	C241	0.012700	0.649800	0.477400
C2421	C242	0.211900	0.962400	0.177700
H1581	H158	0.228000	0.932000	0.155900
C2431	C243	0.186900	0.742900	0.742500
H1591	H159	0.164100	0.725200	0.763700
C2441	C244	0.899100	0.209300	0.974400
H1601	H160	0.878000	0.233600	0.995000
C2451	C245	0.279000	0.800800	0.740000
H1611	H161	0.321400	0.823800	0.759200
C2461	C246	0.922200	0.571200	0.479100
H1621	H162	0.902100	0.546200	0.500200
C2471	C247	0.156200	0.732100	0.683400
H1631	H163	0.113800	0.708700	0.665400
C2481	C248	0.155400	0.824700	0.407300
H1641	H164	0.116400	0.795700	0.386300
C2491	C249	0.133500	0.054700	0.185000
H1651	H165	0.095300	0.086700	0.168500
C2501	C250	0.241000	0.956400	0.236900
H1661	H166	0.276400	0.920500	0.254400
C2511	C251	0.167300	0.046100	0.244100
H1671	H167	0.151400	0.074800	0.266800
C2521	C252	0.185700	0.868600	0.379300
H1681	H168	0.165100	0.870200	0.339100
N731	N73	0.871400	0.218700	0.917500
N741	N74	0.221900	0.865200	0.911600
N751	N75	0.220700	0.999900	0.270800
N761	N76	0.074100	0.039000	0.972300
N771	N77	0.156000	0.982500	0.059100
N781	N78	0.074800	0.072700	0.062800
N791	N79	0.243800	0.909400	0.407200
N801	N80	0.246500	0.776600	0.771200
N811	N81	0.892000	0.564900	0.421700
N821	N82	0.186200	0.787100	0.558500
N831	N83	0.103700	0.701000	0.564100
N841	N84	0.097600	0.739400	0.473200
Ag151	Ag15	0.273780	0.790990	0.868150
Ag161	Ag16	0.795350	0.497790	0.367570
C2531	C253	0.653700	0.280000	0.501000
C2541	C254	0.627900	0.492800	0.001900
C2551	C255	0.422300	0.100200	0.392200
H1691	H169	0.402100	0.096400	0.352200
C2561	C256	0.627800	0.438300	0.910900
H1701	H170	0.585200	0.459600	0.889600
C2571	C257	0.403100	0.683400	0.888900
H1711	H171	0.385000	0.689700	0.849100
C2581	C258	0.481900	0.113000	0.509500
H1721	H172	0.500800	0.116600	0.549500
C2591	C259	0.574800	0.198600	0.506700
C2601	C260	0.659400	0.448000	0.969400
C2611	C261	0.658500	0.514100	0.151200
C2621	C262	0.743400	0.366500	0.496500
H1731	H173	0.764000	0.367400	0.536600
C2631	C263	0.771100	0.406800	0.464700
H1741	H174	0.811400	0.434000	0.484700
C2641	C264	0.722800	0.414200	0.998800
H1751	H175	0.745500	0.418700	0.038700
C2651	C265	0.549700	0.577300	0.005100
C2661	C266	0.683900	0.324600	0.466600
C2671	C267	0.460700	0.638400	0.915300
H1761	H176	0.480900	0.615600	0.893500
C2681	C268	0.751300	0.374300	0.968300
H1771	H177	0.793800	0.352300	0.988600
C2691	C269	0.627700	0.524600	0.087600
C2701	C270	0.457300	0.666000	0.005400
H1781	H178	0.475100	0.662600	0.045400
C2711	C271	0.690300	0.256900	0.651900
C2721	C272	0.752400	0.293100	0.680900
H1791	H179	0.775900	0.312000	0.660600
C2731	C273	0.658200	0.248200	0.587700
C2741	C274	0.660500	0.396300	0.884300
H1801	H180	0.638300	0.389200	0.844500
C2751	C275	0.482100	0.142100	0.418300
H1811	H181	0.501500	0.164900	0.396000
C2761	C276	0.488700	0.627400	0.974800
C2771	C277	0.512700	0.149800	0.477400
C2781	C278	0.711900	0.462400	0.177700
H1821	H182	0.728000	0.432000	0.155900
C2791	C279	0.686900	0.242900	0.742500
H1831	H183	0.664100	0.225200	0.763700
C2801	C280	0.399100	0.709300	0.974400
H1841	H184	0.378000	0.733600	0.995000
C2811	C281	0.779000	0.300800	0.740000
H1851	H185	0.821400	0.323800	0.759200
C2821	C282	0.422200	0.071200	0.479100
H1861	H186	0.402100	0.046200	0.500200
C2831	C283	0.656200	0.232100	0.683400
H1871	H187	0.613800	0.208700	0.665400
C2841	C284	0.655400	0.324700	0.407300
H1881	H188	0.616400	0.295700	0.386300
C2851	C285	0.633500	0.554700	0.185000
H1891	H189	0.595300	0.586700	0.168500
C2861	C286	0.741000	0.456400	0.236900
H1901	H190	0.776400	0.420500	0.254400
C2871	C287	0.667300	0.546100	0.244100
H1911	H191	0.651400	0.574800	0.266800
C2881	C288	0.685700	0.368600	0.379300
H1921	H192	0.665100	0.370200	0.339100
N851	N85	0.371400	0.718700	0.917500
N861	N86	0.721900	0.365200	0.911600
N871	N87	0.720700	0.499900	0.270800
N881	N88	0.574100	0.539000	0.972300
N891	N89	0.656000	0.482500	0.059100
N901	N90	0.574800	0.572700	0.062800
N911	N91	0.743800	0.409400	0.407200
N921	N92	0.746500	0.276600	0.771200
N931	N93	0.392000	0.064900	0.421700
N941	N94	0.686200	0.287100	0.558500
N951	N95	0.603700	0.201000	0.564100
N961	N96	0.597600	0.239400	0.473200
