data_QOFDIA02_freeONLY_PM
_symmetry_space_group_name_H-M	'P1'
_cell_length_a	22.057200
_cell_length_b	16.389300
_cell_length_c	25.603000
_cell_angle_alpha	90.000000
_cell_angle_beta	115.305000
_cell_angle_gamma	90.000000
_symmetry_Int_Tables_number 1

loop_
_symmetry_equiv_pos_as_xyz
'x,y,z'

loop_
_atom_site_label
_atom_site_type_symbol
_atom_site_fract_x
_atom_site_fract_y
_atom_site_fract_z
Ag11	Ag1	0.844140	0.457730	0.367910
Ag21	Ag2	0.322940	0.252230	0.867280
C11	C1	0.124000	0.257300	0.502500
C21	C2	0.778000	0.637700	0.009300
H11	H1	0.798900	0.633800	0.049300
C31	C3	0.597600	0.469700	0.000900
C41	C4	0.234900	0.064700	0.388300
H21	H2	0.212800	0.057400	0.348500
C51	C5	0.297900	0.084400	0.504900
H31	H3	0.320300	0.089000	0.544900
C61	C6	0.033300	0.312200	0.411100
H41	H4	0.054800	0.290800	0.389900
C71	C7	0.060000	0.302400	0.470100
C81	C8	0.443600	0.343100	0.964800
H51	H5	0.423400	0.315300	0.984800
C91	C9	0.503400	0.383500	0.996400
H61	H6	0.523100	0.381900	0.036600
C101	C10	0.719700	0.652000	0.892200
H71	H7	0.699500	0.656700	0.852100
C111	C11	0.209900	0.227100	0.587600
C121	C12	0.533200	0.426400	0.966900
C131	C13	0.679200	0.456200	0.181500
H81	H8	0.635200	0.438300	0.161600
C141	C14	0.243300	0.237700	0.651400
C151	C15	0.026200	0.335500	0.499800
H91	H9	0.043500	0.330700	0.539700
C161	C16	0.682300	0.551900	0.006700
C171	C17	0.680200	0.502000	0.088100
C181	C18	0.715400	0.601400	0.977500
C191	C19	0.686100	0.609400	0.918600
H101	H10	0.644200	0.586600	0.896600
C201	C20	0.973600	0.354700	0.384200
H111	H11	0.956300	0.362600	0.344400
C211	C21	0.325700	0.040800	0.474000
H121	H12	0.367800	0.017600	0.494300
C221	C22	0.967000	0.375500	0.469500
H131	H13	0.944600	0.397200	0.489900
C231	C23	0.808300	0.679600	0.979600
H141	H14	0.849900	0.703700	0.000700
C241	C24	0.205600	0.172400	0.505200
C251	C25	0.235800	0.120900	0.474600
C261	C26	0.807300	0.504900	0.242700
H151	H15	0.851600	0.521400	0.263500
C271	C27	0.203700	0.110300	0.415000
H161	H16	0.161900	0.133500	0.393600
C281	C28	0.502300	0.426700	0.907100
H171	H17	0.520500	0.455700	0.886000
C291	C29	0.712300	0.492400	0.151900
C301	C30	0.215800	0.289300	0.678100
H181	H18	0.177700	0.319600	0.656300
C311	C31	0.778100	0.516800	0.183400
H191	H19	0.802200	0.540600	0.165200
C321	C32	0.443800	0.383000	0.879700
H201	H20	0.424000	0.381900	0.839500
C331	C33	0.302300	0.197400	0.685000
H211	H21	0.323600	0.164700	0.668200
C341	C34	0.328700	0.207200	0.744300
H221	H22	0.368200	0.179800	0.767000
C351	C35	0.245800	0.295300	0.737400
H231	H23	0.226800	0.330000	0.755000
C361	C36	0.712100	0.447100	0.240300
H241	H24	0.689100	0.423200	0.259500
N11	N1	0.939510	0.385100	0.412090
N21	N2	0.295480	0.030300	0.416700
N31	N3	0.300700	0.253700	0.771000
N41	N4	0.153240	0.267800	0.559390
N51	N5	0.147860	0.210200	0.472420
N61	N6	0.238240	0.178000	0.562820
N71	N7	0.413560	0.342100	0.907280
N81	N8	0.780300	0.687000	0.921640
N91	N9	0.775900	0.471200	0.271690
N101	N10	0.622760	0.462600	0.058610
N111	N11	0.626210	0.511400	0.973000
N121	N12	0.711590	0.549600	0.064750
Ag31	Ag3	0.344140	0.957730	0.367910
Ag41	Ag4	0.822940	0.752230	0.867280
C371	C37	0.624000	0.757300	0.502500
C381	C38	0.278000	0.137700	0.009300
H251	H25	0.298900	0.133800	0.049300
C391	C39	0.097600	0.969700	0.000900
C401	C40	0.734900	0.564700	0.388300
H261	H26	0.712800	0.557400	0.348500
C411	C41	0.797900	0.584400	0.504900
H271	H27	0.820300	0.589000	0.544900
C421	C42	0.533300	0.812200	0.411100
H281	H28	0.554800	0.790800	0.389900
C431	C43	0.560000	0.802400	0.470100
C441	C44	0.943600	0.843100	0.964800
H291	H29	0.923400	0.815300	0.984800
C451	C45	0.003400	0.883500	0.996400
H301	H30	0.023100	0.881900	0.036600
C461	C46	0.219700	0.152000	0.892200
H311	H31	0.199500	0.156700	0.852100
C471	C47	0.709900	0.727100	0.587600
C481	C48	0.033200	0.926400	0.966900
C491	C49	0.179200	0.956200	0.181500
H321	H32	0.135200	0.938300	0.161600
C501	C50	0.743300	0.737700	0.651400
C511	C51	0.526200	0.835500	0.499800
H331	H33	0.543500	0.830700	0.539700
C521	C52	0.182300	0.051900	0.006700
C531	C53	0.180200	0.002000	0.088100
C541	C54	0.215400	0.101400	0.977500
C551	C55	0.186100	0.109400	0.918600
H341	H34	0.144200	0.086600	0.896600
C561	C56	0.473600	0.854700	0.384200
H351	H35	0.456300	0.862600	0.344400
C571	C57	0.825700	0.540800	0.474000
H361	H36	0.867800	0.517600	0.494300
C581	C58	0.467000	0.875500	0.469500
H371	H37	0.444600	0.897200	0.489900
C591	C59	0.308300	0.179600	0.979600
H381	H38	0.349900	0.203700	0.000700
C601	C60	0.705600	0.672400	0.505200
C611	C61	0.735800	0.620900	0.474600
C621	C62	0.307300	0.004900	0.242700
H391	H39	0.351600	0.021400	0.263500
C631	C63	0.703700	0.610300	0.415000
H401	H40	0.661900	0.633500	0.393600
C641	C64	0.002300	0.926700	0.907100
H411	H41	0.020500	0.955700	0.886000
C651	C65	0.212300	0.992400	0.151900
C661	C66	0.715800	0.789300	0.678100
H421	H42	0.677700	0.819600	0.656300
C671	C67	0.278100	0.016800	0.183400
H431	H43	0.302200	0.040600	0.165200
C681	C68	0.943800	0.883000	0.879700
H441	H44	0.924000	0.881900	0.839500
C691	C69	0.802300	0.697400	0.685000
H451	H45	0.823600	0.664700	0.668200
C701	C70	0.828700	0.707200	0.744300
H461	H46	0.868200	0.679800	0.767000
C711	C71	0.745800	0.795300	0.737400
H471	H47	0.726800	0.830000	0.755000
C721	C72	0.212100	0.947100	0.240300
H481	H48	0.189100	0.923200	0.259500
N131	N13	0.439510	0.885100	0.412090
N141	N14	0.795480	0.530300	0.416700
N151	N15	0.800700	0.753700	0.771000
N161	N16	0.653240	0.767800	0.559390
N171	N17	0.647860	0.710200	0.472420
N181	N18	0.738240	0.678000	0.562820
N191	N19	0.913560	0.842100	0.907280
N201	N20	0.280300	0.187000	0.921640
N211	N21	0.275900	0.971200	0.271690
N221	N22	0.122760	0.962600	0.058610
N231	N23	0.126210	0.011400	0.973000
N241	N24	0.211590	0.049600	0.064750
Ag51	Ag5	0.155860	0.457730	0.132090
Ag61	Ag6	0.677060	0.252230	0.632720
C731	C73	0.876000	0.257300	0.997500
C741	C74	0.222000	0.637700	0.490700
H491	H49	0.201100	0.633800	0.450700
C751	C75	0.402400	0.469700	0.499100
C761	C76	0.765100	0.064700	0.111700
H501	H50	0.787200	0.057400	0.151500
C771	C77	0.702100	0.084400	0.995100
H511	H51	0.679700	0.089000	0.955100
C781	C78	0.966700	0.312200	0.088900
H521	H52	0.945200	0.290800	0.110100
C791	C79	0.940000	0.302400	0.029900
C801	C80	0.556400	0.343100	0.535200
H531	H53	0.576600	0.315300	0.515200
C811	C81	0.496600	0.383500	0.503600
H541	H54	0.476900	0.381900	0.463400
C821	C82	0.280300	0.652000	0.607800
H551	H55	0.300500	0.656700	0.647900
C831	C83	0.790100	0.227100	0.912400
C841	C84	0.466800	0.426400	0.533100
C851	C85	0.320800	0.456200	0.318500
H561	H56	0.364800	0.438300	0.338400
C861	C86	0.756700	0.237700	0.848600
C871	C87	0.973800	0.335500	0.000200
H571	H57	0.956500	0.330700	0.960300
C881	C88	0.317700	0.551900	0.493300
C891	C89	0.319800	0.502000	0.411900
C901	C90	0.284600	0.601400	0.522500
C911	C91	0.313900	0.609400	0.581400
H581	H58	0.355800	0.586600	0.603400
C921	C92	0.026400	0.354700	0.115800
H591	H59	0.043700	0.362600	0.155600
C931	C93	0.674300	0.040800	0.026000
H601	H60	0.632200	0.017600	0.005700
C941	C94	0.033000	0.375500	0.030500
H611	H61	0.055400	0.397200	0.010100
C951	C95	0.191700	0.679600	0.520400
H621	H62	0.150100	0.703700	0.499300
C961	C96	0.794400	0.172400	0.994800
C971	C97	0.764200	0.120900	0.025400
C981	C98	0.192700	0.504900	0.257300
H631	H63	0.148400	0.521400	0.236500
C991	C99	0.796300	0.110300	0.085000
H641	H64	0.838100	0.133500	0.106400
C1001	C100	0.497700	0.426700	0.592900
H651	H65	0.479500	0.455700	0.614000
C1011	C101	0.287700	0.492400	0.348100
C1021	C102	0.784200	0.289300	0.821900
H661	H66	0.822300	0.319600	0.843700
C1031	C103	0.221900	0.516800	0.316600
H671	H67	0.197800	0.540600	0.334800
C1041	C104	0.556200	0.383000	0.620300
H681	H68	0.576000	0.381900	0.660500
C1051	C105	0.697700	0.197400	0.815000
H691	H69	0.676400	0.164700	0.831800
C1061	C106	0.671300	0.207200	0.755700
H701	H70	0.631800	0.179800	0.733000
C1071	C107	0.754200	0.295300	0.762600
H711	H71	0.773200	0.330000	0.745000
C1081	C108	0.287900	0.447100	0.259700
H721	H72	0.310900	0.423200	0.240500
N251	N25	0.060490	0.385100	0.087910
N261	N26	0.704520	0.030300	0.083300
N271	N27	0.699300	0.253700	0.729000
N281	N28	0.846760	0.267800	0.940610
N291	N29	0.852140	0.210200	0.027580
N301	N30	0.761760	0.178000	0.937180
N311	N31	0.586440	0.342100	0.592720
N321	N32	0.219700	0.687000	0.578360
N331	N33	0.224100	0.471200	0.228310
N341	N34	0.377240	0.462600	0.441390
N351	N35	0.373790	0.511400	0.527000
N361	N36	0.288410	0.549600	0.435250
Ag71	Ag7	0.655860	0.957730	0.132090
Ag81	Ag8	0.177060	0.752230	0.632720
C1091	C109	0.376000	0.757300	0.997500
C1101	C110	0.722000	0.137700	0.490700
H731	H73	0.701100	0.133800	0.450700
C1111	C111	0.902400	0.969700	0.499100
C1121	C112	0.265100	0.564700	0.111700
H741	H74	0.287200	0.557400	0.151500
C1131	C113	0.202100	0.584400	0.995100
H751	H75	0.179700	0.589000	0.955100
C1141	C114	0.466700	0.812200	0.088900
H761	H76	0.445200	0.790800	0.110100
C1151	C115	0.440000	0.802400	0.029900
C1161	C116	0.056400	0.843100	0.535200
H771	H77	0.076600	0.815300	0.515200
C1171	C117	0.996600	0.883500	0.503600
H781	H78	0.976900	0.881900	0.463400
C1181	C118	0.780300	0.152000	0.607800
H791	H79	0.800500	0.156700	0.647900
C1191	C119	0.290100	0.727100	0.912400
C1201	C120	0.966800	0.926400	0.533100
C1211	C121	0.820800	0.956200	0.318500
H801	H80	0.864800	0.938300	0.338400
C1221	C122	0.256700	0.737700	0.848600
C1231	C123	0.473800	0.835500	0.000200
H811	H81	0.456500	0.830700	0.960300
C1241	C124	0.817700	0.051900	0.493300
C1251	C125	0.819800	0.002000	0.411900
C1261	C126	0.784600	0.101400	0.522500
C1271	C127	0.813900	0.109400	0.581400
H821	H82	0.855800	0.086600	0.603400
C1281	C128	0.526400	0.854700	0.115800
H831	H83	0.543700	0.862600	0.155600
C1291	C129	0.174300	0.540800	0.026000
H841	H84	0.132200	0.517600	0.005700
C1301	C130	0.533000	0.875500	0.030500
H851	H85	0.555400	0.897200	0.010100
C1311	C131	0.691700	0.179600	0.520400
H861	H86	0.650100	0.203700	0.499300
C1321	C132	0.294400	0.672400	0.994800
C1331	C133	0.264200	0.620900	0.025400
C1341	C134	0.692700	0.004900	0.257300
H871	H87	0.648400	0.021400	0.236500
C1351	C135	0.296300	0.610300	0.085000
H881	H88	0.338100	0.633500	0.106400
C1361	C136	0.997700	0.926700	0.592900
H891	H89	0.979500	0.955700	0.614000
C1371	C137	0.787700	0.992400	0.348100
C1381	C138	0.284200	0.789300	0.821900
H901	H90	0.322300	0.819600	0.843700
C1391	C139	0.721900	0.016800	0.316600
H911	H91	0.697800	0.040600	0.334800
C1401	C140	0.056200	0.883000	0.620300
H921	H92	0.076000	0.881900	0.660500
C1411	C141	0.197700	0.697400	0.815000
H931	H93	0.176400	0.664700	0.831800
C1421	C142	0.171300	0.707200	0.755700
H941	H94	0.131800	0.679800	0.733000
C1431	C143	0.254200	0.795300	0.762600
H951	H95	0.273200	0.830000	0.745000
C1441	C144	0.787900	0.947100	0.259700
H961	H96	0.810900	0.923200	0.240500
N371	N37	0.560490	0.885100	0.087910
N381	N38	0.204520	0.530300	0.083300
N391	N39	0.199300	0.753700	0.729000
N401	N40	0.346760	0.767800	0.940610
N411	N41	0.352140	0.710200	0.027580
N421	N42	0.261760	0.678000	0.937180
N431	N43	0.086440	0.842100	0.592720
N441	N44	0.719700	0.187000	0.578360
N451	N45	0.724100	0.971200	0.228310
N461	N46	0.877240	0.962600	0.441390
N471	N47	0.873790	0.011400	0.527000
N481	N48	0.788410	0.049600	0.435250
Ag91	Ag9	0.155860	0.542270	0.632090
Ag101	Ag10	0.677060	0.747770	0.132720
C1451	C145	0.876000	0.742700	0.497500
C1461	C146	0.222000	0.362300	0.990700
H971	H97	0.201100	0.366200	0.950700
C1471	C147	0.402400	0.530300	0.999100
C1481	C148	0.765100	0.935300	0.611700
H981	H98	0.787200	0.942600	0.651500
C1491	C149	0.702100	0.915600	0.495100
H991	H99	0.679700	0.911000	0.455100
C1501	C150	0.966700	0.687800	0.588900
H1001	H100	0.945200	0.709200	0.610100
C1511	C151	0.940000	0.697600	0.529900
C1521	C152	0.556400	0.656900	0.035200
H1011	H101	0.576600	0.684700	0.015200
C1531	C153	0.496600	0.616500	0.003600
H1021	H102	0.476900	0.618100	0.963400
C1541	C154	0.280300	0.348000	0.107800
H1031	H103	0.300500	0.343300	0.147900
C1551	C155	0.790100	0.772900	0.412400
C1561	C156	0.466800	0.573600	0.033100
C1571	C157	0.320800	0.543800	0.818500
H1041	H104	0.364800	0.561700	0.838400
C1581	C158	0.756700	0.762300	0.348600
C1591	C159	0.973800	0.664500	0.500200
H1051	H105	0.956500	0.669300	0.460300
C1601	C160	0.317700	0.448100	0.993300
C1611	C161	0.319800	0.498000	0.911900
C1621	C162	0.284600	0.398600	0.022500
C1631	C163	0.313900	0.390600	0.081400
H1061	H106	0.355800	0.413400	0.103400
C1641	C164	0.026400	0.645300	0.615800
H1071	H107	0.043700	0.637400	0.655600
C1651	C165	0.674300	0.959200	0.526000
H1081	H108	0.632200	0.982400	0.505700
C1661	C166	0.033000	0.624500	0.530500
H1091	H109	0.055400	0.602800	0.510100
C1671	C167	0.191700	0.320400	0.020400
H1101	H110	0.150100	0.296300	0.999300
C1681	C168	0.794400	0.827600	0.494800
C1691	C169	0.764200	0.879100	0.525400
C1701	C170	0.192700	0.495100	0.757300
H1111	H111	0.148400	0.478600	0.736500
C1711	C171	0.796300	0.889700	0.585000
H1121	H112	0.838100	0.866500	0.606400
C1721	C172	0.497700	0.573300	0.092900
H1131	H113	0.479500	0.544300	0.114000
C1731	C173	0.287700	0.507600	0.848100
C1741	C174	0.784200	0.710700	0.321900
H1141	H114	0.822300	0.680400	0.343700
C1751	C175	0.221900	0.483200	0.816600
H1151	H115	0.197800	0.459400	0.834800
C1761	C176	0.556200	0.617000	0.120300
H1161	H116	0.576000	0.618100	0.160500
C1771	C177	0.697700	0.802600	0.315000
H1171	H117	0.676400	0.835300	0.331800
C1781	C178	0.671300	0.792800	0.255700
H1181	H118	0.631800	0.820200	0.233000
C1791	C179	0.754200	0.704700	0.262600
H1191	H119	0.773200	0.670000	0.245000
C1801	C180	0.287900	0.552900	0.759700
H1201	H120	0.310900	0.576800	0.740500
N491	N49	0.060490	0.614900	0.587910
N501	N50	0.704520	0.969700	0.583300
N511	N51	0.699300	0.746300	0.229000
N521	N52	0.846760	0.732200	0.440610
N531	N53	0.852140	0.789800	0.527580
N541	N54	0.761760	0.822000	0.437180
N551	N55	0.586440	0.657900	0.092720
N561	N56	0.219700	0.313000	0.078360
N571	N57	0.224100	0.528800	0.728310
N581	N58	0.377240	0.537400	0.941390
N591	N59	0.373790	0.488600	0.027000
N601	N60	0.288410	0.450400	0.935250
Ag111	Ag11	0.655860	0.042270	0.632090
Ag121	Ag12	0.177060	0.247770	0.132720
C1811	C181	0.376000	0.242700	0.497500
C1821	C182	0.722000	0.862300	0.990700
H1211	H121	0.701100	0.866200	0.950700
C1831	C183	0.902400	0.030300	0.999100
C1841	C184	0.265100	0.435300	0.611700
H1221	H122	0.287200	0.442600	0.651500
C1851	C185	0.202100	0.415600	0.495100
H1231	H123	0.179700	0.411000	0.455100
C1861	C186	0.466700	0.187800	0.588900
H1241	H124	0.445200	0.209200	0.610100
C1871	C187	0.440000	0.197600	0.529900
C1881	C188	0.056400	0.156900	0.035200
H1251	H125	0.076600	0.184700	0.015200
C1891	C189	0.996600	0.116500	0.003600
H1261	H126	0.976900	0.118100	0.963400
C1901	C190	0.780300	0.848000	0.107800
H1271	H127	0.800500	0.843300	0.147900
C1911	C191	0.290100	0.272900	0.412400
C1921	C192	0.966800	0.073600	0.033100
C1931	C193	0.820800	0.043800	0.818500
H1281	H128	0.864800	0.061700	0.838400
C1941	C194	0.256700	0.262300	0.348600
C1951	C195	0.473800	0.164500	0.500200
H1291	H129	0.456500	0.169300	0.460300
C1961	C196	0.817700	0.948100	0.993300
C1971	C197	0.819800	0.998000	0.911900
C1981	C198	0.784600	0.898600	0.022500
C1991	C199	0.813900	0.890600	0.081400
H1301	H130	0.855800	0.913400	0.103400
C2001	C200	0.526400	0.145300	0.615800
H1311	H131	0.543700	0.137400	0.655600
C2011	C201	0.174300	0.459200	0.526000
H1321	H132	0.132200	0.482400	0.505700
C2021	C202	0.533000	0.124500	0.530500
H1331	H133	0.555400	0.102800	0.510100
C2031	C203	0.691700	0.820400	0.020400
H1341	H134	0.650100	0.796300	0.999300
C2041	C204	0.294400	0.327600	0.494800
C2051	C205	0.264200	0.379100	0.525400
C2061	C206	0.692700	0.995100	0.757300
H1351	H135	0.648400	0.978600	0.736500
C2071	C207	0.296300	0.389700	0.585000
H1361	H136	0.338100	0.366500	0.606400
C2081	C208	0.997700	0.073300	0.092900
H1371	H137	0.979500	0.044300	0.114000
C2091	C209	0.787700	0.007600	0.848100
C2101	C210	0.284200	0.210700	0.321900
H1381	H138	0.322300	0.180400	0.343700
C2111	C211	0.721900	0.983200	0.816600
H1391	H139	0.697800	0.959400	0.834800
C2121	C212	0.056200	0.117000	0.120300
H1401	H140	0.076000	0.118100	0.160500
C2131	C213	0.197700	0.302600	0.315000
H1411	H141	0.176400	0.335300	0.331800
C2141	C214	0.171300	0.292800	0.255700
H1421	H142	0.131800	0.320200	0.233000
C2151	C215	0.254200	0.204700	0.262600
H1431	H143	0.273200	0.170000	0.245000
C2161	C216	0.787900	0.052900	0.759700
H1441	H144	0.810900	0.076800	0.740500
N611	N61	0.560490	0.114900	0.587910
N621	N62	0.204520	0.469700	0.583300
N631	N63	0.199300	0.246300	0.229000
N641	N64	0.346760	0.232200	0.440610
N651	N65	0.352140	0.289800	0.527580
N661	N66	0.261760	0.322000	0.437180
N671	N67	0.086440	0.157900	0.092720
N681	N68	0.719700	0.813000	0.078360
N691	N69	0.724100	0.028800	0.728310
N701	N70	0.877240	0.037400	0.941390
N711	N71	0.873790	0.988600	0.027000
N721	N72	0.788410	0.950400	0.935250
Ag131	Ag13	0.844140	0.542270	0.867910
Ag141	Ag14	0.322940	0.747770	0.367280
C2171	C217	0.124000	0.742700	0.002500
C2181	C218	0.778000	0.362300	0.509300
H1451	H145	0.798900	0.366200	0.549300
C2191	C219	0.597600	0.530300	0.500900
C2201	C220	0.234900	0.935300	0.888300
H1461	H146	0.212800	0.942600	0.848500
C2211	C221	0.297900	0.915600	0.004900
H1471	H147	0.320300	0.911000	0.044900
C2221	C222	0.033300	0.687800	0.911100
H1481	H148	0.054800	0.709200	0.889900
C2231	C223	0.060000	0.697600	0.970100
C2241	C224	0.443600	0.656900	0.464800
H1491	H149	0.423400	0.684700	0.484800
C2251	C225	0.503400	0.616500	0.496400
H1501	H150	0.523100	0.618100	0.536600
C2261	C226	0.719700	0.348000	0.392200
H1511	H151	0.699500	0.343300	0.352100
C2271	C227	0.209900	0.772900	0.087600
C2281	C228	0.533200	0.573600	0.466900
C2291	C229	0.679200	0.543800	0.681500
H1521	H152	0.635200	0.561700	0.661600
C2301	C230	0.243300	0.762300	0.151400
C2311	C231	0.026200	0.664500	0.999800
H1531	H153	0.043500	0.669300	0.039700
C2321	C232	0.682300	0.448100	0.506700
C2331	C233	0.680200	0.498000	0.588100
C2341	C234	0.715400	0.398600	0.477500
C2351	C235	0.686100	0.390600	0.418600
H1541	H154	0.644200	0.413400	0.396600
C2361	C236	0.973600	0.645300	0.884200
H1551	H155	0.956300	0.637400	0.844400
C2371	C237	0.325700	0.959200	0.974000
H1561	H156	0.367800	0.982400	0.994300
C2381	C238	0.967000	0.624500	0.969500
H1571	H157	0.944600	0.602800	0.989900
C2391	C239	0.808300	0.320400	0.479600
H1581	H158	0.849900	0.296300	0.500700
C2401	C240	0.205600	0.827600	0.005200
C2411	C241	0.235800	0.879100	0.974600
C2421	C242	0.807300	0.495100	0.742700
H1591	H159	0.851600	0.478600	0.763500
C2431	C243	0.203700	0.889700	0.915000
H1601	H160	0.161900	0.866500	0.893600
C2441	C244	0.502300	0.573300	0.407100
H1611	H161	0.520500	0.544300	0.386000
C2451	C245	0.712300	0.507600	0.651900
C2461	C246	0.215800	0.710700	0.178100
H1621	H162	0.177700	0.680400	0.156300
C2471	C247	0.778100	0.483200	0.683400
H1631	H163	0.802200	0.459400	0.665200
C2481	C248	0.443800	0.617000	0.379700
H1641	H164	0.424000	0.618100	0.339500
C2491	C249	0.302300	0.802600	0.185000
H1651	H165	0.323600	0.835300	0.168200
C2501	C250	0.328700	0.792800	0.244300
H1661	H166	0.368200	0.820200	0.267000
C2511	C251	0.245800	0.704700	0.237400
H1671	H167	0.226800	0.670000	0.255000
C2521	C252	0.712100	0.552900	0.740300
H1681	H168	0.689100	0.576800	0.759500
N731	N73	0.939510	0.614900	0.912090
N741	N74	0.295480	0.969700	0.916700
N751	N75	0.300700	0.746300	0.271000
N761	N76	0.153240	0.732200	0.059390
N771	N77	0.147860	0.789800	0.972420
N781	N78	0.238240	0.822000	0.062820
N791	N79	0.413560	0.657900	0.407280
N801	N80	0.780300	0.313000	0.421640
N811	N81	0.775900	0.528800	0.771690
N821	N82	0.622760	0.537400	0.558610
N831	N83	0.626210	0.488600	0.473000
N841	N84	0.711590	0.450400	0.564750
Ag151	Ag15	0.344140	0.042270	0.867910
Ag161	Ag16	0.822940	0.247770	0.367280
C2531	C253	0.624000	0.242700	0.002500
C2541	C254	0.278000	0.862300	0.509300
H1691	H169	0.298900	0.866200	0.549300
C2551	C255	0.097600	0.030300	0.500900
C2561	C256	0.734900	0.435300	0.888300
H1701	H170	0.712800	0.442600	0.848500
C2571	C257	0.797900	0.415600	0.004900
H1711	H171	0.820300	0.411000	0.044900
C2581	C258	0.533300	0.187800	0.911100
H1721	H172	0.554800	0.209200	0.889900
C2591	C259	0.560000	0.197600	0.970100
C2601	C260	0.943600	0.156900	0.464800
H1731	H173	0.923400	0.184700	0.484800
C2611	C261	0.003400	0.116500	0.496400
H1741	H174	0.023100	0.118100	0.536600
C2621	C262	0.219700	0.848000	0.392200
H1751	H175	0.199500	0.843300	0.352100
C2631	C263	0.709900	0.272900	0.087600
C2641	C264	0.033200	0.073600	0.466900
C2651	C265	0.179200	0.043800	0.681500
H1761	H176	0.135200	0.061700	0.661600
C2661	C266	0.743300	0.262300	0.151400
C2671	C267	0.526200	0.164500	0.999800
H1771	H177	0.543500	0.169300	0.039700
C2681	C268	0.182300	0.948100	0.506700
C2691	C269	0.180200	0.998000	0.588100
C2701	C270	0.215400	0.898600	0.477500
C2711	C271	0.186100	0.890600	0.418600
H1781	H178	0.144200	0.913400	0.396600
C2721	C272	0.473600	0.145300	0.884200
H1791	H179	0.456300	0.137400	0.844400
C2731	C273	0.825700	0.459200	0.974000
H1801	H180	0.867800	0.482400	0.994300
C2741	C274	0.467000	0.124500	0.969500
H1811	H181	0.444600	0.102800	0.989900
C2751	C275	0.308300	0.820400	0.479600
H1821	H182	0.349900	0.796300	0.500700
C2761	C276	0.705600	0.327600	0.005200
C2771	C277	0.735800	0.379100	0.974600
C2781	C278	0.307300	0.995100	0.742700
H1831	H183	0.351600	0.978600	0.763500
C2791	C279	0.703700	0.389700	0.915000
H1841	H184	0.661900	0.366500	0.893600
C2801	C280	0.002300	0.073300	0.407100
H1851	H185	0.020500	0.044300	0.386000
C2811	C281	0.212300	0.007600	0.651900
C2821	C282	0.715800	0.210700	0.178100
H1861	H186	0.677700	0.180400	0.156300
C2831	C283	0.278100	0.983200	0.683400
H1871	H187	0.302200	0.959400	0.665200
C2841	C284	0.943800	0.117000	0.379700
H1881	H188	0.924000	0.118100	0.339500
C2851	C285	0.802300	0.302600	0.185000
H1891	H189	0.823600	0.335300	0.168200
C2861	C286	0.828700	0.292800	0.244300
H1901	H190	0.868200	0.320200	0.267000
C2871	C287	0.745800	0.204700	0.237400
H1911	H191	0.726800	0.170000	0.255000
C2881	C288	0.212100	0.052900	0.740300
H1921	H192	0.189100	0.076800	0.759500
N851	N85	0.439510	0.114900	0.912090
N861	N86	0.795480	0.469700	0.916700
N871	N87	0.800700	0.246300	0.271000
N881	N88	0.653240	0.232200	0.059390
N891	N89	0.647860	0.289800	0.972420
N901	N90	0.738240	0.322000	0.062820
N911	N91	0.913560	0.157900	0.407280
N921	N92	0.280300	0.813000	0.421640
N931	N93	0.275900	0.028800	0.771690
N941	N94	0.122760	0.037400	0.558610
N951	N95	0.126210	0.988600	0.473000
N961	N96	0.211590	0.950400	0.564750
