data_QOFDIA01_freeONLY_PM
_symmetry_space_group_name_H-M	'P1'
_cell_length_a	21.936200
_cell_length_b	16.732900
_cell_length_c	25.571500
_cell_angle_alpha	90.000000
_cell_angle_beta	115.324000
_cell_angle_gamma	90.000000
_symmetry_Int_Tables_number 1

loop_
_symmetry_equiv_pos_as_xyz
'x,y,z'

loop_
_atom_site_label
_atom_site_type_symbol
_atom_site_fract_x
_atom_site_fract_y
_atom_site_fract_z
Ag11	Ag1	0.344280	0.958360	0.367670
Ag21	Ag2	0.321660	0.254050	0.867190
C11	C1	0.597400	0.470500	0.000000
C21	C2	0.123500	0.256300	0.501000
C31	C3	0.032900	0.310900	0.410100
H11	H1	0.054100	0.289700	0.388600
C41	C4	0.720100	0.650300	0.891700
H21	H2	0.700600	0.654000	0.851500
C51	C5	0.060200	0.301400	0.468700
C61	C6	0.502700	0.384400	0.995300
H31	H3	0.522200	0.383700	0.035500
C71	C7	0.532700	0.426100	0.965900
C81	C8	0.297800	0.083900	0.505000
H41	H4	0.319900	0.087500	0.545100
C91	C9	0.443500	0.343800	0.964200
H51	H5	0.423600	0.316300	0.984500
C101	C10	0.681300	0.551500	0.005800
C111	C11	0.209700	0.225300	0.586600
C121	C12	0.776700	0.637600	0.008800
H61	H6	0.797500	0.634800	0.048900
C131	C13	0.236100	0.065800	0.388800
H71	H7	0.214500	0.059100	0.348900
C141	C14	0.711300	0.492900	0.151100
C151	C15	0.242600	0.235900	0.650200
C161	C16	0.025600	0.334700	0.498200
H81	H8	0.042300	0.329500	0.538100
C171	C17	0.967200	0.374500	0.467900
H91	H9	0.945300	0.397000	0.488400
C181	C18	0.679200	0.501700	0.086800
C191	C19	0.714400	0.600600	0.976700
C201	C20	0.205400	0.172500	0.504500
C211	C21	0.678200	0.457200	0.179800
H101	H10	0.634200	0.439200	0.159600
C221	C22	0.235600	0.121900	0.474100
C231	C23	0.325400	0.041000	0.474300
H111	H11	0.367500	0.017700	0.494800
C241	C24	0.686600	0.608400	0.917700
H121	H12	0.645000	0.585400	0.895200
C251	C25	0.973200	0.352400	0.383400
H131	H13	0.955400	0.359200	0.343500
C261	C26	0.204400	0.111200	0.414500
H141	H14	0.162600	0.134400	0.392500
C271	C27	0.501600	0.425400	0.906600
H151	H15	0.519700	0.453900	0.885400
C281	C28	0.805200	0.506200	0.241700
H161	H16	0.849200	0.523800	0.262900
C291	C29	0.806500	0.679000	0.978100
H171	H17	0.848100	0.703200	0.999100
C301	C30	0.710900	0.448200	0.239200
H181	H18	0.687800	0.424400	0.258300
C311	C31	0.777100	0.517600	0.182600
H191	H19	0.801600	0.541100	0.164700
C321	C32	0.443500	0.381900	0.878900
H201	H20	0.424000	0.380100	0.838700
C331	C33	0.215000	0.286800	0.676700
H211	H21	0.176400	0.316100	0.654800
C341	C34	0.301100	0.196500	0.684300
H221	H22	0.322900	0.164300	0.667900
C351	C35	0.326700	0.205700	0.743100
H231	H23	0.365900	0.177900	0.765600
C361	C36	0.245300	0.293500	0.736100
H241	H24	0.227100	0.329100	0.753600
N11	N1	0.295800	0.030800	0.417300
N21	N2	0.939400	0.383400	0.410900
N31	N3	0.300200	0.250900	0.770200
N41	N4	0.148000	0.211000	0.471700
N51	N5	0.152700	0.266900	0.558200
N61	N6	0.237700	0.177100	0.562100
N71	N7	0.779400	0.685700	0.921600
N81	N8	0.413400	0.342000	0.906800
N91	N9	0.774600	0.472500	0.270400
N101	N10	0.625200	0.511600	0.972300
N111	N11	0.622400	0.462600	0.057800
N121	N12	0.710400	0.549200	0.063700
Ag31	Ag3	0.844280	0.458360	0.367670
Ag41	Ag4	0.821660	0.754050	0.867190
C371	C37	0.097400	0.970500	0.000000
C381	C38	0.623500	0.756300	0.501000
C391	C39	0.532900	0.810900	0.410100
H251	H25	0.554100	0.789700	0.388600
C401	C40	0.220100	0.150300	0.891700
H261	H26	0.200600	0.154000	0.851500
C411	C41	0.560200	0.801400	0.468700
C421	C42	0.002700	0.884400	0.995300
H271	H27	0.022200	0.883700	0.035500
C431	C43	0.032700	0.926100	0.965900
C441	C44	0.797800	0.583900	0.505000
H281	H28	0.819900	0.587500	0.545100
C451	C45	0.943500	0.843800	0.964200
H291	H29	0.923600	0.816300	0.984500
C461	C46	0.181300	0.051500	0.005800
C471	C47	0.709700	0.725300	0.586600
C481	C48	0.276700	0.137600	0.008800
H301	H30	0.297500	0.134800	0.048900
C491	C49	0.736100	0.565800	0.388800
H311	H31	0.714500	0.559100	0.348900
C501	C50	0.211300	0.992900	0.151100
C511	C51	0.742600	0.735900	0.650200
C521	C52	0.525600	0.834700	0.498200
H321	H32	0.542300	0.829500	0.538100
C531	C53	0.467200	0.874500	0.467900
H331	H33	0.445300	0.897000	0.488400
C541	C54	0.179200	0.001700	0.086800
C551	C55	0.214400	0.100600	0.976700
C561	C56	0.705400	0.672500	0.504500
C571	C57	0.178200	0.957200	0.179800
H341	H34	0.134200	0.939200	0.159600
C581	C58	0.735600	0.621900	0.474100
C591	C59	0.825400	0.541000	0.474300
H351	H35	0.867500	0.517700	0.494800
C601	C60	0.186600	0.108400	0.917700
H361	H36	0.145000	0.085400	0.895200
C611	C61	0.473200	0.852400	0.383400
H371	H37	0.455400	0.859200	0.343500
C621	C62	0.704400	0.611200	0.414500
H381	H38	0.662600	0.634400	0.392500
C631	C63	0.001600	0.925400	0.906600
H391	H39	0.019700	0.953900	0.885400
C641	C64	0.305200	0.006200	0.241700
H401	H40	0.349200	0.023800	0.262900
C651	C65	0.306500	0.179000	0.978100
H411	H41	0.348100	0.203200	0.999100
C661	C66	0.210900	0.948200	0.239200
H421	H42	0.187800	0.924400	0.258300
C671	C67	0.277100	0.017600	0.182600
H431	H43	0.301600	0.041100	0.164700
C681	C68	0.943500	0.881900	0.878900
H441	H44	0.924000	0.880100	0.838700
C691	C69	0.715000	0.786800	0.676700
H451	H45	0.676400	0.816100	0.654800
C701	C70	0.801100	0.696500	0.684300
H461	H46	0.822900	0.664300	0.667900
C711	C71	0.826700	0.705700	0.743100
H471	H47	0.865900	0.677900	0.765600
C721	C72	0.745300	0.793500	0.736100
H481	H48	0.727100	0.829100	0.753600
N131	N13	0.795800	0.530800	0.417300
N141	N14	0.439400	0.883400	0.410900
N151	N15	0.800200	0.750900	0.770200
N161	N16	0.648000	0.711000	0.471700
N171	N17	0.652700	0.766900	0.558200
N181	N18	0.737700	0.677100	0.562100
N191	N19	0.279400	0.185700	0.921600
N201	N20	0.913400	0.842000	0.906800
N211	N21	0.274600	0.972500	0.270400
N221	N22	0.125200	0.011600	0.972300
N231	N23	0.122400	0.962600	0.057800
N241	N24	0.210400	0.049200	0.063700
Ag51	Ag5	0.655720	0.958360	0.132330
Ag61	Ag6	0.678340	0.254050	0.632810
C731	C73	0.402600	0.470500	0.500000
C741	C74	0.876500	0.256300	0.999000
C751	C75	0.967100	0.310900	0.089900
H491	H49	0.945900	0.289700	0.111400
C761	C76	0.279900	0.650300	0.608300
H501	H50	0.299400	0.654000	0.648500
C771	C77	0.939800	0.301400	0.031300
C781	C78	0.497300	0.384400	0.504700
H511	H51	0.477800	0.383700	0.464500
C791	C79	0.467300	0.426100	0.534100
C801	C80	0.702200	0.083900	0.995000
H521	H52	0.680100	0.087500	0.954900
C811	C81	0.556500	0.343800	0.535800
H531	H53	0.576400	0.316300	0.515500
C821	C82	0.318700	0.551500	0.494200
C831	C83	0.790300	0.225300	0.913400
C841	C84	0.223300	0.637600	0.491200
H541	H54	0.202500	0.634800	0.451100
C851	C85	0.763900	0.065800	0.111200
H551	H55	0.785500	0.059100	0.151100
C861	C86	0.288700	0.492900	0.348900
C871	C87	0.757400	0.235900	0.849800
C881	C88	0.974400	0.334700	0.001800
H561	H56	0.957700	0.329500	0.961900
C891	C89	0.032800	0.374500	0.032100
H571	H57	0.054700	0.397000	0.011600
C901	C90	0.320800	0.501700	0.413200
C911	C91	0.285600	0.600600	0.523300
C921	C92	0.794600	0.172500	0.995500
C931	C93	0.321800	0.457200	0.320200
H581	H58	0.365800	0.439200	0.340400
C941	C94	0.764400	0.121900	0.025900
C951	C95	0.674600	0.041000	0.025700
H591	H59	0.632500	0.017700	0.005200
C961	C96	0.313400	0.608400	0.582300
H601	H60	0.355000	0.585400	0.604800
C971	C97	0.026800	0.352400	0.116600
H611	H61	0.044600	0.359200	0.156500
C981	C98	0.795600	0.111200	0.085500
H621	H62	0.837400	0.134400	0.107500
C991	C99	0.498400	0.425400	0.593400
H631	H63	0.480300	0.453900	0.614600
C1001	C100	0.194800	0.506200	0.258300
H641	H64	0.150800	0.523800	0.237100
C1011	C101	0.193500	0.679000	0.521900
H651	H65	0.151900	0.703200	0.500900
C1021	C102	0.289100	0.448200	0.260800
H661	H66	0.312200	0.424400	0.241700
C1031	C103	0.222900	0.517600	0.317400
H671	H67	0.198400	0.541100	0.335300
C1041	C104	0.556500	0.381900	0.621100
H681	H68	0.576000	0.380100	0.661300
C1051	C105	0.785000	0.286800	0.823300
H691	H69	0.823600	0.316100	0.845200
C1061	C106	0.698900	0.196500	0.815700
H701	H70	0.677100	0.164300	0.832100
C1071	C107	0.673300	0.205700	0.756900
H711	H71	0.634100	0.177900	0.734400
C1081	C108	0.754700	0.293500	0.763900
H721	H72	0.772900	0.329100	0.746400
N251	N25	0.704200	0.030800	0.082700
N261	N26	0.060600	0.383400	0.089100
N271	N27	0.699800	0.250900	0.729800
N281	N28	0.852000	0.211000	0.028300
N291	N29	0.847300	0.266900	0.941800
N301	N30	0.762300	0.177100	0.937900
N311	N31	0.220600	0.685700	0.578400
N321	N32	0.586600	0.342000	0.593200
N331	N33	0.225400	0.472500	0.229600
N341	N34	0.374800	0.511600	0.527700
N351	N35	0.377600	0.462600	0.442200
N361	N36	0.289600	0.549200	0.436300
Ag71	Ag7	0.155720	0.458360	0.132330
Ag81	Ag8	0.178340	0.754050	0.632810
C1091	C109	0.902600	0.970500	0.500000
C1101	C110	0.376500	0.756300	0.999000
C1111	C111	0.467100	0.810900	0.089900
H731	H73	0.445900	0.789700	0.111400
C1121	C112	0.779900	0.150300	0.608300
H741	H74	0.799400	0.154000	0.648500
C1131	C113	0.439800	0.801400	0.031300
C1141	C114	0.997300	0.884400	0.504700
H751	H75	0.977800	0.883700	0.464500
C1151	C115	0.967300	0.926100	0.534100
C1161	C116	0.202200	0.583900	0.995000
H761	H76	0.180100	0.587500	0.954900
C1171	C117	0.056500	0.843800	0.535800
H771	H77	0.076400	0.816300	0.515500
C1181	C118	0.818700	0.051500	0.494200
C1191	C119	0.290300	0.725300	0.913400
C1201	C120	0.723300	0.137600	0.491200
H781	H78	0.702500	0.134800	0.451100
C1211	C121	0.263900	0.565800	0.111200
H791	H79	0.285500	0.559100	0.151100
C1221	C122	0.788700	0.992900	0.348900
C1231	C123	0.257400	0.735900	0.849800
C1241	C124	0.474400	0.834700	0.001800
H801	H80	0.457700	0.829500	0.961900
C1251	C125	0.532800	0.874500	0.032100
H811	H81	0.554700	0.897000	0.011600
C1261	C126	0.820800	0.001700	0.413200
C1271	C127	0.785600	0.100600	0.523300
C1281	C128	0.294600	0.672500	0.995500
C1291	C129	0.821800	0.957200	0.320200
H821	H82	0.865800	0.939200	0.340400
C1301	C130	0.264400	0.621900	0.025900
C1311	C131	0.174600	0.541000	0.025700
H831	H83	0.132500	0.517700	0.005200
C1321	C132	0.813400	0.108400	0.582300
H841	H84	0.855000	0.085400	0.604800
C1331	C133	0.526800	0.852400	0.116600
H851	H85	0.544600	0.859200	0.156500
C1341	C134	0.295600	0.611200	0.085500
H861	H86	0.337400	0.634400	0.107500
C1351	C135	0.998400	0.925400	0.593400
H871	H87	0.980300	0.953900	0.614600
C1361	C136	0.694800	0.006200	0.258300
H881	H88	0.650800	0.023800	0.237100
C1371	C137	0.693500	0.179000	0.521900
H891	H89	0.651900	0.203200	0.500900
C1381	C138	0.789100	0.948200	0.260800
H901	H90	0.812200	0.924400	0.241700
C1391	C139	0.722900	0.017600	0.317400
H911	H91	0.698400	0.041100	0.335300
C1401	C140	0.056500	0.881900	0.621100
H921	H92	0.076000	0.880100	0.661300
C1411	C141	0.285000	0.786800	0.823300
H931	H93	0.323600	0.816100	0.845200
C1421	C142	0.198900	0.696500	0.815700
H941	H94	0.177100	0.664300	0.832100
C1431	C143	0.173300	0.705700	0.756900
H951	H95	0.134100	0.677900	0.734400
C1441	C144	0.254700	0.793500	0.763900
H961	H96	0.272900	0.829100	0.746400
N371	N37	0.204200	0.530800	0.082700
N381	N38	0.560600	0.883400	0.089100
N391	N39	0.199800	0.750900	0.729800
N401	N40	0.352000	0.711000	0.028300
N411	N41	0.347300	0.766900	0.941800
N421	N42	0.262300	0.677100	0.937900
N431	N43	0.720600	0.185700	0.578400
N441	N44	0.086600	0.842000	0.593200
N451	N45	0.725400	0.972500	0.229600
N461	N46	0.874800	0.011600	0.527700
N471	N47	0.877600	0.962600	0.442200
N481	N48	0.789600	0.049200	0.436300
Ag91	Ag9	0.655720	0.041640	0.632330
Ag101	Ag10	0.678340	0.745950	0.132810
C1451	C145	0.402600	0.529500	0.000000
C1461	C146	0.876500	0.743700	0.499000
C1471	C147	0.967100	0.689100	0.589900
H971	H97	0.945900	0.710300	0.611400
C1481	C148	0.279900	0.349700	0.108300
H981	H98	0.299400	0.346000	0.148500
C1491	C149	0.939800	0.698600	0.531300
C1501	C150	0.497300	0.615600	0.004700
H991	H99	0.477800	0.616300	0.964500
C1511	C151	0.467300	0.573900	0.034100
C1521	C152	0.702200	0.916100	0.495000
H1001	H100	0.680100	0.912500	0.454900
C1531	C153	0.556500	0.656200	0.035800
H1011	H101	0.576400	0.683700	0.015500
C1541	C154	0.318700	0.448500	0.994200
C1551	C155	0.790300	0.774700	0.413400
C1561	C156	0.223300	0.362400	0.991200
H1021	H102	0.202500	0.365200	0.951100
C1571	C157	0.763900	0.934200	0.611200
H1031	H103	0.785500	0.940900	0.651100
C1581	C158	0.288700	0.507100	0.848900
C1591	C159	0.757400	0.764100	0.349800
C1601	C160	0.974400	0.665300	0.501800
H1041	H104	0.957700	0.670500	0.461900
C1611	C161	0.032800	0.625500	0.532100
H1051	H105	0.054700	0.603000	0.511600
C1621	C162	0.320800	0.498300	0.913200
C1631	C163	0.285600	0.399400	0.023300
C1641	C164	0.794600	0.827500	0.495500
C1651	C165	0.321800	0.542800	0.820200
H1061	H106	0.365800	0.560800	0.840400
C1661	C166	0.764400	0.878100	0.525900
C1671	C167	0.674600	0.959000	0.525700
H1071	H107	0.632500	0.982300	0.505200
C1681	C168	0.313400	0.391600	0.082300
H1081	H108	0.355000	0.414600	0.104800
C1691	C169	0.026800	0.647600	0.616600
H1091	H109	0.044600	0.640800	0.656500
C1701	C170	0.795600	0.888800	0.585500
H1101	H110	0.837400	0.865600	0.607500
C1711	C171	0.498400	0.574600	0.093400
H1111	H111	0.480300	0.546100	0.114600
C1721	C172	0.194800	0.493800	0.758300
H1121	H112	0.150800	0.476200	0.737100
C1731	C173	0.193500	0.321000	0.021900
H1131	H113	0.151900	0.296800	0.000900
C1741	C174	0.289100	0.551800	0.760800
H1141	H114	0.312200	0.575600	0.741700
C1751	C175	0.222900	0.482400	0.817400
H1151	H115	0.198400	0.458900	0.835300
C1761	C176	0.556500	0.618100	0.121100
H1161	H116	0.576000	0.619900	0.161300
C1771	C177	0.785000	0.713200	0.323300
H1171	H117	0.823600	0.683900	0.345200
C1781	C178	0.698900	0.803500	0.315700
H1181	H118	0.677100	0.835700	0.332100
C1791	C179	0.673300	0.794300	0.256900
H1191	H119	0.634100	0.822100	0.234400
C1801	C180	0.754700	0.706500	0.263900
H1201	H120	0.772900	0.670900	0.246400
N491	N49	0.704200	0.969200	0.582700
N501	N50	0.060600	0.616600	0.589100
N511	N51	0.699800	0.749100	0.229800
N521	N52	0.852000	0.789000	0.528300
N531	N53	0.847300	0.733100	0.441800
N541	N54	0.762300	0.822900	0.437900
N551	N55	0.220600	0.314300	0.078400
N561	N56	0.586600	0.658000	0.093200
N571	N57	0.225400	0.527500	0.729600
N581	N58	0.374800	0.488400	0.027700
N591	N59	0.377600	0.537400	0.942200
N601	N60	0.289600	0.450800	0.936300
Ag111	Ag11	0.155720	0.541640	0.632330
Ag121	Ag12	0.178340	0.245950	0.132810
C1811	C181	0.902600	0.029500	0.000000
C1821	C182	0.376500	0.243700	0.499000
C1831	C183	0.467100	0.189100	0.589900
H1211	H121	0.445900	0.210300	0.611400
C1841	C184	0.779900	0.849700	0.108300
H1221	H122	0.799400	0.846000	0.148500
C1851	C185	0.439800	0.198600	0.531300
C1861	C186	0.997300	0.115600	0.004700
H1231	H123	0.977800	0.116300	0.964500
C1871	C187	0.967300	0.073900	0.034100
C1881	C188	0.202200	0.416100	0.495000
H1241	H124	0.180100	0.412500	0.454900
C1891	C189	0.056500	0.156200	0.035800
H1251	H125	0.076400	0.183700	0.015500
C1901	C190	0.818700	0.948500	0.994200
C1911	C191	0.290300	0.274700	0.413400
C1921	C192	0.723300	0.862400	0.991200
H1261	H126	0.702500	0.865200	0.951100
C1931	C193	0.263900	0.434200	0.611200
H1271	H127	0.285500	0.440900	0.651100
C1941	C194	0.788700	0.007100	0.848900
C1951	C195	0.257400	0.264100	0.349800
C1961	C196	0.474400	0.165300	0.501800
H1281	H128	0.457700	0.170500	0.461900
C1971	C197	0.532800	0.125500	0.532100
H1291	H129	0.554700	0.103000	0.511600
C1981	C198	0.820800	0.998300	0.913200
C1991	C199	0.785600	0.899400	0.023300
C2001	C200	0.294600	0.327500	0.495500
C2011	C201	0.821800	0.042800	0.820200
H1301	H130	0.865800	0.060800	0.840400
C2021	C202	0.264400	0.378100	0.525900
C2031	C203	0.174600	0.459000	0.525700
H1311	H131	0.132500	0.482300	0.505200
C2041	C204	0.813400	0.891600	0.082300
H1321	H132	0.855000	0.914600	0.104800
C2051	C205	0.526800	0.147600	0.616600
H1331	H133	0.544600	0.140800	0.656500
C2061	C206	0.295600	0.388800	0.585500
H1341	H134	0.337400	0.365600	0.607500
C2071	C207	0.998400	0.074600	0.093400
H1351	H135	0.980300	0.046100	0.114600
C2081	C208	0.694800	0.993800	0.758300
H1361	H136	0.650800	0.976200	0.737100
C2091	C209	0.693500	0.821000	0.021900
H1371	H137	0.651900	0.796800	0.000900
C2101	C210	0.789100	0.051800	0.760800
H1381	H138	0.812200	0.075600	0.741700
C2111	C211	0.722900	0.982400	0.817400
H1391	H139	0.698400	0.958900	0.835300
C2121	C212	0.056500	0.118100	0.121100
H1401	H140	0.076000	0.119900	0.161300
C2131	C213	0.285000	0.213200	0.323300
H1411	H141	0.323600	0.183900	0.345200
C2141	C214	0.198900	0.303500	0.315700
H1421	H142	0.177100	0.335700	0.332100
C2151	C215	0.173300	0.294300	0.256900
H1431	H143	0.134100	0.322100	0.234400
C2161	C216	0.254700	0.206500	0.263900
H1441	H144	0.272900	0.170900	0.246400
N611	N61	0.204200	0.469200	0.582700
N621	N62	0.560600	0.116600	0.589100
N631	N63	0.199800	0.249100	0.229800
N641	N64	0.352000	0.289000	0.528300
N651	N65	0.347300	0.233100	0.441800
N661	N66	0.262300	0.322900	0.437900
N671	N67	0.720600	0.814300	0.078400
N681	N68	0.086600	0.158000	0.093200
N691	N69	0.725400	0.027500	0.729600
N701	N70	0.874800	0.988400	0.027700
N711	N71	0.877600	0.037400	0.942200
N721	N72	0.789600	0.950800	0.936300
Ag131	Ag13	0.344280	0.041640	0.867670
Ag141	Ag14	0.321660	0.745950	0.367190
C2171	C217	0.597400	0.529500	0.500000
C2181	C218	0.123500	0.743700	0.001000
C2191	C219	0.032900	0.689100	0.910100
H1451	H145	0.054100	0.710300	0.888600
C2201	C220	0.720100	0.349700	0.391700
H1461	H146	0.700600	0.346000	0.351500
C2211	C221	0.060200	0.698600	0.968700
C2221	C222	0.502700	0.615600	0.495300
H1471	H147	0.522200	0.616300	0.535500
C2231	C223	0.532700	0.573900	0.465900
C2241	C224	0.297800	0.916100	0.005000
H1481	H148	0.319900	0.912500	0.045100
C2251	C225	0.443500	0.656200	0.464200
H1491	H149	0.423600	0.683700	0.484500
C2261	C226	0.681300	0.448500	0.505800
C2271	C227	0.209700	0.774700	0.086600
C2281	C228	0.776700	0.362400	0.508800
H1501	H150	0.797500	0.365200	0.548900
C2291	C229	0.236100	0.934200	0.888800
H1511	H151	0.214500	0.940900	0.848900
C2301	C230	0.711300	0.507100	0.651100
C2311	C231	0.242600	0.764100	0.150200
C2321	C232	0.025600	0.665300	0.998200
H1521	H152	0.042300	0.670500	0.038100
C2331	C233	0.967200	0.625500	0.967900
H1531	H153	0.945300	0.603000	0.988400
C2341	C234	0.679200	0.498300	0.586800
C2351	C235	0.714400	0.399400	0.476700
C2361	C236	0.205400	0.827500	0.004500
C2371	C237	0.678200	0.542800	0.679800
H1541	H154	0.634200	0.560800	0.659600
C2381	C238	0.235600	0.878100	0.974100
C2391	C239	0.325400	0.959000	0.974300
H1551	H155	0.367500	0.982300	0.994800
C2401	C240	0.686600	0.391600	0.417700
H1561	H156	0.645000	0.414600	0.395200
C2411	C241	0.973200	0.647600	0.883400
H1571	H157	0.955400	0.640800	0.843500
C2421	C242	0.204400	0.888800	0.914500
H1581	H158	0.162600	0.865600	0.892500
C2431	C243	0.501600	0.574600	0.406600
H1591	H159	0.519700	0.546100	0.385400
C2441	C244	0.805200	0.493800	0.741700
H1601	H160	0.849200	0.476200	0.762900
C2451	C245	0.806500	0.321000	0.478100
H1611	H161	0.848100	0.296800	0.499100
C2461	C246	0.710900	0.551800	0.739200
H1621	H162	0.687800	0.575600	0.758300
C2471	C247	0.777100	0.482400	0.682600
H1631	H163	0.801600	0.458900	0.664700
C2481	C248	0.443500	0.618100	0.378900
H1641	H164	0.424000	0.619900	0.338700
C2491	C249	0.215000	0.713200	0.176700
H1651	H165	0.176400	0.683900	0.154800
C2501	C250	0.301100	0.803500	0.184300
H1661	H166	0.322900	0.835700	0.167900
C2511	C251	0.326700	0.794300	0.243100
H1671	H167	0.365900	0.822100	0.265600
C2521	C252	0.245300	0.706500	0.236100
H1681	H168	0.227100	0.670900	0.253600
N731	N73	0.295800	0.969200	0.917300
N741	N74	0.939400	0.616600	0.910900
N751	N75	0.300200	0.749100	0.270200
N761	N76	0.148000	0.789000	0.971700
N771	N77	0.152700	0.733100	0.058200
N781	N78	0.237700	0.822900	0.062100
N791	N79	0.779400	0.314300	0.421600
N801	N80	0.413400	0.658000	0.406800
N811	N81	0.774600	0.527500	0.770400
N821	N82	0.625200	0.488400	0.472300
N831	N83	0.622400	0.537400	0.557800
N841	N84	0.710400	0.450800	0.563700
Ag151	Ag15	0.844280	0.541640	0.867670
Ag161	Ag16	0.821660	0.245950	0.367190
C2531	C253	0.097400	0.029500	0.500000
C2541	C254	0.623500	0.243700	0.001000
C2551	C255	0.532900	0.189100	0.910100
H1691	H169	0.554100	0.210300	0.888600
C2561	C256	0.220100	0.849700	0.391700
H1701	H170	0.200600	0.846000	0.351500
C2571	C257	0.560200	0.198600	0.968700
C2581	C258	0.002700	0.115600	0.495300
H1711	H171	0.022200	0.116300	0.535500
C2591	C259	0.032700	0.073900	0.465900
C2601	C260	0.797800	0.416100	0.005000
H1721	H172	0.819900	0.412500	0.045100
C2611	C261	0.943500	0.156200	0.464200
H1731	H173	0.923600	0.183700	0.484500
C2621	C262	0.181300	0.948500	0.505800
C2631	C263	0.709700	0.274700	0.086600
C2641	C264	0.276700	0.862400	0.508800
H1741	H174	0.297500	0.865200	0.548900
C2651	C265	0.736100	0.434200	0.888800
H1751	H175	0.714500	0.440900	0.848900
C2661	C266	0.211300	0.007100	0.651100
C2671	C267	0.742600	0.264100	0.150200
C2681	C268	0.525600	0.165300	0.998200
H1761	H176	0.542300	0.170500	0.038100
C2691	C269	0.467200	0.125500	0.967900
H1771	H177	0.445300	0.103000	0.988400
C2701	C270	0.179200	0.998300	0.586800
C2711	C271	0.214400	0.899400	0.476700
C2721	C272	0.705400	0.327500	0.004500
C2731	C273	0.178200	0.042800	0.679800
H1781	H178	0.134200	0.060800	0.659600
C2741	C274	0.735600	0.378100	0.974100
C2751	C275	0.825400	0.459000	0.974300
H1791	H179	0.867500	0.482300	0.994800
C2761	C276	0.186600	0.891600	0.417700
H1801	H180	0.145000	0.914600	0.395200
C2771	C277	0.473200	0.147600	0.883400
H1811	H181	0.455400	0.140800	0.843500
C2781	C278	0.704400	0.388800	0.914500
H1821	H182	0.662600	0.365600	0.892500
C2791	C279	0.001600	0.074600	0.406600
H1831	H183	0.019700	0.046100	0.385400
C2801	C280	0.305200	0.993800	0.741700
H1841	H184	0.349200	0.976200	0.762900
C2811	C281	0.306500	0.821000	0.478100
H1851	H185	0.348100	0.796800	0.499100
C2821	C282	0.210900	0.051800	0.739200
H1861	H186	0.187800	0.075600	0.758300
C2831	C283	0.277100	0.982400	0.682600
H1871	H187	0.301600	0.958900	0.664700
C2841	C284	0.943500	0.118100	0.378900
H1881	H188	0.924000	0.119900	0.338700
C2851	C285	0.715000	0.213200	0.176700
H1891	H189	0.676400	0.183900	0.154800
C2861	C286	0.801100	0.303500	0.184300
H1901	H190	0.822900	0.335700	0.167900
C2871	C287	0.826700	0.294300	0.243100
H1911	H191	0.865900	0.322100	0.265600
C2881	C288	0.745300	0.206500	0.236100
H1921	H192	0.727100	0.170900	0.253600
N851	N85	0.795800	0.469200	0.917300
N861	N86	0.439400	0.116600	0.910900
N871	N87	0.800200	0.249100	0.270200
N881	N88	0.648000	0.289000	0.971700
N891	N89	0.652700	0.233100	0.058200
N901	N90	0.737700	0.322900	0.062100
N911	N91	0.279400	0.814300	0.421600
N921	N92	0.913400	0.158000	0.406800
N931	N93	0.274600	0.027500	0.770400
N941	N94	0.125200	0.988400	0.472300
N951	N95	0.122400	0.037400	0.557800
N961	N96	0.210400	0.950800	0.563700
