data_QOFPAE_freeONLY_PM
_symmetry_space_group_name_H-M	'P1'
_cell_length_a	9.515200
_cell_length_b	33.144000
_cell_length_c	9.656900
_cell_angle_alpha	90.000000
_cell_angle_beta	93.211000
_cell_angle_gamma	90.000000
_symmetry_Int_Tables_number 1

loop_
_symmetry_equiv_pos_as_xyz
'x,y,z'

loop_
_atom_site_label
_atom_site_type_symbol
_atom_site_fract_x
_atom_site_fract_y
_atom_site_fract_z
U11	U1	0.080500	0.240210	0.663360
U21	U2	0.181490	0.240600	0.266700
U31	U3	0.549400	0.007360	0.799800
U41	U4	0.949240	0.007630	0.695370
U51	U5	0.644020	0.130480	0.442880
P11	P1	0.711600	0.020240	0.458700
P21	P2	0.428200	0.221730	0.494900
P31	P3	0.785000	0.021180	0.038700
P41	P4	0.831900	0.230740	0.432900
O11	O1	0.759000	0.259200	0.331300
O21	O2	0.616100	0.989800	0.384400
O31	O3	0.699100	0.017800	0.617900
O41	O4	0.883000	0.994800	0.126600
O51	O5	0.435800	0.236900	0.344900
O61	O6	0.802000	0.016900	0.882800
O71	O7	0.828100	0.247000	0.583900
O81	O8	0.994400	0.230300	0.415000
O91	O9	0.503100	0.251000	0.593900
O101	O10	0.265400	0.223800	0.512600
O111	O11	0.868100	0.007500	0.448400
O121	O12	0.480300	0.179600	0.512100
O131	O13	0.631700	0.008800	0.052000
O141	O14	0.521500	0.059000	0.816500
O151	O15	0.978700	0.059500	0.681500
O161	O16	0.183100	0.292300	0.308700
O171	O17	0.918900	0.955300	0.706600
O181	O18	0.048500	0.189300	0.698500
O191	O19	0.685400	0.061400	0.405000
O201	O20	0.582300	0.955200	0.784600
O211	O21	0.177900	0.188000	0.230500
O221	O22	0.112100	0.291300	0.619900
O231	O23	0.572100	0.134200	0.274700
O241	O24	0.808000	0.065900	0.080400
O251	O25	0.712100	0.124300	0.615000
O261	O26	0.770800	0.189400	0.421200
O271	O27	0.876900	0.117900	0.332000
O281	O28	0.426900	0.094500	0.504000
U61	U6	0.419500	0.740210	0.836640
U71	U7	0.318510	0.740600	0.233300
U81	U8	0.950600	0.507360	0.700200
U91	U9	0.550760	0.507630	0.804630
U101	U10	0.855980	0.630480	0.057120
P51	P5	0.788400	0.520240	0.041300
P61	P6	0.071800	0.721730	0.005100
P71	P7	0.715000	0.521180	0.461300
P81	P8	0.668100	0.730740	0.067100
O291	O29	0.741000	0.759200	0.168700
O301	O30	0.883900	0.489800	0.115600
O311	O31	0.800900	0.517800	0.882100
O321	O32	0.617000	0.494800	0.373400
O331	O33	0.064200	0.736900	0.155100
O341	O34	0.698000	0.516900	0.617200
O351	O35	0.671900	0.747000	0.916100
O361	O36	0.505600	0.730300	0.085000
O371	O37	0.996900	0.751000	0.906100
O381	O38	0.234600	0.723800	0.987400
O391	O39	0.631900	0.507500	0.051600
O401	O40	0.019700	0.679600	0.987900
O411	O41	0.868300	0.508800	0.448000
O421	O42	0.978500	0.559000	0.683500
O431	O43	0.521300	0.559500	0.818500
O441	O44	0.316900	0.792300	0.191300
O451	O45	0.581100	0.455300	0.793400
O461	O46	0.451500	0.689300	0.801500
O471	O47	0.814600	0.561400	0.095000
O481	O48	0.917700	0.455200	0.715400
O491	O49	0.322100	0.688000	0.269500
O501	O50	0.387900	0.791300	0.880100
O511	O51	0.927900	0.634200	0.225300
O521	O52	0.692000	0.565900	0.419600
O531	O53	0.787900	0.624300	0.885000
O541	O54	0.729200	0.689400	0.078800
O551	O55	0.623100	0.617900	0.168000
O561	O56	0.073100	0.594500	0.996000
U111	U11	0.919500	0.759790	0.336640
U121	U12	0.818510	0.759400	0.733300
U131	U13	0.450600	0.992640	0.200200
U141	U14	0.050760	0.992370	0.304630
U151	U15	0.355980	0.869520	0.557120
P91	P9	0.288400	0.979760	0.541300
P101	P10	0.571800	0.778270	0.505100
P111	P11	0.215000	0.978820	0.961300
P121	P12	0.168100	0.769260	0.567100
O571	O57	0.241000	0.740800	0.668700
O581	O58	0.383900	0.010200	0.615600
O591	O59	0.300900	0.982200	0.382100
O601	O60	0.117000	0.005200	0.873400
O611	O61	0.564200	0.763100	0.655100
O621	O62	0.198000	0.983100	0.117200
O631	O63	0.171900	0.753000	0.416100
O641	O64	0.005600	0.769700	0.585000
O651	O65	0.496900	0.749000	0.406100
O661	O66	0.734600	0.776200	0.487400
O671	O67	0.131900	0.992500	0.551600
O681	O68	0.519700	0.820400	0.487900
O691	O69	0.368300	0.991200	0.948000
O701	O70	0.478500	0.941000	0.183500
O711	O71	0.021300	0.940500	0.318500
O721	O72	0.816900	0.707700	0.691300
O731	O73	0.081100	0.044700	0.293400
O741	O74	0.951500	0.810700	0.301500
O751	O75	0.314600	0.938600	0.595000
O761	O76	0.417700	0.044800	0.215400
O771	O77	0.822100	0.812000	0.769500
O781	O78	0.887900	0.708700	0.380100
O791	O79	0.427900	0.865800	0.725300
O801	O80	0.192000	0.934100	0.919600
O811	O81	0.287900	0.875700	0.385000
O821	O82	0.229200	0.810600	0.578800
O831	O83	0.123100	0.882100	0.668000
O841	O84	0.573100	0.905500	0.496000
U161	U16	0.580500	0.259790	0.163360
U171	U17	0.681490	0.259400	0.766700
U181	U18	0.049400	0.492640	0.299800
U191	U19	0.449240	0.492370	0.195370
U201	U20	0.144020	0.369520	0.942880
P131	P13	0.211600	0.479760	0.958700
P141	P14	0.928200	0.278270	0.994900
P151	P15	0.285000	0.478820	0.538700
P161	P16	0.331900	0.269260	0.932900
O851	O85	0.259000	0.240800	0.831300
O861	O86	0.116100	0.510200	0.884400
O871	O87	0.199100	0.482200	0.117900
O881	O88	0.383000	0.505200	0.626600
O891	O89	0.935800	0.263100	0.844900
O901	O90	0.302000	0.483100	0.382800
O911	O91	0.328100	0.253000	0.083900
O921	O92	0.494400	0.269700	0.915000
O931	O93	0.003100	0.249000	0.093900
O941	O94	0.765400	0.276200	0.012600
O951	O95	0.368100	0.492500	0.948400
O961	O96	0.980300	0.320400	0.012100
O971	O97	0.131700	0.491200	0.552000
O981	O98	0.021500	0.441000	0.316500
O991	O99	0.478700	0.440500	0.181500
O1001	O100	0.683100	0.207700	0.808700
O1011	O101	0.418900	0.544700	0.206600
O1021	O102	0.548500	0.310700	0.198500
O1031	O103	0.185400	0.438600	0.905000
O1041	O104	0.082300	0.544800	0.284600
O1051	O105	0.677900	0.312000	0.730500
O1061	O106	0.612100	0.208700	0.119900
O1071	O107	0.072100	0.365800	0.774700
O1081	O108	0.308000	0.434100	0.580400
O1091	O109	0.212100	0.375700	0.115000
O1101	O110	0.270800	0.310600	0.921200
O1111	O111	0.376900	0.382100	0.832000
O1121	O112	0.926900	0.405500	0.004000
