data_QOGZET_freeONLY_PM
_symmetry_space_group_name_H-M	'P1'
_cell_length_a	13.350000
_cell_length_b	13.350000
_cell_length_c	17.843000
_cell_angle_alpha	90.000000
_cell_angle_beta	90.000000
_cell_angle_gamma	120.000000
_symmetry_Int_Tables_number 1

loop_
_symmetry_equiv_pos_as_xyz
'x,y,z'

loop_
_atom_site_label
_atom_site_type_symbol
_atom_site_fract_x
_atom_site_fract_y
_atom_site_fract_z
Ga11	Ga1	0.858860	0.292490	0.039830
P11	P1	0.631630	0.127180	0.946230
H11	H1	0.688000	0.180000	0.884300
P21	P2	0.974450	0.161390	0.129230
H21	H2	0.054000	0.258000	0.160000
O11	O1	0.571400	0.999500	0.926900
O21	O2	0.028000	0.135200	0.060800
O31	O3	0.719000	0.152300	0.008200
O41	O4	0.881900	0.190500	0.107600
O51	O5	0.925600	0.066800	0.188100
O61	O6	0.548400	0.170300	0.963800
O71	O7	0.774600	0.324600	0.117300
O81	O8	0.942400	0.256900	0.957100
H31	H3	0.930000	0.189300	0.967000
H41	H4	0.012700	0.278000	0.948000
Ga21	Ga2	0.707510	0.566370	0.039830
P31	P3	0.872820	0.504450	0.946230
H51	H5	0.820000	0.508000	0.884300
P41	P4	0.838610	0.813060	0.129230
H61	H6	0.742000	0.796000	0.160000
O91	O9	0.000500	0.571900	0.926900
O101	O10	0.864800	0.892800	0.060800
O111	O11	0.847700	0.566700	0.008200
O121	O12	0.809500	0.691400	0.107600
O131	O13	0.933200	0.858800	0.188100
O141	O14	0.829700	0.378100	0.963800
O151	O15	0.675400	0.450000	0.117300
O161	O16	0.743100	0.685500	0.957100
H71	H7	0.810700	0.740700	0.967000
H81	H8	0.722000	0.734700	0.948000
Ga31	Ga3	0.433630	0.141140	0.039830
P51	P5	0.495550	0.368370	0.946230
H91	H9	0.492000	0.312000	0.884300
P61	P6	0.186940	0.025550	0.129230
H101	H10	0.204000	0.946000	0.160000
O171	O17	0.428100	0.428600	0.926900
O181	O18	0.107200	0.972000	0.060800
O191	O19	0.433300	0.281000	0.008200
O201	O20	0.308600	0.118100	0.107600
O211	O21	0.141200	0.074400	0.188100
O221	O22	0.621900	0.451600	0.963800
O231	O23	0.550000	0.225400	0.117300
O241	O24	0.314500	0.057600	0.957100
H111	H11	0.259300	0.070000	0.967000
H121	H12	0.265300	0.987300	0.948000
Ga41	Ga4	0.292490	0.858860	0.460170
P71	P7	0.127180	0.631630	0.553770
H131	H13	0.180000	0.688000	0.615700
P81	P8	0.161390	0.974450	0.370770
H141	H14	0.258000	0.054000	0.340000
O251	O25	0.999500	0.571400	0.573100
O261	O26	0.135200	0.028000	0.439200
O271	O27	0.152300	0.719000	0.491800
O281	O28	0.190500	0.881900	0.392400
O291	O29	0.066800	0.925600	0.311900
O301	O30	0.170300	0.548400	0.536200
O311	O31	0.324600	0.774600	0.382700
O321	O32	0.256900	0.942400	0.542900
H151	H15	0.189300	0.930000	0.533000
H161	H16	0.278000	0.012700	0.552000
Ga51	Ga5	0.566370	0.707510	0.460170
P91	P9	0.504450	0.872820	0.553770
H171	H17	0.508000	0.820000	0.615700
P101	P10	0.813060	0.838610	0.370770
H181	H18	0.796000	0.742000	0.340000
O331	O33	0.571900	0.000500	0.573100
O341	O34	0.892800	0.864800	0.439200
O351	O35	0.566700	0.847700	0.491800
O361	O36	0.691400	0.809500	0.392400
O371	O37	0.858800	0.933200	0.311900
O381	O38	0.378100	0.829700	0.536200
O391	O39	0.450000	0.675400	0.382700
O401	O40	0.685500	0.743100	0.542900
H191	H19	0.740700	0.810700	0.533000
H201	H20	0.734700	0.722000	0.552000
Ga61	Ga6	0.141140	0.433630	0.460170
P111	P11	0.368370	0.495550	0.553770
H211	H21	0.312000	0.492000	0.615700
P121	P12	0.025550	0.186940	0.370770
H221	H22	0.946000	0.204000	0.340000
O411	O41	0.428600	0.428100	0.573100
O421	O42	0.972000	0.107200	0.439200
O431	O43	0.281000	0.433300	0.491800
O441	O44	0.118100	0.308600	0.392400
O451	O45	0.074400	0.141200	0.311900
O461	O46	0.451600	0.621900	0.536200
O471	O47	0.225400	0.550000	0.382700
O481	O48	0.057600	0.314500	0.542900
H231	H23	0.070000	0.259300	0.533000
H241	H24	0.987300	0.265300	0.552000
Ga71	Ga7	0.141140	0.707510	0.960170
P131	P13	0.368370	0.872820	0.053770
H251	H25	0.312000	0.820000	0.115700
P141	P14	0.025550	0.838610	0.870770
H261	H26	0.946000	0.742000	0.840000
O491	O49	0.428600	0.000500	0.073100
O501	O50	0.972000	0.864800	0.939200
O511	O51	0.281000	0.847700	0.991800
O521	O52	0.118100	0.809500	0.892400
O531	O53	0.074400	0.933200	0.811900
O541	O54	0.451600	0.829700	0.036200
O551	O55	0.225400	0.675400	0.882700
O561	O56	0.057600	0.743100	0.042900
H271	H27	0.070000	0.810700	0.033000
H281	H28	0.987300	0.722000	0.052000
Ga81	Ga8	0.292490	0.433630	0.960170
P151	P15	0.127180	0.495550	0.053770
H291	H29	0.180000	0.492000	0.115700
P161	P16	0.161390	0.186940	0.870770
H301	H30	0.258000	0.204000	0.840000
O571	O57	0.999500	0.428100	0.073100
O581	O58	0.135200	0.107200	0.939200
O591	O59	0.152300	0.433300	0.991800
O601	O60	0.190500	0.308600	0.892400
O611	O61	0.066800	0.141200	0.811900
O621	O62	0.170300	0.621900	0.036200
O631	O63	0.324600	0.550000	0.882700
O641	O64	0.256900	0.314500	0.042900
H311	H31	0.189300	0.259300	0.033000
H321	H32	0.278000	0.265300	0.052000
Ga91	Ga9	0.566370	0.858860	0.960170
P171	P17	0.504450	0.631630	0.053770
H331	H33	0.508000	0.688000	0.115700
P181	P18	0.813060	0.974450	0.870770
H341	H34	0.796000	0.054000	0.840000
O651	O65	0.571900	0.571400	0.073100
O661	O66	0.892800	0.028000	0.939200
O671	O67	0.566700	0.719000	0.991800
O681	O68	0.691400	0.881900	0.892400
O691	O69	0.858800	0.925600	0.811900
O701	O70	0.378100	0.548400	0.036200
O711	O71	0.450000	0.774600	0.882700
O721	O72	0.685500	0.942400	0.042900
H351	H35	0.740700	0.930000	0.033000
H361	H36	0.734700	0.012700	0.052000
Ga101	Ga10	0.707510	0.141140	0.539830
P191	P19	0.872820	0.368370	0.446230
H371	H37	0.820000	0.312000	0.384300
P201	P20	0.838610	0.025550	0.629230
H381	H38	0.742000	0.946000	0.660000
O731	O73	0.000500	0.428600	0.426900
O741	O74	0.864800	0.972000	0.560800
O751	O75	0.847700	0.281000	0.508200
O761	O76	0.809500	0.118100	0.607600
O771	O77	0.933200	0.074400	0.688100
O781	O78	0.829700	0.451600	0.463800
O791	O79	0.675400	0.225400	0.617300
O801	O80	0.743100	0.057600	0.457100
H391	H39	0.810700	0.070000	0.467000
H401	H40	0.722000	0.987300	0.448000
Ga111	Ga11	0.433630	0.292490	0.539830
P211	P21	0.495550	0.127180	0.446230
H411	H41	0.492000	0.180000	0.384300
P221	P22	0.186940	0.161390	0.629230
H421	H42	0.204000	0.258000	0.660000
O811	O81	0.428100	0.999500	0.426900
O821	O82	0.107200	0.135200	0.560800
O831	O83	0.433300	0.152300	0.508200
O841	O84	0.308600	0.190500	0.607600
O851	O85	0.141200	0.066800	0.688100
O861	O86	0.621900	0.170300	0.463800
O871	O87	0.550000	0.324600	0.617300
O881	O88	0.314500	0.256900	0.457100
H431	H43	0.259300	0.189300	0.467000
H441	H44	0.265300	0.278000	0.448000
Ga121	Ga12	0.858860	0.566370	0.539830
P231	P23	0.631630	0.504450	0.446230
H451	H45	0.688000	0.508000	0.384300
P241	P24	0.974450	0.813060	0.629230
H461	H46	0.054000	0.796000	0.660000
O891	O89	0.571400	0.571900	0.426900
O901	O90	0.028000	0.892800	0.560800
O911	O91	0.719000	0.566700	0.508200
O921	O92	0.881900	0.691400	0.607600
O931	O93	0.925600	0.858800	0.688100
O941	O94	0.548400	0.378100	0.463800
O951	O95	0.774600	0.450000	0.617300
O961	O96	0.942400	0.685500	0.457100
H471	H47	0.930000	0.740700	0.467000
H481	H48	0.012700	0.734700	0.448000
Ga131	Ga13	0.000000	0.000000	0.250000
Ga141	Ga14	0.000000	0.000000	0.750000
Ga151	Ga15	0.000000	0.000000	0.000000
Ga161	Ga16	0.000000	0.000000	0.500000
P251	P25	0.666670	0.333330	0.137700
H491	H49	0.666670	0.333330	0.211000
P261	P26	0.333330	0.666670	0.362300
H501	H50	0.333330	0.666670	0.289000
P271	P27	0.333330	0.666670	0.862300
H511	H51	0.333330	0.666670	0.789000
P281	P28	0.666670	0.333330	0.637700
H521	H52	0.666670	0.333330	0.711000
