data_QOLVET_freeONLY_PM
_symmetry_space_group_name_H-M	'P1'
_cell_length_a	8.236700
_cell_length_b	9.166400
_cell_length_c	17.550000
_cell_angle_alpha	90.000000
_cell_angle_beta	90.000000
_cell_angle_gamma	90.000000
_symmetry_Int_Tables_number 1

loop_
_symmetry_equiv_pos_as_xyz
'x,y,z'

loop_
_atom_site_label
_atom_site_type_symbol
_atom_site_fract_x
_atom_site_fract_y
_atom_site_fract_z
Al11	Al1	0.860750	0.130910	0.934030
Al21	Al2	0.942240	0.084370	0.166590
Al31	Al3	0.939680	0.585750	0.031640
P11	P1	0.064170	0.414400	0.173250
P21	P2	0.069850	0.907930	0.026270
P31	P3	0.133460	0.367230	0.928800
O11	O1	0.004100	0.263600	0.899100
O21	O2	0.238900	0.420800	0.147600
O31	O3	0.961300	0.966200	0.963900
O41	O4	0.238400	0.295400	0.989300
O51	O5	0.009000	0.258100	0.182200
O61	O6	0.046200	0.488500	0.249000
O71	O7	0.063900	0.004900	0.097400
O81	O8	0.235600	0.413200	0.860200
O91	O9	0.054600	0.505100	0.960400
O101	O10	0.015300	0.758100	0.050600
O111	O11	0.243600	0.900700	0.997800
O121	O12	0.952200	0.485800	0.115300
Al41	Al4	0.639250	0.869090	0.434030
Al51	Al5	0.557760	0.915630	0.666590
Al61	Al6	0.560320	0.414250	0.531640
P41	P4	0.435830	0.585600	0.673250
P51	P5	0.430150	0.092070	0.526270
P61	P6	0.366540	0.632770	0.428800
O131	O13	0.495900	0.736400	0.399100
O141	O14	0.261100	0.579200	0.647600
O151	O15	0.538700	0.033800	0.463900
O161	O16	0.261600	0.704600	0.489300
O171	O17	0.491000	0.741900	0.682200
O181	O18	0.453800	0.511500	0.749000
O191	O19	0.436100	0.995100	0.597400
O201	O20	0.264400	0.586800	0.360200
O211	O21	0.445400	0.494900	0.460400
O221	O22	0.484700	0.241900	0.550600
O231	O23	0.256400	0.099300	0.497800
O241	O24	0.547800	0.514200	0.615300
Al71	Al7	0.139250	0.630910	0.565970
Al81	Al8	0.057760	0.584370	0.333410
Al91	Al9	0.060320	0.085750	0.468360
P71	P7	0.935830	0.914400	0.326750
P81	P8	0.930150	0.407930	0.473730
P91	P9	0.866540	0.867230	0.571200
O251	O25	0.995900	0.763600	0.600900
O261	O26	0.761100	0.920800	0.352400
O271	O27	0.038700	0.466200	0.536100
O281	O28	0.761600	0.795400	0.510700
O291	O29	0.991000	0.758100	0.317800
O301	O30	0.953800	0.988500	0.251000
O311	O31	0.936100	0.504900	0.402600
O321	O32	0.764400	0.913200	0.639800
O331	O33	0.945400	0.005100	0.539600
O341	O34	0.984700	0.258100	0.449400
O351	O35	0.756400	0.400700	0.502200
O361	O36	0.047800	0.985800	0.384700
Al101	Al10	0.360750	0.369090	0.065970
Al111	Al11	0.442240	0.415630	0.833410
Al121	Al12	0.439680	0.914250	0.968360
P101	P10	0.564170	0.085600	0.826750
P111	P11	0.569850	0.592070	0.973730
P121	P12	0.633460	0.132770	0.071200
O371	O37	0.504100	0.236400	0.100900
O381	O38	0.738900	0.079200	0.852400
O391	O39	0.461300	0.533800	0.036100
O401	O40	0.738400	0.204600	0.010700
O411	O41	0.509000	0.241900	0.817800
O421	O42	0.546200	0.011500	0.751000
O431	O43	0.563900	0.495100	0.902600
O441	O44	0.735600	0.086800	0.139800
O451	O45	0.554600	0.994900	0.039600
O461	O46	0.515300	0.741900	0.949400
O471	O47	0.743600	0.599300	0.002200
O481	O48	0.452200	0.014200	0.884700
