data_QOPCEE_freeONLY_PM
_symmetry_space_group_name_H-M	'P1'
_cell_length_a	5.624000
_cell_length_b	10.303000
_cell_length_c	13.269000
_cell_angle_alpha	79.445000
_cell_angle_beta	83.893000
_cell_angle_gamma	76.488000
_symmetry_Int_Tables_number 1

loop_
_symmetry_equiv_pos_as_xyz
'x,y,z'

loop_
_atom_site_label
_atom_site_type_symbol
_atom_site_fract_x
_atom_site_fract_y
_atom_site_fract_z
Mn11	Mn1	0.320400	0.077450	0.405490
Mn21	Mn2	0.600200	0.617500	0.342440
P11	P1	0.512700	0.853400	0.119200
P21	P2	0.739500	0.224300	0.472400
O11	O1	0.330500	0.857000	0.041600
O21	O2	0.771200	0.853400	0.073000
O31	O3	0.514700	0.733300	0.203400
O41	O4	0.553100	0.004400	0.262700
H11	H1	0.630400	0.927000	0.280800
O51	O5	0.982200	0.051600	0.152100
O61	O6	0.087400	0.031900	0.308000
O71	O7	0.617300	0.333400	0.535300
O81	O8	0.008500	0.179000	0.487300
O91	O9	0.608600	0.107400	0.485800
O101	O10	0.830500	0.416700	0.316500
H21	H2	0.979100	0.386500	0.315200
O111	O11	0.304600	0.285800	0.316900
O121	O12	0.363700	0.491200	0.314200
O131	O13	0.907000	0.685000	0.370100
H31	H3	0.018100	0.669400	0.322500
H41	H4	0.960100	0.642800	0.427400
C11	C1	0.409000	0.007000	0.177200
H51	H5	0.435100	0.083000	0.125900
C21	C2	0.140000	0.033500	0.214800
C31	C3	0.707000	0.307100	0.338400
H61	H6	0.774200	0.241500	0.292100
C41	C4	0.437000	0.365200	0.322600
Mn31	Mn3	0.679600	0.922550	0.594510
Mn41	Mn4	0.399800	0.382500	0.657560
P31	P3	0.487300	0.146600	0.880800
P41	P4	0.260500	0.775700	0.527600
O141	O14	0.669500	0.143000	0.958400
O151	O15	0.228800	0.146600	0.927000
O161	O16	0.485300	0.266700	0.796600
O171	O17	0.446900	0.995600	0.737300
H71	H7	0.369600	0.073000	0.719200
O181	O18	0.017800	0.948400	0.847900
O191	O19	0.912600	0.968100	0.692000
O201	O20	0.382700	0.666600	0.464700
O211	O21	0.991500	0.821000	0.512700
O221	O22	0.391400	0.892600	0.514200
O231	O23	0.169500	0.583300	0.683500
H81	H8	0.020900	0.613500	0.684800
O241	O24	0.695400	0.714200	0.683100
O251	O25	0.636300	0.508800	0.685800
O261	O26	0.093000	0.315000	0.629900
H91	H9	0.981900	0.330600	0.677500
H101	H10	0.039900	0.357200	0.572600
C51	C5	0.591000	0.993000	0.822800
H111	H11	0.564900	0.917000	0.874100
C61	C6	0.860000	0.966500	0.785200
C71	C7	0.293000	0.692900	0.661600
H121	H12	0.225800	0.758500	0.707900
C81	C8	0.563000	0.634800	0.677400
Mn51	Mn5	0.000000	0.000000	0.000000
