data_QOPDEE_freeONLY_PM
_symmetry_space_group_name_H-M	'P1'
_cell_length_a	14.319600
_cell_length_b	16.255000
_cell_length_c	8.855200
_cell_angle_alpha	90.000000
_cell_angle_beta	90.134000
_cell_angle_gamma	90.000000
_symmetry_Int_Tables_number 1

loop_
_symmetry_equiv_pos_as_xyz
'x,y,z'

loop_
_atom_site_label
_atom_site_type_symbol
_atom_site_fract_x
_atom_site_fract_y
_atom_site_fract_z
Ga11	Ga1	0.973180	0.129120	0.586790
Ga21	Ga2	0.463460	0.270240	0.365630
Zn11	Zn1	0.131630	0.161460	0.190650
Zn21	Zn2	0.364690	0.038200	0.421920
P11	P1	0.137600	0.031310	0.447370
P21	P2	0.025290	0.212270	0.888040
P31	P3	0.527570	0.131430	0.588000
P41	P4	0.354840	0.152970	0.146620
O11	O1	0.082300	0.066600	0.581400
O21	O2	0.097900	0.063200	0.298800
O31	O3	0.130600	0.936800	0.452400
O41	O4	0.238500	0.056700	0.473500
O51	O5	0.053200	0.153200	0.014100
O61	O6	0.958600	0.165500	0.783800
O71	O7	0.112400	0.239800	0.801500
O81	O8	0.971600	0.285900	0.948500
O91	O9	0.430900	0.092800	0.580200
O101	O10	0.538200	0.198200	0.469000
O111	O11	0.605600	0.072000	0.559300
O121	O12	0.542400	0.167700	0.744900
O131	O13	0.253000	0.145700	0.107000
O141	O14	0.409900	0.156600	0.998200
O151	O15	0.392200	0.076200	0.226100
O161	O16	0.369000	0.228300	0.244700
Ga31	Ga3	0.026820	0.629120	0.913210
Ga41	Ga4	0.536540	0.770240	0.134370
Zn31	Zn3	0.868370	0.661460	0.309350
Zn41	Zn4	0.635310	0.538200	0.078080
P51	P5	0.862400	0.531310	0.052630
P61	P6	0.974710	0.712270	0.611960
P71	P7	0.472430	0.631430	0.912000
P81	P8	0.645160	0.652970	0.353380
O171	O17	0.917700	0.566600	0.918600
O181	O18	0.902100	0.563200	0.201200
O191	O19	0.869400	0.436800	0.047600
O201	O20	0.761500	0.556700	0.026500
O211	O21	0.946800	0.653200	0.485900
O221	O22	0.041400	0.665500	0.716200
O231	O23	0.887600	0.739800	0.698500
O241	O24	0.028400	0.785900	0.551500
O251	O25	0.569100	0.592800	0.919800
O261	O26	0.461800	0.698200	0.031000
O271	O27	0.394400	0.572000	0.940700
O281	O28	0.457600	0.667700	0.755100
O291	O29	0.747000	0.645700	0.393000
O301	O30	0.590100	0.656600	0.501800
O311	O31	0.607800	0.576200	0.273900
O321	O32	0.631000	0.728300	0.255300
Ga51	Ga5	0.026820	0.870880	0.413210
Ga61	Ga6	0.536540	0.729760	0.634370
Zn51	Zn5	0.868370	0.838540	0.809350
Zn61	Zn6	0.635310	0.961800	0.578080
P91	P9	0.862400	0.968690	0.552630
P101	P10	0.974710	0.787730	0.111960
P111	P11	0.472430	0.868570	0.412000
P121	P12	0.645160	0.847030	0.853380
O331	O33	0.917700	0.933400	0.418600
O341	O34	0.902100	0.936800	0.701200
O351	O35	0.869400	0.063200	0.547600
O361	O36	0.761500	0.943300	0.526500
O371	O37	0.946800	0.846800	0.985900
O381	O38	0.041400	0.834500	0.216200
O391	O39	0.887600	0.760200	0.198500
O401	O40	0.028400	0.714100	0.051500
O411	O41	0.569100	0.907200	0.419800
O421	O42	0.461800	0.801800	0.531000
O431	O43	0.394400	0.928000	0.440700
O441	O44	0.457600	0.832300	0.255100
O451	O45	0.747000	0.854300	0.893000
O461	O46	0.590100	0.843400	0.001800
O471	O47	0.607800	0.923800	0.773900
O481	O48	0.631000	0.771700	0.755300
Ga71	Ga7	0.973180	0.370880	0.086790
Ga81	Ga8	0.463460	0.229760	0.865630
Zn71	Zn7	0.131630	0.338540	0.690650
Zn81	Zn8	0.364690	0.461800	0.921920
P131	P13	0.137600	0.468690	0.947370
P141	P14	0.025290	0.287730	0.388040
P151	P15	0.527570	0.368570	0.088000
P161	P16	0.354840	0.347030	0.646620
O491	O49	0.082300	0.433400	0.081400
O501	O50	0.097900	0.436800	0.798800
O511	O51	0.130600	0.563200	0.952400
O521	O52	0.238500	0.443300	0.973500
O531	O53	0.053200	0.346800	0.514100
O541	O54	0.958600	0.334500	0.283800
O551	O55	0.112400	0.260200	0.301500
O561	O56	0.971600	0.214100	0.448500
O571	O57	0.430900	0.407200	0.080200
O581	O58	0.538200	0.301800	0.969000
O591	O59	0.605600	0.428000	0.059300
O601	O60	0.542400	0.332300	0.244900
O611	O61	0.253000	0.354300	0.607000
O621	O62	0.409900	0.343400	0.498200
O631	O63	0.392200	0.423800	0.726100
O641	O64	0.369000	0.271700	0.744700
