data_QOPPOC_freeONLY_PM
_symmetry_space_group_name_H-M	'P1'
_cell_length_a	11.160700
_cell_length_b	11.160700
_cell_length_c	21.978000
_cell_angle_alpha	90.000000
_cell_angle_beta	90.000000
_cell_angle_gamma	90.000000
_symmetry_Int_Tables_number 1

loop_
_symmetry_equiv_pos_as_xyz
'x,y,z'

loop_
_atom_site_label
_atom_site_type_symbol
_atom_site_fract_x
_atom_site_fract_y
_atom_site_fract_z
O11	O1	0.592900	0.145400	0.260150
N11	N1	0.742100	0.125500	0.190700
H11	H1	0.717900	0.053200	0.180600
H21	H2	0.805100	0.157100	0.172600
C11	C1	0.723500	0.304800	0.249000
N21	N2	0.887900	0.407300	0.187970
C21	C2	0.815300	0.362300	0.216960
N31	N3	0.610600	0.414900	0.333000
C31	C3	0.662800	0.367100	0.294900
C41	C4	0.683700	0.187200	0.233100
O21	O2	0.092900	0.645400	0.760150
N41	N4	0.242100	0.625500	0.690700
H31	H3	0.217900	0.553200	0.680600
H41	H4	0.305100	0.657100	0.672600
C51	C5	0.223500	0.804800	0.749000
N51	N5	0.387900	0.907300	0.687970
C61	C6	0.315300	0.862300	0.716960
N61	N6	0.110600	0.914900	0.833000
C71	C7	0.162800	0.867100	0.794900
C81	C8	0.183700	0.687200	0.733100
O31	O3	0.407100	0.854600	0.260150
N71	N7	0.257900	0.874500	0.190700
H51	H5	0.282100	0.946800	0.180600
H61	H6	0.194900	0.842900	0.172600
C91	C9	0.276500	0.695200	0.249000
N81	N8	0.112100	0.592700	0.187970
C101	C10	0.184700	0.637700	0.216960
N91	N9	0.389400	0.585100	0.333000
C111	C11	0.337200	0.632900	0.294900
C121	C12	0.316300	0.812800	0.233100
O41	O4	0.907100	0.354600	0.760150
N101	N10	0.757900	0.374500	0.690700
H71	H7	0.782100	0.446800	0.680600
H81	H8	0.694900	0.342900	0.672600
C131	C13	0.776500	0.195200	0.749000
N111	N11	0.612100	0.092700	0.687970
C141	C14	0.684700	0.137700	0.716960
N121	N12	0.889400	0.085100	0.833000
C151	C15	0.837200	0.132900	0.794900
C161	C16	0.816300	0.312800	0.733100
O51	O5	0.145400	0.407100	0.739850
N131	N13	0.125500	0.257900	0.809300
H91	H9	0.053200	0.282100	0.819400
H101	H10	0.157100	0.194900	0.827400
C171	C17	0.304800	0.276500	0.751000
N141	N14	0.407300	0.112100	0.812030
C181	C18	0.362300	0.184700	0.783040
N151	N15	0.414900	0.389400	0.667000
C191	C19	0.367100	0.337200	0.705100
C201	C20	0.187200	0.316300	0.766900
O61	O6	0.645400	0.907100	0.239850
N161	N16	0.625500	0.757900	0.309300
H111	H11	0.553200	0.782100	0.319400
H121	H12	0.657100	0.694900	0.327400
C211	C21	0.804800	0.776500	0.251000
N171	N17	0.907300	0.612100	0.312030
C221	C22	0.862300	0.684700	0.283040
N181	N18	0.914900	0.889400	0.167000
C231	C23	0.867100	0.837200	0.205100
C241	C24	0.687200	0.816300	0.266900
O71	O7	0.854600	0.592900	0.739850
N191	N19	0.874500	0.742100	0.809300
H131	H13	0.946800	0.717900	0.819400
H141	H14	0.842900	0.805100	0.827400
C251	C25	0.695200	0.723500	0.751000
N201	N20	0.592700	0.887900	0.812030
C261	C26	0.637700	0.815300	0.783040
N211	N21	0.585100	0.610600	0.667000
C271	C27	0.632900	0.662800	0.705100
C281	C28	0.812800	0.683700	0.766900
O81	O8	0.354600	0.092900	0.239850
N221	N22	0.374500	0.242100	0.309300
H151	H15	0.446800	0.217900	0.319400
H161	H16	0.342900	0.305100	0.327400
C291	C29	0.195200	0.223500	0.251000
N231	N23	0.092700	0.387900	0.312030
C301	C30	0.137700	0.315300	0.283040
N241	N24	0.085100	0.110600	0.167000
C311	C31	0.132900	0.162800	0.205100
C321	C32	0.312800	0.183700	0.266900
O91	O9	0.907100	0.145400	0.489850
N251	N25	0.757900	0.125500	0.559300
H171	H17	0.782100	0.053200	0.569400
H181	H18	0.694900	0.157100	0.577400
C331	C33	0.776500	0.304800	0.501000
N261	N26	0.612100	0.407300	0.562030
C341	C34	0.684700	0.362300	0.533040
N271	N27	0.889400	0.414900	0.417000
C351	C35	0.837200	0.367100	0.455100
C361	C36	0.816300	0.187200	0.516900
O101	O10	0.407100	0.645400	0.989850
N281	N28	0.257900	0.625500	0.059300
H191	H19	0.282100	0.553200	0.069400
H201	H20	0.194900	0.657100	0.077400
C371	C37	0.276500	0.804800	0.001000
N291	N29	0.112100	0.907300	0.062030
C381	C38	0.184700	0.862300	0.033040
N301	N30	0.389400	0.914900	0.917000
C391	C39	0.337200	0.867100	0.955100
C401	C40	0.316300	0.687200	0.016900
O111	O11	0.092900	0.854600	0.489850
N311	N31	0.242100	0.874500	0.559300
H211	H21	0.217900	0.946800	0.569400
H221	H22	0.305100	0.842900	0.577400
C411	C41	0.223500	0.695200	0.501000
N321	N32	0.387900	0.592700	0.562030
C421	C42	0.315300	0.637700	0.533040
N331	N33	0.110600	0.585100	0.417000
C431	C43	0.162800	0.632900	0.455100
C441	C44	0.183700	0.812800	0.516900
O121	O12	0.592900	0.354600	0.989850
N341	N34	0.742100	0.374500	0.059300
H231	H23	0.717900	0.446800	0.069400
H241	H24	0.805100	0.342900	0.077400
C451	C45	0.723500	0.195200	0.001000
N351	N35	0.887900	0.092700	0.062030
C461	C46	0.815300	0.137700	0.033040
N361	N36	0.610600	0.085100	0.917000
C471	C47	0.662800	0.132900	0.955100
C481	C48	0.683700	0.312800	0.016900
O131	O13	0.354600	0.407100	0.010150
N371	N37	0.374500	0.257900	0.940700
H251	H25	0.446800	0.282100	0.930600
H261	H26	0.342900	0.194900	0.922600
C491	C49	0.195200	0.276500	0.999000
N381	N38	0.092700	0.112100	0.937970
C501	C50	0.137700	0.184700	0.966960
N391	N39	0.085100	0.389400	0.083000
C511	C51	0.132900	0.337200	0.044900
C521	C52	0.312800	0.316300	0.983100
O141	O14	0.854600	0.907100	0.510150
N401	N40	0.874500	0.757900	0.440700
H271	H27	0.946800	0.782100	0.430600
H281	H28	0.842900	0.694900	0.422600
C531	C53	0.695200	0.776500	0.499000
N411	N41	0.592700	0.612100	0.437970
C541	C54	0.637700	0.684700	0.466960
N421	N42	0.585100	0.889400	0.583000
C551	C55	0.632900	0.837200	0.544900
C561	C56	0.812800	0.816300	0.483100
O151	O15	0.645400	0.592900	0.010150
N431	N43	0.625500	0.742100	0.940700
H291	H29	0.553200	0.717900	0.930600
H301	H30	0.657100	0.805100	0.922600
C571	C57	0.804800	0.723500	0.999000
N441	N44	0.907300	0.887900	0.937970
C581	C58	0.862300	0.815300	0.966960
N451	N45	0.914900	0.610600	0.083000
C591	C59	0.867100	0.662800	0.044900
C601	C60	0.687200	0.683700	0.983100
O161	O16	0.145400	0.092900	0.510150
N461	N46	0.125500	0.242100	0.440700
H311	H31	0.053200	0.217900	0.430600
H321	H32	0.157100	0.305100	0.422600
C611	C61	0.304800	0.223500	0.499000
N471	N47	0.407300	0.387900	0.437970
C621	C62	0.362300	0.315300	0.466960
N481	N48	0.414900	0.110600	0.583000
C631	C63	0.367100	0.162800	0.544900
C641	C64	0.187200	0.183700	0.483100
Cu11	Cu1	0.500000	0.500000	0.388820
Cu21	Cu2	0.000000	0.000000	0.888820
Cu31	Cu3	0.500000	0.500000	0.611180
Cu41	Cu4	0.000000	0.000000	0.111180
Cu51	Cu5	0.000000	0.500000	0.361180
Cu61	Cu6	0.500000	0.000000	0.861180
Cu71	Cu7	0.000000	0.500000	0.138820
Cu81	Cu8	0.500000	0.000000	0.638820
Cu91	Cu9	0.500000	0.000000	0.250000
Cu101	Cu10	0.000000	0.500000	0.750000
Cu111	Cu11	0.000000	0.000000	0.500000
Cu121	Cu12	0.500000	0.500000	0.000000
