data_QOQDAD_freeONLY_PM
_symmetry_space_group_name_H-M	'P1'
_cell_length_a	10.504000
_cell_length_b	12.106000
_cell_length_c	12.411000
_cell_angle_alpha	66.780000
_cell_angle_beta	70.340000
_cell_angle_gamma	65.040000
_symmetry_Int_Tables_number 1

loop_
_symmetry_equiv_pos_as_xyz
'x,y,z'

loop_
_atom_site_label
_atom_site_type_symbol
_atom_site_fract_x
_atom_site_fract_y
_atom_site_fract_z
O11	O1	0.810800	0.591000	0.823000
Co11	Co1	0.840960	0.409530	0.908880
O21	O2	0.822000	0.204500	0.053800
O31	O3	0.697100	0.399000	0.064800
O41	O4	0.801900	0.358000	0.796500
O51	O5	0.568300	0.394800	0.878900
O61	O6	0.571400	0.647900	0.870200
O71	O7	0.820100	0.924300	0.429600
O81	O8	0.810200	0.979500	0.773700
O91	O9	0.805100	0.305500	0.427900
N11	N1	0.266600	0.225300	0.944300
N21	N2	0.047000	0.349200	0.922000
N31	N3	0.818000	0.947100	0.602800
N41	N4	0.814500	0.142500	0.601900
N51	N5	0.818900	0.114800	0.424400
C11	C1	0.812500	0.019900	0.667700
C21	C2	0.810900	0.195500	0.481400
C31	C3	0.816800	0.991300	0.482200
C41	C4	0.496300	0.113400	0.006600
H11	H1	0.493900	0.189100	0.011100
C51	C5	0.385500	0.110900	0.972900
C61	C6	0.680800	0.352000	0.808400
C71	C7	0.133900	0.423400	0.878600
H21	H2	0.103900	0.511500	0.844800
C81	C8	0.835500	0.161600	0.293300
H31	H3	0.894300	0.090300	0.261200
H41	H4	0.886600	0.222000	0.261700
C91	C9	0.268800	0.348400	0.892700
H51	H5	0.347600	0.374600	0.871700
C101	C10	0.672700	0.284900	0.731800
H61	H6	0.614100	0.346500	0.673800
H71	H7	0.626900	0.221600	0.782200
C111	C11	0.738600	0.275800	0.114300
C121	C12	0.387600	0.998200	0.966000
H81	H8	0.312400	0.997000	0.943300
C131	C13	0.130300	0.231400	0.960800
H91	H9	0.099400	0.161200	0.995400
C141	C14	0.820700	0.220000	0.666000
H101	H10	0.862000	0.284400	0.609000
H111	H11	0.882600	0.165600	0.723200
C151	C15	0.696500	0.225300	0.248800
H121	H12	0.648300	0.164300	0.270400
H131	H13	0.632800	0.294300	0.282900
C161	C16	0.677900	0.799700	0.722700
H141	H14	0.617600	0.864900	0.762300
H151	H15	0.634000	0.812500	0.659400
C171	C17	0.685800	0.670100	0.812000
C181	C18	0.824300	0.813900	0.668500
H161	H16	0.876800	0.781500	0.731800
H171	H17	0.876700	0.762300	0.614100
O101	O10	0.189200	0.409000	0.177000
Co21	Co2	0.159040	0.590470	0.091120
O111	O11	0.178000	0.795500	0.946200
O121	O12	0.302900	0.601000	0.935200
O131	O13	0.198100	0.642000	0.203500
O141	O14	0.431700	0.605200	0.121100
O151	O15	0.428600	0.352100	0.129800
O161	O16	0.179900	0.075700	0.570400
O171	O17	0.189800	0.020500	0.226300
O181	O18	0.194900	0.694500	0.572100
N61	N6	0.733400	0.774700	0.055700
N71	N7	0.953000	0.650800	0.078000
N81	N8	0.182000	0.052900	0.397200
N91	N9	0.185500	0.857500	0.398100
N101	N10	0.181100	0.885200	0.575600
C191	C19	0.187500	0.980100	0.332300
C201	C20	0.189100	0.804500	0.518600
C211	C21	0.183200	0.008700	0.517800
C221	C22	0.503700	0.886600	0.993400
H181	H18	0.506100	0.810900	0.988900
C231	C23	0.614500	0.889100	0.027100
C241	C24	0.319200	0.648000	0.191600
C251	C25	0.866100	0.576600	0.121400
H191	H19	0.896100	0.488500	0.155200
C261	C26	0.164500	0.838400	0.706700
H201	H20	0.105700	0.909700	0.738800
H211	H21	0.113400	0.778000	0.738300
C271	C27	0.731200	0.651600	0.107300
H221	H22	0.652400	0.625400	0.128300
C281	C28	0.327300	0.715100	0.268200
H231	H23	0.385900	0.653500	0.326200
H241	H24	0.373100	0.778400	0.217800
C291	C29	0.261400	0.724200	0.885700
C301	C30	0.612400	0.001800	0.034000
H251	H25	0.687600	0.003000	0.056700
C311	C31	0.869700	0.768600	0.039200
H261	H26	0.900600	0.838800	0.004600
C321	C32	0.179300	0.780000	0.334000
H271	H27	0.138000	0.715600	0.391000
H281	H28	0.117400	0.834400	0.276800
C331	C33	0.303500	0.774700	0.751200
H291	H29	0.351700	0.835700	0.729600
H301	H30	0.367200	0.705700	0.717100
C341	C34	0.322100	0.200300	0.277300
H311	H31	0.382400	0.135100	0.237700
H321	H32	0.366000	0.187500	0.340600
C351	C35	0.314200	0.329900	0.188000
C361	C36	0.175700	0.186100	0.331500
H331	H33	0.123200	0.218500	0.268200
H341	H34	0.123300	0.237700	0.385900
Co31	Co3	0.500000	0.500000	0.000000
