data_QOVWOO01_freeONLY_PM
_symmetry_space_group_name_H-M	'P1'
_cell_length_a	19.680100
_cell_length_b	15.116500
_cell_length_c	6.671600
_cell_angle_alpha	90.000000
_cell_angle_beta	103.757000
_cell_angle_gamma	90.000000
_symmetry_Int_Tables_number 1

loop_
_symmetry_equiv_pos_as_xyz
'x,y,z'

loop_
_atom_site_label
_atom_site_type_symbol
_atom_site_fract_x
_atom_site_fract_y
_atom_site_fract_z
Ga11	Ga1	0.496300	0.250000	0.514100
O11	O1	0.499600	0.314700	0.258100
O21	O2	0.000900	0.555300	0.251800
O31	O3	0.915700	0.077700	0.869100
O41	O4	0.931800	0.082100	0.549300
O51	O5	0.555900	0.148500	0.442900
O61	O6	0.586700	0.183600	0.147000
C11	C1	0.818200	0.106300	0.587500
C21	C2	0.770800	0.104500	0.711400
C31	C3	0.699700	0.120100	0.633700
C41	C4	0.674900	0.138200	0.426600
C51	C5	0.721500	0.140000	0.303800
C61	C6	0.792500	0.124500	0.381000
C71	C7	0.893900	0.087800	0.675900
C81	C8	0.600400	0.157300	0.333500
H11	H1	0.787900	0.091300	0.858400
H21	H2	0.667900	0.118600	0.726900
H31	H3	0.703900	0.153400	0.157600
H41	H4	0.824100	0.126200	0.287300
O71	O7	0.408000	0.300300	0.871200
O81	O8	0.435700	0.351800	0.575600
O91	O9	0.056800	0.399300	0.444800
O101	O10	0.088500	0.431400	0.140500
C91	C9	0.317500	0.354800	0.598900
C101	C10	0.266100	0.339000	0.709000
C111	C11	0.194800	0.356000	0.623700
C121	C12	0.176000	0.389300	0.425100
C131	C13	0.226600	0.404900	0.315600
C141	C14	0.297900	0.388200	0.399300
C151	C15	0.393000	0.335000	0.689300
C161	C16	0.101200	0.408500	0.331300
H51	H5	0.280300	0.315200	0.849200
H61	H6	0.159400	0.345100	0.702800
H71	H7	0.212000	0.428800	0.175700
H81	H8	0.333000	0.399500	0.319100
H91	H9	0.495000	0.373700	0.276000
H101	H10	0.995000	0.614600	0.263000
Ga21	Ga2	0.503700	0.750000	0.985900
O111	O11	0.500400	0.814700	0.241900
O121	O12	0.999100	0.055300	0.248200
O131	O13	0.084300	0.577700	0.630900
O141	O14	0.068200	0.582100	0.950700
O151	O15	0.444100	0.648500	0.057100
O161	O16	0.413300	0.683600	0.353000
C171	C17	0.181800	0.606300	0.912500
C181	C18	0.229200	0.604500	0.788600
C191	C19	0.300300	0.620100	0.866300
C201	C20	0.325100	0.638200	0.073400
C211	C21	0.278500	0.640000	0.196200
C221	C22	0.207500	0.624500	0.119000
C231	C23	0.106100	0.587800	0.824100
C241	C24	0.399600	0.657300	0.166500
H111	H11	0.212100	0.591300	0.641600
H121	H12	0.332100	0.618600	0.773100
H131	H13	0.296100	0.653400	0.342400
H141	H14	0.175900	0.626200	0.212700
O171	O17	0.592000	0.800300	0.628800
O181	O18	0.564300	0.851800	0.924400
O191	O19	0.943200	0.899300	0.055200
O201	O20	0.911500	0.931400	0.359500
C251	C25	0.682500	0.854800	0.901100
C261	C26	0.733900	0.839000	0.791000
C271	C27	0.805200	0.856000	0.876300
C281	C28	0.824000	0.889300	0.074900
C291	C29	0.773400	0.904900	0.184400
C301	C30	0.702100	0.888200	0.100700
C311	C31	0.607000	0.835000	0.810700
C321	C32	0.898800	0.908500	0.168700
H151	H15	0.719700	0.815200	0.650800
H161	H16	0.840600	0.845100	0.797200
H171	H17	0.788000	0.928800	0.324300
H181	H18	0.667000	0.899500	0.180900
H191	H19	0.505000	0.873700	0.224000
H201	H20	0.005000	0.114600	0.237000
Ga31	Ga3	0.503700	0.750000	0.485900
O211	O21	0.500400	0.685300	0.741900
O221	O22	0.999100	0.444700	0.748200
O231	O23	0.084300	0.922300	0.130900
O241	O24	0.068200	0.917900	0.450700
O251	O25	0.444100	0.851500	0.557100
O261	O26	0.413300	0.816400	0.853000
C331	C33	0.181800	0.893700	0.412500
C341	C34	0.229200	0.895500	0.288600
C351	C35	0.300300	0.879900	0.366300
C361	C36	0.325100	0.861800	0.573400
C371	C37	0.278500	0.860000	0.696200
C381	C38	0.207500	0.875500	0.619000
C391	C39	0.106100	0.912200	0.324100
C401	C40	0.399600	0.842700	0.666500
H211	H21	0.212100	0.908700	0.141600
H221	H22	0.332100	0.881400	0.273100
H231	H23	0.296100	0.846600	0.842400
H241	H24	0.175900	0.873800	0.712700
O271	O27	0.592000	0.699700	0.128800
O281	O28	0.564300	0.648200	0.424400
O291	O29	0.943200	0.600700	0.555200
O301	O30	0.911500	0.568600	0.859500
C411	C41	0.682500	0.645200	0.401100
C421	C42	0.733900	0.661000	0.291000
C431	C43	0.805200	0.644000	0.376300
C441	C44	0.824000	0.610700	0.574900
C451	C45	0.773400	0.595100	0.684400
C461	C46	0.702100	0.611800	0.600700
C471	C47	0.607000	0.665000	0.310700
C481	C48	0.898800	0.591500	0.668700
H251	H25	0.719700	0.684800	0.150800
H261	H26	0.840600	0.654900	0.297200
H271	H27	0.788000	0.571200	0.824300
H281	H28	0.667000	0.600500	0.680900
H291	H29	0.505000	0.626300	0.724000
H301	H30	0.005000	0.385400	0.737000
Ga41	Ga4	0.496300	0.250000	0.014100
O311	O31	0.499600	0.185300	0.758100
O321	O32	0.000900	0.944700	0.751800
O331	O33	0.915700	0.422300	0.369100
O341	O34	0.931800	0.417900	0.049300
O351	O35	0.555900	0.351500	0.942900
O361	O36	0.586700	0.316400	0.647000
C491	C49	0.818200	0.393700	0.087500
C501	C50	0.770800	0.395500	0.211400
C511	C51	0.699700	0.379900	0.133700
C521	C52	0.674900	0.361800	0.926600
C531	C53	0.721500	0.360000	0.803800
C541	C54	0.792500	0.375500	0.881000
C551	C55	0.893900	0.412200	0.175900
C561	C56	0.600400	0.342700	0.833500
H311	H31	0.787900	0.408700	0.358400
H321	H32	0.667900	0.381400	0.226900
H331	H33	0.703900	0.346600	0.657600
H341	H34	0.824100	0.373800	0.787300
O371	O37	0.408000	0.199700	0.371200
O381	O38	0.435700	0.148200	0.075600
O391	O39	0.056800	0.100700	0.944800
O401	O40	0.088500	0.068600	0.640500
C571	C57	0.317500	0.145200	0.098900
C581	C58	0.266100	0.161000	0.209000
C591	C59	0.194800	0.144000	0.123700
C601	C60	0.176000	0.110700	0.925100
C611	C61	0.226600	0.095100	0.815600
C621	C62	0.297900	0.111800	0.899300
C631	C63	0.393000	0.165000	0.189300
C641	C64	0.101200	0.091500	0.831300
H351	H35	0.280300	0.184800	0.349200
H361	H36	0.159400	0.154900	0.202800
H371	H37	0.212000	0.071200	0.675700
H381	H38	0.333000	0.100500	0.819100
H391	H39	0.495000	0.126300	0.776000
H401	H40	0.995000	0.885400	0.763000
Ga51	Ga5	0.000000	0.500000	0.000000
Ga61	Ga6	0.000000	0.000000	0.500000
Ga71	Ga7	0.000000	0.500000	0.500000
Ga81	Ga8	0.000000	0.000000	0.000000
