data_QOXNIB_freeONLY_PM
_symmetry_space_group_name_H-M	'P1'
_cell_length_a	12.016000
_cell_length_b	12.167000
_cell_length_c	13.850000
_cell_angle_alpha	90.000000
_cell_angle_beta	90.000000
_cell_angle_gamma	90.000000
_symmetry_Int_Tables_number 1

loop_
_symmetry_equiv_pos_as_xyz
'x,y,z'

loop_
_atom_site_label
_atom_site_type_symbol
_atom_site_fract_x
_atom_site_fract_y
_atom_site_fract_z
Cu11	Cu1	0.530880	0.333570	0.117200
Cu21	Cu2	0.759410	0.247330	0.251950
Cu31	Cu3	0.469120	0.666430	0.117200
Cu41	Cu4	0.240590	0.752670	0.251950
Cu51	Cu5	0.969120	0.833570	0.382800
Cu61	Cu6	0.740590	0.747330	0.248050
Cu71	Cu7	0.030880	0.166430	0.382800
Cu81	Cu8	0.259410	0.252670	0.248050
Cu91	Cu9	0.469120	0.666430	0.882800
Cu101	Cu10	0.240590	0.752670	0.748050
Cu111	Cu11	0.530880	0.333570	0.882800
Cu121	Cu12	0.759410	0.247330	0.748050
Cu131	Cu13	0.030880	0.166430	0.617200
Cu141	Cu14	0.259410	0.252670	0.751950
Cu151	Cu15	0.969120	0.833570	0.617200
Cu161	Cu16	0.740590	0.747330	0.751950
H11	H1	0.169500	0.495000	0.306900
H21	H2	0.405400	0.128800	0.408400
H31	H3	0.830500	0.505000	0.306900
H41	H4	0.594600	0.871200	0.408400
H51	H5	0.330500	0.995000	0.193100
H61	H6	0.094600	0.628800	0.091600
H71	H7	0.669500	0.005000	0.193100
H81	H8	0.905400	0.371200	0.091600
H91	H9	0.830500	0.505000	0.693100
H101	H10	0.594600	0.871200	0.591600
H111	H11	0.169500	0.495000	0.693100
H121	H12	0.405400	0.128800	0.591600
H131	H13	0.669500	0.005000	0.806900
H141	H14	0.905400	0.371200	0.908400
H151	H15	0.330500	0.995000	0.806900
H161	H16	0.094600	0.628800	0.908400
H171	H17	0.184400	0.163700	0.000000
H181	H18	0.610800	0.458300	0.000000
H191	H19	0.815600	0.836300	0.000000
H201	H20	0.389200	0.541700	0.000000
H211	H21	0.315600	0.663700	0.500000
H221	H22	0.889200	0.958300	0.500000
H231	H23	0.684400	0.336300	0.500000
H241	H24	0.110800	0.041700	0.500000
C11	C1	0.233400	0.499500	0.269200
C21	C2	0.452500	0.161000	0.363300
C31	C3	0.766600	0.500500	0.269200
C41	C4	0.547500	0.839000	0.363300
C51	C5	0.266600	0.999500	0.230800
C61	C6	0.047500	0.661000	0.136700
C71	C7	0.733400	0.000500	0.230800
C81	C8	0.952500	0.339000	0.136700
C91	C9	0.766600	0.500500	0.730800
C101	C10	0.547500	0.839000	0.636700
C111	C11	0.233400	0.499500	0.730800
C121	C12	0.452500	0.161000	0.636700
C131	C13	0.733400	0.000500	0.769200
C141	C14	0.952500	0.339000	0.863300
C151	C15	0.266600	0.999500	0.769200
C161	C16	0.047500	0.661000	0.863300
C171	C17	0.255300	0.194300	0.000000
C181	C18	0.744700	0.805700	0.000000
C191	C19	0.244700	0.694300	0.500000
C201	C20	0.755300	0.305700	0.500000
N11	N1	0.291400	0.414200	0.237600
N21	N2	0.375900	0.453900	0.186200
N31	N3	0.368600	0.560900	0.187300
N41	N4	0.280100	0.592700	0.239100
N51	N5	0.597100	0.213200	0.289100
N61	N6	0.510900	0.247900	0.240500
N71	N7	0.418400	0.217300	0.285900
N81	N8	0.563400	0.157300	0.367000
N91	N9	0.406900	0.256700	0.048100
N101	N10	0.310500	0.218100	0.080100
N111	N11	0.708600	0.585800	0.237600
N121	N12	0.624100	0.546100	0.186200
N131	N13	0.631400	0.439100	0.187300
N141	N14	0.719900	0.407300	0.239100
N151	N15	0.402900	0.786800	0.289100
N161	N16	0.489100	0.752100	0.240500
N171	N17	0.581600	0.782700	0.285900
N181	N18	0.436600	0.842700	0.367000
N191	N19	0.593100	0.743300	0.048100
N201	N20	0.689500	0.781900	0.080100
N211	N21	0.208600	0.914200	0.262400
N221	N22	0.124100	0.953900	0.313800
N231	N23	0.131400	0.060900	0.312700
N241	N24	0.219900	0.092700	0.260900
N251	N25	0.902900	0.713200	0.210900
N261	N26	0.989100	0.747900	0.259500
N271	N27	0.081600	0.717300	0.214100
N281	N28	0.936600	0.657300	0.133000
N291	N29	0.093100	0.756700	0.451900
N301	N30	0.189500	0.718100	0.419900
N311	N31	0.791400	0.085800	0.262400
N321	N32	0.875900	0.046100	0.313800
N331	N33	0.868600	0.939100	0.312700
N341	N34	0.780100	0.907300	0.260900
N351	N35	0.097100	0.286800	0.210900
N361	N36	0.010900	0.252100	0.259500
N371	N37	0.918400	0.282700	0.214100
N381	N38	0.063400	0.342700	0.133000
N391	N39	0.906900	0.243300	0.451900
N401	N40	0.810500	0.281900	0.419900
N411	N41	0.708600	0.585800	0.762400
N421	N42	0.624100	0.546100	0.813800
N431	N43	0.631400	0.439100	0.812700
N441	N44	0.719900	0.407300	0.760900
N451	N45	0.402900	0.786800	0.710900
N461	N46	0.489100	0.752100	0.759500
N471	N47	0.581600	0.782700	0.714100
N481	N48	0.436600	0.842700	0.633000
N491	N49	0.593100	0.743300	0.951900
N501	N50	0.689500	0.781900	0.919900
N511	N51	0.291400	0.414200	0.762400
N521	N52	0.375900	0.453900	0.813800
N531	N53	0.368600	0.560900	0.812700
N541	N54	0.280100	0.592700	0.760900
N551	N55	0.597100	0.213200	0.710900
N561	N56	0.510900	0.247900	0.759500
N571	N57	0.418400	0.217300	0.714100
N581	N58	0.563400	0.157300	0.633000
N591	N59	0.406900	0.256700	0.951900
N601	N60	0.310500	0.218100	0.919900
N611	N61	0.791400	0.085800	0.737600
N621	N62	0.875900	0.046100	0.686200
N631	N63	0.868600	0.939100	0.687300
N641	N64	0.780100	0.907300	0.739100
N651	N65	0.097100	0.286800	0.789100
N661	N66	0.010900	0.252100	0.740500
N671	N67	0.918400	0.282700	0.785900
N681	N68	0.063400	0.342700	0.867000
N691	N69	0.906900	0.243300	0.548100
N701	N70	0.810500	0.281900	0.580100
N711	N71	0.208600	0.914200	0.737600
N721	N72	0.124100	0.953900	0.686200
N731	N73	0.131400	0.060900	0.687300
N741	N74	0.219900	0.092700	0.739100
N751	N75	0.902900	0.713200	0.789100
N761	N76	0.989100	0.747900	0.740500
N771	N77	0.081600	0.717300	0.785900
N781	N78	0.936600	0.657300	0.867000
N791	N79	0.093100	0.756700	0.548100
N801	N80	0.189500	0.718100	0.580100
O11	O1	0.561500	0.410600	0.000000
O21	O2	0.438500	0.589400	0.000000
O31	O3	0.938500	0.910600	0.500000
O41	O4	0.061500	0.089400	0.500000
