data_QOZPIG_freeONLY_PM
_symmetry_space_group_name_H-M	'P1'
_cell_length_a	9.376000
_cell_length_b	14.919000
_cell_length_c	19.138000
_cell_angle_alpha	90.000000
_cell_angle_beta	90.000000
_cell_angle_gamma	90.000000
_symmetry_Int_Tables_number 1

loop_
_symmetry_equiv_pos_as_xyz
'x,y,z'

loop_
_atom_site_label
_atom_site_type_symbol
_atom_site_fract_x
_atom_site_fract_y
_atom_site_fract_z
Cd11	Cd1	0.690590	0.500000	0.250000
Cd21	Cd2	0.309410	0.500000	0.750000
Cd31	Cd3	0.809410	0.000000	0.750000
Cd41	Cd4	0.190590	0.000000	0.250000
H11	H1	0.882000	0.287200	0.233600
H21	H2	0.903200	0.717000	0.437000
H31	H3	0.096800	0.717000	0.937000
H41	H4	0.601200	0.374700	0.109200
H51	H5	0.398800	0.625300	0.890800
H61	H6	0.898800	0.125300	0.609200
H71	H7	0.172300	0.391500	0.975900
H81	H8	0.618000	0.787200	0.766400
H91	H9	0.596800	0.783000	0.937000
H101	H10	0.403200	0.783000	0.437000
H111	H11	0.118000	0.712800	0.766400
H121	H12	0.172300	0.608500	0.524100
H131	H13	0.882000	0.712800	0.266400
H141	H14	0.672300	0.891500	0.524100
H151	H15	0.118000	0.287200	0.733600
H161	H16	0.898800	0.874700	0.890800
H171	H17	0.382000	0.787200	0.266400
H181	H18	0.327700	0.891500	0.024100
H191	H19	0.903200	0.283000	0.063000
H201	H20	0.596800	0.217000	0.563000
H211	H21	0.618000	0.212800	0.733600
H221	H22	0.382000	0.212800	0.233600
H231	H23	0.601200	0.625300	0.390800
H241	H24	0.096800	0.283000	0.563000
H251	H25	0.672300	0.108500	0.975900
H261	H26	0.101200	0.874700	0.390800
H271	H27	0.398800	0.374700	0.609200
H281	H28	0.827700	0.391500	0.475900
H291	H29	0.827700	0.608500	0.024100
H301	H30	0.403200	0.217000	0.063000
H311	H31	0.101200	0.125300	0.109200
H321	H32	0.327700	0.108500	0.475900
C11	C1	0.944600	0.150100	0.649100
C21	C2	0.601900	0.935600	0.514400
C31	C3	0.924600	0.497200	0.062800
C41	C4	0.027100	0.432100	0.047700
C51	C5	0.936000	0.762400	0.282800
C61	C6	0.601900	0.064400	0.985600
C71	C7	0.937300	0.642400	0.902300
C81	C8	0.436000	0.262400	0.217200
C91	C9	0.562700	0.142400	0.097700
C101	C10	0.343100	0.001800	0.130900
C111	C11	0.972900	0.567900	0.952300
C121	C12	0.064000	0.237600	0.717200
C131	C13	0.055400	0.150100	0.149100
C141	C14	0.527100	0.067900	0.047700
C151	C15	0.937300	0.357600	0.597700
C161	C16	0.398100	0.064400	0.485600
C171	C17	0.656900	0.001800	0.630900
C181	C18	0.936000	0.237600	0.217200
C191	C19	0.472900	0.067900	0.547700
C201	C20	0.343100	0.998200	0.369100
C211	C21	0.398100	0.935600	0.014400
C221	C22	0.972900	0.432100	0.547700
C231	C23	0.555400	0.349900	0.149100
C241	C24	0.437300	0.142400	0.597700
C251	C25	0.027100	0.567900	0.452300
C261	C26	0.898100	0.564400	0.014400
C271	C27	0.562700	0.857600	0.402300
C281	C28	0.472900	0.932100	0.952300
C291	C29	0.564000	0.262400	0.717200
C301	C30	0.656900	0.998200	0.869100
C311	C31	0.156900	0.498200	0.630900
C321	C32	0.444600	0.650100	0.850900
C331	C33	0.437300	0.857600	0.902300
C341	C34	0.101900	0.435600	0.985600
C351	C35	0.924600	0.502800	0.437200
C361	C36	0.575400	0.997200	0.937200
C371	C37	0.527100	0.932100	0.452300
C381	C38	0.944600	0.849900	0.850900
C391	C39	0.424600	0.997200	0.437200
C401	C40	0.898100	0.435600	0.485600
C411	C41	0.575400	0.002800	0.562800
C421	C42	0.075400	0.497200	0.562800
C431	C43	0.064000	0.762400	0.782800
C441	C44	0.444600	0.349900	0.649100
C451	C45	0.062700	0.642400	0.402300
C461	C46	0.075400	0.502800	0.937200
C471	C47	0.436000	0.737600	0.282800
C481	C48	0.424600	0.002800	0.062800
C491	C49	0.156900	0.501800	0.869100
C501	C50	0.555400	0.650100	0.350900
C511	C51	0.062700	0.357600	0.097700
C521	C52	0.101900	0.564400	0.514400
C531	C53	0.055400	0.849900	0.350900
C541	C54	0.564000	0.737600	0.782800
C551	C55	0.843100	0.498200	0.130900
C561	C56	0.843100	0.501800	0.369100
N11	N1	0.978800	0.171100	0.255900
N21	N2	0.032200	0.288100	0.596100
N31	N3	0.967800	0.288100	0.096100
N41	N4	0.520600	0.726200	0.849900
N51	N5	0.478800	0.671100	0.244100
N61	N6	0.479400	0.726200	0.349900
N71	N7	0.556100	0.615600	0.288200
N81	N8	0.467800	0.788100	0.403900
N91	N9	0.979400	0.773800	0.349900
N101	N10	0.478800	0.328900	0.255900
N111	N11	0.943900	0.884400	0.788200
N121	N12	0.021200	0.171100	0.755900
N131	N13	0.443900	0.615600	0.788200
N141	N14	0.967800	0.711900	0.403900
N151	N15	0.521200	0.671100	0.744100
N161	N16	0.056100	0.884400	0.288200
N171	N17	0.532200	0.211900	0.596100
N181	N18	0.021200	0.828900	0.744100
N191	N19	0.556100	0.384400	0.211800
N201	N20	0.056100	0.115600	0.211800
N211	N21	0.943900	0.115600	0.711800
N221	N22	0.520600	0.273800	0.650100
N231	N23	0.978800	0.828900	0.244100
N241	N24	0.979400	0.226200	0.150100
N251	N25	0.443900	0.384400	0.711800
N261	N26	0.467800	0.211900	0.096100
N271	N27	0.532200	0.788100	0.903900
N281	N28	0.020600	0.773800	0.849900
N291	N29	0.032200	0.711900	0.903900
N301	N30	0.020600	0.226200	0.650100
N311	N31	0.521200	0.328900	0.755900
N321	N32	0.479400	0.273800	0.150100
O11	O1	0.671200	0.144400	0.132800
O21	O2	0.624300	0.058400	0.677000
O31	O3	0.671200	0.855600	0.367200
O41	O4	0.124300	0.441600	0.677000
O51	O5	0.745000	0.554400	0.139300
O61	O6	0.375700	0.941600	0.323000
O71	O7	0.375700	0.058400	0.177000
O81	O8	0.828800	0.644400	0.867200
O91	O9	0.875700	0.441600	0.177000
O101	O10	0.875700	0.558400	0.323000
O111	O11	0.624300	0.941600	0.823000
O121	O12	0.171200	0.355600	0.132800
O131	O13	0.171200	0.644400	0.367200
O141	O14	0.245000	0.945600	0.139300
O151	O15	0.828800	0.355600	0.632800
O161	O16	0.255000	0.445600	0.860700
O171	O17	0.755000	0.054400	0.860700
O181	O18	0.328800	0.855600	0.867200
O191	O19	0.255000	0.554400	0.639300
O201	O20	0.245000	0.054400	0.360700
O211	O21	0.124300	0.558400	0.823000
O221	O22	0.745000	0.445600	0.360700
O231	O23	0.328800	0.144400	0.632800
O241	O24	0.755000	0.945600	0.639300
