data_QOZWAF_freeONLY_PM
_symmetry_space_group_name_H-M	'P1'
_cell_length_a	24.923900
_cell_length_b	24.923900
_cell_length_c	24.923900
_cell_angle_alpha	90.000000
_cell_angle_beta	90.000000
_cell_angle_gamma	90.000000
_symmetry_Int_Tables_number 1

loop_
_symmetry_equiv_pos_as_xyz
'x,y,z'

loop_
_atom_site_label
_atom_site_type_symbol
_atom_site_fract_x
_atom_site_fract_y
_atom_site_fract_z
Ni11	Ni1	0.080480	0.089870	0.173190
Ni21	Ni2	0.167170	0.000130	0.184670
Ni31	Ni3	0.129290	0.070220	0.435450
Ni41	Ni4	0.027730	0.004380	0.403570
W11	W1	0.146320	0.945590	0.053440
W21	W2	0.052620	0.942900	0.951880
W31	W3	0.154080	0.037580	0.953380
W41	W4	0.974850	0.106820	0.644310
W51	W5	0.089920	0.099620	0.568660
W61	W6	0.050220	0.990480	0.639980
W71	W7	0.105070	0.049080	0.299430
O11	O1	0.143600	0.141100	0.575500
O21	O2	0.168000	0.998200	0.098500
O31	O3	0.201400	0.045400	0.904200
O41	O4	0.104650	0.991920	0.426580
O51	O5	0.080600	0.097600	0.253800
O61	O6	0.161000	0.080020	0.169620
O71	O7	0.082500	0.006000	0.175300
O81	O8	0.085800	0.010700	0.016300
O91	O9	0.086500	0.930000	0.100100
O101	O10	0.045900	0.082380	0.424300
O111	O11	0.110900	0.052900	0.516900
O121	O12	0.100300	0.049200	0.623900
O131	O13	0.940300	0.143400	0.587500
O141	O14	0.187400	0.893000	0.069100
O151	O15	0.999000	0.929700	0.005400
O161	O16	0.984700	0.952600	0.638900
O171	O17	0.081100	0.961800	0.694300
O181	O18	0.182200	0.977500	0.993500
O191	O19	0.137800	0.083400	0.352900
O201	O20	0.040200	0.134300	0.622000
O211	O21	0.011000	0.048800	0.677600
O221	O22	0.103000	0.908100	0.996500
O231	O23	0.051600	0.011000	0.324700
O241	O24	0.109200	0.980600	0.917900
O251	O25	0.153900	0.008100	0.267500
O261	O26	0.039300	0.894700	0.904600
O271	O27	0.007700	0.046000	0.573100
O281	O28	0.960700	0.146300	0.699000
N11	N1	0.175400	0.917400	0.194000
H11	H1	0.153600	0.905800	0.220300
H21	H2	0.166200	0.900600	0.163400
N21	N2	0.250000	0.998600	0.185700
H31	H3	0.263200	0.020600	0.160300
H41	H4	0.262300	0.009500	0.217900
N31	N3	0.209300	0.054200	0.444500
H51	H5	0.214400	0.029100	0.469900
H61	H6	0.223400	0.042300	0.413500
N41	N4	0.153300	0.149500	0.449000
H71	H7	0.143800	0.170300	0.421100
H81	H8	0.137300	0.162300	0.478700
C11	C1	0.232000	0.905300	0.207600
H91	H9	0.237700	0.912300	0.245800
C21	C2	0.266800	0.943000	0.175400
H101	H10	0.304100	0.938500	0.185500
H111	H11	0.263400	0.935100	0.137400
C31	C3	0.245500	0.846800	0.196200
H121	H12	0.224200	0.824100	0.218800
H131	H13	0.282900	0.840700	0.203300
H141	H14	0.238000	0.838900	0.159200
C41	C4	0.211000	0.150100	0.455600
H151	H15	0.218400	0.153300	0.417100
C51	C5	0.234600	0.104700	0.460300
H161	H16	0.244300	0.101100	0.497800
H171	H17	0.267900	0.107300	0.440400
C61	C6	0.236700	0.202600	0.469700
H181	H18	0.274800	0.198000	0.472300
H191	H19	0.222800	0.215000	0.503400
H201	H20	0.228800	0.228500	0.442200
Ni51	Ni5	0.419520	0.910130	0.673190
Ni61	Ni6	0.332830	0.999870	0.684670
Ni71	Ni7	0.370710	0.929780	0.935450
Ni81	Ni8	0.472270	0.995620	0.903570
W81	W8	0.353680	0.054410	0.553440
W91	W9	0.447380	0.057100	0.451880
W101	W10	0.345920	0.962420	0.453380
W111	W11	0.525150	0.893180	0.144310
W121	W12	0.410080	0.900380	0.068660
W131	W13	0.449780	0.009520	0.139980
W141	W14	0.394930	0.950920	0.799430
O291	O29	0.356400	0.858900	0.075500
O301	O30	0.332000	0.001800	0.598500
O311	O31	0.298600	0.954600	0.404200
O321	O32	0.395350	0.008080	0.926580
O331	O33	0.419400	0.902400	0.753800
O341	O34	0.339000	0.919980	0.669620
O351	O35	0.417500	0.994000	0.675300
O361	O36	0.414200	0.989300	0.516300
O371	O37	0.413500	0.070000	0.600100
O381	O38	0.454100	0.917620	0.924300
O391	O39	0.389100	0.947100	0.016900
O401	O40	0.399700	0.950800	0.123900
O411	O41	0.559700	0.856600	0.087500
O421	O42	0.312600	0.107000	0.569100
O431	O43	0.501000	0.070300	0.505400
O441	O44	0.515300	0.047400	0.138900
O451	O45	0.418900	0.038200	0.194300
O461	O46	0.317800	0.022500	0.493500
O471	O47	0.362200	0.916600	0.852900
O481	O48	0.459800	0.865700	0.122000
O491	O49	0.489000	0.951200	0.177600
O501	O50	0.397000	0.091900	0.496500
O511	O51	0.448400	0.989000	0.824700
O521	O52	0.390800	0.019400	0.417900
O531	O53	0.346100	0.991900	0.767500
O541	O54	0.460700	0.105300	0.404600
O551	O55	0.492300	0.954000	0.073100
O561	O56	0.539300	0.853700	0.199000
N51	N5	0.324600	0.082600	0.694000
H211	H21	0.346400	0.094200	0.720300
H221	H22	0.333800	0.099400	0.663400
N61	N6	0.250000	0.001400	0.685700
H231	H23	0.236800	0.979400	0.660300
H241	H24	0.237700	0.990500	0.717900
N71	N7	0.290700	0.945800	0.944500
H251	H25	0.285600	0.970900	0.969900
H261	H26	0.276600	0.957700	0.913500
N81	N8	0.346700	0.850500	0.949000
H271	H27	0.356200	0.829700	0.921100
H281	H28	0.362700	0.837700	0.978700
C71	C7	0.268000	0.094700	0.707600
H291	H29	0.262300	0.087700	0.745800
C81	C8	0.233200	0.057000	0.675400
H301	H30	0.195900	0.061500	0.685500
H311	H31	0.236600	0.064900	0.637400
C91	C9	0.254500	0.153200	0.696200
H321	H32	0.275800	0.175900	0.718800
H331	H33	0.217100	0.159300	0.703300
H341	H34	0.262000	0.161100	0.659200
C101	C10	0.289000	0.849900	0.955600
H351	H35	0.281600	0.846700	0.917100
C111	C11	0.265400	0.895300	0.960300
H361	H36	0.255700	0.898900	0.997800
H371	H37	0.232100	0.892700	0.940400
C121	C12	0.263300	0.797400	0.969700
H381	H38	0.225200	0.802000	0.972300
H391	H39	0.277200	0.785000	0.003400
H401	H40	0.271200	0.771500	0.942200
Ni91	Ni9	0.919520	0.589870	0.326810
Ni101	Ni10	0.832830	0.500130	0.315330
Ni111	Ni11	0.870710	0.570220	0.064550
Ni121	Ni12	0.972270	0.504380	0.096430
W151	W15	0.853680	0.445590	0.446560
W161	W16	0.947380	0.442900	0.548110
W171	W17	0.845920	0.537580	0.546620
W181	W18	0.025150	0.606820	0.855690
W191	W19	0.910080	0.599620	0.931340
W201	W20	0.949780	0.490480	0.860020
W211	W21	0.894930	0.549080	0.200570
O571	O57	0.856400	0.641100	0.924500
O581	O58	0.832000	0.498200	0.401500
O591	O59	0.798600	0.545400	0.595800
O601	O60	0.895350	0.491920	0.073420
O611	O61	0.919400	0.597600	0.246200
O621	O62	0.839000	0.580020	0.330380
O631	O63	0.917500	0.506000	0.324700
O641	O64	0.914200	0.510700	0.483700
O651	O65	0.913500	0.430000	0.399900
O661	O66	0.954100	0.582380	0.075700
O671	O67	0.889100	0.552900	0.983100
O681	O68	0.899700	0.549200	0.876100
O691	O69	0.059700	0.643400	0.912500
O701	O70	0.812600	0.393000	0.430900
O711	O71	0.001000	0.429700	0.494600
O721	O72	0.015300	0.452600	0.861100
O731	O73	0.918900	0.461800	0.805700
O741	O74	0.817800	0.477500	0.506500
O751	O75	0.862200	0.583400	0.147100
O761	O76	0.959800	0.634300	0.878000
O771	O77	0.989000	0.548800	0.822400
O781	O78	0.897000	0.408100	0.503500
O791	O79	0.948400	0.511000	0.175300
O801	O80	0.890800	0.480600	0.582100
O811	O81	0.846100	0.508100	0.232500
O821	O82	0.960700	0.394700	0.595400
O831	O83	0.992300	0.546000	0.926900
O841	O84	0.039300	0.646300	0.801000
N91	N9	0.824600	0.417400	0.306000
H411	H41	0.846400	0.405800	0.279700
H421	H42	0.833800	0.400600	0.336600
N101	N10	0.750000	0.498600	0.314300
H431	H43	0.736800	0.520600	0.339700
H441	H44	0.737700	0.509500	0.282100
N111	N11	0.790700	0.554200	0.055500
H451	H45	0.785600	0.529100	0.030100
H461	H46	0.776600	0.542300	0.086500
N121	N12	0.846700	0.649500	0.051000
H471	H47	0.856200	0.670300	0.078900
H481	H48	0.862700	0.662300	0.021300
C131	C13	0.768000	0.405300	0.292400
H491	H49	0.762300	0.412300	0.254200
C141	C14	0.733200	0.443000	0.324600
H501	H50	0.695900	0.438500	0.314500
H511	H51	0.736600	0.435100	0.362600
C151	C15	0.754500	0.346800	0.303800
H521	H52	0.775800	0.324100	0.281200
H531	H53	0.717100	0.340700	0.296700
H541	H54	0.762000	0.338900	0.340800
C161	C16	0.789000	0.650100	0.044400
H551	H55	0.781600	0.653300	0.082900
C171	C17	0.765400	0.604700	0.039700
H561	H56	0.755700	0.601100	0.002200
H571	H57	0.732100	0.607300	0.059600
C181	C18	0.763300	0.702600	0.030300
H581	H58	0.725200	0.698000	0.027700
H591	H59	0.777200	0.715000	0.996600
H601	H60	0.771200	0.728500	0.057800
Ni131	Ni13	0.580480	0.410130	0.826810
Ni141	Ni14	0.667170	0.499870	0.815330
Ni151	Ni15	0.629290	0.429780	0.564550
Ni161	Ni16	0.527730	0.495620	0.596430
W221	W22	0.646320	0.554410	0.946560
W231	W23	0.552620	0.557100	0.048110
W241	W24	0.654080	0.462420	0.046620
W251	W25	0.474850	0.393180	0.355690
W261	W26	0.589920	0.400380	0.431340
W271	W27	0.550220	0.509520	0.360020
W281	W28	0.605070	0.450920	0.700570
O851	O85	0.643600	0.358900	0.424500
O861	O86	0.668000	0.501800	0.901500
O871	O87	0.701400	0.454600	0.095800
O881	O88	0.604650	0.508080	0.573420
O891	O89	0.580600	0.402400	0.746200
O901	O90	0.661000	0.419980	0.830380
O911	O91	0.582500	0.494000	0.824700
O921	O92	0.585800	0.489300	0.983700
O931	O93	0.586500	0.570000	0.899900
O941	O94	0.545900	0.417620	0.575700
O951	O95	0.610900	0.447100	0.483100
O961	O96	0.600300	0.450800	0.376100
O971	O97	0.440300	0.356600	0.412500
O981	O98	0.687400	0.607000	0.930900
O991	O99	0.499000	0.570300	0.994600
O1001	O100	0.484700	0.547400	0.361100
O1011	O101	0.581100	0.538200	0.305700
O1021	O102	0.682200	0.522500	0.006500
O1031	O103	0.637800	0.416600	0.647100
O1041	O104	0.540200	0.365700	0.378000
O1051	O105	0.511000	0.451200	0.322400
O1061	O106	0.603000	0.591900	0.003500
O1071	O107	0.551600	0.489000	0.675300
O1081	O108	0.609200	0.519400	0.082100
O1091	O109	0.653900	0.491900	0.732500
O1101	O110	0.539300	0.605300	0.095400
O1111	O111	0.507700	0.454000	0.426900
O1121	O112	0.460700	0.353700	0.301000
N131	N13	0.675400	0.582600	0.806000
H611	H61	0.653600	0.594200	0.779700
H621	H62	0.666200	0.599400	0.836600
N141	N14	0.750000	0.501400	0.814300
H631	H63	0.763200	0.479400	0.839700
H641	H64	0.762300	0.490500	0.782100
N151	N15	0.709300	0.445800	0.555500
H651	H65	0.714400	0.470900	0.530100
H661	H66	0.723400	0.457700	0.586500
N161	N16	0.653300	0.350500	0.551000
H671	H67	0.643800	0.329700	0.578900
H681	H68	0.637300	0.337700	0.521300
C191	C19	0.732000	0.594700	0.792400
H691	H69	0.737700	0.587700	0.754200
C201	C20	0.766800	0.557000	0.824600
H701	H70	0.804100	0.561500	0.814500
H711	H71	0.763400	0.564900	0.862600
C211	C21	0.745500	0.653200	0.803800
H721	H72	0.724200	0.675900	0.781200
H731	H73	0.782900	0.659300	0.796700
H741	H74	0.738000	0.661100	0.840800
C221	C22	0.711000	0.349900	0.544400
H751	H75	0.718400	0.346700	0.582900
C231	C23	0.734600	0.395300	0.539700
H761	H76	0.744300	0.398900	0.502200
H771	H77	0.767900	0.392700	0.559600
C241	C24	0.736700	0.297400	0.530300
H781	H78	0.774800	0.302000	0.527700
H791	H79	0.722800	0.285000	0.496600
H801	H80	0.728800	0.271500	0.557800
Ni171	Ni17	0.173190	0.080480	0.089870
Ni181	Ni18	0.184670	0.167170	0.000130
Ni191	Ni19	0.435450	0.129290	0.070220
Ni201	Ni20	0.403570	0.027730	0.004380
W291	W29	0.053440	0.146320	0.945590
W301	W30	0.951880	0.052620	0.942900
W311	W31	0.953380	0.154080	0.037580
W321	W32	0.644310	0.974850	0.106820
W331	W33	0.568660	0.089920	0.099620
W341	W34	0.639980	0.050220	0.990480
W351	W35	0.299430	0.105070	0.049080
O1131	O113	0.575500	0.143600	0.141100
O1141	O114	0.098500	0.168000	0.998200
O1151	O115	0.904200	0.201400	0.045400
O1161	O116	0.426580	0.104650	0.991920
O1171	O117	0.253800	0.080600	0.097600
O1181	O118	0.169620	0.161000	0.080020
O1191	O119	0.175300	0.082500	0.006000
O1201	O120	0.016300	0.085800	0.010700
O1211	O121	0.100100	0.086500	0.930000
O1221	O122	0.424300	0.045900	0.082380
O1231	O123	0.516900	0.110900	0.052900
O1241	O124	0.623900	0.100300	0.049200
O1251	O125	0.587500	0.940300	0.143400
O1261	O126	0.069100	0.187400	0.893000
O1271	O127	0.005400	0.999000	0.929700
O1281	O128	0.638900	0.984700	0.952600
O1291	O129	0.694300	0.081100	0.961800
O1301	O130	0.993500	0.182200	0.977500
O1311	O131	0.352900	0.137800	0.083400
O1321	O132	0.622000	0.040200	0.134300
O1331	O133	0.677600	0.011000	0.048800
O1341	O134	0.996500	0.103000	0.908100
O1351	O135	0.324700	0.051600	0.011000
O1361	O136	0.917900	0.109200	0.980600
O1371	O137	0.267500	0.153900	0.008100
O1381	O138	0.904600	0.039300	0.894700
O1391	O139	0.573100	0.007700	0.046000
O1401	O140	0.699000	0.960700	0.146300
N171	N17	0.194000	0.175400	0.917400
H811	H81	0.220300	0.153600	0.905800
H821	H82	0.163400	0.166200	0.900600
N181	N18	0.185700	0.250000	0.998600
H831	H83	0.160300	0.263200	0.020600
H841	H84	0.217900	0.262300	0.009500
N191	N19	0.444500	0.209300	0.054200
H851	H85	0.469900	0.214400	0.029100
H861	H86	0.413500	0.223400	0.042300
N201	N20	0.449000	0.153300	0.149500
H871	H87	0.421100	0.143800	0.170300
H881	H88	0.478700	0.137300	0.162300
C251	C25	0.207600	0.232000	0.905300
H891	H89	0.245800	0.237700	0.912300
C261	C26	0.175400	0.266800	0.943000
H901	H90	0.185500	0.304100	0.938500
H911	H91	0.137400	0.263400	0.935100
C271	C27	0.196200	0.245500	0.846800
H921	H92	0.218800	0.224200	0.824100
H931	H93	0.203300	0.282900	0.840700
H941	H94	0.159200	0.238000	0.838900
C281	C28	0.455600	0.211000	0.150100
H951	H95	0.417100	0.218400	0.153300
C291	C29	0.460300	0.234600	0.104700
H961	H96	0.497800	0.244300	0.101100
H971	H97	0.440400	0.267900	0.107300
C301	C30	0.469700	0.236700	0.202600
H981	H98	0.472300	0.274800	0.198000
H991	H99	0.503400	0.222800	0.215000
H1001	H100	0.442200	0.228800	0.228500
Ni211	Ni21	0.673190	0.419520	0.910130
Ni221	Ni22	0.684670	0.332830	0.999870
Ni231	Ni23	0.935450	0.370710	0.929780
Ni241	Ni24	0.903570	0.472270	0.995620
W361	W36	0.553440	0.353680	0.054410
W371	W37	0.451890	0.447380	0.057100
W381	W38	0.453380	0.345920	0.962420
W391	W39	0.144310	0.525150	0.893180
W401	W40	0.068660	0.410080	0.900380
W411	W41	0.139980	0.449780	0.009520
W421	W42	0.799430	0.394930	0.950920
O1411	O141	0.075500	0.356400	0.858900
O1421	O142	0.598500	0.332000	0.001800
O1431	O143	0.404200	0.298600	0.954600
O1441	O144	0.926580	0.395350	0.008080
O1451	O145	0.753800	0.419400	0.902400
O1461	O146	0.669620	0.339000	0.919980
O1471	O147	0.675300	0.417500	0.994000
O1481	O148	0.516300	0.414200	0.989300
O1491	O149	0.600100	0.413500	0.070000
O1501	O150	0.924300	0.454100	0.917620
O1511	O151	0.016900	0.389100	0.947100
O1521	O152	0.123900	0.399700	0.950800
O1531	O153	0.087500	0.559700	0.856600
O1541	O154	0.569100	0.312600	0.107000
O1551	O155	0.505400	0.501000	0.070300
O1561	O156	0.138900	0.515300	0.047400
O1571	O157	0.194300	0.418900	0.038200
O1581	O158	0.493500	0.317800	0.022500
O1591	O159	0.852900	0.362200	0.916600
O1601	O160	0.122000	0.459800	0.865700
O1611	O161	0.177600	0.489000	0.951200
O1621	O162	0.496500	0.397000	0.091900
O1631	O163	0.824700	0.448400	0.989000
O1641	O164	0.417900	0.390800	0.019400
O1651	O165	0.767500	0.346100	0.991900
O1661	O166	0.404600	0.460700	0.105300
O1671	O167	0.073100	0.492300	0.954000
O1681	O168	0.199000	0.539300	0.853700
N211	N21	0.694000	0.324600	0.082600
H1011	H101	0.720300	0.346400	0.094200
H1021	H102	0.663400	0.333800	0.099400
N221	N22	0.685700	0.250000	0.001400
H1031	H103	0.660300	0.236800	0.979400
H1041	H104	0.717900	0.237700	0.990500
N231	N23	0.944500	0.290700	0.945800
H1051	H105	0.969900	0.285600	0.970900
H1061	H106	0.913500	0.276600	0.957700
N241	N24	0.949000	0.346700	0.850500
H1071	H107	0.921100	0.356200	0.829700
H1081	H108	0.978700	0.362700	0.837700
C311	C31	0.707600	0.268000	0.094700
H1091	H109	0.745800	0.262300	0.087700
C321	C32	0.675400	0.233200	0.057000
H1101	H110	0.685500	0.195900	0.061500
H1111	H111	0.637400	0.236600	0.064900
C331	C33	0.696200	0.254500	0.153200
H1121	H112	0.718800	0.275800	0.175900
H1131	H113	0.703300	0.217100	0.159300
H1141	H114	0.659200	0.262000	0.161100
C341	C34	0.955600	0.289000	0.849900
H1151	H115	0.917100	0.281600	0.846700
C351	C35	0.960300	0.265400	0.895300
H1161	H116	0.997800	0.255700	0.898900
H1171	H117	0.940400	0.232100	0.892700
C361	C36	0.969700	0.263300	0.797400
H1181	H118	0.972300	0.225200	0.802000
H1191	H119	0.003400	0.277200	0.785000
H1201	H120	0.942200	0.271200	0.771500
Ni251	Ni25	0.326810	0.919520	0.589870
Ni261	Ni26	0.315330	0.832830	0.500130
Ni271	Ni27	0.064550	0.870710	0.570220
Ni281	Ni28	0.096430	0.972270	0.504380
W431	W43	0.446560	0.853680	0.445590
W441	W44	0.548110	0.947380	0.442900
W451	W45	0.546620	0.845920	0.537580
W461	W46	0.855690	0.025150	0.606820
W471	W47	0.931340	0.910080	0.599620
W481	W48	0.860020	0.949780	0.490480
W491	W49	0.200570	0.894930	0.549080
O1691	O169	0.924500	0.856400	0.641100
O1701	O170	0.401500	0.832000	0.498200
O1711	O171	0.595800	0.798600	0.545400
O1721	O172	0.073420	0.895350	0.491920
O1731	O173	0.246200	0.919400	0.597600
O1741	O174	0.330380	0.839000	0.580020
O1751	O175	0.324700	0.917500	0.506000
O1761	O176	0.483700	0.914200	0.510700
O1771	O177	0.399900	0.913500	0.430000
O1781	O178	0.075700	0.954100	0.582380
O1791	O179	0.983100	0.889100	0.552900
O1801	O180	0.876100	0.899700	0.549200
O1811	O181	0.912500	0.059700	0.643400
O1821	O182	0.430900	0.812600	0.393000
O1831	O183	0.494600	0.001000	0.429700
O1841	O184	0.861100	0.015300	0.452600
O1851	O185	0.805700	0.918900	0.461800
O1861	O186	0.506500	0.817800	0.477500
O1871	O187	0.147100	0.862200	0.583400
O1881	O188	0.878000	0.959800	0.634300
O1891	O189	0.822400	0.989000	0.548800
O1901	O190	0.503500	0.897000	0.408100
O1911	O191	0.175300	0.948400	0.511000
O1921	O192	0.582100	0.890800	0.480600
O1931	O193	0.232500	0.846100	0.508100
O1941	O194	0.595400	0.960700	0.394700
O1951	O195	0.926900	0.992300	0.546000
O1961	O196	0.801000	0.039300	0.646300
N251	N25	0.306000	0.824600	0.417400
H1211	H121	0.279700	0.846400	0.405800
H1221	H122	0.336600	0.833800	0.400600
N261	N26	0.314300	0.750000	0.498600
H1231	H123	0.339700	0.736800	0.520600
H1241	H124	0.282100	0.737700	0.509500
N271	N27	0.055500	0.790700	0.554200
H1251	H125	0.030100	0.785600	0.529100
H1261	H126	0.086500	0.776600	0.542300
N281	N28	0.051000	0.846700	0.649500
H1271	H127	0.078900	0.856200	0.670300
H1281	H128	0.021300	0.862700	0.662300
C371	C37	0.292400	0.768000	0.405300
H1291	H129	0.254200	0.762300	0.412300
C381	C38	0.324600	0.733200	0.443000
H1301	H130	0.314500	0.695900	0.438500
H1311	H131	0.362600	0.736600	0.435100
C391	C39	0.303800	0.754500	0.346800
H1321	H132	0.281200	0.775800	0.324100
H1331	H133	0.296700	0.717100	0.340700
H1341	H134	0.340800	0.762000	0.338900
C401	C40	0.044400	0.789000	0.650100
H1351	H135	0.082900	0.781600	0.653300
C411	C41	0.039700	0.765400	0.604700
H1361	H136	0.002200	0.755700	0.601100
H1371	H137	0.059600	0.732100	0.607300
C421	C42	0.030300	0.763300	0.702600
H1381	H138	0.027700	0.725200	0.698000
H1391	H139	0.996600	0.777200	0.715000
H1401	H140	0.057800	0.771200	0.728500
Ni291	Ni29	0.826810	0.580480	0.410130
Ni301	Ni30	0.815330	0.667170	0.499870
Ni311	Ni31	0.564550	0.629290	0.429780
Ni321	Ni32	0.596430	0.527730	0.495620
W501	W50	0.946560	0.646320	0.554410
W511	W51	0.048110	0.552620	0.557100
W521	W52	0.046620	0.654080	0.462420
W531	W53	0.355690	0.474850	0.393180
W541	W54	0.431340	0.589920	0.400380
W551	W55	0.360020	0.550220	0.509520
W561	W56	0.700570	0.605070	0.450920
O1971	O197	0.424500	0.643600	0.358900
O1981	O198	0.901500	0.668000	0.501800
O1991	O199	0.095800	0.701400	0.454600
O2001	O200	0.573420	0.604650	0.508080
O2011	O201	0.746200	0.580600	0.402400
O2021	O202	0.830380	0.661000	0.419980
O2031	O203	0.824700	0.582500	0.494000
O2041	O204	0.983700	0.585800	0.489300
O2051	O205	0.899900	0.586500	0.570000
O2061	O206	0.575700	0.545900	0.417620
O2071	O207	0.483100	0.610900	0.447100
O2081	O208	0.376100	0.600300	0.450800
O2091	O209	0.412500	0.440300	0.356600
O2101	O210	0.930900	0.687400	0.607000
O2111	O211	0.994600	0.499000	0.570300
O2121	O212	0.361100	0.484700	0.547400
O2131	O213	0.305700	0.581100	0.538200
O2141	O214	0.006500	0.682200	0.522500
O2151	O215	0.647100	0.637800	0.416600
O2161	O216	0.378000	0.540200	0.365700
O2171	O217	0.322400	0.511000	0.451200
O2181	O218	0.003500	0.603000	0.591900
O2191	O219	0.675300	0.551600	0.489000
O2201	O220	0.082100	0.609200	0.519400
O2211	O221	0.732500	0.653900	0.491900
O2221	O222	0.095400	0.539300	0.605300
O2231	O223	0.426900	0.507700	0.454000
O2241	O224	0.301000	0.460700	0.353700
N291	N29	0.806000	0.675400	0.582600
H1411	H141	0.779700	0.653600	0.594200
H1421	H142	0.836600	0.666200	0.599400
N301	N30	0.814300	0.750000	0.501400
H1431	H143	0.839700	0.763200	0.479400
H1441	H144	0.782100	0.762300	0.490500
N311	N31	0.555500	0.709300	0.445800
H1451	H145	0.530100	0.714400	0.470900
H1461	H146	0.586500	0.723400	0.457700
N321	N32	0.551000	0.653300	0.350500
H1471	H147	0.578900	0.643800	0.329700
H1481	H148	0.521300	0.637300	0.337700
C431	C43	0.792400	0.732000	0.594700
H1491	H149	0.754200	0.737700	0.587700
C441	C44	0.824600	0.766800	0.557000
H1501	H150	0.814500	0.804100	0.561500
H1511	H151	0.862600	0.763400	0.564900
C451	C45	0.803800	0.745500	0.653200
H1521	H152	0.781200	0.724200	0.675900
H1531	H153	0.796700	0.782900	0.659300
H1541	H154	0.840800	0.738000	0.661100
C461	C46	0.544400	0.711000	0.349900
H1551	H155	0.582900	0.718400	0.346700
C471	C47	0.539700	0.734600	0.395300
H1561	H156	0.502200	0.744300	0.398900
H1571	H157	0.559600	0.767900	0.392700
C481	C48	0.530300	0.736700	0.297400
H1581	H158	0.527700	0.774800	0.302000
H1591	H159	0.496600	0.722800	0.285000
H1601	H160	0.557800	0.728800	0.271500
Ni331	Ni33	0.089870	0.173190	0.080480
Ni341	Ni34	0.000130	0.184670	0.167170
Ni351	Ni35	0.070220	0.435450	0.129290
Ni361	Ni36	0.004380	0.403570	0.027730
W571	W57	0.945590	0.053440	0.146320
W581	W58	0.942900	0.951880	0.052620
W591	W59	0.037580	0.953380	0.154080
W601	W60	0.106820	0.644310	0.974850
W611	W61	0.099620	0.568660	0.089920
W621	W62	0.990480	0.639980	0.050220
W631	W63	0.049080	0.299430	0.105070
O2251	O225	0.141100	0.575500	0.143600
O2261	O226	0.998200	0.098500	0.168000
O2271	O227	0.045400	0.904200	0.201400
O2281	O228	0.991920	0.426580	0.104650
O2291	O229	0.097600	0.253800	0.080600
O2301	O230	0.080020	0.169620	0.161000
O2311	O231	0.006000	0.175300	0.082500
O2321	O232	0.010700	0.016300	0.085800
O2331	O233	0.930000	0.100100	0.086500
O2341	O234	0.082380	0.424300	0.045900
O2351	O235	0.052900	0.516900	0.110900
O2361	O236	0.049200	0.623900	0.100300
O2371	O237	0.143400	0.587500	0.940300
O2381	O238	0.893000	0.069100	0.187400
O2391	O239	0.929700	0.005400	0.999000
O2401	O240	0.952600	0.638900	0.984700
O2411	O241	0.961800	0.694300	0.081100
O2421	O242	0.977500	0.993500	0.182200
O2431	O243	0.083400	0.352900	0.137800
O2441	O244	0.134300	0.622000	0.040200
O2451	O245	0.048800	0.677600	0.011000
O2461	O246	0.908100	0.996500	0.103000
O2471	O247	0.011000	0.324700	0.051600
O2481	O248	0.980600	0.917900	0.109200
O2491	O249	0.008100	0.267500	0.153900
O2501	O250	0.894700	0.904600	0.039300
O2511	O251	0.046000	0.573100	0.007700
O2521	O252	0.146300	0.699000	0.960700
N331	N33	0.917400	0.194000	0.175400
H1611	H161	0.905800	0.220300	0.153600
H1621	H162	0.900600	0.163400	0.166200
N341	N34	0.998600	0.185700	0.250000
H1631	H163	0.020600	0.160300	0.263200
H1641	H164	0.009500	0.217900	0.262300
N351	N35	0.054200	0.444500	0.209300
H1651	H165	0.029100	0.469900	0.214400
H1661	H166	0.042300	0.413500	0.223400
N361	N36	0.149500	0.449000	0.153300
H1671	H167	0.170300	0.421100	0.143800
H1681	H168	0.162300	0.478700	0.137300
C491	C49	0.905300	0.207600	0.232000
H1691	H169	0.912300	0.245800	0.237700
C501	C50	0.943000	0.175400	0.266800
H1701	H170	0.938500	0.185500	0.304100
H1711	H171	0.935100	0.137400	0.263400
C511	C51	0.846800	0.196200	0.245500
H1721	H172	0.824100	0.218800	0.224200
H1731	H173	0.840700	0.203300	0.282900
H1741	H174	0.838900	0.159200	0.238000
C521	C52	0.150100	0.455600	0.211000
H1751	H175	0.153300	0.417100	0.218400
C531	C53	0.104700	0.460300	0.234600
H1761	H176	0.101100	0.497800	0.244300
H1771	H177	0.107300	0.440400	0.267900
C541	C54	0.202600	0.469700	0.236700
H1781	H178	0.198000	0.472300	0.274800
H1791	H179	0.215000	0.503400	0.222800
H1801	H180	0.228500	0.442200	0.228800
Ni371	Ni37	0.910130	0.673190	0.419520
Ni381	Ni38	0.999870	0.684670	0.332830
Ni391	Ni39	0.929780	0.935450	0.370710
Ni401	Ni40	0.995620	0.903570	0.472270
W641	W64	0.054410	0.553440	0.353680
W651	W65	0.057100	0.451880	0.447380
W661	W66	0.962420	0.453380	0.345920
W671	W67	0.893180	0.144310	0.525150
W681	W68	0.900380	0.068660	0.410080
W691	W69	0.009520	0.139980	0.449780
W701	W70	0.950920	0.799430	0.394930
O2531	O253	0.858900	0.075500	0.356400
O2541	O254	0.001800	0.598500	0.332000
O2551	O255	0.954600	0.404200	0.298600
O2561	O256	0.008080	0.926580	0.395350
O2571	O257	0.902400	0.753800	0.419400
O2581	O258	0.919980	0.669620	0.339000
O2591	O259	0.994000	0.675300	0.417500
O2601	O260	0.989300	0.516300	0.414200
O2611	O261	0.070000	0.600100	0.413500
O2621	O262	0.917620	0.924300	0.454100
O2631	O263	0.947100	0.016900	0.389100
O2641	O264	0.950800	0.123900	0.399700
O2651	O265	0.856600	0.087500	0.559700
O2661	O266	0.107000	0.569100	0.312600
O2671	O267	0.070300	0.505400	0.501000
O2681	O268	0.047400	0.138900	0.515300
O2691	O269	0.038200	0.194300	0.418900
O2701	O270	0.022500	0.493500	0.317800
O2711	O271	0.916600	0.852900	0.362200
O2721	O272	0.865700	0.122000	0.459800
O2731	O273	0.951200	0.177600	0.489000
O2741	O274	0.091900	0.496500	0.397000
O2751	O275	0.989000	0.824700	0.448400
O2761	O276	0.019400	0.417900	0.390800
O2771	O277	0.991900	0.767500	0.346100
O2781	O278	0.105300	0.404600	0.460700
O2791	O279	0.954000	0.073100	0.492300
O2801	O280	0.853700	0.199000	0.539300
N371	N37	0.082600	0.694000	0.324600
H1811	H181	0.094200	0.720300	0.346400
H1821	H182	0.099400	0.663400	0.333800
N381	N38	0.001400	0.685700	0.250000
H1831	H183	0.979400	0.660300	0.236800
H1841	H184	0.990500	0.717900	0.237700
N391	N39	0.945800	0.944500	0.290700
H1851	H185	0.970900	0.969900	0.285600
H1861	H186	0.957700	0.913500	0.276600
N401	N40	0.850500	0.949000	0.346700
H1871	H187	0.829700	0.921100	0.356200
H1881	H188	0.837700	0.978700	0.362700
C551	C55	0.094700	0.707600	0.268000
H1891	H189	0.087700	0.745800	0.262300
C561	C56	0.057000	0.675400	0.233200
H1901	H190	0.061500	0.685500	0.195900
H1911	H191	0.064900	0.637400	0.236600
C571	C57	0.153200	0.696200	0.254500
H1921	H192	0.175900	0.718800	0.275800
H1931	H193	0.159300	0.703300	0.217100
H1941	H194	0.161100	0.659200	0.262000
C581	C58	0.849900	0.955600	0.289000
H1951	H195	0.846700	0.917100	0.281600
C591	C59	0.895300	0.960300	0.265400
H1961	H196	0.898900	0.997800	0.255700
H1971	H197	0.892700	0.940400	0.232100
C601	C60	0.797400	0.969700	0.263300
H1981	H198	0.802000	0.972300	0.225200
H1991	H199	0.785000	0.003400	0.277200
H2001	H200	0.771500	0.942200	0.271200
Ni411	Ni41	0.589870	0.326810	0.919520
Ni421	Ni42	0.500130	0.315330	0.832830
Ni431	Ni43	0.570220	0.064550	0.870710
Ni441	Ni44	0.504380	0.096430	0.972270
W711	W71	0.445590	0.446560	0.853680
W721	W72	0.442900	0.548110	0.947380
W731	W73	0.537580	0.546620	0.845920
W741	W74	0.606820	0.855690	0.025150
W751	W75	0.599620	0.931340	0.910080
W761	W76	0.490480	0.860020	0.949780
W771	W77	0.549080	0.200570	0.894930
O2811	O281	0.641100	0.924500	0.856400
O2821	O282	0.498200	0.401500	0.832000
O2831	O283	0.545400	0.595800	0.798600
O2841	O284	0.491920	0.073420	0.895350
O2851	O285	0.597600	0.246200	0.919400
O2861	O286	0.580020	0.330380	0.839000
O2871	O287	0.506000	0.324700	0.917500
O2881	O288	0.510700	0.483700	0.914200
O2891	O289	0.430000	0.399900	0.913500
O2901	O290	0.582380	0.075700	0.954100
O2911	O291	0.552900	0.983100	0.889100
O2921	O292	0.549200	0.876100	0.899700
O2931	O293	0.643400	0.912500	0.059700
O2941	O294	0.393000	0.430900	0.812600
O2951	O295	0.429700	0.494600	0.001000
O2961	O296	0.452600	0.861100	0.015300
O2971	O297	0.461800	0.805700	0.918900
O2981	O298	0.477500	0.506500	0.817800
O2991	O299	0.583400	0.147100	0.862200
O3001	O300	0.634300	0.878000	0.959800
O3011	O301	0.548800	0.822400	0.989000
O3021	O302	0.408100	0.503500	0.897000
O3031	O303	0.511000	0.175300	0.948400
O3041	O304	0.480600	0.582100	0.890800
O3051	O305	0.508100	0.232500	0.846100
O3061	O306	0.394700	0.595400	0.960700
O3071	O307	0.546000	0.926900	0.992300
O3081	O308	0.646300	0.801000	0.039300
N411	N41	0.417400	0.306000	0.824600
H2011	H201	0.405800	0.279700	0.846400
H2021	H202	0.400600	0.336600	0.833800
N421	N42	0.498600	0.314300	0.750000
H2031	H203	0.520600	0.339700	0.736800
H2041	H204	0.509500	0.282100	0.737700
N431	N43	0.554200	0.055500	0.790700
H2051	H205	0.529100	0.030100	0.785600
H2061	H206	0.542300	0.086500	0.776600
N441	N44	0.649500	0.051000	0.846700
H2071	H207	0.670300	0.078900	0.856200
H2081	H208	0.662300	0.021300	0.862700
C611	C61	0.405300	0.292400	0.768000
H2091	H209	0.412300	0.254200	0.762300
C621	C62	0.443000	0.324600	0.733200
H2101	H210	0.438500	0.314500	0.695900
H2111	H211	0.435100	0.362600	0.736600
C631	C63	0.346800	0.303800	0.754500
H2121	H212	0.324100	0.281200	0.775800
H2131	H213	0.340700	0.296700	0.717100
H2141	H214	0.338900	0.340800	0.762000
C641	C64	0.650100	0.044400	0.789000
H2151	H215	0.653300	0.082900	0.781600
C651	C65	0.604700	0.039700	0.765400
H2161	H216	0.601100	0.002200	0.755700
H2171	H217	0.607300	0.059600	0.732100
C661	C66	0.702600	0.030300	0.763300
H2181	H218	0.698000	0.027700	0.725200
H2191	H219	0.715000	0.996600	0.777200
H2201	H220	0.728500	0.057800	0.771200
Ni451	Ni45	0.410130	0.826810	0.580480
Ni461	Ni46	0.499870	0.815330	0.667170
Ni471	Ni47	0.429780	0.564550	0.629290
Ni481	Ni48	0.495620	0.596430	0.527730
W781	W78	0.554410	0.946560	0.646320
W791	W79	0.557100	0.048110	0.552620
W801	W80	0.462420	0.046620	0.654080
W811	W81	0.393180	0.355690	0.474850
W821	W82	0.400380	0.431340	0.589920
W831	W83	0.509520	0.360020	0.550220
W841	W84	0.450920	0.700570	0.605070
O3091	O309	0.358900	0.424500	0.643600
O3101	O310	0.501800	0.901500	0.668000
O3111	O311	0.454600	0.095800	0.701400
O3121	O312	0.508080	0.573420	0.604650
O3131	O313	0.402400	0.746200	0.580600
O3141	O314	0.419980	0.830380	0.661000
O3151	O315	0.494000	0.824700	0.582500
O3161	O316	0.489300	0.983700	0.585800
O3171	O317	0.570000	0.899900	0.586500
O3181	O318	0.417620	0.575700	0.545900
O3191	O319	0.447100	0.483100	0.610900
O3201	O320	0.450800	0.376100	0.600300
O3211	O321	0.356600	0.412500	0.440300
O3221	O322	0.607000	0.930900	0.687400
O3231	O323	0.570300	0.994600	0.499000
O3241	O324	0.547400	0.361100	0.484700
O3251	O325	0.538200	0.305700	0.581100
O3261	O326	0.522500	0.006500	0.682200
O3271	O327	0.416600	0.647100	0.637800
O3281	O328	0.365700	0.378000	0.540200
O3291	O329	0.451200	0.322400	0.511000
O3301	O330	0.591900	0.003500	0.603000
O3311	O331	0.489000	0.675300	0.551600
O3321	O332	0.519400	0.082100	0.609200
O3331	O333	0.491900	0.732500	0.653900
O3341	O334	0.605300	0.095400	0.539300
O3351	O335	0.454000	0.426900	0.507700
O3361	O336	0.353700	0.301000	0.460700
N451	N45	0.582600	0.806000	0.675400
H2211	H221	0.594200	0.779700	0.653600
H2221	H222	0.599400	0.836600	0.666200
N461	N46	0.501400	0.814300	0.750000
H2231	H223	0.479400	0.839700	0.763200
H2241	H224	0.490500	0.782100	0.762300
N471	N47	0.445800	0.555500	0.709300
H2251	H225	0.470900	0.530100	0.714400
H2261	H226	0.457700	0.586500	0.723400
N481	N48	0.350500	0.551000	0.653300
H2271	H227	0.329700	0.578900	0.643800
H2281	H228	0.337700	0.521300	0.637300
C671	C67	0.594700	0.792400	0.732000
H2291	H229	0.587700	0.754200	0.737700
C681	C68	0.557000	0.824600	0.766800
H2301	H230	0.561500	0.814500	0.804100
H2311	H231	0.564900	0.862600	0.763400
C691	C69	0.653200	0.803800	0.745500
H2321	H232	0.675900	0.781200	0.724200
H2331	H233	0.659300	0.796700	0.782900
H2341	H234	0.661100	0.840800	0.738000
C701	C70	0.349900	0.544400	0.711000
H2351	H235	0.346700	0.582900	0.718400
C711	C71	0.395300	0.539700	0.734600
H2361	H236	0.398900	0.502200	0.744300
H2371	H237	0.392700	0.559600	0.767900
C721	C72	0.297400	0.530300	0.736700
H2381	H238	0.302000	0.527700	0.774800
H2391	H239	0.285000	0.496600	0.722800
H2401	H240	0.271500	0.557800	0.728800
P11	P1	0.050540	0.050540	0.050540
O3371	O337	0.087000	0.087000	0.087000
P21	P2	0.449460	0.949460	0.550540
O3381	O338	0.413000	0.913000	0.587000
P31	P3	0.949460	0.550540	0.449460
O3391	O339	0.913000	0.587000	0.413000
P41	P4	0.550540	0.449460	0.949460
O3401	O340	0.587000	0.413000	0.913000
P51	P5	0.976010	0.023990	0.523990
O3411	O341	0.011630	0.988370	0.488370
P61	P6	0.523990	0.976010	0.023990
O3421	O342	0.488370	0.011630	0.988370
P71	P7	0.023990	0.523990	0.976010
O3431	O343	0.988370	0.488370	0.011630
P81	P8	0.476010	0.476010	0.476010
O3441	O344	0.511630	0.511630	0.511630
