data_QUJJUC_freeONLY_PM
_symmetry_space_group_name_H-M	'P1'
_cell_length_a	22.425000
_cell_length_b	22.425000
_cell_length_c	22.425000
_cell_angle_alpha	90.000000
_cell_angle_beta	90.000000
_cell_angle_gamma	90.000000
_symmetry_Int_Tables_number 1

loop_
_symmetry_equiv_pos_as_xyz
'x,y,z'

loop_
_atom_site_label
_atom_site_type_symbol
_atom_site_fract_x
_atom_site_fract_y
_atom_site_fract_z
Br11	Br1	0.664270	0.420660	0.120800
C11	C1	0.712000	0.417300	0.052200
C21	C2	0.685000	0.416000	0.997100
C31	C3	0.774000	0.415200	0.059800
O11	O1	0.629800	0.415600	0.987600
O21	O2	0.802400	0.411200	0.108300
Br21	Br2	0.164270	0.920660	0.620800
C41	C4	0.212000	0.917300	0.552200
C51	C5	0.185000	0.916000	0.497100
C61	C6	0.274000	0.915200	0.559800
O31	O3	0.129800	0.915600	0.487600
O41	O4	0.302400	0.911200	0.608300
Br31	Br3	0.835730	0.579340	0.620800
C71	C7	0.788000	0.582700	0.552200
C81	C8	0.815000	0.584000	0.497100
C91	C9	0.726000	0.584800	0.559800
O51	O5	0.870200	0.584400	0.487600
O61	O6	0.697600	0.588800	0.608300
Br41	Br4	0.335730	0.079340	0.120800
C101	C10	0.288000	0.082700	0.052200
C111	C11	0.315000	0.084000	0.997100
C121	C12	0.226000	0.084800	0.059800
O71	O7	0.370200	0.084400	0.987600
O81	O8	0.197600	0.088800	0.108300
Br51	Br5	0.335730	0.920660	0.379200
C131	C13	0.288000	0.917300	0.447800
C141	C14	0.315000	0.916000	0.502900
C151	C15	0.226000	0.915200	0.440200
O91	O9	0.370200	0.915600	0.512400
O101	O10	0.197600	0.911200	0.391700
Br61	Br6	0.835730	0.420660	0.879200
C161	C16	0.788000	0.417300	0.947800
C171	C17	0.815000	0.416000	0.002900
C181	C18	0.726000	0.415200	0.940200
O111	O11	0.870200	0.415600	0.012400
O121	O12	0.697600	0.411200	0.891700
Br71	Br7	0.164270	0.079340	0.879200
C191	C19	0.212000	0.082700	0.947800
C201	C20	0.185000	0.084000	0.002900
C211	C21	0.274000	0.084800	0.940200
O131	O13	0.129800	0.084400	0.012400
O141	O14	0.302400	0.088800	0.891700
Br81	Br8	0.664270	0.579340	0.379200
C221	C22	0.712000	0.582700	0.447800
C231	C23	0.685000	0.584000	0.502900
C241	C24	0.774000	0.584800	0.440200
O151	O15	0.629800	0.584400	0.512400
O161	O16	0.802400	0.588800	0.391700
Br91	Br9	0.120800	0.664270	0.420660
C251	C25	0.052200	0.712000	0.417300
C261	C26	0.997100	0.685000	0.416000
C271	C27	0.059800	0.774000	0.415200
O171	O17	0.987600	0.629800	0.415600
O181	O18	0.108300	0.802400	0.411200
Br101	Br10	0.620800	0.164270	0.920660
C281	C28	0.552200	0.212000	0.917300
C291	C29	0.497100	0.185000	0.916000
C301	C30	0.559800	0.274000	0.915200
O191	O19	0.487600	0.129800	0.915600
O201	O20	0.608300	0.302400	0.911200
Br111	Br11	0.620800	0.835730	0.579340
C311	C31	0.552200	0.788000	0.582700
C321	C32	0.497100	0.815000	0.584000
C331	C33	0.559800	0.726000	0.584800
O211	O21	0.487600	0.870200	0.584400
O221	O22	0.608300	0.697600	0.588800
Br121	Br12	0.120800	0.335730	0.079340
C341	C34	0.052200	0.288000	0.082700
C351	C35	0.997100	0.315000	0.084000
C361	C36	0.059800	0.226000	0.084800
O231	O23	0.987600	0.370200	0.084400
O241	O24	0.108300	0.197600	0.088800
Br131	Br13	0.379200	0.335730	0.920660
C371	C37	0.447800	0.288000	0.917300
C381	C38	0.502900	0.315000	0.916000
C391	C39	0.440200	0.226000	0.915200
O251	O25	0.512400	0.370200	0.915600
O261	O26	0.391700	0.197600	0.911200
Br141	Br14	0.879200	0.835730	0.420660
C401	C40	0.947800	0.788000	0.417300
C411	C41	0.002900	0.815000	0.416000
C421	C42	0.940200	0.726000	0.415200
O271	O27	0.012400	0.870200	0.415600
O281	O28	0.891700	0.697600	0.411200
Br151	Br15	0.879200	0.164270	0.079340
C431	C43	0.947800	0.212000	0.082700
C441	C44	0.002900	0.185000	0.084000
C451	C45	0.940200	0.274000	0.084800
O291	O29	0.012400	0.129800	0.084400
O301	O30	0.891700	0.302400	0.088800
Br161	Br16	0.379200	0.664270	0.579340
C461	C46	0.447800	0.712000	0.582700
C471	C47	0.502900	0.685000	0.584000
C481	C48	0.440200	0.774000	0.584800
O311	O31	0.512400	0.629800	0.584400
O321	O32	0.391700	0.802400	0.588800
Br171	Br17	0.420660	0.120800	0.664270
C491	C49	0.417300	0.052200	0.712000
C501	C50	0.416000	0.997100	0.685000
C511	C51	0.415200	0.059800	0.774000
O331	O33	0.415600	0.987600	0.629800
O341	O34	0.411200	0.108300	0.802400
Br181	Br18	0.920660	0.620800	0.164270
C521	C52	0.917300	0.552200	0.212000
C531	C53	0.916000	0.497100	0.185000
C541	C54	0.915200	0.559800	0.274000
O351	O35	0.915600	0.487600	0.129800
O361	O36	0.911200	0.608300	0.302400
Br191	Br19	0.579340	0.620800	0.835730
C551	C55	0.582700	0.552200	0.788000
C561	C56	0.584000	0.497100	0.815000
C571	C57	0.584800	0.559800	0.726000
O371	O37	0.584400	0.487600	0.870200
O381	O38	0.588800	0.608300	0.697600
Br201	Br20	0.079340	0.120800	0.335730
C581	C58	0.082700	0.052200	0.288000
C591	C59	0.084000	0.997100	0.315000
C601	C60	0.084800	0.059800	0.226000
O391	O39	0.084400	0.987600	0.370200
O401	O40	0.088800	0.108300	0.197600
Br211	Br21	0.920660	0.379200	0.335730
C611	C61	0.917300	0.447800	0.288000
C621	C62	0.916000	0.502900	0.315000
C631	C63	0.915200	0.440200	0.226000
O411	O41	0.915600	0.512400	0.370200
O421	O42	0.911200	0.391700	0.197600
Br221	Br22	0.420660	0.879200	0.835730
C641	C64	0.417300	0.947800	0.788000
C651	C65	0.416000	0.002900	0.815000
C661	C66	0.415200	0.940200	0.726000
O431	O43	0.415600	0.012400	0.870200
O441	O44	0.411200	0.891700	0.697600
Br231	Br23	0.079340	0.879200	0.164270
C671	C67	0.082700	0.947800	0.212000
C681	C68	0.084000	0.002900	0.185000
C691	C69	0.084800	0.940200	0.274000
O451	O45	0.084400	0.012400	0.129800
O461	O46	0.088800	0.891700	0.302400
Br241	Br24	0.579340	0.379200	0.664270
C701	C70	0.582700	0.447800	0.712000
C711	C71	0.584000	0.502900	0.685000
C721	C72	0.584800	0.440200	0.774000
O471	O47	0.584400	0.512400	0.629800
O481	O48	0.588800	0.391700	0.802400
Na11	Na1	0.603530	0.396470	0.896470
Na21	Na2	0.103530	0.896470	0.396470
Na31	Na3	0.896470	0.603530	0.396470
Na41	Na4	0.396470	0.103530	0.896470
Na51	Na5	0.396470	0.896470	0.603530
Na61	Na6	0.896470	0.396470	0.103530
Na71	Na7	0.103530	0.103530	0.103530
Na81	Na8	0.603530	0.603530	0.603530
Br251	Br25	0.670660	0.914270	0.370800
C731	C73	0.667300	0.962000	0.302200
C741	C74	0.666000	0.935000	0.247100
C751	C75	0.665200	0.024000	0.309800
O491	O49	0.665600	0.879800	0.237600
O501	O50	0.661200	0.052400	0.358300
Br261	Br26	0.170660	0.414270	0.870800
C761	C76	0.167300	0.462000	0.802200
C771	C77	0.166000	0.435000	0.747100
C781	C78	0.165200	0.524000	0.809800
O511	O51	0.165600	0.379800	0.737600
O521	O52	0.161200	0.552400	0.858300
Br271	Br27	0.829340	0.085730	0.870800
C791	C79	0.832700	0.038000	0.802200
C801	C80	0.834000	0.065000	0.747100
C811	C81	0.834800	0.976000	0.809800
O531	O53	0.834400	0.120200	0.737600
O541	O54	0.838800	0.947600	0.858300
Br281	Br28	0.329340	0.585730	0.370800
C821	C82	0.332700	0.538000	0.302200
C831	C83	0.334000	0.565000	0.247100
C841	C84	0.334800	0.476000	0.309800
O551	O55	0.334400	0.620200	0.237600
O561	O56	0.338800	0.447600	0.358300
Br291	Br29	0.170660	0.585730	0.629200
C851	C85	0.167300	0.538000	0.697800
C861	C86	0.166000	0.565000	0.752900
C871	C87	0.165200	0.476000	0.690200
O571	O57	0.165600	0.620200	0.762400
O581	O58	0.161200	0.447600	0.641700
Br301	Br30	0.670660	0.085730	0.129200
C881	C88	0.667300	0.038000	0.197800
C891	C89	0.666000	0.065000	0.252900
C901	C90	0.665200	0.976000	0.190200
O591	O59	0.665600	0.120200	0.262400
O601	O60	0.661200	0.947600	0.141700
Br311	Br31	0.329340	0.414270	0.129200
C911	C91	0.332700	0.462000	0.197800
C921	C92	0.334000	0.435000	0.252900
C931	C93	0.334800	0.524000	0.190200
O611	O61	0.334400	0.379800	0.262400
O621	O62	0.338800	0.552400	0.141700
Br321	Br32	0.829340	0.914270	0.629200
C941	C94	0.832700	0.962000	0.697800
C951	C95	0.834000	0.935000	0.752900
C961	C96	0.834800	0.024000	0.690200
O631	O63	0.834400	0.879800	0.762400
O641	O64	0.838800	0.052400	0.641700
Br331	Br33	0.914270	0.370800	0.670660
C971	C97	0.962000	0.302200	0.667300
C981	C98	0.935000	0.247100	0.666000
C991	C99	0.024000	0.309800	0.665200
O651	O65	0.879800	0.237600	0.665600
O661	O66	0.052400	0.358300	0.661200
Br341	Br34	0.414270	0.870800	0.170660
C1001	C100	0.462000	0.802200	0.167300
C1011	C101	0.435000	0.747100	0.166000
C1021	C102	0.524000	0.809800	0.165200
O671	O67	0.379800	0.737600	0.165600
O681	O68	0.552400	0.858300	0.161200
Br351	Br35	0.085730	0.870800	0.829340
C1031	C103	0.038000	0.802200	0.832700
C1041	C104	0.065000	0.747100	0.834000
C1051	C105	0.976000	0.809800	0.834800
O691	O69	0.120200	0.737600	0.834400
O701	O70	0.947600	0.858300	0.838800
Br361	Br36	0.585730	0.370800	0.329340
C1061	C106	0.538000	0.302200	0.332700
C1071	C107	0.565000	0.247100	0.334000
C1081	C108	0.476000	0.309800	0.334800
O711	O71	0.620200	0.237600	0.334400
O721	O72	0.447600	0.358300	0.338800
Br371	Br37	0.585730	0.629200	0.170660
C1091	C109	0.538000	0.697800	0.167300
C1101	C110	0.565000	0.752900	0.166000
C1111	C111	0.476000	0.690200	0.165200
O731	O73	0.620200	0.762400	0.165600
O741	O74	0.447600	0.641700	0.161200
Br381	Br38	0.085730	0.129200	0.670660
C1121	C112	0.038000	0.197800	0.667300
C1131	C113	0.065000	0.252900	0.666000
C1141	C114	0.976000	0.190200	0.665200
O751	O75	0.120200	0.262400	0.665600
O761	O76	0.947600	0.141700	0.661200
Br391	Br39	0.414270	0.129200	0.329340
C1151	C115	0.462000	0.197800	0.332700
C1161	C116	0.435000	0.252900	0.334000
C1171	C117	0.524000	0.190200	0.334800
O771	O77	0.379800	0.262400	0.334400
O781	O78	0.552400	0.141700	0.338800
Br401	Br40	0.914270	0.629200	0.829340
C1181	C118	0.962000	0.697800	0.832700
C1191	C119	0.935000	0.752900	0.834000
C1201	C120	0.024000	0.690200	0.834800
O791	O79	0.879800	0.762400	0.834400
O801	O80	0.052400	0.641700	0.838800
Br411	Br41	0.370800	0.670660	0.914270
C1211	C121	0.302200	0.667300	0.962000
C1221	C122	0.247100	0.666000	0.935000
C1231	C123	0.309800	0.665200	0.024000
O811	O81	0.237600	0.665600	0.879800
O821	O82	0.358300	0.661200	0.052400
Br421	Br42	0.870800	0.170660	0.414270
C1241	C124	0.802200	0.167300	0.462000
C1251	C125	0.747100	0.166000	0.435000
C1261	C126	0.809800	0.165200	0.524000
O831	O83	0.737600	0.165600	0.379800
O841	O84	0.858300	0.161200	0.552400
Br431	Br43	0.870800	0.829340	0.085730
C1271	C127	0.802200	0.832700	0.038000
C1281	C128	0.747100	0.834000	0.065000
C1291	C129	0.809800	0.834800	0.976000
O851	O85	0.737600	0.834400	0.120200
O861	O86	0.858300	0.838800	0.947600
Br441	Br44	0.370800	0.329340	0.585730
C1301	C130	0.302200	0.332700	0.538000
C1311	C131	0.247100	0.334000	0.565000
C1321	C132	0.309800	0.334800	0.476000
O871	O87	0.237600	0.334400	0.620200
O881	O88	0.358300	0.338800	0.447600
Br451	Br45	0.629200	0.170660	0.585730
C1331	C133	0.697800	0.167300	0.538000
C1341	C134	0.752900	0.166000	0.565000
C1351	C135	0.690200	0.165200	0.476000
O891	O89	0.762400	0.165600	0.620200
O901	O90	0.641700	0.161200	0.447600
Br461	Br46	0.129200	0.670660	0.085730
C1361	C136	0.197800	0.667300	0.038000
C1371	C137	0.252900	0.666000	0.065000
C1381	C138	0.190200	0.665200	0.976000
O911	O91	0.262400	0.665600	0.120200
O921	O92	0.141700	0.661200	0.947600
Br471	Br47	0.129200	0.329340	0.414270
C1391	C139	0.197800	0.332700	0.462000
C1401	C140	0.252900	0.334000	0.435000
C1411	C141	0.190200	0.334800	0.524000
O931	O93	0.262400	0.334400	0.379800
O941	O94	0.141700	0.338800	0.552400
Br481	Br48	0.629200	0.829340	0.914270
C1421	C142	0.697800	0.832700	0.962000
C1431	C143	0.752900	0.834000	0.935000
C1441	C144	0.690200	0.834800	0.024000
O951	O95	0.762400	0.834400	0.879800
O961	O96	0.641700	0.838800	0.052400
Na91	Na9	0.646470	0.853530	0.146470
Na101	Na10	0.146470	0.353530	0.646470
Na111	Na11	0.853530	0.146470	0.646470
Na121	Na12	0.353530	0.646470	0.146470
Na131	Na13	0.146470	0.646470	0.853530
Na141	Na14	0.646470	0.146470	0.353530
Na151	Na15	0.353530	0.353530	0.353530
Na161	Na16	0.853530	0.853530	0.853530
