data_QUKYOL_freeONLY_PM
_symmetry_space_group_name_H-M	'P1'
_cell_length_a	8.302800
_cell_length_b	9.463000
_cell_length_c	20.639800
_cell_angle_alpha	90.000000
_cell_angle_beta	90.000000
_cell_angle_gamma	109.867000
_symmetry_Int_Tables_number 1

loop_
_symmetry_equiv_pos_as_xyz
'x,y,z'

loop_
_atom_site_label
_atom_site_type_symbol
_atom_site_fract_x
_atom_site_fract_y
_atom_site_fract_z
La11	La1	0.376850	0.398930	0.648390
La21	La2	0.623150	0.101070	0.148390
La31	La3	0.623150	0.601070	0.351610
La41	La4	0.376850	0.898930	0.851610
Cu11	Cu1	0.036850	0.948950	0.703210
Cu21	Cu2	0.963150	0.551050	0.203210
Cu31	Cu3	0.963150	0.051050	0.296790
Cu41	Cu4	0.036850	0.448950	0.796790
P11	P1	0.209130	0.694410	0.699820
P21	P2	0.790870	0.805590	0.199820
P31	P3	0.790870	0.305590	0.300180
P41	P4	0.209130	0.194410	0.800180
H11	H1	0.779300	0.739200	0.593000
H21	H2	0.867200	0.614200	0.603500
H31	H3	0.106200	0.901100	0.530200
H41	H4	0.945100	0.944300	0.554200
H51	H5	0.143000	0.680400	0.590400
H61	H6	0.277100	0.842500	0.607400
H71	H7	0.989400	0.260000	0.639400
H81	H8	0.995700	0.405800	0.647500
H91	H9	0.515500	0.185300	0.726000
H101	H10	0.652200	0.266300	0.688500
H111	H11	0.220700	0.760800	0.093000
H121	H12	0.132800	0.885800	0.103500
H131	H13	0.893800	0.598900	0.030200
H141	H14	0.054900	0.555700	0.054200
H151	H15	0.857000	0.819600	0.090400
H161	H16	0.722900	0.657500	0.107400
H171	H17	0.010600	0.240000	0.139400
H181	H18	0.004300	0.094200	0.147500
H191	H19	0.484500	0.314700	0.226000
H201	H20	0.347800	0.233700	0.188500
H211	H21	0.220700	0.260800	0.407000
H221	H22	0.132800	0.385800	0.396500
H231	H23	0.893800	0.098900	0.469800
H241	H24	0.054900	0.055700	0.445800
H251	H25	0.857000	0.319600	0.409600
H261	H26	0.722900	0.157500	0.392600
H271	H27	0.010600	0.740000	0.360600
H281	H28	0.004300	0.594200	0.352500
H291	H29	0.484500	0.814700	0.274000
H301	H30	0.347800	0.733700	0.311500
H311	H31	0.779300	0.239200	0.907000
H321	H32	0.867200	0.114200	0.896500
H331	H33	0.106200	0.401100	0.969800
H341	H34	0.945100	0.444300	0.945800
H351	H35	0.143000	0.180400	0.909600
H361	H36	0.277100	0.342500	0.892600
H371	H37	0.989400	0.760000	0.860600
H381	H38	0.995700	0.905800	0.852500
H391	H39	0.515500	0.685300	0.774000
H401	H40	0.652200	0.766300	0.811500
C11	C1	0.780800	0.677500	0.689520
C21	C2	0.857000	0.707800	0.621460
C31	C3	0.056000	0.936300	0.567770
C41	C4	0.176500	0.089300	0.590030
C51	C5	0.170600	0.763700	0.621770
C61	C6	0.569200	0.461900	0.502430
C71	C7	0.219200	0.822500	0.189520
C81	C8	0.143000	0.792200	0.121460
C91	C9	0.944000	0.563700	0.067770
C101	C10	0.823500	0.410700	0.090030
C111	C11	0.829400	0.736300	0.121770
C121	C12	0.430800	0.038100	0.002430
C131	C13	0.219200	0.322500	0.310480
C141	C14	0.143000	0.292200	0.378540
C151	C15	0.944000	0.063700	0.432230
C161	C16	0.823500	0.910700	0.409970
C171	C17	0.829400	0.236300	0.378230
C181	C18	0.430800	0.538100	0.497570
C191	C19	0.780800	0.177500	0.810480
C201	C20	0.857000	0.207800	0.878540
C211	C21	0.056000	0.436300	0.932230
C221	C22	0.176500	0.589300	0.909970
C231	C23	0.170600	0.263700	0.878230
C241	C24	0.569200	0.961900	0.997570
N11	N1	0.028700	0.827300	0.622130
N21	N2	0.971300	0.672700	0.122130
N31	N3	0.971300	0.172700	0.377870
N41	N4	0.028700	0.327300	0.877870
O11	O1	0.842500	0.778300	0.732910
O21	O2	0.658400	0.558900	0.699290
O31	O3	0.199300	0.108800	0.651760
O41	O4	0.244800	0.190800	0.551100
O51	O5	0.356700	0.636300	0.690510
O61	O6	0.043500	0.564900	0.719060
O71	O7	0.248400	0.830300	0.744200
O81	O8	0.048400	0.351100	0.631470
O91	O9	0.543600	0.235700	0.691190
O101	O10	0.591300	0.412300	0.557380
O111	O11	0.649900	0.456700	0.451980
O121	O12	0.157500	0.721700	0.232910
O131	O13	0.341600	0.941100	0.199290
O141	O14	0.800700	0.391200	0.151760
O151	O15	0.755200	0.309200	0.051100
O161	O16	0.643300	0.863700	0.190510
O171	O17	0.956500	0.935100	0.219060
O181	O18	0.751600	0.669700	0.244200
O191	O19	0.951600	0.148900	0.131470
O201	O20	0.456400	0.264300	0.191190
O211	O21	0.408700	0.087700	0.057380
O221	O22	0.350100	0.043300	0.951980
O231	O23	0.157500	0.221700	0.267090
O241	O24	0.341600	0.441100	0.300710
O251	O25	0.800700	0.891200	0.348240
O261	O26	0.755200	0.809200	0.448900
O271	O27	0.643300	0.363700	0.309490
O281	O28	0.956500	0.435100	0.280940
O291	O29	0.751600	0.169700	0.255800
O301	O30	0.951600	0.648900	0.368530
O311	O31	0.456400	0.764300	0.308810
O321	O32	0.408700	0.587700	0.442620
O331	O33	0.350100	0.543300	0.548020
O341	O34	0.842500	0.278300	0.767090
O351	O35	0.658400	0.058900	0.800710
O361	O36	0.199300	0.608800	0.848240
O371	O37	0.244800	0.690800	0.948900
O381	O38	0.356700	0.136300	0.809490
O391	O39	0.043500	0.064900	0.780940
O401	O40	0.248400	0.330300	0.755800
O411	O41	0.048400	0.851100	0.868530
O421	O42	0.543600	0.735700	0.808810
O431	O43	0.591300	0.912300	0.942620
O441	O44	0.649900	0.956700	0.048020
