data_QUQHAM_freeONLY_PM
_symmetry_space_group_name_H-M	'P1'
_cell_length_a	5.859500
_cell_length_b	11.538200
_cell_length_c	11.538200
_cell_angle_alpha	94.109100
_cell_angle_beta	101.721000
_cell_angle_gamma	78.279200
_symmetry_Int_Tables_number 1

loop_
_symmetry_equiv_pos_as_xyz
'x,y,z'

loop_
_atom_site_label
_atom_site_type_symbol
_atom_site_fract_x
_atom_site_fract_y
_atom_site_fract_z
Cu11	Cu1	0.851510	0.260130	0.991070
Cu21	Cu2	0.648490	0.991070	0.260130
Cu31	Cu3	0.148490	0.739870	0.008930
Cu41	Cu4	0.351510	0.008930	0.739870
Cu51	Cu5	0.750000	0.991220	0.991220
Cu61	Cu6	0.250000	0.008780	0.008780
H11	H1	0.927500	0.095100	0.861500
H21	H2	0.841800	0.458500	0.736700
H31	H3	0.166000	0.305200	0.757400
H41	H4	0.572500	0.861500	0.095100
H51	H5	0.658200	0.736700	0.458500
H61	H6	0.334000	0.757400	0.305200
H71	H7	0.072500	0.904900	0.138500
H81	H8	0.158200	0.541500	0.263300
H91	H9	0.834000	0.694800	0.242600
H101	H10	0.427500	0.138500	0.904900
H111	H11	0.341800	0.263300	0.541500
H121	H12	0.666000	0.242600	0.694800
C11	C1	0.786600	0.666000	0.861600
C21	C2	0.995300	0.565000	0.862800
C31	C3	0.979300	0.464300	0.791700
C41	C4	0.172600	0.373600	0.804800
C51	C5	0.380300	0.381000	0.888200
C61	C6	0.394200	0.489110	0.955930
C71	C7	0.713400	0.861600	0.666000
C81	C8	0.504700	0.862800	0.565000
C91	C9	0.520700	0.791700	0.464300
C101	C10	0.327400	0.804800	0.373600
C111	C11	0.119700	0.888200	0.381000
C121	C12	0.105800	0.955930	0.489110
C131	C13	0.213400	0.334000	0.138400
C141	C14	0.004700	0.435000	0.137200
C151	C15	0.020700	0.535700	0.208300
C161	C16	0.827400	0.626400	0.195200
C171	C17	0.619700	0.619000	0.111800
C181	C18	0.605800	0.510890	0.044070
C191	C19	0.286600	0.138400	0.334000
C201	C20	0.495300	0.137200	0.435000
C211	C21	0.479300	0.208300	0.535700
C221	C22	0.672600	0.195200	0.626400
C231	C23	0.880300	0.111800	0.619000
C241	C24	0.894200	0.044070	0.510890
N11	N1	0.196400	0.577310	0.939730
N21	N2	0.303600	0.939730	0.577310
N31	N3	0.803600	0.422690	0.060270
N41	N4	0.696400	0.060270	0.422690
O11	O1	0.933200	0.092510	0.932990
O21	O2	0.822900	0.752920	0.933300
O31	O3	0.593900	0.659020	0.796920
O41	O4	0.547000	0.283800	0.897500
O51	O5	0.566800	0.932990	0.092510
O61	O6	0.677100	0.933300	0.752920
O71	O7	0.906100	0.796920	0.659020
O81	O8	0.953000	0.897500	0.283800
O91	O9	0.066800	0.907490	0.067010
O101	O10	0.177100	0.247080	0.066700
O111	O11	0.406100	0.340980	0.203080
O121	O12	0.453000	0.716200	0.102500
O131	O13	0.433200	0.067010	0.907490
O141	O14	0.322900	0.066700	0.247080
O151	O15	0.093900	0.203080	0.340980
O161	O16	0.047000	0.102500	0.716200
