data_QUQWUW_freeONLY_PM
_symmetry_space_group_name_H-M	'P1'
_cell_length_a	18.822600
_cell_length_b	18.642700
_cell_length_c	14.248500
_cell_angle_alpha	90.000000
_cell_angle_beta	130.175000
_cell_angle_gamma	90.000000
_symmetry_Int_Tables_number 1

loop_
_symmetry_equiv_pos_as_xyz
'x,y,z'

loop_
_atom_site_label
_atom_site_type_symbol
_atom_site_fract_x
_atom_site_fract_y
_atom_site_fract_z
C11	C1	0.685900	0.338700	0.117500
C21	C2	0.689700	0.316900	0.027700
H11	H1	0.652500	0.339800	0.951900
C31	C3	0.747900	0.261300	0.048600
C41	C4	0.800700	0.228500	0.161800
H21	H2	0.841300	0.192100	0.178700
C51	C5	0.795900	0.247200	0.251100
C61	C6	0.738700	0.304000	0.229400
H31	H3	0.736200	0.318400	0.289700
C71	C7	0.621900	0.399200	0.087800
C81	C8	0.856000	0.206700	0.371500
C91	C9	0.535800	0.442700	0.330600
N11	N1	0.527700	0.462100	0.412500
N21	N2	0.539000	0.374200	0.304200
H41	H4	0.535600	0.339900	0.341400
H51	H5	0.544400	0.364700	0.249900
O11	O1	0.621000	0.420500	0.170300
O21	O2	0.573600	0.424300	0.982200
O31	O3	0.856000	0.220500	0.455200
O41	O4	0.900400	0.156600	0.373300
C101	C10	0.185900	0.838700	0.117500
C111	C11	0.189700	0.816900	0.027700
H61	H6	0.152500	0.839800	0.951900
C121	C12	0.247900	0.761300	0.048600
C131	C13	0.300700	0.728500	0.161800
H71	H7	0.341300	0.692100	0.178700
C141	C14	0.295900	0.747200	0.251100
C151	C15	0.238700	0.804000	0.229400
H81	H8	0.236200	0.818400	0.289700
C161	C16	0.121900	0.899200	0.087800
C171	C17	0.356000	0.706700	0.371500
C181	C18	0.035800	0.942700	0.330600
N31	N3	0.027700	0.962100	0.412500
N41	N4	0.039000	0.874200	0.304200
H91	H9	0.035600	0.839900	0.341400
H101	H10	0.044400	0.864700	0.249900
O51	O5	0.121000	0.920500	0.170300
O61	O6	0.073600	0.924300	0.982200
O71	O7	0.356000	0.720500	0.455200
O81	O8	0.400400	0.656600	0.373300
C191	C19	0.314100	0.338700	0.882500
C201	C20	0.310300	0.316900	0.972300
H111	H11	0.347500	0.339800	0.048100
C211	C21	0.252100	0.261300	0.951400
C221	C22	0.199300	0.228500	0.838200
H121	H12	0.158700	0.192100	0.821300
C231	C23	0.204100	0.247200	0.748900
C241	C24	0.261300	0.304000	0.770600
H131	H13	0.263800	0.318400	0.710300
C251	C25	0.378100	0.399200	0.912200
C261	C26	0.144000	0.206700	0.628500
C271	C27	0.464200	0.442700	0.669400
N51	N5	0.472300	0.462100	0.587500
N61	N6	0.461000	0.374200	0.695800
H141	H14	0.464400	0.339900	0.658600
H151	H15	0.455600	0.364700	0.750100
O91	O9	0.379000	0.420500	0.829700
O101	O10	0.426400	0.424300	0.017800
O111	O11	0.144000	0.220500	0.544800
O121	O12	0.099600	0.156600	0.626700
C281	C28	0.814100	0.838700	0.882500
C291	C29	0.810300	0.816900	0.972300
H161	H16	0.847500	0.839800	0.048100
C301	C30	0.752100	0.761300	0.951400
C311	C31	0.699300	0.728500	0.838200
H171	H17	0.658700	0.692100	0.821300
C321	C32	0.704100	0.747200	0.748900
C331	C33	0.761300	0.804000	0.770600
H181	H18	0.763800	0.818400	0.710300
C341	C34	0.878100	0.899200	0.912200
C351	C35	0.644000	0.706700	0.628500
C361	C36	0.964200	0.942700	0.669400
N71	N7	0.972300	0.962100	0.587500
N81	N8	0.961000	0.874200	0.695800
H191	H19	0.964400	0.839900	0.658600
H201	H20	0.955600	0.864700	0.750100
O131	O13	0.879000	0.920500	0.829700
O141	O14	0.926400	0.924300	0.017800
O151	O15	0.644000	0.720500	0.544800
O161	O16	0.599600	0.656600	0.626700
C371	C37	0.314100	0.661300	0.882500
C381	C38	0.310300	0.683100	0.972300
H211	H21	0.347500	0.660200	0.048100
C391	C39	0.252100	0.738700	0.951400
C401	C40	0.199300	0.771500	0.838200
H221	H22	0.158700	0.807900	0.821300
C411	C41	0.204100	0.752800	0.748900
C421	C42	0.261300	0.696000	0.770600
H231	H23	0.263800	0.681600	0.710300
C431	C43	0.378100	0.600800	0.912200
C441	C44	0.144000	0.793300	0.628500
C451	C45	0.464200	0.557300	0.669400
N91	N9	0.472300	0.537900	0.587500
N101	N10	0.461000	0.625800	0.695800
H241	H24	0.464400	0.660100	0.658600
H251	H25	0.455600	0.635300	0.750100
O171	O17	0.379000	0.579500	0.829700
O181	O18	0.426400	0.575700	0.017800
O191	O19	0.144000	0.779500	0.544800
O201	O20	0.099600	0.843400	0.626700
C461	C46	0.814100	0.161300	0.882500
C471	C47	0.810300	0.183100	0.972300
H261	H26	0.847500	0.160200	0.048100
C481	C48	0.752100	0.238700	0.951400
C491	C49	0.699300	0.271500	0.838200
H271	H27	0.658700	0.307900	0.821300
C501	C50	0.704100	0.252800	0.748900
C511	C51	0.761300	0.196000	0.770600
H281	H28	0.763800	0.181600	0.710300
C521	C52	0.878100	0.100800	0.912200
C531	C53	0.644000	0.293300	0.628500
C541	C54	0.964200	0.057300	0.669400
N111	N11	0.972300	0.037900	0.587500
N121	N12	0.961000	0.125800	0.695800
H291	H29	0.964400	0.160100	0.658600
H301	H30	0.955600	0.135300	0.750100
O211	O21	0.879000	0.079500	0.829700
O221	O22	0.926400	0.075700	0.017800
O231	O23	0.644000	0.279500	0.544800
O241	O24	0.599600	0.343400	0.626700
C551	C55	0.685900	0.661300	0.117500
C561	C56	0.689700	0.683100	0.027700
H311	H31	0.652500	0.660200	0.951900
C571	C57	0.747900	0.738700	0.048600
C581	C58	0.800700	0.771500	0.161800
H321	H32	0.841300	0.807900	0.178700
C591	C59	0.795900	0.752800	0.251100
C601	C60	0.738700	0.696000	0.229400
H331	H33	0.736200	0.681600	0.289700
C611	C61	0.621900	0.600800	0.087800
C621	C62	0.856000	0.793300	0.371500
C631	C63	0.535800	0.557300	0.330600
N131	N13	0.527700	0.537900	0.412500
N141	N14	0.539000	0.625800	0.304200
H341	H34	0.535600	0.660100	0.341400
H351	H35	0.544400	0.635300	0.249900
O251	O25	0.621000	0.579500	0.170300
O261	O26	0.573600	0.575700	0.982200
O271	O27	0.856000	0.779500	0.455200
O281	O28	0.900400	0.843400	0.373300
C641	C64	0.185900	0.161300	0.117500
C651	C65	0.189700	0.183100	0.027700
H361	H36	0.152500	0.160200	0.951900
C661	C66	0.247900	0.238700	0.048600
C671	C67	0.300700	0.271500	0.161800
H371	H37	0.341300	0.307900	0.178700
C681	C68	0.295900	0.252800	0.251100
C691	C69	0.238700	0.196000	0.229400
H381	H38	0.236200	0.181600	0.289700
C701	C70	0.121900	0.100800	0.087800
C711	C71	0.356000	0.293300	0.371500
C721	C72	0.035800	0.057300	0.330600
N151	N15	0.027700	0.037900	0.412500
N161	N16	0.039000	0.125800	0.304200
H391	H39	0.035600	0.160100	0.341400
H401	H40	0.044400	0.135300	0.249900
O291	O29	0.121000	0.079500	0.170300
O301	O30	0.073600	0.075700	0.982200
O311	O31	0.356000	0.279500	0.455200
O321	O32	0.400400	0.343400	0.373300
Zn11	Zn1	0.529950	0.500000	0.126820
N171	N17	0.539800	0.500000	0.275700
Zn21	Zn2	0.029950	0.000000	0.126820
N181	N18	0.039800	0.000000	0.275700
Zn31	Zn3	0.470050	0.500000	0.873180
N191	N19	0.460200	0.500000	0.724300
Zn41	Zn4	0.970050	0.000000	0.873180
N201	N20	0.960200	0.000000	0.724300
Zn51	Zn5	0.000000	0.096940	0.500000
Zn61	Zn6	0.500000	0.596940	0.500000
Zn71	Zn7	0.000000	0.903060	0.500000
Zn81	Zn8	0.500000	0.403060	0.500000
