data_QUQWOQ_freeONLY_PM
_symmetry_space_group_name_H-M	'P1'
_cell_length_a	28.300600
_cell_length_b	20.085000
_cell_length_c	15.433500
_cell_angle_alpha	90.000000
_cell_angle_beta	92.498000
_cell_angle_gamma	90.000000
_symmetry_Int_Tables_number 1

loop_
_symmetry_equiv_pos_as_xyz
'x,y,z'

loop_
_atom_site_label
_atom_site_type_symbol
_atom_site_fract_x
_atom_site_fract_y
_atom_site_fract_z
Zn11	Zn1	0.064890	0.005180	0.011290
C11	C1	0.036070	0.120100	0.899500
C21	C2	0.962570	0.109600	0.879100
C31	C3	0.376180	0.188200	0.284500
C41	C4	0.361080	0.141600	0.342700
H11	H1	0.382900	0.124400	0.383600
C51	C5	0.315330	0.119600	0.342900
H21	H2	0.306300	0.088900	0.384200
C61	C6	0.282130	0.143500	0.280300
C71	C7	0.297090	0.189200	0.223200
H31	H3	0.275600	0.205500	0.181100
C81	C8	0.343590	0.213000	0.225100
H41	H4	0.352300	0.245500	0.186000
C91	C9	0.426290	0.212400	0.288700
C101	C10	0.231970	0.119400	0.277300
C111	C11	0.209610	0.104900	0.353100
H51	H5	0.225100	0.113300	0.406300
C121	C12	0.164360	0.077800	0.350800
C131	C13	0.140330	0.069700	0.269400
H61	H6	0.109800	0.052400	0.266700
C141	C14	0.161340	0.086700	0.195300
C151	C15	0.207120	0.114200	0.199500
H71	H7	0.220600	0.129000	0.149000
C161	C16	0.139840	0.059800	0.431400
C171	C17	0.134490	0.076700	0.108900
O11	O1	0.436770	0.256700	0.235100
O21	O2	0.455430	0.188700	0.340400
O31	O3	0.156490	0.075700	0.502000
O41	O4	0.101930	0.028600	0.419900
O51	O5	0.147920	0.103500	0.042700
O61	O6	0.099060	0.039500	0.112200
N11	N1	0.023450	0.070400	0.952900
N21	N2	0.974710	0.064500	0.937900
N31	N3	0.998830	0.147300	0.852500
N41	N4	0.080680	0.141600	0.894100
H81	H8	0.103000	0.123700	0.925600
H91	H9	0.087000	0.173400	0.859100
N51	N5	0.916810	0.119900	0.847700
H101	H10	0.894200	0.096200	0.866500
H111	H11	0.910900	0.150200	0.809200
Zn21	Zn2	0.564890	0.505180	0.011290
C181	C18	0.536070	0.620100	0.899500
C191	C19	0.462570	0.609600	0.879100
C201	C20	0.876180	0.688200	0.284500
C211	C21	0.861080	0.641600	0.342700
H121	H12	0.882900	0.624400	0.383600
C221	C22	0.815330	0.619600	0.342900
H131	H13	0.806300	0.588900	0.384200
C231	C23	0.782130	0.643500	0.280300
C241	C24	0.797090	0.689200	0.223200
H141	H14	0.775600	0.705500	0.181100
C251	C25	0.843590	0.713000	0.225100
H151	H15	0.852300	0.745500	0.186000
C261	C26	0.926290	0.712400	0.288700
C271	C27	0.731970	0.619400	0.277300
C281	C28	0.709610	0.604900	0.353100
H161	H16	0.725100	0.613300	0.406300
C291	C29	0.664360	0.577800	0.350800
C301	C30	0.640330	0.569700	0.269400
H171	H17	0.609800	0.552400	0.266700
C311	C31	0.661340	0.586700	0.195300
C321	C32	0.707120	0.614200	0.199500
H181	H18	0.720600	0.629000	0.149000
C331	C33	0.639840	0.559800	0.431400
C341	C34	0.634490	0.576700	0.108900
O71	O7	0.936770	0.756700	0.235100
O81	O8	0.955430	0.688700	0.340400
O91	O9	0.656490	0.575700	0.502000
O101	O10	0.601930	0.528600	0.419900
O111	O11	0.647920	0.603500	0.042700
O121	O12	0.599060	0.539500	0.112200
N61	N6	0.523450	0.570400	0.952900
N71	N7	0.474710	0.564500	0.937900
N81	N8	0.498830	0.647300	0.852500
N91	N9	0.580680	0.641600	0.894100
H191	H19	0.603000	0.623700	0.925600
H201	H20	0.587000	0.673400	0.859100
N101	N10	0.416810	0.619900	0.847700
H211	H21	0.394200	0.596200	0.866500
H221	H22	0.410900	0.650200	0.809200
Zn31	Zn3	0.935110	0.005180	0.488710
C351	C35	0.963930	0.120100	0.600500
C361	C36	0.037430	0.109600	0.620900
C371	C37	0.623820	0.188200	0.215500
C381	C38	0.638920	0.141600	0.157300
H231	H23	0.617100	0.124400	0.116400
C391	C39	0.684670	0.119600	0.157100
H241	H24	0.693700	0.088900	0.115800
C401	C40	0.717870	0.143500	0.219700
C411	C41	0.702910	0.189200	0.276800
H251	H25	0.724400	0.205500	0.318900
C421	C42	0.656410	0.213000	0.274900
H261	H26	0.647700	0.245500	0.314000
C431	C43	0.573710	0.212400	0.211300
C441	C44	0.768030	0.119400	0.222700
C451	C45	0.790390	0.104900	0.146900
H271	H27	0.774900	0.113300	0.093700
C461	C46	0.835640	0.077800	0.149200
C471	C47	0.859670	0.069700	0.230600
H281	H28	0.890200	0.052400	0.233300
C481	C48	0.838660	0.086700	0.304700
C491	C49	0.792880	0.114200	0.300500
H291	H29	0.779400	0.129000	0.351000
C501	C50	0.860160	0.059800	0.068600
C511	C51	0.865510	0.076700	0.391100
O131	O13	0.563230	0.256700	0.264900
O141	O14	0.544570	0.188700	0.159600
O151	O15	0.843510	0.075700	0.998000
O161	O16	0.898070	0.028600	0.080100
O171	O17	0.852080	0.103500	0.457300
O181	O18	0.900940	0.039500	0.387800
N111	N11	0.976550	0.070400	0.547100
N121	N12	0.025290	0.064500	0.562100
N131	N13	0.001170	0.147300	0.647500
N141	N14	0.919320	0.141600	0.605900
H301	H30	0.897000	0.123700	0.574400
H311	H31	0.913000	0.173400	0.640900
N151	N15	0.083190	0.119900	0.652300
H321	H32	0.105800	0.096200	0.633500
H331	H33	0.089100	0.150200	0.690800
Zn41	Zn4	0.435110	0.505180	0.488710
C521	C52	0.463930	0.620100	0.600500
C531	C53	0.537430	0.609600	0.620900
C541	C54	0.123820	0.688200	0.215500
C551	C55	0.138920	0.641600	0.157300
H341	H34	0.117100	0.624400	0.116400
C561	C56	0.184670	0.619600	0.157100
H351	H35	0.193700	0.588900	0.115800
C571	C57	0.217870	0.643500	0.219700
C581	C58	0.202910	0.689200	0.276800
H361	H36	0.224400	0.705500	0.318900
C591	C59	0.156410	0.713000	0.274900
H371	H37	0.147700	0.745500	0.314000
C601	C60	0.073710	0.712400	0.211300
C611	C61	0.268030	0.619400	0.222700
C621	C62	0.290390	0.604900	0.146900
H381	H38	0.274900	0.613300	0.093700
C631	C63	0.335640	0.577800	0.149200
C641	C64	0.359670	0.569700	0.230600
H391	H39	0.390200	0.552400	0.233300
C651	C65	0.338660	0.586700	0.304700
C661	C66	0.292880	0.614200	0.300500
H401	H40	0.279400	0.629000	0.351000
C671	C67	0.360160	0.559800	0.068600
C681	C68	0.365510	0.576700	0.391100
O191	O19	0.063230	0.756700	0.264900
O201	O20	0.044570	0.688700	0.159600
O211	O21	0.343510	0.575700	0.998000
O221	O22	0.398070	0.528600	0.080100
O231	O23	0.352080	0.603500	0.457300
O241	O24	0.400940	0.539500	0.387800
N161	N16	0.476550	0.570400	0.547100
N171	N17	0.525290	0.564500	0.562100
N181	N18	0.501170	0.647300	0.647500
N191	N19	0.419320	0.641600	0.605900
H411	H41	0.397000	0.623700	0.574400
H421	H42	0.413000	0.673400	0.640900
N201	N20	0.583190	0.619900	0.652300
H431	H43	0.605800	0.596200	0.633500
H441	H44	0.589100	0.650200	0.690800
Zn51	Zn5	0.935110	0.994820	0.988710
C691	C69	0.963930	0.879900	0.100500
C701	C70	0.037430	0.890400	0.120900
C711	C71	0.623820	0.811800	0.715500
C721	C72	0.638920	0.858400	0.657300
H451	H45	0.617100	0.875600	0.616400
C731	C73	0.684670	0.880400	0.657100
H461	H46	0.693700	0.911100	0.615800
C741	C74	0.717870	0.856500	0.719700
C751	C75	0.702910	0.810800	0.776800
H471	H47	0.724400	0.794500	0.818900
C761	C76	0.656410	0.787000	0.774900
H481	H48	0.647700	0.754500	0.814000
C771	C77	0.573710	0.787600	0.711300
C781	C78	0.768030	0.880600	0.722700
C791	C79	0.790390	0.895100	0.646900
H491	H49	0.774900	0.886700	0.593700
C801	C80	0.835640	0.922200	0.649200
C811	C81	0.859670	0.930300	0.730600
H501	H50	0.890200	0.947600	0.733300
C821	C82	0.838660	0.913300	0.804700
C831	C83	0.792880	0.885800	0.800500
H511	H51	0.779400	0.871000	0.851000
C841	C84	0.860160	0.940200	0.568600
C851	C85	0.865510	0.923300	0.891100
O251	O25	0.563230	0.743300	0.764900
O261	O26	0.544570	0.811300	0.659600
O271	O27	0.843510	0.924300	0.498000
O281	O28	0.898070	0.971400	0.580100
O291	O29	0.852080	0.896500	0.957300
O301	O30	0.900940	0.960500	0.887800
N211	N21	0.976550	0.929600	0.047100
N221	N22	0.025290	0.935500	0.062100
N231	N23	0.001170	0.852700	0.147500
N241	N24	0.919320	0.858400	0.105900
H521	H52	0.897000	0.876300	0.074400
H531	H53	0.913000	0.826600	0.140900
N251	N25	0.083190	0.880100	0.152300
H541	H54	0.105800	0.903800	0.133500
H551	H55	0.089100	0.849800	0.190800
Zn61	Zn6	0.435110	0.494820	0.988710
C861	C86	0.463930	0.379900	0.100500
C871	C87	0.537430	0.390400	0.120900
C881	C88	0.123820	0.311800	0.715500
C891	C89	0.138920	0.358400	0.657300
H561	H56	0.117100	0.375600	0.616400
C901	C90	0.184670	0.380400	0.657100
H571	H57	0.193700	0.411100	0.615800
C911	C91	0.217870	0.356500	0.719700
C921	C92	0.202910	0.310800	0.776800
H581	H58	0.224400	0.294500	0.818900
C931	C93	0.156410	0.287000	0.774900
H591	H59	0.147700	0.254500	0.814000
C941	C94	0.073710	0.287600	0.711300
C951	C95	0.268030	0.380600	0.722700
C961	C96	0.290390	0.395100	0.646900
H601	H60	0.274900	0.386700	0.593700
C971	C97	0.335640	0.422200	0.649200
C981	C98	0.359670	0.430300	0.730600
H611	H61	0.390200	0.447600	0.733300
C991	C99	0.338660	0.413300	0.804700
C1001	C100	0.292880	0.385800	0.800500
H621	H62	0.279400	0.371000	0.851000
C1011	C101	0.360160	0.440200	0.568600
C1021	C102	0.365510	0.423300	0.891100
O311	O31	0.063230	0.243300	0.764900
O321	O32	0.044570	0.311300	0.659600
O331	O33	0.343510	0.424300	0.498000
O341	O34	0.398070	0.471400	0.580100
O351	O35	0.352080	0.396500	0.957300
O361	O36	0.400940	0.460500	0.887800
N261	N26	0.476550	0.429600	0.047100
N271	N27	0.525290	0.435500	0.062100
N281	N28	0.501170	0.352700	0.147500
N291	N29	0.419320	0.358400	0.105900
H631	H63	0.397000	0.376300	0.074400
H641	H64	0.413000	0.326600	0.140900
N301	N30	0.583190	0.380100	0.152300
H651	H65	0.605800	0.403800	0.133500
H661	H66	0.589100	0.349800	0.190800
Zn71	Zn7	0.064890	0.994820	0.511290
C1031	C103	0.036070	0.879900	0.399500
C1041	C104	0.962570	0.890400	0.379100
C1051	C105	0.376180	0.811800	0.784500
C1061	C106	0.361080	0.858400	0.842700
H671	H67	0.382900	0.875600	0.883600
C1071	C107	0.315330	0.880400	0.842900
H681	H68	0.306300	0.911100	0.884200
C1081	C108	0.282130	0.856500	0.780300
C1091	C109	0.297090	0.810800	0.723200
H691	H69	0.275600	0.794500	0.681100
C1101	C110	0.343590	0.787000	0.725100
H701	H70	0.352300	0.754500	0.686000
C1111	C111	0.426290	0.787600	0.788700
C1121	C112	0.231970	0.880600	0.777300
C1131	C113	0.209610	0.895100	0.853100
H711	H71	0.225100	0.886700	0.906300
C1141	C114	0.164360	0.922200	0.850800
C1151	C115	0.140330	0.930300	0.769400
H721	H72	0.109800	0.947600	0.766700
C1161	C116	0.161340	0.913300	0.695300
C1171	C117	0.207120	0.885800	0.699500
H731	H73	0.220600	0.871000	0.649000
C1181	C118	0.139840	0.940200	0.931400
C1191	C119	0.134490	0.923300	0.608900
O371	O37	0.436770	0.743300	0.735100
O381	O38	0.455430	0.811300	0.840400
O391	O39	0.156490	0.924300	0.002000
O401	O40	0.101930	0.971400	0.919900
O411	O41	0.147920	0.896500	0.542700
O421	O42	0.099060	0.960500	0.612200
N311	N31	0.023450	0.929600	0.452900
N321	N32	0.974710	0.935500	0.437900
N331	N33	0.998830	0.852700	0.352500
N341	N34	0.080680	0.858400	0.394100
H741	H74	0.103000	0.876300	0.425600
H751	H75	0.087000	0.826600	0.359100
N351	N35	0.916810	0.880100	0.347700
H761	H76	0.894200	0.903800	0.366500
H771	H77	0.910900	0.849800	0.309200
Zn81	Zn8	0.564890	0.494820	0.511290
C1201	C120	0.536070	0.379900	0.399500
C1211	C121	0.462570	0.390400	0.379100
C1221	C122	0.876180	0.311800	0.784500
C1231	C123	0.861080	0.358400	0.842700
H781	H78	0.882900	0.375600	0.883600
C1241	C124	0.815330	0.380400	0.842900
H791	H79	0.806300	0.411100	0.884200
C1251	C125	0.782130	0.356500	0.780300
C1261	C126	0.797090	0.310800	0.723200
H801	H80	0.775600	0.294500	0.681100
C1271	C127	0.843590	0.287000	0.725100
H811	H81	0.852300	0.254500	0.686000
C1281	C128	0.926290	0.287600	0.788700
C1291	C129	0.731970	0.380600	0.777300
C1301	C130	0.709610	0.395100	0.853100
H821	H82	0.725100	0.386700	0.906300
C1311	C131	0.664360	0.422200	0.850800
C1321	C132	0.640330	0.430300	0.769400
H831	H83	0.609800	0.447600	0.766700
C1331	C133	0.661340	0.413300	0.695300
C1341	C134	0.707120	0.385800	0.699500
H841	H84	0.720600	0.371000	0.649000
C1351	C135	0.639840	0.440200	0.931400
C1361	C136	0.634490	0.423300	0.608900
O431	O43	0.936770	0.243300	0.735100
O441	O44	0.955430	0.311300	0.840400
O451	O45	0.656490	0.424300	0.002000
O461	O46	0.601930	0.471400	0.919900
O471	O47	0.647920	0.396500	0.542700
O481	O48	0.599060	0.460500	0.612200
N361	N36	0.523450	0.429600	0.452900
N371	N37	0.474710	0.435500	0.437900
N381	N38	0.498830	0.352700	0.352500
N391	N39	0.580680	0.358400	0.394100
H851	H85	0.603000	0.376300	0.425600
H861	H86	0.587000	0.326600	0.359100
N401	N40	0.416810	0.380100	0.347700
H871	H87	0.394200	0.403800	0.366500
H881	H88	0.410900	0.349800	0.309200
Zn91	Zn9	0.500000	0.292710	0.250000
Zn101	Zn10	0.000000	0.792710	0.250000
Zn111	Zn11	0.500000	0.707290	0.750000
Zn121	Zn12	0.000000	0.207290	0.750000
