data_QUQYUY_freeONLY_PM
_symmetry_space_group_name_H-M	'P1'
_cell_length_a	23.376200
_cell_length_b	13.446100
_cell_length_c	21.349900
_cell_angle_alpha	90.000000
_cell_angle_beta	90.000000
_cell_angle_gamma	90.000000
_symmetry_Int_Tables_number 1

loop_
_symmetry_equiv_pos_as_xyz
'x,y,z'

loop_
_atom_site_label
_atom_site_type_symbol
_atom_site_fract_x
_atom_site_fract_y
_atom_site_fract_z
C11	C1	0.016300	0.977700	0.277300
H11	H1	0.994000	0.018300	0.251900
N11	N1	0.067190	0.011400	0.295470
C21	C2	0.994900	0.886200	0.293900
H21	H2	0.959500	0.864900	0.279400
N21	N2	0.168950	0.082500	0.324180
C31	C3	0.027500	0.826900	0.332600
H31	H3	0.013800	0.765400	0.345800
C41	C4	0.080400	0.859500	0.351500
H41	H4	0.103000	0.820200	0.377500
C51	C5	0.099770	0.952400	0.331290
C61	C6	0.157200	0.992300	0.347960
C71	C7	0.196900	0.941100	0.383600
H51	H5	0.188300	0.878500	0.399500
C81	C8	0.249600	0.984100	0.395400
H61	H6	0.276700	0.950700	0.419500
C91	C9	0.261500	0.075200	0.371700
H71	H7	0.296500	0.105700	0.379000
C101	C10	0.219800	0.121100	0.336300
H81	H8	0.228000	0.183600	0.319900
Cu11	Cu1	0.101540	0.156060	0.278000
N31	N3	0.095650	0.164300	0.187230
C111	C11	0.078090	0.137900	0.139880
S11	S1	0.067720	0.908380	0.100990
Re11	Re1	0.027640	0.088980	0.941710
S21	S2	0.049990	0.946690	0.877990
Re21	Re2	0.063400	0.921280	0.988510
S31	S3	0.001140	0.218050	0.014620
S41	S4	0.119080	0.072900	0.993580
Re31	Re3	0.037450	0.068120	0.062780
N41	N4	0.074690	0.257300	0.335360
C121	C12	0.058580	0.311000	0.373120
C131	C13	0.231800	0.945500	0.081300
H91	H9	0.235800	0.977200	0.042800
N51	N5	0.246550	0.849200	0.085800
C141	C14	0.211000	0.999000	0.131000
H101	H10	0.200300	0.065200	0.126400
C151	C15	0.206500	0.952300	0.186900
H111	H11	0.192800	0.986900	0.221500
C161	C16	0.222000	0.853600	0.193100
H121	H12	0.219000	0.821400	0.231500
C171	C17	0.242200	0.803800	0.140800
N61	N6	0.176530	0.783200	0.972490
C181	C18	0.135910	0.830500	0.975740
C191	C19	0.483700	0.522300	0.277300
H131	H13	0.506000	0.481700	0.251900
N71	N7	0.432810	0.488600	0.295470
C201	C20	0.505100	0.613800	0.293900
H141	H14	0.540500	0.635100	0.279400
N81	N8	0.331050	0.417500	0.324180
C211	C21	0.472500	0.673100	0.332600
H151	H15	0.486200	0.734600	0.345800
C221	C22	0.419600	0.640500	0.351500
H161	H16	0.397000	0.679800	0.377500
C231	C23	0.400230	0.547600	0.331290
C241	C24	0.342800	0.507700	0.347960
C251	C25	0.303100	0.558900	0.383600
H171	H17	0.311700	0.621500	0.399500
C261	C26	0.250400	0.515900	0.395400
H181	H18	0.223300	0.549300	0.419500
C271	C27	0.238500	0.424800	0.371700
H191	H19	0.203500	0.394300	0.379000
C281	C28	0.280200	0.378900	0.336300
H201	H20	0.272000	0.316400	0.319900
Cu21	Cu2	0.398460	0.343940	0.278000
N91	N9	0.404350	0.335700	0.187230
C291	C29	0.421910	0.362100	0.139880
S51	S5	0.432280	0.591620	0.100990
Re41	Re4	0.472360	0.411020	0.941710
S61	S6	0.450010	0.553310	0.877990
Re51	Re5	0.436600	0.578720	0.988510
S71	S7	0.498860	0.281950	0.014620
S81	S8	0.380920	0.427100	0.993580
Re61	Re6	0.462550	0.431880	0.062780
N101	N10	0.425310	0.242700	0.335360
C301	C30	0.441420	0.189000	0.373120
C311	C31	0.268200	0.554500	0.081300
H211	H21	0.264200	0.522800	0.042800
N111	N11	0.253450	0.650800	0.085800
C321	C32	0.289000	0.501000	0.131000
H221	H22	0.299700	0.434800	0.126400
C331	C33	0.293500	0.547700	0.186900
H231	H23	0.307200	0.513100	0.221500
C341	C34	0.278000	0.646400	0.193100
H241	H24	0.281000	0.678600	0.231500
C351	C35	0.257800	0.696200	0.140800
N121	N12	0.323470	0.716800	0.972490
C361	C36	0.364090	0.669500	0.975740
C371	C37	0.983700	0.477700	0.222700
H251	H25	0.006000	0.518300	0.248100
N131	N13	0.932810	0.511400	0.204530
C381	C38	0.005100	0.386200	0.206100
H261	H26	0.040500	0.364900	0.220600
N141	N14	0.831050	0.582500	0.175820
C391	C39	0.972500	0.326900	0.167400
H271	H27	0.986200	0.265400	0.154200
C401	C40	0.919600	0.359500	0.148500
H281	H28	0.897000	0.320200	0.122500
C411	C41	0.900230	0.452400	0.168710
C421	C42	0.842800	0.492300	0.152040
C431	C43	0.803100	0.441100	0.116400
H291	H29	0.811700	0.378500	0.100500
C441	C44	0.750400	0.484100	0.104600
H301	H30	0.723300	0.450700	0.080500
C451	C45	0.738500	0.575200	0.128300
H311	H31	0.703500	0.605700	0.121000
C461	C46	0.780200	0.621100	0.163700
H321	H32	0.772000	0.683600	0.180100
Cu31	Cu3	0.898460	0.656060	0.222000
N151	N15	0.904350	0.664300	0.312770
C471	C47	0.921910	0.637900	0.360120
S91	S9	0.932280	0.408380	0.399010
Re71	Re7	0.972360	0.588980	0.558290
S101	S10	0.950010	0.446690	0.622010
Re81	Re8	0.936600	0.421280	0.511490
S111	S11	0.998860	0.718050	0.485380
S121	S12	0.880920	0.572900	0.506420
Re91	Re9	0.962550	0.568120	0.437220
N161	N16	0.925310	0.757300	0.164640
C481	C48	0.941420	0.811000	0.126880
C491	C49	0.768200	0.445500	0.418700
H331	H33	0.764200	0.477200	0.457200
N171	N17	0.753450	0.349200	0.414200
C501	C50	0.789000	0.499000	0.369000
H341	H34	0.799700	0.565200	0.373600
C511	C51	0.793500	0.452300	0.313100
H351	H35	0.807200	0.486900	0.278500
C521	C52	0.778000	0.353600	0.306900
H361	H36	0.781000	0.321400	0.268500
C531	C53	0.757800	0.303800	0.359200
N181	N18	0.823470	0.283200	0.527510
C541	C54	0.864090	0.330500	0.524260
C551	C55	0.516300	0.022300	0.222700
H371	H37	0.494000	0.981700	0.248100
N191	N19	0.567190	0.988600	0.204530
C561	C56	0.494900	0.113800	0.206100
H381	H38	0.459500	0.135100	0.220600
N201	N20	0.668950	0.917500	0.175820
C571	C57	0.527500	0.173100	0.167400
H391	H39	0.513800	0.234600	0.154200
C581	C58	0.580400	0.140500	0.148500
H401	H40	0.603000	0.179800	0.122500
C591	C59	0.599770	0.047600	0.168710
C601	C60	0.657200	0.007700	0.152040
C611	C61	0.696900	0.058900	0.116400
H411	H41	0.688300	0.121500	0.100500
C621	C62	0.749600	0.015900	0.104600
H421	H42	0.776700	0.049300	0.080500
C631	C63	0.761500	0.924800	0.128300
H431	H43	0.796500	0.894300	0.121000
C641	C64	0.719800	0.878900	0.163700
H441	H44	0.728000	0.816400	0.180100
Cu41	Cu4	0.601540	0.843940	0.222000
N211	N21	0.595650	0.835700	0.312770
C651	C65	0.578090	0.862100	0.360120
S131	S13	0.567720	0.091620	0.399010
Re101	Re10	0.527640	0.911020	0.558290
S141	S14	0.549990	0.053310	0.622010
Re111	Re11	0.563400	0.078720	0.511490
S151	S15	0.501140	0.781950	0.485380
S161	S16	0.619080	0.927100	0.506420
Re121	Re12	0.537450	0.931880	0.437220
N221	N22	0.574690	0.742700	0.164640
C661	C66	0.558580	0.689000	0.126880
C671	C67	0.731800	0.054500	0.418700
H451	H45	0.735800	0.022800	0.457200
N231	N23	0.746550	0.150800	0.414200
C681	C68	0.711000	0.001000	0.369000
H461	H46	0.700300	0.934800	0.373600
C691	C69	0.706500	0.047700	0.313100
H471	H47	0.692800	0.013100	0.278500
C701	C70	0.722000	0.146400	0.306900
H481	H48	0.719000	0.178600	0.268500
C711	C71	0.742200	0.196200	0.359200
N241	N24	0.676530	0.216800	0.527510
C721	C72	0.635910	0.169500	0.524260
C731	C73	0.983700	0.022300	0.722700
H491	H49	0.006000	0.981700	0.748100
N251	N25	0.932810	0.988600	0.704530
C741	C74	0.005100	0.113800	0.706100
H501	H50	0.040500	0.135100	0.720600
N261	N26	0.831050	0.917500	0.675820
C751	C75	0.972500	0.173100	0.667400
H511	H51	0.986200	0.234600	0.654200
C761	C76	0.919600	0.140500	0.648500
H521	H52	0.897000	0.179800	0.622500
C771	C77	0.900230	0.047600	0.668710
C781	C78	0.842800	0.007700	0.652040
C791	C79	0.803100	0.058900	0.616400
H531	H53	0.811700	0.121500	0.600500
C801	C80	0.750400	0.015900	0.604600
H541	H54	0.723300	0.049300	0.580500
C811	C81	0.738500	0.924800	0.628300
H551	H55	0.703500	0.894300	0.621000
C821	C82	0.780200	0.878900	0.663700
H561	H56	0.772000	0.816400	0.680100
Cu51	Cu5	0.898460	0.843940	0.722000
N271	N27	0.904350	0.835700	0.812770
C831	C83	0.921910	0.862100	0.860120
S171	S17	0.932280	0.091620	0.899010
Re131	Re13	0.972360	0.911020	0.058290
S181	S18	0.950010	0.053310	0.122010
Re141	Re14	0.936600	0.078720	0.011490
S191	S19	0.998860	0.781950	0.985380
S201	S20	0.880920	0.927100	0.006420
Re151	Re15	0.962550	0.931880	0.937220
N281	N28	0.925310	0.742700	0.664640
C841	C84	0.941420	0.689000	0.626880
C851	C85	0.768200	0.054500	0.918700
H571	H57	0.764200	0.022800	0.957200
N291	N29	0.753450	0.150800	0.914200
C861	C86	0.789000	0.001000	0.869000
H581	H58	0.799700	0.934800	0.873600
C871	C87	0.793500	0.047700	0.813100
H591	H59	0.807200	0.013100	0.778500
C881	C88	0.778000	0.146400	0.806900
H601	H60	0.781000	0.178600	0.768500
C891	C89	0.757800	0.196200	0.859200
N301	N30	0.823470	0.216800	0.027510
C901	C90	0.864090	0.169500	0.024260
C911	C91	0.516300	0.477700	0.722700
H611	H61	0.494000	0.518300	0.748100
N311	N31	0.567190	0.511400	0.704530
C921	C92	0.494900	0.386200	0.706100
H621	H62	0.459500	0.364900	0.720600
N321	N32	0.668950	0.582500	0.675820
C931	C93	0.527500	0.326900	0.667400
H631	H63	0.513800	0.265400	0.654200
C941	C94	0.580400	0.359500	0.648500
H641	H64	0.603000	0.320200	0.622500
C951	C95	0.599770	0.452400	0.668710
C961	C96	0.657200	0.492300	0.652040
C971	C97	0.696900	0.441100	0.616400
H651	H65	0.688300	0.378500	0.600500
C981	C98	0.749600	0.484100	0.604600
H661	H66	0.776700	0.450700	0.580500
C991	C99	0.761500	0.575200	0.628300
H671	H67	0.796500	0.605700	0.621000
C1001	C100	0.719800	0.621100	0.663700
H681	H68	0.728000	0.683600	0.680100
Cu61	Cu6	0.601540	0.656060	0.722000
N331	N33	0.595650	0.664300	0.812770
C1011	C101	0.578090	0.637900	0.860120
S211	S21	0.567720	0.408380	0.899010
Re161	Re16	0.527640	0.588980	0.058290
S221	S22	0.549990	0.446690	0.122010
Re171	Re17	0.563400	0.421280	0.011490
S231	S23	0.501140	0.718050	0.985380
S241	S24	0.619080	0.572900	0.006420
Re181	Re18	0.537450	0.568120	0.937220
N341	N34	0.574690	0.757300	0.664640
C1021	C102	0.558580	0.811000	0.626880
C1031	C103	0.731800	0.445500	0.918700
H691	H69	0.735800	0.477200	0.957200
N351	N35	0.746550	0.349200	0.914200
C1041	C104	0.711000	0.499000	0.869000
H701	H70	0.700300	0.565200	0.873600
C1051	C105	0.706500	0.452300	0.813100
H711	H71	0.692800	0.486900	0.778500
C1061	C106	0.722000	0.353600	0.806900
H721	H72	0.719000	0.321400	0.768500
C1071	C107	0.742200	0.303800	0.859200
N361	N36	0.676530	0.283200	0.027510
C1081	C108	0.635910	0.330500	0.024260
C1091	C109	0.016300	0.522300	0.777300
H731	H73	0.994000	0.481700	0.751900
N371	N37	0.067190	0.488600	0.795470
C1101	C110	0.994900	0.613800	0.793900
H741	H74	0.959500	0.635100	0.779400
N381	N38	0.168950	0.417500	0.824180
C1111	C111	0.027500	0.673100	0.832600
H751	H75	0.013800	0.734600	0.845800
C1121	C112	0.080400	0.640500	0.851500
H761	H76	0.103000	0.679800	0.877500
C1131	C113	0.099770	0.547600	0.831290
C1141	C114	0.157200	0.507700	0.847960
C1151	C115	0.196900	0.558900	0.883600
H771	H77	0.188300	0.621500	0.899500
C1161	C116	0.249600	0.515900	0.895400
H781	H78	0.276700	0.549300	0.919500
C1171	C117	0.261500	0.424800	0.871700
H791	H79	0.296500	0.394300	0.879000
C1181	C118	0.219800	0.378900	0.836300
H801	H80	0.228000	0.316400	0.819900
Cu71	Cu7	0.101540	0.343940	0.778000
N391	N39	0.095650	0.335700	0.687230
C1191	C119	0.078090	0.362100	0.639880
S251	S25	0.067720	0.591620	0.600990
Re191	Re19	0.027640	0.411020	0.441710
S261	S26	0.049990	0.553310	0.377990
Re201	Re20	0.063400	0.578720	0.488510
S271	S27	0.001140	0.281950	0.514620
S281	S28	0.119080	0.427100	0.493580
Re211	Re21	0.037450	0.431880	0.562780
N401	N40	0.074690	0.242700	0.835360
C1201	C120	0.058580	0.189000	0.873120
C1211	C121	0.231800	0.554500	0.581300
H811	H81	0.235800	0.522800	0.542800
N411	N41	0.246550	0.650800	0.585800
C1221	C122	0.211000	0.501000	0.631000
H821	H82	0.200300	0.434800	0.626400
C1231	C123	0.206500	0.547700	0.686900
H831	H83	0.192800	0.513100	0.721500
C1241	C124	0.222000	0.646400	0.693100
H841	H84	0.219000	0.678600	0.731500
C1251	C125	0.242200	0.696200	0.640800
N421	N42	0.176530	0.716800	0.472490
C1261	C126	0.135910	0.669500	0.475740
C1271	C127	0.483700	0.977700	0.777300
H851	H85	0.506000	0.018300	0.751900
N431	N43	0.432810	0.011400	0.795470
C1281	C128	0.505100	0.886200	0.793900
H861	H86	0.540500	0.864900	0.779400
N441	N44	0.331050	0.082500	0.824180
C1291	C129	0.472500	0.826900	0.832600
H871	H87	0.486200	0.765400	0.845800
C1301	C130	0.419600	0.859500	0.851500
H881	H88	0.397000	0.820200	0.877500
C1311	C131	0.400230	0.952400	0.831290
C1321	C132	0.342800	0.992300	0.847960
C1331	C133	0.303100	0.941100	0.883600
H891	H89	0.311700	0.878500	0.899500
C1341	C134	0.250400	0.984100	0.895400
H901	H90	0.223300	0.950700	0.919500
C1351	C135	0.238500	0.075200	0.871700
H911	H91	0.203500	0.105700	0.879000
C1361	C136	0.280200	0.121100	0.836300
H921	H92	0.272000	0.183600	0.819900
Cu81	Cu8	0.398460	0.156060	0.778000
N451	N45	0.404350	0.164300	0.687230
C1371	C137	0.421910	0.137900	0.639880
S291	S29	0.432280	0.908380	0.600990
Re221	Re22	0.472360	0.088980	0.441710
S301	S30	0.450010	0.946690	0.377990
Re231	Re23	0.436600	0.921280	0.488510
S311	S31	0.498860	0.218050	0.514620
S321	S32	0.380920	0.072900	0.493580
Re241	Re24	0.462550	0.068120	0.562780
N461	N46	0.425310	0.257300	0.835360
C1381	C138	0.441420	0.311000	0.873120
C1391	C139	0.268200	0.945500	0.581300
H931	H93	0.264200	0.977200	0.542800
N471	N47	0.253450	0.849200	0.585800
C1401	C140	0.289000	0.999000	0.631000
H941	H94	0.299700	0.065200	0.626400
C1411	C141	0.293500	0.952300	0.686900
H951	H95	0.307200	0.986900	0.721500
C1421	C142	0.278000	0.853600	0.693100
H961	H96	0.281000	0.821400	0.731500
C1431	C143	0.257800	0.803800	0.640800
N481	N48	0.323470	0.783200	0.472490
C1441	C144	0.364090	0.830500	0.475740
Cu91	Cu9	0.250000	0.750000	0.009220
Cu101	Cu10	0.750000	0.250000	0.490780
Cu111	Cu11	0.750000	0.250000	0.990780
Cu121	Cu12	0.250000	0.750000	0.509220
