data_QUSFEP_charged_PM
_symmetry_space_group_name_H-M	'P1'
_cell_length_a	10.949000
_cell_length_b	13.371000
_cell_length_c	14.453000
_cell_angle_alpha	64.427000
_cell_angle_beta	71.905000
_cell_angle_gamma	74.327000
_symmetry_Int_Tables_number 1

loop_
_symmetry_equiv_pos_as_xyz
'x,y,z'

loop_
_atom_site_label
_atom_site_type_symbol
_atom_site_fract_x
_atom_site_fract_y
_atom_site_fract_z
La11	La1	0.223560	0.820170	0.768430
La21	La2	0.776440	0.179830	0.231570
Cu11	Cu1	0.681280	0.602550	0.937260
Cu21	Cu2	0.190370	0.123250	0.438560
Cu31	Cu3	0.318720	0.397450	0.062740
Cu41	Cu4	0.809630	0.876750	0.561440
H11	H1	0.394900	0.643400	0.060800
H21	H2	0.406200	0.758300	0.060200
H31	H3	0.614100	0.812900	0.996300
H41	H4	0.620900	0.747000	0.114900
H51	H5	0.637100	0.561400	0.189700
H61	H6	0.491400	0.558100	0.199500
H71	H7	0.913100	0.449000	0.910000
H81	H8	0.029300	0.357300	0.799200
H91	H9	0.778800	0.532900	0.611500
H101	H10	0.672200	0.623700	0.724500
H111	H11	0.156500	0.909200	0.416900
H121	H12	0.302600	0.851400	0.406800
H131	H13	0.460800	0.938600	0.384800
H141	H14	0.463000	0.027600	0.270000
H151	H15	0.277500	0.131900	0.212700
H161	H16	0.241800	0.016100	0.234900
H171	H17	0.949500	0.291800	0.450000
H181	H18	0.848000	0.408200	0.541100
H191	H19	0.146300	0.300600	0.682400
H201	H20	0.239200	0.186000	0.589900
H211	H21	0.605100	0.356600	0.939200
H221	H22	0.593800	0.241700	0.939800
H231	H23	0.385900	0.187100	0.003700
H241	H24	0.379100	0.253000	0.885100
H251	H25	0.362900	0.438600	0.810300
H261	H26	0.508600	0.441900	0.800500
H271	H27	0.086900	0.551000	0.090000
H281	H28	0.970700	0.642700	0.200800
H291	H29	0.221200	0.467100	0.388500
H301	H30	0.327800	0.376300	0.275500
H311	H31	0.843500	0.090800	0.583100
H321	H32	0.697400	0.148600	0.593200
H331	H33	0.539200	0.061400	0.615200
H341	H34	0.537000	0.972400	0.730000
H351	H35	0.722500	0.868100	0.787300
H361	H36	0.758200	0.983900	0.765100
H371	H37	0.050500	0.708200	0.550000
H381	H38	0.152000	0.591800	0.458900
H391	H39	0.853700	0.699400	0.317600
H401	H40	0.760800	0.814000	0.410100
C11	C1	0.448100	0.702300	0.029600
C21	C2	0.458200	0.755900	0.911600
C31	C3	0.643900	0.740800	0.046900
C41	C4	0.790700	0.712500	0.014400
C51	C5	0.578000	0.556300	0.154500
C61	C6	0.618200	0.446800	0.139200
C71	C7	0.886400	0.466100	0.849000
C81	C8	0.955500	0.409700	0.783400
C91	C9	0.914300	0.431300	0.693600
C101	C10	0.807600	0.514100	0.672000
C111	C11	0.744000	0.568600	0.740100
C121	C12	0.239800	0.908700	0.427800
C131	C13	0.227600	0.880700	0.543600
C141	C14	0.423800	0.013700	0.343700
C151	C15	0.457300	0.097100	0.372500
C161	C16	0.230400	0.071600	0.264600
C171	C17	0.086300	0.117400	0.292700
C181	C18	0.988600	0.292600	0.498300
C191	C19	0.926700	0.362400	0.553400
C201	C20	0.982400	0.363700	0.626900
C211	C21	0.103100	0.298600	0.637200
C221	C22	0.159200	0.230700	0.580600
C231	C23	0.551900	0.297700	0.970400
C241	C24	0.541800	0.244100	0.088400
C251	C25	0.356100	0.259200	0.953100
C261	C26	0.209300	0.287500	0.985600
C271	C27	0.422000	0.443700	0.845500
C281	C28	0.381800	0.553200	0.860800
C291	C29	0.113600	0.533900	0.151000
C301	C30	0.044500	0.590300	0.216600
C311	C31	0.085700	0.568700	0.306400
C321	C32	0.192400	0.485900	0.328000
C331	C33	0.256000	0.431400	0.259900
C341	C34	0.760200	0.091300	0.572200
C351	C35	0.772400	0.119300	0.456400
C361	C36	0.576200	0.986300	0.656300
C371	C37	0.542700	0.902900	0.627500
C381	C38	0.769600	0.928400	0.735400
C391	C39	0.913700	0.882600	0.707300
C401	C40	0.011400	0.707400	0.501700
C411	C41	0.073300	0.637600	0.446600
C421	C42	0.017600	0.636300	0.373100
C431	C43	0.896900	0.701400	0.362800
C441	C44	0.840800	0.769300	0.419400
N11	N1	0.577900	0.654500	0.053500
N21	N2	0.782000	0.544900	0.827600
N31	N3	0.281500	0.019400	0.362000
N41	N4	0.102400	0.226800	0.512400
N51	N5	0.422100	0.345500	0.946500
N61	N6	0.218000	0.455100	0.172400
N71	N7	0.718500	0.980600	0.638000
N81	N8	0.897600	0.773200	0.487600
O11	O1	0.361700	0.818600	0.879100
O21	O2	0.566400	0.731000	0.853200
O31	O3	0.857300	0.752600	0.041700
O41	O4	0.835700	0.653500	0.958700
O51	O5	0.615000	0.358600	0.220000
O61	O6	0.655900	0.449300	0.046700
O71	O7	0.247500	0.780100	0.603800
O81	O8	0.196000	0.960800	0.574500
O91	O9	0.573600	0.105200	0.353400
O101	O10	0.365100	0.152500	0.418300
O111	O11	0.015000	0.123800	0.237700
O121	O12	0.049600	0.147300	0.370300
O131	O13	0.151800	0.010500	0.783800
O141	O14	0.101800	0.781000	0.956900
O151	O15	0.104600	0.643100	0.838700
O161	O16	0.638300	0.181400	0.120900
O171	O17	0.433600	0.269000	0.146800
O181	O18	0.142700	0.247400	0.958300
O191	O19	0.164300	0.346500	0.041300
O201	O20	0.385000	0.641400	0.780000
O211	O21	0.344100	0.550700	0.953300
O221	O22	0.752500	0.219900	0.396200
O231	O23	0.804000	0.039200	0.425500
O241	O24	0.426400	0.894800	0.646600
O251	O25	0.634900	0.847500	0.581700
O261	O26	0.985000	0.876200	0.762300
O271	O27	0.950400	0.852700	0.629700
O281	O28	0.848200	0.989500	0.216200
O291	O29	0.898200	0.219000	0.043100
O301	O30	0.895400	0.356900	0.161300
N91	N9	0.848000	0.153500	0.818600
O311	O31	0.894900	0.121700	0.897300
O321	O32	0.759100	0.238600	0.799000
O331	O33	0.901100	0.111500	0.749400
N101	N10	0.152000	0.846500	0.181400
O341	O34	0.105100	0.878300	0.102700
O351	O35	0.240900	0.761400	0.201000
O361	O36	0.098900	0.888500	0.250600
