data_QUSRIH_freeONLY_PM
_symmetry_space_group_name_H-M	'P1'
_cell_length_a	11.460000
_cell_length_b	19.968000
_cell_length_c	14.949000
_cell_angle_alpha	90.000000
_cell_angle_beta	99.628000
_cell_angle_gamma	90.000000
_symmetry_Int_Tables_number 1

loop_
_symmetry_equiv_pos_as_xyz
'x,y,z'

loop_
_atom_site_label
_atom_site_type_symbol
_atom_site_fract_x
_atom_site_fract_y
_atom_site_fract_z
U11	U1	0.732950	0.532710	0.855910
U21	U2	0.245520	0.613470	0.587100
C11	C1	0.671900	0.563200	0.667800
C21	C2	0.844900	0.509700	0.490700
C31	C3	0.071900	0.733600	0.469700
C41	C4	0.886500	0.931100	0.560500
C51	C5	0.430800	0.907100	0.465700
C61	C6	0.420800	0.752300	0.625700
C71	C7	0.654700	0.572500	0.566600
H11	H1	0.648200	0.528900	0.537500
H21	H2	0.581200	0.596400	0.546800
C81	C8	0.863100	0.573700	0.542800
H31	H3	0.895600	0.564200	0.605700
H41	H4	0.919200	0.601600	0.518000
C91	C9	0.055600	0.773600	0.553100
H51	H5	0.059400	0.743000	0.603800
H61	H6	0.121400	0.804500	0.567200
C101	C10	0.942200	0.879200	0.508200
H71	H7	0.898800	0.877900	0.446700
H81	H8	0.022500	0.893200	0.505000
C111	C11	0.530700	0.876400	0.528600
H91	H9	0.604200	0.896600	0.518200
H101	H10	0.521400	0.886200	0.590600
C121	C12	0.434600	0.765000	0.528200
H111	H11	0.438400	0.722200	0.498100
H121	H12	0.364800	0.788300	0.497800
C131	C13	0.750500	0.677900	0.539800
C141	C14	0.842900	0.776300	0.539000
C151	C15	0.645600	0.773400	0.529200
N11	N1	0.853300	0.709100	0.543100
N21	N2	0.741900	0.811500	0.530000
N31	N3	0.644100	0.706600	0.536500
N41	N4	0.751100	0.609300	0.538100
N51	N5	0.946200	0.811500	0.545400
N61	N6	0.538100	0.803800	0.517600
O11	O1	0.639500	0.596400	0.883000
O21	O2	0.827300	0.471230	0.823100
O31	O3	0.136400	0.624350	0.656700
O41	O4	0.357600	0.598800	0.520800
O51	O5	0.604000	0.524150	0.702300
O61	O6	0.755400	0.593000	0.717700
O71	O7	0.885700	0.455550	0.526400
O81	O8	0.784700	0.509200	0.412600
O91	O9	0.149200	0.686580	0.483600
O101	O10	0.017300	0.748100	0.396000
H131	H13	0.977500	0.715900	0.374900
O111	O11	0.816200	0.972100	0.515400
O121	O12	0.911400	0.937660	0.644500
O131	O13	0.373200	0.952900	0.495600
O141	O14	0.402600	0.888800	0.384200
O151	O15	0.481500	0.781800	0.686800
H141	H14	0.450200	0.780300	0.732300
O161	O16	0.338000	0.710300	0.636800
O171	O17	0.374300	0.568800	0.717500
H151	H15	0.410500	0.600900	0.747700
H161	H16	0.333200	0.547700	0.750600
U31	U3	0.767050	0.032710	0.644090
U41	U4	0.254480	0.113470	0.912910
C161	C16	0.828100	0.063200	0.832200
C171	C17	0.655100	0.009700	0.009300
C181	C18	0.428100	0.233600	0.030300
C191	C19	0.613500	0.431100	0.939500
C201	C20	0.069200	0.407100	0.034300
C211	C21	0.079200	0.252300	0.874300
C221	C22	0.845300	0.072500	0.933400
H171	H17	0.851800	0.028900	0.962500
H181	H18	0.918800	0.096400	0.953200
C231	C23	0.636900	0.073700	0.957200
H191	H19	0.604400	0.064200	0.894300
H201	H20	0.580800	0.101600	0.982000
C241	C24	0.444400	0.273600	0.946900
H211	H21	0.440600	0.243000	0.896200
H221	H22	0.378600	0.304500	0.932800
C251	C25	0.557800	0.379200	0.991800
H231	H23	0.601200	0.377900	0.053300
H241	H24	0.477500	0.393200	0.995000
C261	C26	0.969300	0.376400	0.971400
H251	H25	0.895800	0.396600	0.981800
H261	H26	0.978600	0.386200	0.909400
C271	C27	0.065400	0.265000	0.971800
H271	H27	0.061600	0.222200	0.001900
H281	H28	0.135200	0.288300	0.002200
C281	C28	0.749500	0.177900	0.960200
C291	C29	0.657100	0.276300	0.961000
C301	C30	0.854400	0.273400	0.970800
N71	N7	0.646700	0.209100	0.956900
N81	N8	0.758100	0.311500	0.970000
N91	N9	0.855900	0.206600	0.963500
N101	N10	0.748900	0.109300	0.961900
N111	N11	0.553800	0.311500	0.954600
N121	N12	0.961900	0.303800	0.982400
O181	O18	0.860500	0.096400	0.617000
O191	O19	0.672700	0.971230	0.676900
O201	O20	0.363600	0.124350	0.843300
O211	O21	0.142400	0.098800	0.979200
O221	O22	0.896000	0.024150	0.797700
O231	O23	0.744600	0.093000	0.782300
O241	O24	0.614300	0.955550	0.973600
O251	O25	0.715300	0.009200	0.087400
O261	O26	0.350800	0.186580	0.016400
O271	O27	0.482700	0.248100	0.104000
H291	H29	0.522500	0.215900	0.125100
O281	O28	0.683800	0.472100	0.984600
O291	O29	0.588600	0.437660	0.855500
O301	O30	0.126800	0.452900	0.004400
O311	O31	0.097400	0.388800	0.115800
O321	O32	0.018500	0.281800	0.813200
H301	H30	0.049800	0.280300	0.767700
O331	O33	0.162000	0.210300	0.863200
O341	O34	0.125700	0.068800	0.782500
H311	H31	0.089500	0.100900	0.752300
H321	H32	0.166800	0.047700	0.749400
U51	U5	0.267050	0.467290	0.144090
U61	U6	0.754480	0.386530	0.412900
C311	C31	0.328100	0.436800	0.332200
C321	C32	0.155100	0.490300	0.509300
C331	C33	0.928100	0.266400	0.530300
C341	C34	0.113500	0.068900	0.439500
C351	C35	0.569200	0.092900	0.534300
C361	C36	0.579200	0.247700	0.374300
C371	C37	0.345300	0.427500	0.433400
H331	H33	0.351800	0.471100	0.462500
H341	H34	0.418800	0.403600	0.453200
C381	C38	0.136900	0.426300	0.457200
H351	H35	0.104400	0.435800	0.394300
H361	H36	0.080800	0.398400	0.482000
C391	C39	0.944400	0.226400	0.446900
H371	H37	0.940600	0.257000	0.396200
H381	H38	0.878600	0.195500	0.432800
C401	C40	0.057800	0.120800	0.491800
H391	H39	0.101200	0.122100	0.553300
H401	H40	0.977500	0.106800	0.495000
C411	C41	0.469300	0.123600	0.471400
H411	H41	0.395800	0.103400	0.481800
H421	H42	0.478600	0.113800	0.409400
C421	C42	0.565400	0.235000	0.471800
H431	H43	0.561600	0.277800	0.501900
H441	H44	0.635200	0.211700	0.502200
C431	C43	0.249500	0.322100	0.460200
C441	C44	0.157100	0.223700	0.461000
C451	C45	0.354400	0.226600	0.470800
N131	N13	0.146700	0.290900	0.456900
N141	N14	0.258100	0.188500	0.470000
N151	N15	0.355900	0.293400	0.463500
N161	N16	0.248900	0.390700	0.461900
N171	N17	0.053800	0.188500	0.454600
N181	N18	0.461900	0.196200	0.482400
O351	O35	0.360500	0.403600	0.117000
O361	O36	0.172700	0.528770	0.176900
O371	O37	0.863600	0.375650	0.343300
O381	O38	0.642400	0.401200	0.479200
O391	O39	0.396000	0.475850	0.297700
O401	O40	0.244600	0.407000	0.282300
O411	O41	0.114300	0.544450	0.473600
O421	O42	0.215300	0.490800	0.587400
O431	O43	0.850800	0.313420	0.516400
O441	O44	0.982700	0.251900	0.604000
H451	H45	0.022500	0.284100	0.625100
O451	O45	0.183800	0.027900	0.484600
O461	O46	0.088600	0.062340	0.355500
O471	O47	0.626800	0.047100	0.504400
O481	O48	0.597400	0.111200	0.615800
O491	O49	0.518500	0.218200	0.313200
H461	H46	0.549800	0.219700	0.267700
O501	O50	0.662000	0.289700	0.363200
O511	O51	0.625700	0.431200	0.282500
H471	H47	0.589500	0.399100	0.252300
H481	H48	0.666800	0.452300	0.249400
U71	U7	0.232950	0.967290	0.355910
U81	U8	0.745520	0.886530	0.087100
C461	C46	0.171900	0.936800	0.167800
C471	C47	0.344900	0.990300	0.990700
C481	C48	0.571900	0.766400	0.969700
C491	C49	0.386500	0.568900	0.060500
C501	C50	0.930800	0.592900	0.965700
C511	C51	0.920800	0.747700	0.125700
C521	C52	0.154700	0.927500	0.066600
H491	H49	0.148200	0.971100	0.037500
H501	H50	0.081200	0.903600	0.046800
C531	C53	0.363100	0.926300	0.042800
H511	H51	0.395600	0.935800	0.105700
H521	H52	0.419200	0.898400	0.018000
C541	C54	0.555600	0.726400	0.053100
H531	H53	0.559400	0.757000	0.103800
H541	H54	0.621400	0.695500	0.067200
C551	C55	0.442200	0.620800	0.008200
H551	H55	0.398800	0.622100	0.946700
H561	H56	0.522500	0.606800	0.005000
C561	C56	0.030700	0.623600	0.028600
H571	H57	0.104200	0.603400	0.018200
H581	H58	0.021400	0.613800	0.090600
C571	C57	0.934600	0.735000	0.028200
H591	H59	0.938400	0.777800	0.998100
H601	H60	0.864800	0.711700	0.997800
C581	C58	0.250500	0.822100	0.039800
C591	C59	0.342900	0.723700	0.039000
C601	C60	0.145600	0.726600	0.029200
N191	N19	0.353300	0.790900	0.043100
N201	N20	0.241900	0.688500	0.030000
N211	N21	0.144100	0.793400	0.036500
N221	N22	0.251100	0.890700	0.038100
N231	N23	0.446200	0.688500	0.045400
N241	N24	0.038100	0.696200	0.017600
O521	O52	0.139500	0.903600	0.383000
O531	O53	0.327300	0.028770	0.323100
O541	O54	0.636400	0.875650	0.156700
O551	O55	0.857600	0.901200	0.020800
O561	O56	0.104000	0.975850	0.202300
O571	O57	0.255400	0.907000	0.217700
O581	O58	0.385700	0.044450	0.026400
O591	O59	0.284700	0.990800	0.912600
O601	O60	0.649200	0.813420	0.983600
O611	O61	0.517300	0.751900	0.896000
H611	H61	0.477500	0.784100	0.874900
O621	O62	0.316200	0.527900	0.015400
O631	O63	0.411400	0.562340	0.144500
O641	O64	0.873200	0.547100	0.995600
O651	O65	0.902600	0.611200	0.884200
O661	O66	0.981500	0.718200	0.186800
H621	H62	0.950200	0.719700	0.232300
O671	O67	0.838000	0.789700	0.136800
O681	O68	0.874300	0.931200	0.217500
H631	H63	0.910500	0.899100	0.247700
H641	H64	0.833200	0.952300	0.250600
