data_QUXREI_freeONLY_PM
_symmetry_space_group_name_H-M	'P1'
_cell_length_a	11.715000
_cell_length_b	5.567900
_cell_length_c	22.820800
_cell_angle_alpha	90.000000
_cell_angle_beta	100.532000
_cell_angle_gamma	90.000000
_symmetry_Int_Tables_number 1

loop_
_symmetry_equiv_pos_as_xyz
'x,y,z'

loop_
_atom_site_label
_atom_site_type_symbol
_atom_site_fract_x
_atom_site_fract_y
_atom_site_fract_z
Ca11	Ca1	0.862550	0.243580	0.277930
S11	S1	0.100950	0.035360	0.393030
O11	O1	0.083550	0.779500	0.389070
O21	O2	0.004900	0.194500	0.370090
O31	O3	0.235710	0.476700	0.672000
O41	O4	0.239270	0.085100	0.690860
O51	O5	0.513270	0.476600	0.253910
O61	O6	0.542380	0.080800	0.244820
C11	C1	0.201100	0.208500	0.589470
C21	C2	0.146500	0.380700	0.550110
H11	H1	0.128600	0.533100	0.564800
C31	C3	0.117900	0.332500	0.489360
H21	H2	0.080100	0.450000	0.462400
C41	C4	0.145790	0.108700	0.469050
C51	C5	0.205300	0.937900	0.507460
H31	H3	0.227400	0.789100	0.492500
C61	C6	0.232100	0.988300	0.568160
H41	H4	0.271600	0.872400	0.595000
C71	C7	0.225600	0.261900	0.655200
C81	C8	0.399360	0.208000	0.298980
C91	C9	0.311600	0.376700	0.299730
H51	H5	0.314600	0.526600	0.280200
C101	C10	0.219600	0.327800	0.328840
H61	H6	0.159000	0.441200	0.328800
C111	C11	0.218750	0.108700	0.357910
C121	C12	0.307100	0.940000	0.359280
H71	H7	0.305700	0.793500	0.380500
C131	C13	0.397380	0.989700	0.329080
H81	H8	0.457600	0.875500	0.328900
C141	C14	0.493740	0.258700	0.263260
Ca21	Ca2	0.637450	0.743580	0.222070
S21	S2	0.399050	0.535360	0.106970
O71	O7	0.416450	0.279500	0.110930
O81	O8	0.495100	0.694500	0.129910
O91	O9	0.264290	0.976700	0.828000
O101	O10	0.260730	0.585100	0.809140
O111	O11	0.986730	0.976600	0.246090
O121	O12	0.957620	0.580800	0.255180
C151	C15	0.298900	0.708500	0.910530
C161	C16	0.353500	0.880700	0.949890
H91	H9	0.371400	0.033100	0.935200
C171	C17	0.382100	0.832500	0.010640
H101	H10	0.419900	0.950000	0.037600
C181	C18	0.354210	0.608700	0.030950
C191	C19	0.294700	0.437900	0.992540
H111	H11	0.272600	0.289100	0.007500
C201	C20	0.267900	0.488300	0.931840
H121	H12	0.228400	0.372400	0.905000
C211	C21	0.274400	0.761900	0.844800
C221	C22	0.100640	0.708000	0.201020
C231	C23	0.188400	0.876700	0.200270
H131	H13	0.185400	0.026600	0.219800
C241	C24	0.280400	0.827800	0.171160
H141	H14	0.341000	0.941200	0.171200
C251	C25	0.281250	0.608700	0.142090
C261	C26	0.192900	0.440000	0.140720
H151	H15	0.194300	0.293500	0.119500
C271	C27	0.102620	0.489700	0.170920
H161	H16	0.042400	0.375500	0.171100
C281	C28	0.006260	0.758700	0.236740
Ca31	Ca3	0.137450	0.756420	0.722070
S31	S3	0.899050	0.964640	0.606970
O131	O13	0.916450	0.220500	0.610930
O141	O14	0.995100	0.805500	0.629910
O151	O15	0.764290	0.523300	0.328000
O161	O16	0.760730	0.914900	0.309140
O171	O17	0.486730	0.523400	0.746090
O181	O18	0.457620	0.919200	0.755180
C291	C29	0.798900	0.791500	0.410530
C301	C30	0.853500	0.619300	0.449890
H171	H17	0.871400	0.466900	0.435200
C311	C31	0.882100	0.667500	0.510640
H181	H18	0.919900	0.550000	0.537600
C321	C32	0.854210	0.891300	0.530950
C331	C33	0.794700	0.062100	0.492540
H191	H19	0.772600	0.210900	0.507500
C341	C34	0.767900	0.011700	0.431840
H201	H20	0.728400	0.127600	0.405000
C351	C35	0.774400	0.738100	0.344800
C361	C36	0.600640	0.792000	0.701020
C371	C37	0.688400	0.623300	0.700270
H211	H21	0.685400	0.473400	0.719800
C381	C38	0.780400	0.672200	0.671160
H221	H22	0.841000	0.558800	0.671200
C391	C39	0.781250	0.891300	0.642090
C401	C40	0.692900	0.060000	0.640720
H231	H23	0.694300	0.206500	0.619500
C411	C41	0.602620	0.010300	0.670920
H241	H24	0.542400	0.124500	0.671100
C421	C42	0.506260	0.741300	0.736740
Ca41	Ca4	0.362550	0.256420	0.777930
S41	S4	0.600950	0.464640	0.893030
O191	O19	0.583550	0.720500	0.889070
O201	O20	0.504900	0.305500	0.870090
O211	O21	0.735710	0.023300	0.172000
O221	O22	0.739270	0.414900	0.190860
O231	O23	0.013270	0.023400	0.753910
O241	O24	0.042380	0.419200	0.744820
C431	C43	0.701100	0.291500	0.089470
C441	C44	0.646500	0.119300	0.050110
H251	H25	0.628600	0.966900	0.064800
C451	C45	0.617900	0.167500	0.989360
H261	H26	0.580100	0.050000	0.962400
C461	C46	0.645790	0.391300	0.969050
C471	C47	0.705300	0.562100	0.007460
H271	H27	0.727400	0.710900	0.992500
C481	C48	0.732100	0.511700	0.068160
H281	H28	0.771600	0.627600	0.095000
C491	C49	0.725600	0.238100	0.155200
C501	C50	0.899360	0.292000	0.798980
C511	C51	0.811600	0.123300	0.799730
H291	H29	0.814600	0.973400	0.780200
C521	C52	0.719600	0.172200	0.828840
H301	H30	0.659000	0.058800	0.828800
C531	C53	0.718750	0.391300	0.857910
C541	C54	0.807100	0.560000	0.859280
H311	H31	0.805700	0.706500	0.880500
C551	C55	0.897380	0.510300	0.829080
H321	H32	0.957600	0.624500	0.828900
C561	C56	0.993740	0.241300	0.763260
