data_RABHIH_freeONLY_PM
_symmetry_space_group_name_H-M	'P1'
_cell_length_a	7.610000
_cell_length_b	13.599000
_cell_length_c	27.938000
_cell_angle_alpha	90.000000
_cell_angle_beta	90.000000
_cell_angle_gamma	90.000000
_symmetry_Int_Tables_number 1

loop_
_symmetry_equiv_pos_as_xyz
'x,y,z'

loop_
_atom_site_label
_atom_site_type_symbol
_atom_site_fract_x
_atom_site_fract_y
_atom_site_fract_z
Cd11	Cd1	0.000000	0.772580	0.763310
Cd21	Cd2	0.000000	0.227420	0.236690
Cd31	Cd3	0.000000	0.727420	0.263310
Cd41	Cd4	0.000000	0.272580	0.736690
Ni11	Ni1	0.500000	0.517140	0.791550
Ni21	Ni2	0.500000	0.482860	0.208450
Ni31	Ni3	0.500000	0.982860	0.291550
Ni41	Ni4	0.500000	0.017140	0.708450
H11	H1	0.892830	0.625190	0.698160
H21	H2	0.882110	0.768590	0.646810
H31	H3	0.882110	0.603530	0.607230
H41	H4	0.882110	0.759020	0.557870
H51	H5	0.882110	0.592430	0.515810
H61	H6	0.882110	0.749250	0.467440
H71	H7	0.882110	0.586460	0.424740
H81	H8	0.117890	0.757510	0.877900
H91	H9	0.107170	0.908830	0.834490
H101	H10	0.892830	0.374810	0.301840
H111	H11	0.882110	0.231410	0.353190
H121	H12	0.882110	0.396470	0.392770
H131	H13	0.882110	0.240980	0.442130
H141	H14	0.882110	0.407570	0.484190
H151	H15	0.882110	0.250750	0.532560
H161	H16	0.882110	0.413540	0.575260
H171	H17	0.117890	0.242490	0.122100
H181	H18	0.107170	0.091170	0.165510
H191	H19	0.107170	0.874810	0.198160
H201	H20	0.117890	0.731410	0.146810
H211	H21	0.117890	0.896470	0.107230
H221	H22	0.117890	0.740980	0.057870
H231	H23	0.117890	0.907570	0.015810
H241	H24	0.117890	0.750750	0.967440
H251	H25	0.117890	0.913540	0.924740
H261	H26	0.882110	0.742490	0.377900
H271	H27	0.892830	0.591170	0.334490
H281	H28	0.107170	0.125190	0.801840
H291	H29	0.117890	0.268590	0.853190
H301	H30	0.117890	0.103530	0.892770
H311	H31	0.117890	0.259020	0.942130
H321	H32	0.117890	0.092430	0.984190
H331	H33	0.117890	0.249250	0.032560
H341	H34	0.117890	0.086460	0.075260
H351	H35	0.882110	0.257510	0.622100
H361	H36	0.892830	0.408830	0.665510
H371	H37	0.107170	0.374810	0.301840
H381	H38	0.117890	0.231410	0.353190
H391	H39	0.117890	0.396470	0.392770
H401	H40	0.117890	0.240980	0.442130
H411	H41	0.117890	0.407570	0.484190
H421	H42	0.117890	0.250750	0.532560
H431	H43	0.117890	0.413540	0.575260
H441	H44	0.882110	0.242490	0.122100
H451	H45	0.892830	0.091170	0.165510
H461	H46	0.107170	0.625190	0.698160
H471	H47	0.117890	0.768590	0.646810
H481	H48	0.117890	0.603530	0.607230
H491	H49	0.117890	0.759020	0.557870
H501	H50	0.117890	0.592430	0.515810
H511	H51	0.117890	0.749250	0.467440
H521	H52	0.117890	0.586460	0.424740
H531	H53	0.882110	0.757510	0.877900
H541	H54	0.892830	0.908830	0.834490
H551	H55	0.892830	0.125190	0.801840
H561	H56	0.882110	0.268590	0.853190
H571	H57	0.882110	0.103530	0.892770
H581	H58	0.882110	0.259020	0.942130
H591	H59	0.882110	0.092430	0.984190
H601	H60	0.882110	0.249250	0.032560
H611	H61	0.882110	0.086460	0.075260
H621	H62	0.117890	0.257510	0.622100
H631	H63	0.107170	0.408830	0.665510
H641	H64	0.892830	0.874810	0.198160
H651	H65	0.882110	0.731410	0.146810
H661	H66	0.882110	0.896470	0.107230
H671	H67	0.882110	0.740980	0.057870
H681	H68	0.882110	0.907570	0.015810
H691	H69	0.882110	0.750750	0.967440
H701	H70	0.882110	0.913540	0.924740
H711	H71	0.117890	0.742490	0.377900
H721	H72	0.107170	0.591170	0.334490
C11	C1	0.671900	0.613400	0.795800
C21	C2	0.324900	0.923400	0.718300
C31	C3	0.671900	0.386600	0.204200
C41	C4	0.324900	0.076600	0.281700
C51	C5	0.328100	0.886600	0.295800
C61	C6	0.675100	0.576600	0.218300
C71	C7	0.328100	0.113400	0.704200
C81	C8	0.675100	0.423400	0.781700
C91	C9	0.328100	0.386600	0.204200
C101	C10	0.675100	0.076600	0.281700
C111	C11	0.328100	0.613400	0.795800
C121	C12	0.675100	0.923400	0.718300
C131	C13	0.671900	0.113400	0.704200
C141	C14	0.324900	0.423400	0.781700
C151	C15	0.671900	0.886600	0.295800
C161	C16	0.324900	0.576600	0.218300
C171	C17	0.000000	0.722100	0.648800
C181	C18	0.000000	0.650200	0.606000
C191	C19	0.000000	0.712400	0.559100
C201	C20	0.000000	0.639100	0.514800
C211	C21	0.000000	0.702600	0.468200
C221	C22	0.000000	0.633100	0.424000
C231	C23	0.000000	0.804200	0.878100
C241	C24	0.000000	0.277900	0.351200
C251	C25	0.000000	0.349800	0.394000
C261	C26	0.000000	0.287600	0.440900
C271	C27	0.000000	0.360900	0.485200
C281	C28	0.000000	0.297400	0.531800
C291	C29	0.000000	0.366900	0.576000
C301	C30	0.000000	0.195800	0.121900
C311	C31	0.000000	0.777900	0.148800
C321	C32	0.000000	0.849800	0.106000
C331	C33	0.000000	0.787600	0.059100
C341	C34	0.000000	0.860900	0.014800
C351	C35	0.000000	0.797400	0.968200
C361	C36	0.000000	0.866900	0.924000
C371	C37	0.000000	0.695800	0.378100
C381	C38	0.000000	0.222100	0.851200
C391	C39	0.000000	0.150200	0.894000
C401	C40	0.000000	0.212400	0.940900
C411	C41	0.000000	0.139100	0.985200
C421	C42	0.000000	0.202600	0.031800
C431	C43	0.000000	0.133100	0.076000
C441	C44	0.000000	0.304200	0.621900
N11	N1	0.779400	0.672300	0.794700
N21	N2	0.217500	0.869100	0.728600
N31	N3	0.779400	0.327700	0.205300
N41	N4	0.217500	0.130900	0.271400
N51	N5	0.220600	0.827700	0.294700
N61	N6	0.782500	0.630900	0.228600
N71	N7	0.220600	0.172300	0.705300
N81	N8	0.782500	0.369100	0.771400
N91	N9	0.220600	0.327700	0.205300
N101	N10	0.782500	0.130900	0.271400
N111	N11	0.220600	0.672300	0.794700
N121	N12	0.782500	0.869100	0.728600
N131	N13	0.779400	0.172300	0.705300
N141	N14	0.217500	0.369100	0.771400
N151	N15	0.779400	0.827700	0.294700
N161	N16	0.217500	0.630900	0.228600
N171	N17	0.000000	0.667500	0.696600
N181	N18	0.000000	0.866400	0.834200
N191	N19	0.000000	0.332500	0.303400
N201	N20	0.000000	0.133600	0.165800
N211	N21	0.000000	0.832500	0.196600
N221	N22	0.000000	0.633600	0.334200
N231	N23	0.000000	0.167500	0.803400
N241	N24	0.000000	0.366400	0.665800
