data_RAFRUL_charged_PM
_symmetry_space_group_name_H-M	'P1'
_cell_length_a	21.850000
_cell_length_b	21.850000
_cell_length_c	21.850000
_cell_angle_alpha	90.000000
_cell_angle_beta	90.000000
_cell_angle_gamma	90.000000
_symmetry_Int_Tables_number 1

loop_
_symmetry_equiv_pos_as_xyz
'x,y,z'

loop_
_atom_site_label
_atom_site_type_symbol
_atom_site_fract_x
_atom_site_fract_y
_atom_site_fract_z
Ag11	Ag1	0.039950	0.782450	0.167830
Ag21	Ag2	0.460050	0.217550	0.667830
Ag31	Ag3	0.960050	0.282450	0.332170
Ag41	Ag4	0.539950	0.717550	0.832170
Ag51	Ag5	0.167830	0.039950	0.782450
Ag61	Ag6	0.667830	0.460050	0.217550
Ag71	Ag7	0.332170	0.960050	0.282450
Ag81	Ag8	0.832170	0.539950	0.717550
Ag91	Ag9	0.782450	0.167830	0.039950
Ag101	Ag10	0.217550	0.667830	0.460050
Ag111	Ag11	0.282450	0.332170	0.960050
Ag121	Ag12	0.717550	0.832170	0.539950
Ag131	Ag13	0.960050	0.217550	0.832170
Ag141	Ag14	0.539950	0.782450	0.332170
Ag151	Ag15	0.039950	0.717550	0.667830
Ag161	Ag16	0.460050	0.282450	0.167830
Ag171	Ag17	0.832170	0.960050	0.217550
Ag181	Ag18	0.332170	0.539950	0.782450
Ag191	Ag19	0.667830	0.039950	0.717550
Ag201	Ag20	0.167830	0.460050	0.282450
Ag211	Ag21	0.217550	0.832170	0.960050
Ag221	Ag22	0.782450	0.332170	0.539950
Ag231	Ag23	0.717550	0.667830	0.039950
Ag241	Ag24	0.282450	0.167830	0.460050
Ag251	Ag25	0.695160	0.195160	0.304840
Ag261	Ag26	0.804840	0.804840	0.804840
Ag271	Ag27	0.304840	0.695160	0.195160
Ag281	Ag28	0.195160	0.304840	0.695160
Ag291	Ag29	0.304840	0.804840	0.695160
Ag301	Ag30	0.195160	0.195160	0.195160
Ag311	Ag31	0.695160	0.304840	0.804840
Ag321	Ag32	0.804840	0.695160	0.304840
H11	H1	0.944200	0.721400	0.259400
H21	H2	0.903800	0.746200	0.205300
H31	H3	0.874300	0.804600	0.376300
H41	H4	0.927300	0.758200	0.362500
H51	H5	0.884000	0.910600	0.343100
H61	H6	0.943200	0.932000	0.308200
H71	H7	0.822000	0.818900	0.225400
H81	H8	0.809600	0.841700	0.292500
H91	H9	0.017000	0.791300	0.309100
H101	H10	0.023000	0.859100	0.286400
H111	H11	0.962000	0.895900	0.202100
H121	H12	0.914600	0.851700	0.170800
H131	H13	0.555800	0.278600	0.759400
H141	H14	0.596200	0.253800	0.705300
H151	H15	0.625700	0.195400	0.876300
H161	H16	0.572700	0.241800	0.862500
H171	H17	0.616000	0.089400	0.843100
H181	H18	0.556800	0.068000	0.808200
H191	H19	0.678000	0.181100	0.725400
H201	H20	0.690400	0.158300	0.792500
H211	H21	0.483000	0.208700	0.809100
H221	H22	0.477000	0.140900	0.786400
H231	H23	0.538000	0.104100	0.702100
H241	H24	0.585400	0.148300	0.670800
H251	H25	0.055800	0.221400	0.240600
H261	H26	0.096200	0.246200	0.294700
H271	H27	0.125700	0.304600	0.123700
H281	H28	0.072700	0.258200	0.137500
H291	H29	0.116000	0.410600	0.156900
H301	H30	0.056800	0.432000	0.191800
H311	H31	0.178000	0.318900	0.274600
H321	H32	0.190400	0.341700	0.207500
H331	H33	0.983000	0.291300	0.190900
H341	H34	0.977000	0.359100	0.213600
H351	H35	0.038000	0.395900	0.297900
H361	H36	0.085400	0.351700	0.329200
H371	H37	0.444200	0.778600	0.740600
H381	H38	0.403800	0.753800	0.794700
H391	H39	0.374300	0.695400	0.623700
H401	H40	0.427300	0.741800	0.637500
H411	H41	0.384000	0.589400	0.656900
H421	H42	0.443200	0.568000	0.691800
H431	H43	0.322000	0.681100	0.774600
H441	H44	0.309600	0.658300	0.707500
H451	H45	0.517000	0.708700	0.690900
H461	H46	0.523000	0.640900	0.713600
H471	H47	0.462000	0.604100	0.797900
H481	H48	0.414600	0.648300	0.829200
H491	H49	0.259400	0.944200	0.721400
H501	H50	0.205300	0.903800	0.746200
H511	H51	0.376300	0.874300	0.804600
H521	H52	0.362500	0.927300	0.758200
H531	H53	0.343100	0.884000	0.910600
H541	H54	0.308200	0.943200	0.932000
H551	H55	0.225400	0.822000	0.818900
H561	H56	0.292500	0.809600	0.841700
H571	H57	0.309100	0.017000	0.791300
H581	H58	0.286400	0.023000	0.859100
H591	H59	0.202100	0.962000	0.895900
H601	H60	0.170800	0.914600	0.851700
H611	H61	0.759400	0.555800	0.278600
H621	H62	0.705300	0.596200	0.253800
H631	H63	0.876300	0.625700	0.195400
H641	H64	0.862500	0.572700	0.241800
H651	H65	0.843100	0.616000	0.089400
H661	H66	0.808200	0.556800	0.068000
H671	H67	0.725400	0.678000	0.181100
H681	H68	0.792500	0.690400	0.158300
H691	H69	0.809100	0.483000	0.208700
H701	H70	0.786400	0.477000	0.140900
H711	H71	0.702100	0.538000	0.104100
H721	H72	0.670800	0.585400	0.148300
H731	H73	0.240600	0.055800	0.221400
H741	H74	0.294700	0.096200	0.246200
H751	H75	0.123700	0.125700	0.304600
H761	H76	0.137500	0.072700	0.258200
H771	H77	0.156900	0.116000	0.410600
H781	H78	0.191800	0.056800	0.432000
H791	H79	0.274600	0.178000	0.318900
H801	H80	0.207500	0.190400	0.341700
H811	H81	0.190900	0.983000	0.291300
H821	H82	0.213600	0.977000	0.359100
H831	H83	0.297900	0.038000	0.395900
H841	H84	0.329200	0.085400	0.351700
H851	H85	0.740600	0.444200	0.778600
H861	H86	0.794700	0.403800	0.753800
H871	H87	0.623700	0.374300	0.695400
H881	H88	0.637500	0.427300	0.741800
H891	H89	0.656900	0.384000	0.589400
H901	H90	0.691800	0.443200	0.568000
H911	H91	0.774600	0.322000	0.681100
H921	H92	0.707500	0.309600	0.658300
H931	H93	0.690900	0.517000	0.708700
H941	H94	0.713600	0.523000	0.640900
H951	H95	0.797900	0.462000	0.604100
H961	H96	0.829200	0.414600	0.648300
H971	H97	0.721400	0.259400	0.944200
H981	H98	0.746200	0.205300	0.903800
H991	H99	0.804600	0.376300	0.874300
H1001	H100	0.758200	0.362500	0.927300
H1011	H101	0.910600	0.343100	0.884000
H1021	H102	0.932000	0.308200	0.943200
H1031	H103	0.818900	0.225400	0.822000
H1041	H104	0.841700	0.292500	0.809600
H1051	H105	0.791300	0.309100	0.017000
H1061	H106	0.859100	0.286400	0.023000
H1071	H107	0.895900	0.202100	0.962000
H1081	H108	0.851700	0.170800	0.914600
H1091	H109	0.278600	0.759400	0.555800
H1101	H110	0.253800	0.705300	0.596200
H1111	H111	0.195400	0.876300	0.625700
H1121	H112	0.241800	0.862500	0.572700
H1131	H113	0.089400	0.843100	0.616000
H1141	H114	0.068000	0.808200	0.556800
H1151	H115	0.181100	0.725400	0.678000
H1161	H116	0.158300	0.792500	0.690400
H1171	H117	0.208700	0.809100	0.483000
H1181	H118	0.140900	0.786400	0.477000
H1191	H119	0.104100	0.702100	0.538000
H1201	H120	0.148300	0.670800	0.585400
H1211	H121	0.221400	0.240600	0.055800
H1221	H122	0.246200	0.294700	0.096200
H1231	H123	0.304600	0.123700	0.125700
H1241	H124	0.258200	0.137500	0.072700
H1251	H125	0.410600	0.156900	0.116000
H1261	H126	0.432000	0.191800	0.056800
H1271	H127	0.318900	0.274600	0.178000
H1281	H128	0.341700	0.207500	0.190400
H1291	H129	0.291300	0.190900	0.983000
H1301	H130	0.359100	0.213600	0.977000
H1311	H131	0.395900	0.297900	0.038000
H1321	H132	0.351700	0.329200	0.085400
H1331	H133	0.778600	0.740600	0.444200
H1341	H134	0.753800	0.794700	0.403800
H1351	H135	0.695400	0.623700	0.374300
H1361	H136	0.741800	0.637500	0.427300
H1371	H137	0.589400	0.656900	0.384000
H1381	H138	0.568000	0.691800	0.443200
H1391	H139	0.681100	0.774600	0.322000
H1401	H140	0.658300	0.707500	0.309600
H1411	H141	0.708700	0.690900	0.517000
H1421	H142	0.640900	0.713600	0.523000
H1431	H143	0.604100	0.797900	0.462000
H1441	H144	0.648300	0.829200	0.414600
H1451	H145	0.055800	0.278600	0.740600
H1461	H146	0.096200	0.253800	0.794700
H1471	H147	0.125700	0.195400	0.623700
H1481	H148	0.072700	0.241800	0.637500
H1491	H149	0.116000	0.089400	0.656900
H1501	H150	0.056800	0.068000	0.691800
H1511	H151	0.178000	0.181100	0.774600
H1521	H152	0.190400	0.158300	0.707500
H1531	H153	0.983000	0.208700	0.690900
H1541	H154	0.977000	0.140900	0.713600
H1551	H155	0.038000	0.104100	0.797900
H1561	H156	0.085400	0.148300	0.829200
H1571	H157	0.444200	0.721400	0.240600
H1581	H158	0.403800	0.746200	0.294700
H1591	H159	0.374300	0.804600	0.123700
H1601	H160	0.427300	0.758200	0.137500
H1611	H161	0.384000	0.910600	0.156900
H1621	H162	0.443200	0.932000	0.191800
H1631	H163	0.322000	0.818900	0.274600
H1641	H164	0.309600	0.841700	0.207500
H1651	H165	0.517000	0.791300	0.190900
H1661	H166	0.523000	0.859100	0.213600
H1671	H167	0.462000	0.895900	0.297900
H1681	H168	0.414600	0.851700	0.329200
H1691	H169	0.944200	0.778600	0.759400
H1701	H170	0.903800	0.753800	0.705300
H1711	H171	0.874300	0.695400	0.876300
H1721	H172	0.927300	0.741800	0.862500
H1731	H173	0.884000	0.589400	0.843100
H1741	H174	0.943200	0.568000	0.808200
H1751	H175	0.822000	0.681100	0.725400
H1761	H176	0.809600	0.658300	0.792500
H1771	H177	0.017000	0.708700	0.809100
H1781	H178	0.023000	0.640900	0.786400
H1791	H179	0.962000	0.604100	0.702100
H1801	H180	0.914600	0.648300	0.670800
H1811	H181	0.555800	0.221400	0.259400
H1821	H182	0.596200	0.246200	0.205300
H1831	H183	0.625700	0.304600	0.376300
H1841	H184	0.572700	0.258200	0.362500
H1851	H185	0.616000	0.410600	0.343100
H1861	H186	0.556800	0.432000	0.308200
H1871	H187	0.678000	0.318900	0.225400
H1881	H188	0.690400	0.341700	0.292500
H1891	H189	0.483000	0.291300	0.309100
H1901	H190	0.477000	0.359100	0.286400
H1911	H191	0.538000	0.395900	0.202100
H1921	H192	0.585400	0.351700	0.170800
H1931	H193	0.740600	0.055800	0.278600
H1941	H194	0.794700	0.096200	0.253800
H1951	H195	0.623700	0.125700	0.195400
H1961	H196	0.637500	0.072700	0.241800
H1971	H197	0.656900	0.116000	0.089400
H1981	H198	0.691800	0.056800	0.068000
H1991	H199	0.774600	0.178000	0.181100
H2001	H200	0.707500	0.190400	0.158300
H2011	H201	0.690900	0.983000	0.208700
H2021	H202	0.713600	0.977000	0.140900
H2031	H203	0.797900	0.038000	0.104100
H2041	H204	0.829200	0.085400	0.148300
H2051	H205	0.240600	0.444200	0.721400
H2061	H206	0.294700	0.403800	0.746200
H2071	H207	0.123700	0.374300	0.804600
H2081	H208	0.137500	0.427300	0.758200
H2091	H209	0.156900	0.384000	0.910600
H2101	H210	0.191800	0.443200	0.932000
H2111	H211	0.274600	0.322000	0.818900
H2121	H212	0.207500	0.309600	0.841700
H2131	H213	0.190900	0.517000	0.791300
H2141	H214	0.213600	0.523000	0.859100
H2151	H215	0.297900	0.462000	0.895900
H2161	H216	0.329200	0.414600	0.851700
H2171	H217	0.759400	0.944200	0.778600
H2181	H218	0.705300	0.903800	0.753800
H2191	H219	0.876300	0.874300	0.695400
H2201	H220	0.862500	0.927300	0.741800
H2211	H221	0.843100	0.884000	0.589400
H2221	H222	0.808200	0.943200	0.568000
H2231	H223	0.725400	0.822000	0.681100
H2241	H224	0.792500	0.809600	0.658300
H2251	H225	0.809100	0.017000	0.708700
H2261	H226	0.786400	0.023000	0.640900
H2271	H227	0.702100	0.962000	0.604100
H2281	H228	0.670800	0.914600	0.648300
H2291	H229	0.259400	0.555800	0.221400
H2301	H230	0.205300	0.596200	0.246200
H2311	H231	0.376300	0.625700	0.304600
H2321	H232	0.362500	0.572700	0.258200
H2331	H233	0.343100	0.616000	0.410600
H2341	H234	0.308200	0.556800	0.432000
H2351	H235	0.225400	0.678000	0.318900
H2361	H236	0.292500	0.690400	0.341700
H2371	H237	0.309100	0.483000	0.291300
H2381	H238	0.286400	0.477000	0.359100
H2391	H239	0.202100	0.538000	0.395900
H2401	H240	0.170800	0.585400	0.351700
H2411	H241	0.278600	0.740600	0.055800
H2421	H242	0.253800	0.794700	0.096200
H2431	H243	0.195400	0.623700	0.125700
H2441	H244	0.241800	0.637500	0.072700
H2451	H245	0.089400	0.656900	0.116000
H2461	H246	0.068000	0.691800	0.056800
H2471	H247	0.181100	0.774600	0.178000
H2481	H248	0.158300	0.707500	0.190400
H2491	H249	0.208700	0.690900	0.983000
H2501	H250	0.140900	0.713600	0.977000
H2511	H251	0.104100	0.797900	0.038000
H2521	H252	0.148300	0.829200	0.085400
H2531	H253	0.721400	0.240600	0.444200
H2541	H254	0.746200	0.294700	0.403800
H2551	H255	0.804600	0.123700	0.374300
H2561	H256	0.758200	0.137500	0.427300
H2571	H257	0.910600	0.156900	0.384000
H2581	H258	0.932000	0.191800	0.443200
H2591	H259	0.818900	0.274600	0.322000
H2601	H260	0.841700	0.207500	0.309600
H2611	H261	0.791300	0.190900	0.517000
H2621	H262	0.859100	0.213600	0.523000
H2631	H263	0.895900	0.297900	0.462000
H2641	H264	0.851700	0.329200	0.414600
H2651	H265	0.778600	0.759400	0.944200
H2661	H266	0.753800	0.705300	0.903800
H2671	H267	0.695400	0.876300	0.874300
H2681	H268	0.741800	0.862500	0.927300
H2691	H269	0.589400	0.843100	0.884000
H2701	H270	0.568000	0.808200	0.943200
H2711	H271	0.681100	0.725400	0.822000
H2721	H272	0.658300	0.792500	0.809600
H2731	H273	0.708700	0.809100	0.017000
H2741	H274	0.640900	0.786400	0.023000
H2751	H275	0.604100	0.702100	0.962000
H2761	H276	0.648300	0.670800	0.914600
H2771	H277	0.221400	0.259400	0.555800
H2781	H278	0.246200	0.205300	0.596200
H2791	H279	0.304600	0.376300	0.625700
H2801	H280	0.258200	0.362500	0.572700
H2811	H281	0.410600	0.343100	0.616000
H2821	H282	0.432000	0.308200	0.556800
H2831	H283	0.318900	0.225400	0.678000
H2841	H284	0.341700	0.292500	0.690400
H2851	H285	0.291300	0.309100	0.483000
H2861	H286	0.359100	0.286400	0.477000
H2871	H287	0.395900	0.202100	0.538000
H2881	H288	0.351700	0.170800	0.585400
C11	C1	0.922700	0.757100	0.244000
C21	C2	0.905200	0.793100	0.346500
C31	C3	0.915100	0.898100	0.314000
C41	C4	0.841300	0.829400	0.263900
C51	C5	0.994400	0.825900	0.292900
C61	C6	0.933700	0.862500	0.209400
C71	C7	0.577300	0.242900	0.744000
C81	C8	0.594800	0.206900	0.846500
C91	C9	0.584900	0.101900	0.814000
C101	C10	0.658700	0.170600	0.763900
C111	C11	0.505600	0.174100	0.792900
C121	C12	0.566300	0.137500	0.709400
C131	C13	0.077300	0.257100	0.256000
C141	C14	0.094800	0.293100	0.153500
C151	C15	0.084900	0.398100	0.186000
C161	C16	0.158700	0.329400	0.236100
C171	C17	0.005600	0.325900	0.207100
C181	C18	0.066300	0.362500	0.290600
C191	C19	0.422700	0.742900	0.756000
C201	C20	0.405200	0.706900	0.653500
C211	C21	0.415100	0.601900	0.686000
C221	C22	0.341300	0.670600	0.736100
C231	C23	0.494400	0.674100	0.707100
C241	C24	0.433700	0.637500	0.790600
C251	C25	0.244000	0.922700	0.757100
C261	C26	0.346500	0.905200	0.793100
C271	C27	0.314000	0.915100	0.898100
C281	C28	0.263900	0.841300	0.829400
C291	C29	0.292900	0.994400	0.825900
C301	C30	0.209400	0.933700	0.862500
C311	C31	0.744000	0.577300	0.242900
C321	C32	0.846500	0.594800	0.206900
C331	C33	0.814000	0.584900	0.101900
C341	C34	0.763900	0.658700	0.170600
C351	C35	0.792900	0.505600	0.174100
C361	C36	0.709400	0.566300	0.137500
C371	C37	0.256000	0.077300	0.257100
C381	C38	0.153500	0.094800	0.293100
C391	C39	0.186000	0.084900	0.398100
C401	C40	0.236100	0.158700	0.329400
C411	C41	0.207100	0.005600	0.325900
C421	C42	0.290600	0.066300	0.362500
C431	C43	0.756000	0.422700	0.742900
C441	C44	0.653500	0.405200	0.706900
C451	C45	0.686000	0.415100	0.601900
C461	C46	0.736100	0.341300	0.670600
C471	C47	0.707100	0.494400	0.674100
C481	C48	0.790600	0.433700	0.637500
C491	C49	0.757100	0.244000	0.922700
C501	C50	0.793100	0.346500	0.905200
C511	C51	0.898100	0.314000	0.915100
C521	C52	0.829400	0.263900	0.841300
C531	C53	0.825900	0.292900	0.994400
C541	C54	0.862500	0.209400	0.933700
C551	C55	0.242900	0.744000	0.577300
C561	C56	0.206900	0.846500	0.594800
C571	C57	0.101900	0.814000	0.584900
C581	C58	0.170600	0.763900	0.658700
C591	C59	0.174100	0.792900	0.505600
C601	C60	0.137500	0.709400	0.566300
C611	C61	0.257100	0.256000	0.077300
C621	C62	0.293100	0.153500	0.094800
C631	C63	0.398100	0.186000	0.084900
C641	C64	0.329400	0.236100	0.158700
C651	C65	0.325900	0.207100	0.005600
C661	C66	0.362500	0.290600	0.066300
C671	C67	0.742900	0.756000	0.422700
C681	C68	0.706900	0.653500	0.405200
C691	C69	0.601900	0.686000	0.415100
C701	C70	0.670600	0.736100	0.341300
C711	C71	0.674100	0.707100	0.494400
C721	C72	0.637500	0.790600	0.433700
C731	C73	0.077300	0.242900	0.756000
C741	C74	0.094800	0.206900	0.653500
C751	C75	0.084900	0.101900	0.686000
C761	C76	0.158700	0.170600	0.736100
C771	C77	0.005600	0.174100	0.707100
C781	C78	0.066300	0.137500	0.790600
C791	C79	0.422700	0.757100	0.256000
C801	C80	0.405200	0.793100	0.153500
C811	C81	0.415100	0.898100	0.186000
C821	C82	0.341300	0.829400	0.236100
C831	C83	0.494400	0.825900	0.207100
C841	C84	0.433700	0.862500	0.290600
C851	C85	0.922700	0.742900	0.744000
C861	C86	0.905200	0.706900	0.846500
C871	C87	0.915100	0.601900	0.814000
C881	C88	0.841300	0.670600	0.763900
C891	C89	0.994400	0.674100	0.792900
C901	C90	0.933700	0.637500	0.709400
C911	C91	0.577300	0.257100	0.244000
C921	C92	0.594800	0.293100	0.346500
C931	C93	0.584900	0.398100	0.314000
C941	C94	0.658700	0.329400	0.263900
C951	C95	0.505600	0.325900	0.292900
C961	C96	0.566300	0.362500	0.209400
C971	C97	0.756000	0.077300	0.242900
C981	C98	0.653500	0.094800	0.206900
C991	C99	0.686000	0.084900	0.101900
C1001	C100	0.736100	0.158700	0.170600
C1011	C101	0.707100	0.005600	0.174100
C1021	C102	0.790600	0.066300	0.137500
C1031	C103	0.256000	0.422700	0.757100
C1041	C104	0.153500	0.405200	0.793100
C1051	C105	0.186000	0.415100	0.898100
C1061	C106	0.236100	0.341300	0.829400
C1071	C107	0.207100	0.494400	0.825900
C1081	C108	0.290600	0.433700	0.862500
C1091	C109	0.744000	0.922700	0.742900
C1101	C110	0.846500	0.905200	0.706900
C1111	C111	0.814000	0.915100	0.601900
C1121	C112	0.763900	0.841300	0.670600
C1131	C113	0.792900	0.994400	0.674100
C1141	C114	0.709400	0.933700	0.637500
C1151	C115	0.244000	0.577300	0.257100
C1161	C116	0.346500	0.594800	0.293100
C1171	C117	0.314000	0.584900	0.398100
C1181	C118	0.263900	0.658700	0.329400
C1191	C119	0.292900	0.505600	0.325900
C1201	C120	0.209400	0.566300	0.362500
C1211	C121	0.242900	0.756000	0.077300
C1221	C122	0.206900	0.653500	0.094800
C1231	C123	0.101900	0.686000	0.084900
C1241	C124	0.170600	0.736100	0.158700
C1251	C125	0.174100	0.707100	0.005600
C1261	C126	0.137500	0.790600	0.066300
C1271	C127	0.757100	0.256000	0.422700
C1281	C128	0.793100	0.153500	0.405200
C1291	C129	0.898100	0.186000	0.415100
C1301	C130	0.829400	0.236100	0.341300
C1311	C131	0.825900	0.207100	0.494400
C1321	C132	0.862500	0.290600	0.433700
C1331	C133	0.742900	0.744000	0.922700
C1341	C134	0.706900	0.846500	0.905200
C1351	C135	0.601900	0.814000	0.915100
C1361	C136	0.670600	0.763900	0.841300
C1371	C137	0.674100	0.792900	0.994400
C1381	C138	0.637500	0.709400	0.933700
C1391	C139	0.257100	0.244000	0.577300
C1401	C140	0.293100	0.346500	0.594800
C1411	C141	0.398100	0.314000	0.584900
C1421	C142	0.329400	0.263900	0.658700
C1431	C143	0.325900	0.292900	0.505600
C1441	C144	0.362500	0.209400	0.566300
N11	N1	0.948400	0.845000	0.337900
N21	N2	0.885700	0.882100	0.254300
N31	N3	0.874700	0.775600	0.288400
N41	N4	0.967300	0.808700	0.234400
N51	N5	0.551600	0.155000	0.837900
N61	N6	0.614300	0.117900	0.754300
N71	N7	0.625300	0.224400	0.788400
N81	N8	0.532700	0.191300	0.734400
N91	N9	0.051600	0.345000	0.162100
N101	N10	0.114300	0.382100	0.245700
N111	N11	0.125300	0.275600	0.211600
N121	N12	0.032700	0.308700	0.265600
N131	N13	0.448400	0.655000	0.662100
N141	N14	0.385700	0.617900	0.745700
N151	N15	0.374700	0.724400	0.711600
N161	N16	0.467300	0.691300	0.765600
N171	N17	0.337900	0.948400	0.845000
N181	N18	0.254300	0.885700	0.882100
N191	N19	0.288400	0.874700	0.775600
N201	N20	0.234400	0.967300	0.808700
N211	N21	0.837900	0.551600	0.155000
N221	N22	0.754300	0.614300	0.117900
N231	N23	0.788400	0.625300	0.224400
N241	N24	0.734400	0.532700	0.191300
N251	N25	0.162100	0.051600	0.345000
N261	N26	0.245700	0.114300	0.382100
N271	N27	0.211600	0.125300	0.275600
N281	N28	0.265600	0.032700	0.308700
N291	N29	0.662100	0.448400	0.655000
N301	N30	0.745700	0.385700	0.617900
N311	N31	0.711600	0.374700	0.724400
N321	N32	0.765600	0.467300	0.691300
N331	N33	0.845000	0.337900	0.948400
N341	N34	0.882100	0.254300	0.885700
N351	N35	0.775600	0.288400	0.874700
N361	N36	0.808700	0.234400	0.967300
N371	N37	0.155000	0.837900	0.551600
N381	N38	0.117900	0.754300	0.614300
N391	N39	0.224400	0.788400	0.625300
N401	N40	0.191300	0.734400	0.532700
N411	N41	0.345000	0.162100	0.051600
N421	N42	0.382100	0.245700	0.114300
N431	N43	0.275600	0.211600	0.125300
N441	N44	0.308700	0.265600	0.032700
N451	N45	0.655000	0.662100	0.448400
N461	N46	0.617900	0.745700	0.385700
N471	N47	0.724400	0.711600	0.374700
N481	N48	0.691300	0.765600	0.467300
N491	N49	0.051600	0.155000	0.662100
N501	N50	0.114300	0.117900	0.745700
N511	N51	0.125300	0.224400	0.711600
N521	N52	0.032700	0.191300	0.765600
N531	N53	0.448400	0.845000	0.162100
N541	N54	0.385700	0.882100	0.245700
N551	N55	0.374700	0.775600	0.211600
N561	N56	0.467300	0.808700	0.265600
N571	N57	0.948400	0.655000	0.837900
N581	N58	0.885700	0.617900	0.754300
N591	N59	0.874700	0.724400	0.788400
N601	N60	0.967300	0.691300	0.734400
N611	N61	0.551600	0.345000	0.337900
N621	N62	0.614300	0.382100	0.254300
N631	N63	0.625300	0.275600	0.288400
N641	N64	0.532700	0.308700	0.234400
N651	N65	0.662100	0.051600	0.155000
N661	N66	0.745700	0.114300	0.117900
N671	N67	0.711600	0.125300	0.224400
N681	N68	0.765600	0.032700	0.191300
N691	N69	0.162100	0.448400	0.845000
N701	N70	0.245700	0.385700	0.882100
N711	N71	0.211600	0.374700	0.775600
N721	N72	0.265600	0.467300	0.808700
N731	N73	0.837900	0.948400	0.655000
N741	N74	0.754300	0.885700	0.617900
N751	N75	0.788400	0.874700	0.724400
N761	N76	0.734400	0.967300	0.691300
N771	N77	0.337900	0.551600	0.345000
N781	N78	0.254300	0.614300	0.382100
N791	N79	0.288400	0.625300	0.275600
N801	N80	0.234400	0.532700	0.308700
N811	N81	0.155000	0.662100	0.051600
N821	N82	0.117900	0.745700	0.114300
N831	N83	0.224400	0.711600	0.125300
N841	N84	0.191300	0.765600	0.032700
N851	N85	0.845000	0.162100	0.448400
N861	N86	0.882100	0.245700	0.385700
N871	N87	0.775600	0.211600	0.374700
N881	N88	0.808700	0.265600	0.467300
N891	N89	0.655000	0.837900	0.948400
N901	N90	0.617900	0.754300	0.885700
N911	N91	0.724400	0.788400	0.874700
N921	N92	0.691300	0.734400	0.967300
N931	N93	0.345000	0.337900	0.551600
N941	N94	0.382100	0.254300	0.614300
N951	N95	0.275600	0.288400	0.625300
N961	N96	0.308700	0.234400	0.532700
P11	P1	0.909300	0.759800	0.539700
F11	F1	0.965700	0.778200	0.499100
F21	F2	0.855100	0.742800	0.581200
F31	F3	0.951200	0.709800	0.570600
F41	F4	0.887600	0.714700	0.489500
F51	F5	0.931400	0.808000	0.589400
F61	F6	0.870200	0.810600	0.508300
P21	P2	0.590700	0.240200	0.039700
F71	F7	0.534300	0.221800	0.999100
F81	F8	0.644900	0.257200	0.081200
F91	F9	0.548800	0.290200	0.070600
F101	F10	0.612400	0.285300	0.989500
F111	F11	0.568600	0.192000	0.089400
F121	F12	0.629800	0.189400	0.008300
P31	P3	0.090700	0.259800	0.960300
F131	F13	0.034300	0.278200	0.000900
F141	F14	0.144900	0.242800	0.918800
F151	F15	0.048800	0.209800	0.929400
F161	F16	0.112400	0.214700	0.010500
F171	F17	0.068600	0.308000	0.910600
F181	F18	0.129800	0.310600	0.991700
P41	P4	0.409300	0.740200	0.460300
F191	F19	0.465700	0.721800	0.500900
F201	F20	0.355100	0.757200	0.418800
F211	F21	0.451200	0.790200	0.429400
F221	F22	0.387600	0.785300	0.510500
F231	F23	0.431400	0.692000	0.410600
F241	F24	0.370200	0.689400	0.491700
P51	P5	0.539700	0.909300	0.759800
F251	F25	0.499100	0.965700	0.778200
F261	F26	0.581200	0.855100	0.742800
F271	F27	0.570600	0.951200	0.709800
F281	F28	0.489500	0.887600	0.714700
F291	F29	0.589400	0.931400	0.808000
F301	F30	0.508300	0.870200	0.810600
P61	P6	0.039700	0.590700	0.240200
F311	F31	0.999100	0.534300	0.221800
F321	F32	0.081200	0.644900	0.257200
F331	F33	0.070600	0.548800	0.290200
F341	F34	0.989500	0.612400	0.285300
F351	F35	0.089400	0.568600	0.192000
F361	F36	0.008300	0.629800	0.189400
P71	P7	0.960300	0.090700	0.259800
F371	F37	0.000900	0.034300	0.278200
F381	F38	0.918800	0.144900	0.242800
F391	F39	0.929400	0.048800	0.209800
F401	F40	0.010500	0.112400	0.214700
F411	F41	0.910600	0.068600	0.308000
F421	F42	0.991700	0.129800	0.310600
P81	P8	0.460300	0.409300	0.740200
F431	F43	0.500900	0.465700	0.721800
F441	F44	0.418800	0.355100	0.757200
F451	F45	0.429400	0.451200	0.790200
F461	F46	0.510500	0.387600	0.785300
F471	F47	0.410600	0.431400	0.692000
F481	F48	0.491700	0.370200	0.689400
P91	P9	0.759800	0.539700	0.909300
F491	F49	0.778200	0.499100	0.965700
F501	F50	0.742800	0.581200	0.855100
F511	F51	0.709800	0.570600	0.951200
F521	F52	0.714700	0.489500	0.887600
F531	F53	0.808000	0.589400	0.931400
F541	F54	0.810600	0.508300	0.870200
P101	P10	0.240200	0.039700	0.590700
F551	F55	0.221800	0.999100	0.534300
F561	F56	0.257200	0.081200	0.644900
F571	F57	0.290200	0.070600	0.548800
F581	F58	0.285300	0.989500	0.612400
F591	F59	0.192000	0.089400	0.568600
F601	F60	0.189400	0.008300	0.629800
P111	P11	0.259800	0.960300	0.090700
F611	F61	0.278200	0.000900	0.034300
F621	F62	0.242800	0.918800	0.144900
F631	F63	0.209800	0.929400	0.048800
F641	F64	0.214700	0.010500	0.112400
F651	F65	0.308000	0.910600	0.068600
F661	F66	0.310600	0.991700	0.129800
P121	P12	0.740200	0.460300	0.409300
F671	F67	0.721800	0.500900	0.465700
F681	F68	0.757200	0.418800	0.355100
F691	F69	0.790200	0.429400	0.451200
F701	F70	0.785300	0.510500	0.387600
F711	F71	0.692000	0.410600	0.431400
F721	F72	0.689400	0.491700	0.370200
P131	P13	0.090700	0.240200	0.460300
F731	F73	0.034300	0.221800	0.500900
F741	F74	0.144900	0.257200	0.418800
F751	F75	0.048800	0.290200	0.429400
F761	F76	0.112400	0.285300	0.510500
F771	F77	0.068600	0.192000	0.410600
F781	F78	0.129800	0.189400	0.491700
P141	P14	0.409300	0.759800	0.960300
F791	F79	0.465700	0.778200	0.000900
F801	F80	0.355100	0.742800	0.918800
F811	F81	0.451200	0.709800	0.929400
F821	F82	0.387600	0.714700	0.010500
F831	F83	0.431400	0.808000	0.910600
F841	F84	0.370200	0.810600	0.991700
P151	P15	0.909300	0.740200	0.039700
F851	F85	0.965700	0.721800	0.999100
F861	F86	0.855100	0.757200	0.081200
F871	F87	0.951200	0.790200	0.070600
F881	F88	0.887600	0.785300	0.989500
F891	F89	0.931400	0.692000	0.089400
F901	F90	0.870200	0.689400	0.008300
P161	P16	0.590700	0.259800	0.539700
F911	F91	0.534300	0.278200	0.499100
F921	F92	0.644900	0.242800	0.581200
F931	F93	0.548800	0.209800	0.570600
F941	F94	0.612400	0.214700	0.489500
F951	F95	0.568600	0.308000	0.589400
F961	F96	0.629800	0.310600	0.508300
P171	P17	0.460300	0.090700	0.240200
F971	F97	0.500900	0.034300	0.221800
F981	F98	0.418800	0.144900	0.257200
F991	F99	0.429400	0.048800	0.290200
F1001	F100	0.510500	0.112400	0.285300
F1011	F101	0.410600	0.068600	0.192000
F1021	F102	0.491700	0.129800	0.189400
P181	P18	0.960300	0.409300	0.759800
F1031	F103	0.000900	0.465700	0.778200
F1041	F104	0.918800	0.355100	0.742800
F1051	F105	0.929400	0.451200	0.709800
F1061	F106	0.010500	0.387600	0.714700
F1071	F107	0.910600	0.431400	0.808000
F1081	F108	0.991700	0.370200	0.810600
P191	P19	0.039700	0.909300	0.740200
F1091	F109	0.999100	0.965700	0.721800
F1101	F110	0.081200	0.855100	0.757200
F1111	F111	0.070600	0.951200	0.790200
F1121	F112	0.989500	0.887600	0.785300
F1131	F113	0.089400	0.931400	0.692000
F1141	F114	0.008300	0.870200	0.689400
P201	P20	0.539700	0.590700	0.259800
F1151	F115	0.499100	0.534300	0.278200
F1161	F116	0.581200	0.644900	0.242800
F1171	F117	0.570600	0.548800	0.209800
F1181	F118	0.489500	0.612400	0.214700
F1191	F119	0.589400	0.568600	0.308000
F1201	F120	0.508300	0.629800	0.310600
P211	P21	0.240200	0.460300	0.090700
F1211	F121	0.221800	0.500900	0.034300
F1221	F122	0.257200	0.418800	0.144900
F1231	F123	0.290200	0.429400	0.048800
F1241	F124	0.285300	0.510500	0.112400
F1251	F125	0.192000	0.410600	0.068600
F1261	F126	0.189400	0.491700	0.129800
P221	P22	0.759800	0.960300	0.409300
F1271	F127	0.778200	0.000900	0.465700
F1281	F128	0.742800	0.918800	0.355100
F1291	F129	0.709800	0.929400	0.451200
F1301	F130	0.714700	0.010500	0.387600
F1311	F131	0.808000	0.910600	0.431400
F1321	F132	0.810600	0.991700	0.370200
P231	P23	0.740200	0.039700	0.909300
F1331	F133	0.721800	0.999100	0.965700
F1341	F134	0.757200	0.081200	0.855100
F1351	F135	0.790200	0.070600	0.951200
F1361	F136	0.785300	0.989500	0.887600
F1371	F137	0.692000	0.089400	0.931400
F1381	F138	0.689400	0.008300	0.870200
P241	P24	0.259800	0.539700	0.590700
F1391	F139	0.278200	0.499100	0.534300
F1401	F140	0.242800	0.581200	0.644900
F1411	F141	0.209800	0.570600	0.548800
F1421	F142	0.214700	0.489500	0.612400
F1431	F143	0.308000	0.589400	0.568600
F1441	F144	0.310600	0.508300	0.629800
