data_RAHMAP_freeONLY_PM
_symmetry_space_group_name_H-M	'P1'
_cell_length_a	10.176300
_cell_length_b	11.159800
_cell_length_c	14.855700
_cell_angle_alpha	90.000000
_cell_angle_beta	107.035000
_cell_angle_gamma	90.000000
_symmetry_Int_Tables_number 1

loop_
_symmetry_equiv_pos_as_xyz
'x,y,z'

loop_
_atom_site_label
_atom_site_type_symbol
_atom_site_fract_x
_atom_site_fract_y
_atom_site_fract_z
Cu11	Cu1	0.030660	0.250260	0.000000
O11	O1	0.850900	0.172200	0.991400
O21	O2	0.707000	0.067600	0.046300
O31	O3	0.987500	0.365500	0.084400
O41	O4	0.867100	0.423500	0.178700
O51	O5	0.940100	0.884400	0.075600
O61	O6	0.855700	0.818400	0.190500
O71	O7	0.941100	0.363800	0.861000
H11	H1	0.972000	0.429000	0.850000
H21	H2	0.934000	0.331000	0.816000
N11	N1	0.213400	0.329100	0.018100
C11	C1	0.218800	0.448800	0.029100
H31	H3	0.144700	0.487200	0.041200
C21	C2	0.327900	0.516800	0.023300
H41	H4	0.325700	0.599500	0.030900
C31	C3	0.441600	0.464200	0.006300
C41	C4	0.439100	0.339200	0.000000
H51	H5	0.514700	0.298400	0.992200
C51	C5	0.325300	0.275800	0.005200
H61	H6	0.325900	0.192800	0.999600
C61	C6	0.933200	0.348100	0.151200
C71	C7	0.963100	0.228000	0.201500
C81	C8	0.819300	0.119000	0.056400
C91	C9	0.920100	0.119900	0.155400
C101	C10	0.957800	0.011900	0.203300
C111	C11	0.912400	0.894300	0.153000
Cu21	Cu2	0.969340	0.250260	0.500000
O81	O8	0.149100	0.172200	0.508600
O91	O9	0.293000	0.067600	0.453700
O101	O10	0.012500	0.365500	0.415600
O111	O11	0.132900	0.423500	0.321300
O121	O12	0.059900	0.884400	0.424400
O131	O13	0.144300	0.818400	0.309500
O141	O14	0.058900	0.363800	0.639000
H71	H7	0.028000	0.429000	0.650000
H81	H8	0.066000	0.331000	0.684000
N21	N2	0.786600	0.329100	0.481900
C121	C12	0.781200	0.448800	0.470900
H91	H9	0.855300	0.487200	0.458800
C131	C13	0.672100	0.516800	0.476700
H101	H10	0.674300	0.599500	0.469100
C141	C14	0.558400	0.464200	0.493700
C151	C15	0.560900	0.339200	0.500000
H111	H11	0.485300	0.298400	0.507800
C161	C16	0.674700	0.275800	0.494800
H121	H12	0.674100	0.192800	0.500400
C171	C17	0.066800	0.348100	0.348800
C181	C18	0.036900	0.228000	0.298500
C191	C19	0.180700	0.119000	0.443600
C201	C20	0.079900	0.119900	0.344600
C211	C21	0.042200	0.011900	0.296700
C221	C22	0.087600	0.894300	0.347000
Cu31	Cu3	0.969340	0.749740	0.000000
O151	O15	0.149100	0.827800	0.008600
O161	O16	0.293000	0.932400	0.953700
O171	O17	0.012500	0.634500	0.915600
O181	O18	0.132900	0.576500	0.821300
O191	O19	0.059900	0.115600	0.924400
O201	O20	0.144300	0.181600	0.809500
O211	O21	0.058900	0.636200	0.139000
H131	H13	0.028000	0.571000	0.150000
H141	H14	0.066000	0.669000	0.184000
N31	N3	0.786600	0.670900	0.981900
C231	C23	0.781200	0.551200	0.970900
H151	H15	0.855300	0.512800	0.958800
C241	C24	0.672100	0.483200	0.976700
H161	H16	0.674300	0.400500	0.969100
C251	C25	0.558400	0.535800	0.993700
C261	C26	0.560900	0.660800	0.000000
H171	H17	0.485300	0.701600	0.007800
C271	C27	0.674700	0.724200	0.994800
H181	H18	0.674100	0.807200	0.000400
C281	C28	0.066800	0.651900	0.848800
C291	C29	0.036900	0.772000	0.798500
C301	C30	0.180700	0.881000	0.943600
C311	C31	0.079900	0.880100	0.844600
C321	C32	0.042200	0.988100	0.796700
C331	C33	0.087600	0.105700	0.847000
Cu41	Cu4	0.030660	0.749740	0.500000
O221	O22	0.850900	0.827800	0.491400
O231	O23	0.707000	0.932400	0.546300
O241	O24	0.987500	0.634500	0.584400
O251	O25	0.867100	0.576500	0.678700
O261	O26	0.940100	0.115600	0.575600
O271	O27	0.855700	0.181600	0.690500
O281	O28	0.941100	0.636200	0.361000
H191	H19	0.972000	0.571000	0.350000
H201	H20	0.934000	0.669000	0.316000
N41	N4	0.213400	0.670900	0.518100
C341	C34	0.218800	0.551200	0.529100
H211	H21	0.144700	0.512800	0.541200
C351	C35	0.327900	0.483200	0.523300
H221	H22	0.325700	0.400500	0.530900
C361	C36	0.441600	0.535800	0.506300
C371	C37	0.439100	0.660800	0.500000
H231	H23	0.514700	0.701600	0.492200
C381	C38	0.325300	0.724200	0.505200
H241	H24	0.325900	0.807200	0.499600
C391	C39	0.933200	0.651900	0.651200
C401	C40	0.963100	0.772000	0.701500
C411	C41	0.819300	0.881000	0.556400
C421	C42	0.920100	0.880100	0.655400
C431	C43	0.957800	0.988100	0.703300
C441	C44	0.912400	0.105700	0.653000
