data_RAJFEQ_freeONLY_PM
_symmetry_space_group_name_H-M	'P1'
_cell_length_a	18.280000
_cell_length_b	11.916300
_cell_length_c	11.092300
_cell_angle_alpha	90.000000
_cell_angle_beta	94.040000
_cell_angle_gamma	90.000000
_symmetry_Int_Tables_number 1

loop_
_symmetry_equiv_pos_as_xyz
'x,y,z'

loop_
_atom_site_label
_atom_site_type_symbol
_atom_site_fract_x
_atom_site_fract_y
_atom_site_fract_z
Co11	Co1	0.577040	0.432900	0.995660
C11	C1	0.630000	0.260000	0.167600
C21	C2	0.695600	0.194200	0.221400
C31	C3	0.750800	0.161800	0.150000
H11	H1	0.748500	0.176500	0.067500
C41	C4	0.810600	0.105300	0.208600
C51	C5	0.813000	0.081300	0.330800
C61	C6	0.757200	0.114000	0.403500
H21	H2	0.759400	0.098800	0.486000
C71	C7	0.699200	0.169600	0.346000
H31	H3	0.660600	0.192000	0.390900
N11	N1	0.872990	0.062200	0.165200
N21	N2	0.911080	0.016000	0.258900
N31	N3	0.877120	0.025800	0.360200
O11	O1	0.479790	0.414400	0.066700
O21	O2	0.631500	0.294100	0.058800
O31	O3	0.578910	0.276000	0.235300
H41	H4	0.456700	0.355000	0.047000
Co21	Co2	0.077040	0.932900	0.995660
C81	C8	0.130000	0.760000	0.167600
C91	C9	0.195600	0.694200	0.221400
C101	C10	0.250800	0.661800	0.150000
H51	H5	0.248500	0.676500	0.067500
C111	C11	0.310600	0.605300	0.208600
C121	C12	0.313000	0.581300	0.330800
C131	C13	0.257200	0.614000	0.403500
H61	H6	0.259400	0.598800	0.486000
C141	C14	0.199200	0.669600	0.346000
H71	H7	0.160600	0.692000	0.390900
N41	N4	0.372990	0.562200	0.165200
N51	N5	0.411080	0.516000	0.258900
N61	N6	0.377120	0.525800	0.360200
O41	O4	0.979790	0.914400	0.066700
O51	O5	0.131500	0.794100	0.058800
O61	O6	0.078910	0.776000	0.235300
H81	H8	0.956700	0.855000	0.047000
Co31	Co3	0.422960	0.432900	0.504340
C151	C15	0.370000	0.260000	0.332400
C161	C16	0.304400	0.194200	0.278600
C171	C17	0.249200	0.161800	0.350000
H91	H9	0.251500	0.176500	0.432500
C181	C18	0.189400	0.105300	0.291400
C191	C19	0.187000	0.081300	0.169200
C201	C20	0.242800	0.114000	0.096500
H101	H10	0.240600	0.098800	0.014000
C211	C21	0.300800	0.169600	0.154000
H111	H11	0.339400	0.192000	0.109100
N71	N7	0.127010	0.062200	0.334800
N81	N8	0.088920	0.016000	0.241100
N91	N9	0.122880	0.025800	0.139800
O71	O7	0.520210	0.414400	0.433300
O81	O8	0.368500	0.294100	0.441200
O91	O9	0.421090	0.276000	0.264700
H121	H12	0.543300	0.355000	0.453000
Co41	Co4	0.922960	0.932900	0.504340
C221	C22	0.870000	0.760000	0.332400
C231	C23	0.804400	0.694200	0.278600
C241	C24	0.749200	0.661800	0.350000
H131	H13	0.751500	0.676500	0.432500
C251	C25	0.689400	0.605300	0.291400
C261	C26	0.687000	0.581300	0.169200
C271	C27	0.742800	0.614000	0.096500
H141	H14	0.740600	0.598800	0.014000
C281	C28	0.800800	0.669600	0.154000
H151	H15	0.839400	0.692000	0.109100
N101	N10	0.627010	0.562200	0.334800
N111	N11	0.588920	0.516000	0.241100
N121	N12	0.622880	0.525800	0.139800
O101	O10	0.020210	0.914400	0.433300
O111	O11	0.868500	0.794100	0.441200
O121	O12	0.921090	0.776000	0.264700
H161	H16	0.043300	0.855000	0.453000
Co51	Co5	0.422960	0.567100	0.004340
C291	C29	0.370000	0.740000	0.832400
C301	C30	0.304400	0.805800	0.778600
C311	C31	0.249200	0.838200	0.850000
H171	H17	0.251500	0.823500	0.932500
C321	C32	0.189400	0.894700	0.791400
C331	C33	0.187000	0.918700	0.669200
C341	C34	0.242800	0.886000	0.596500
H181	H18	0.240600	0.901200	0.514000
C351	C35	0.300800	0.830400	0.654000
H191	H19	0.339400	0.808000	0.609100
N131	N13	0.127010	0.937800	0.834800
N141	N14	0.088920	0.984000	0.741100
N151	N15	0.122880	0.974200	0.639800
O131	O13	0.520210	0.585600	0.933300
O141	O14	0.368500	0.705900	0.941200
O151	O15	0.421090	0.724000	0.764700
H201	H20	0.543300	0.645000	0.953000
Co61	Co6	0.922960	0.067100	0.004340
C361	C36	0.870000	0.240000	0.832400
C371	C37	0.804400	0.305800	0.778600
C381	C38	0.749200	0.338200	0.850000
H211	H21	0.751500	0.323500	0.932500
C391	C39	0.689400	0.394700	0.791400
C401	C40	0.687000	0.418700	0.669200
C411	C41	0.742800	0.386000	0.596500
H221	H22	0.740600	0.401200	0.514000
C421	C42	0.800800	0.330400	0.654000
H231	H23	0.839400	0.308000	0.609100
N161	N16	0.627010	0.437800	0.834800
N171	N17	0.588920	0.484000	0.741100
N181	N18	0.622880	0.474200	0.639800
O161	O16	0.020210	0.085600	0.933300
O171	O17	0.868500	0.205900	0.941200
O181	O18	0.921090	0.224000	0.764700
H241	H24	0.043300	0.145000	0.953000
Co71	Co7	0.577040	0.567100	0.495660
C431	C43	0.630000	0.740000	0.667600
C441	C44	0.695600	0.805800	0.721400
C451	C45	0.750800	0.838200	0.650000
H251	H25	0.748500	0.823500	0.567500
C461	C46	0.810600	0.894700	0.708600
C471	C47	0.813000	0.918700	0.830800
C481	C48	0.757200	0.886000	0.903500
H261	H26	0.759400	0.901200	0.986000
C491	C49	0.699200	0.830400	0.846000
H271	H27	0.660600	0.808000	0.890900
N191	N19	0.872990	0.937800	0.665200
N201	N20	0.911080	0.984000	0.758900
N211	N21	0.877120	0.974200	0.860200
O191	O19	0.479790	0.585600	0.566700
O201	O20	0.631500	0.705900	0.558800
O211	O21	0.578910	0.724000	0.735300
H281	H28	0.456700	0.645000	0.547000
Co81	Co8	0.077040	0.067100	0.495660
C501	C50	0.130000	0.240000	0.667600
C511	C51	0.195600	0.305800	0.721400
C521	C52	0.250800	0.338200	0.650000
H291	H29	0.248500	0.323500	0.567500
C531	C53	0.310600	0.394700	0.708600
C541	C54	0.313000	0.418700	0.830800
C551	C55	0.257200	0.386000	0.903500
H301	H30	0.259400	0.401200	0.986000
C561	C56	0.199200	0.330400	0.846000
H311	H31	0.160600	0.308000	0.890900
N221	N22	0.372990	0.437800	0.665200
N231	N23	0.411080	0.484000	0.758900
N241	N24	0.377120	0.474200	0.860200
O221	O22	0.979790	0.085600	0.566700
O231	O23	0.131500	0.205900	0.558800
O241	O24	0.078910	0.224000	0.735300
H321	H32	0.956700	0.145000	0.547000
Co91	Co9	0.500000	0.399370	0.250000
Co101	Co10	0.000000	0.899370	0.250000
Co111	Co11	0.500000	0.600630	0.750000
Co121	Co12	0.000000	0.100630	0.750000
