data_RAKPEZ_freeONLY_PM
_symmetry_space_group_name_H-M	'P1'
_cell_length_a	6.039400
_cell_length_b	26.524000
_cell_length_c	23.431000
_cell_angle_alpha	90.000000
_cell_angle_beta	93.710000
_cell_angle_gamma	90.000000
_symmetry_Int_Tables_number 1

loop_
_symmetry_equiv_pos_as_xyz
'x,y,z'

loop_
_atom_site_label
_atom_site_type_symbol
_atom_site_fract_x
_atom_site_fract_y
_atom_site_fract_z
La11	La1	0.754000	0.805410	0.944780
La21	La2	0.746800	0.775030	0.554840
P11	P1	0.885500	0.898900	0.624400
P21	P2	0.260800	0.860300	0.022300
P31	P3	0.785000	0.766980	0.107000
P41	P4	0.231500	0.172400	0.981900
P51	P5	0.715700	0.736260	0.393200
P61	P6	0.604200	0.932500	0.884300
O11	O1	0.760000	0.851100	0.618100
O21	O2	0.918000	0.933900	0.574800
O31	O3	0.774000	0.927900	0.673900
O41	O4	0.036000	0.863300	0.984300
O51	O5	0.271000	0.818800	0.067600
O61	O6	0.473000	0.862000	0.987900
O71	O7	0.576000	0.740600	0.125800
O81	O8	0.994000	0.742800	0.132800
O91	O9	0.783000	0.774300	0.043900
O101	O10	0.459000	0.169400	0.016800
O111	O11	0.037000	0.171700	0.019100
O121	O12	0.220000	0.211400	0.936000
O131	O13	0.919000	0.708800	0.373000
O141	O14	0.496000	0.711500	0.368600
O151	O15	0.712000	0.737400	0.460100
O161	O16	0.700000	0.967400	0.841400
O171	O17	0.577000	0.960000	0.937900
O181	O18	0.723000	0.884000	0.887700
C11	C1	0.170000	0.885700	0.651700
H11	H1	0.229700	0.915500	0.671200
H21	H2	0.259300	0.879200	0.619500
C21	C2	0.428000	0.838400	0.720900
H31	H3	0.456000	0.805900	0.738800
H41	H4	0.532900	0.842700	0.691500
C31	C3	0.464000	0.879800	0.765400
H51	H5	0.445900	0.912400	0.746900
H61	H6	0.614000	0.877800	0.782600
C41	C4	0.072000	0.875700	0.785200
H71	H7	0.970000	0.870100	0.814900
H81	H8	0.038600	0.908500	0.768300
C51	C5	0.037000	0.835100	0.739500
H91	H9	0.886400	0.837200	0.722700
H101	H10	0.055700	0.802200	0.757300
C61	C6	0.274000	0.920800	0.062500
H111	H11	0.142000	0.924100	0.083900
H121	H12	0.401900	0.920500	0.089700
C71	C7	0.386000	0.011000	0.053900
H131	H13	0.532700	0.002800	0.070900
H141	H14	0.293400	0.020300	0.084400
C81	C8	0.404000	0.055700	0.012500
H151	H15	0.467900	0.084600	0.032900
H161	H16	0.500600	0.046800	0.982500
C91	C9	0.079000	0.022100	0.955000
H171	H17	0.931000	0.029900	0.938800
H181	H18	0.169800	0.013100	0.923900
C101	C10	0.067000	0.978200	0.995400
H191	H19	0.967500	0.986400	0.024900
H201	H20	0.007200	0.949100	0.974600
C111	C11	0.771000	0.832000	0.130800
H211	H21	0.898800	0.849700	0.117800
H221	H22	0.640100	0.847200	0.111500
C121	C12	0.563000	0.821500	0.214600
H231	H23	0.557500	0.785500	0.207200
H241	H24	0.436000	0.836700	0.193700
C131	C13	0.543000	0.831000	0.282600
H251	H25	0.546700	0.866700	0.291600
H261	H26	0.408400	0.816400	0.295700
C141	C14	0.941000	0.829700	0.292900
H271	H27	0.067500	0.812100	0.311200
H281	H28	0.945100	0.864500	0.305500
C151	C15	0.947000	0.826800	0.227600
H291	H29	0.070900	0.847000	0.216800
H301	H30	0.979000	0.792100	0.217900
C161	C16	0.189000	0.111500	0.943800
H311	H31	0.052400	0.112700	0.919800
H321	H32	0.310600	0.105600	0.919500
C171	C17	0.718000	0.800600	0.370400
H331	H33	0.842300	0.817800	0.390200
H341	H34	0.583000	0.816900	0.381000
C181	C18	0.311000	0.918400	0.854100
H351	H35	0.219500	0.909600	0.885200
H361	H36	0.248400	0.948400	0.835800
N11	N1	0.194000	0.839900	0.693800
H371	H37	0.176600	0.811600	0.671900
N21	N2	0.304000	0.875500	0.810900
H381	H38	0.328900	0.845900	0.829900
N31	N3	0.289000	0.965100	0.022800
H391	H39	0.379500	0.956500	0.994900
N41	N4	0.178000	0.068900	0.986600
H401	H40	0.089600	0.078100	0.014800
N51	N5	0.762000	0.841600	0.193400
H411	H41	0.752300	0.875600	0.197300
N61	N6	0.736000	0.805900	0.307300
H421	H42	0.735300	0.774200	0.292400
La31	La3	0.254000	0.305410	0.944780
La41	La4	0.246800	0.275030	0.554840
P71	P7	0.385500	0.398900	0.624400
P81	P8	0.760800	0.360300	0.022300
P91	P9	0.285000	0.266980	0.107000
P101	P10	0.731500	0.672400	0.981900
P111	P11	0.215700	0.236260	0.393200
P121	P12	0.104200	0.432500	0.884300
O191	O19	0.260000	0.351100	0.618100
O201	O20	0.418000	0.433900	0.574800
O211	O21	0.274000	0.427900	0.673900
O221	O22	0.536000	0.363300	0.984300
O231	O23	0.771000	0.318800	0.067600
O241	O24	0.973000	0.362000	0.987900
O251	O25	0.076000	0.240600	0.125800
O261	O26	0.494000	0.242800	0.132800
O271	O27	0.283000	0.274300	0.043900
O281	O28	0.959000	0.669400	0.016800
O291	O29	0.537000	0.671700	0.019100
O301	O30	0.720000	0.711400	0.936000
O311	O31	0.419000	0.208800	0.373000
O321	O32	0.996000	0.211500	0.368600
O331	O33	0.212000	0.237400	0.460100
O341	O34	0.200000	0.467400	0.841400
O351	O35	0.077000	0.460000	0.937900
O361	O36	0.223000	0.384000	0.887700
C191	C19	0.670000	0.385700	0.651700
H431	H43	0.729700	0.415500	0.671200
H441	H44	0.759300	0.379200	0.619500
C201	C20	0.928000	0.338400	0.720900
H451	H45	0.956000	0.305900	0.738800
H461	H46	0.032900	0.342700	0.691500
C211	C21	0.964000	0.379800	0.765400
H471	H47	0.945900	0.412400	0.746900
H481	H48	0.114000	0.377800	0.782600
C221	C22	0.572000	0.375700	0.785200
H491	H49	0.470000	0.370100	0.814900
H501	H50	0.538600	0.408500	0.768300
C231	C23	0.537000	0.335100	0.739500
H511	H51	0.386400	0.337200	0.722700
H521	H52	0.555700	0.302200	0.757300
C241	C24	0.774000	0.420800	0.062500
H531	H53	0.642000	0.424100	0.083900
H541	H54	0.901900	0.420500	0.089700
C251	C25	0.886000	0.511000	0.053900
H551	H55	0.032700	0.502800	0.070900
H561	H56	0.793400	0.520300	0.084400
C261	C26	0.904000	0.555700	0.012500
H571	H57	0.967900	0.584600	0.032900
H581	H58	0.000600	0.546800	0.982500
C271	C27	0.579000	0.522100	0.955000
H591	H59	0.431000	0.529900	0.938800
H601	H60	0.669800	0.513100	0.923900
C281	C28	0.567000	0.478200	0.995400
H611	H61	0.467500	0.486400	0.024900
H621	H62	0.507200	0.449100	0.974600
C291	C29	0.271000	0.332000	0.130800
H631	H63	0.398800	0.349700	0.117800
H641	H64	0.140100	0.347200	0.111500
C301	C30	0.063000	0.321500	0.214600
H651	H65	0.057500	0.285500	0.207200
H661	H66	0.936000	0.336700	0.193700
C311	C31	0.043000	0.331000	0.282600
H671	H67	0.046700	0.366700	0.291600
H681	H68	0.908400	0.316400	0.295700
C321	C32	0.441000	0.329700	0.292900
H691	H69	0.567500	0.312100	0.311200
H701	H70	0.445100	0.364500	0.305500
C331	C33	0.447000	0.326800	0.227600
H711	H71	0.570900	0.347000	0.216800
H721	H72	0.479000	0.292100	0.217900
C341	C34	0.689000	0.611500	0.943800
H731	H73	0.552400	0.612700	0.919800
H741	H74	0.810600	0.605600	0.919500
C351	C35	0.218000	0.300600	0.370400
H751	H75	0.342300	0.317800	0.390200
H761	H76	0.083000	0.316900	0.381000
C361	C36	0.811000	0.418400	0.854100
H771	H77	0.719500	0.409600	0.885200
H781	H78	0.748400	0.448400	0.835800
N71	N7	0.694000	0.339900	0.693800
H791	H79	0.676600	0.311600	0.671900
N81	N8	0.804000	0.375500	0.810900
H801	H80	0.828900	0.345900	0.829900
N91	N9	0.789000	0.465100	0.022800
H811	H81	0.879500	0.456500	0.994900
N101	N10	0.678000	0.568900	0.986600
H821	H82	0.589600	0.578100	0.014800
N111	N11	0.262000	0.341600	0.193400
H831	H83	0.252300	0.375600	0.197300
N121	N12	0.236000	0.305900	0.307300
H841	H84	0.235300	0.274200	0.292400
La51	La5	0.754000	0.194590	0.444780
La61	La6	0.746800	0.224970	0.054840
P131	P13	0.885500	0.101100	0.124400
P141	P14	0.260800	0.139700	0.522300
P151	P15	0.785000	0.233020	0.607000
P161	P16	0.231500	0.827600	0.481900
P171	P17	0.715700	0.263740	0.893200
P181	P18	0.604200	0.067500	0.384300
O371	O37	0.760000	0.148900	0.118100
O381	O38	0.918000	0.066100	0.074800
O391	O39	0.774000	0.072100	0.173900
O401	O40	0.036000	0.136700	0.484300
O411	O41	0.271000	0.181200	0.567600
O421	O42	0.473000	0.138000	0.487900
O431	O43	0.576000	0.259400	0.625800
O441	O44	0.994000	0.257200	0.632800
O451	O45	0.783000	0.225700	0.543900
O461	O46	0.459000	0.830600	0.516800
O471	O47	0.037000	0.828300	0.519100
O481	O48	0.220000	0.788600	0.436000
O491	O49	0.919000	0.291200	0.873000
O501	O50	0.496000	0.288500	0.868600
O511	O51	0.712000	0.262600	0.960100
O521	O52	0.700000	0.032600	0.341400
O531	O53	0.577000	0.040000	0.437900
O541	O54	0.723000	0.116000	0.387700
C371	C37	0.170000	0.114300	0.151700
H851	H85	0.229700	0.084500	0.171200
H861	H86	0.259300	0.120800	0.119500
C381	C38	0.428000	0.161600	0.220900
H871	H87	0.456000	0.194100	0.238800
H881	H88	0.532900	0.157300	0.191500
C391	C39	0.464000	0.120200	0.265400
H891	H89	0.445900	0.087600	0.246900
H901	H90	0.614000	0.122200	0.282600
C401	C40	0.072000	0.124300	0.285200
H911	H91	0.970000	0.129900	0.314900
H921	H92	0.038600	0.091500	0.268300
C411	C41	0.037000	0.164900	0.239500
H931	H93	0.886400	0.162800	0.222700
H941	H94	0.055700	0.197800	0.257300
C421	C42	0.274000	0.079200	0.562500
H951	H95	0.142000	0.075900	0.583900
H961	H96	0.401900	0.079500	0.589700
C431	C43	0.386000	0.989000	0.553900
H971	H97	0.532700	0.997200	0.570900
H981	H98	0.293400	0.979700	0.584400
C441	C44	0.404000	0.944300	0.512500
H991	H99	0.467900	0.915400	0.532900
H1001	H100	0.500600	0.953200	0.482500
C451	C45	0.079000	0.977900	0.455000
H1011	H101	0.931000	0.970100	0.438800
H1021	H102	0.169800	0.986900	0.423900
C461	C46	0.067000	0.021800	0.495400
H1031	H103	0.967500	0.013600	0.524900
H1041	H104	0.007200	0.050900	0.474600
C471	C47	0.771000	0.168000	0.630800
H1051	H105	0.898800	0.150300	0.617800
H1061	H106	0.640100	0.152800	0.611500
C481	C48	0.563000	0.178500	0.714600
H1071	H107	0.557500	0.214500	0.707200
H1081	H108	0.436000	0.163300	0.693700
C491	C49	0.543000	0.169000	0.782600
H1091	H109	0.546700	0.133300	0.791600
H1101	H110	0.408400	0.183600	0.795700
C501	C50	0.941000	0.170300	0.792900
H1111	H111	0.067500	0.187900	0.811200
H1121	H112	0.945100	0.135500	0.805500
C511	C51	0.947000	0.173200	0.727600
H1131	H113	0.070900	0.153000	0.716800
H1141	H114	0.979000	0.207900	0.717900
C521	C52	0.189000	0.888500	0.443800
H1151	H115	0.052400	0.887300	0.419800
H1161	H116	0.310600	0.894400	0.419500
C531	C53	0.718000	0.199400	0.870400
H1171	H117	0.842300	0.182200	0.890200
H1181	H118	0.583000	0.183100	0.881000
C541	C54	0.311000	0.081600	0.354100
H1191	H119	0.219500	0.090400	0.385200
H1201	H120	0.248400	0.051600	0.335800
N131	N13	0.194000	0.160100	0.193800
H1211	H121	0.176600	0.188400	0.171900
N141	N14	0.304000	0.124500	0.310900
H1221	H122	0.328900	0.154100	0.329900
N151	N15	0.289000	0.034900	0.522800
H1231	H123	0.379500	0.043500	0.494900
N161	N16	0.178000	0.931100	0.486600
H1241	H124	0.089600	0.921900	0.514800
N171	N17	0.762000	0.158400	0.693400
H1251	H125	0.752300	0.124400	0.697300
N181	N18	0.736000	0.194100	0.807300
H1261	H126	0.735300	0.225800	0.792400
La71	La7	0.254000	0.694590	0.444780
La81	La8	0.246800	0.724970	0.054840
P191	P19	0.385500	0.601100	0.124400
P201	P20	0.760800	0.639700	0.522300
P211	P21	0.285000	0.733020	0.607000
P221	P22	0.731500	0.327600	0.481900
P231	P23	0.215700	0.763740	0.893200
P241	P24	0.104200	0.567500	0.384300
O551	O55	0.260000	0.648900	0.118100
O561	O56	0.418000	0.566100	0.074800
O571	O57	0.274000	0.572100	0.173900
O581	O58	0.536000	0.636700	0.484300
O591	O59	0.771000	0.681200	0.567600
O601	O60	0.973000	0.638000	0.487900
O611	O61	0.076000	0.759400	0.625800
O621	O62	0.494000	0.757200	0.632800
O631	O63	0.283000	0.725700	0.543900
O641	O64	0.959000	0.330600	0.516800
O651	O65	0.537000	0.328300	0.519100
O661	O66	0.720000	0.288600	0.436000
O671	O67	0.419000	0.791200	0.873000
O681	O68	0.996000	0.788500	0.868600
O691	O69	0.212000	0.762600	0.960100
O701	O70	0.200000	0.532600	0.341400
O711	O71	0.077000	0.540000	0.437900
O721	O72	0.223000	0.616000	0.387700
C551	C55	0.670000	0.614300	0.151700
H1271	H127	0.729700	0.584500	0.171200
H1281	H128	0.759300	0.620800	0.119500
C561	C56	0.928000	0.661600	0.220900
H1291	H129	0.956000	0.694100	0.238800
H1301	H130	0.032900	0.657300	0.191500
C571	C57	0.964000	0.620200	0.265400
H1311	H131	0.945900	0.587600	0.246900
H1321	H132	0.114000	0.622200	0.282600
C581	C58	0.572000	0.624300	0.285200
H1331	H133	0.470000	0.629900	0.314900
H1341	H134	0.538600	0.591500	0.268300
C591	C59	0.537000	0.664900	0.239500
H1351	H135	0.386400	0.662800	0.222700
H1361	H136	0.555700	0.697800	0.257300
C601	C60	0.774000	0.579200	0.562500
H1371	H137	0.642000	0.575900	0.583900
H1381	H138	0.901900	0.579500	0.589700
C611	C61	0.886000	0.489000	0.553900
H1391	H139	0.032700	0.497200	0.570900
H1401	H140	0.793400	0.479700	0.584400
C621	C62	0.904000	0.444300	0.512500
H1411	H141	0.967900	0.415400	0.532900
H1421	H142	0.000600	0.453200	0.482500
C631	C63	0.579000	0.477900	0.455000
H1431	H143	0.431000	0.470100	0.438800
H1441	H144	0.669800	0.486900	0.423900
C641	C64	0.567000	0.521800	0.495400
H1451	H145	0.467500	0.513600	0.524900
H1461	H146	0.507200	0.550900	0.474600
C651	C65	0.271000	0.668000	0.630800
H1471	H147	0.398800	0.650300	0.617800
H1481	H148	0.140100	0.652800	0.611500
C661	C66	0.063000	0.678500	0.714600
H1491	H149	0.057500	0.714500	0.707200
H1501	H150	0.936000	0.663300	0.693700
C671	C67	0.043000	0.669000	0.782600
H1511	H151	0.046700	0.633300	0.791600
H1521	H152	0.908400	0.683600	0.795700
C681	C68	0.441000	0.670300	0.792900
H1531	H153	0.567500	0.687900	0.811200
H1541	H154	0.445100	0.635500	0.805500
C691	C69	0.447000	0.673200	0.727600
H1551	H155	0.570900	0.653000	0.716800
H1561	H156	0.479000	0.707900	0.717900
C701	C70	0.689000	0.388500	0.443800
H1571	H157	0.552400	0.387300	0.419800
H1581	H158	0.810600	0.394400	0.419500
C711	C71	0.218000	0.699400	0.870400
H1591	H159	0.342300	0.682200	0.890200
H1601	H160	0.083000	0.683100	0.881000
C721	C72	0.811000	0.581600	0.354100
H1611	H161	0.719500	0.590400	0.385200
H1621	H162	0.748400	0.551600	0.335800
N191	N19	0.694000	0.660100	0.193800
H1631	H163	0.676600	0.688400	0.171900
N201	N20	0.804000	0.624500	0.310900
H1641	H164	0.828900	0.654100	0.329900
N211	N21	0.789000	0.534900	0.522800
H1651	H165	0.879500	0.543500	0.494900
N221	N22	0.678000	0.431100	0.486600
H1661	H166	0.589600	0.421900	0.514800
N231	N23	0.262000	0.658400	0.693400
H1671	H167	0.252300	0.624400	0.697300
N241	N24	0.236000	0.694100	0.807300
H1681	H168	0.235300	0.725800	0.792400
