data_RANWAH_freeONLY_PM
_symmetry_space_group_name_H-M	'P1'
_cell_length_a	39.200600
_cell_length_b	39.200600
_cell_length_c	39.200600
_cell_angle_alpha	90.000000
_cell_angle_beta	90.000000
_cell_angle_gamma	90.000000
_symmetry_Int_Tables_number 1

loop_
_symmetry_equiv_pos_as_xyz
'x,y,z'

loop_
_atom_site_label
_atom_site_type_symbol
_atom_site_fract_x
_atom_site_fract_y
_atom_site_fract_z
S11	S1	0.629900	0.600910	0.709360
O11	O1	0.655960	0.540920	0.745890
O21	O2	0.705200	0.535150	0.718300
C11	C1	0.676520	0.548920	0.722540
C21	C2	0.666520	0.577560	0.699920
C31	C3	0.685450	0.588770	0.670430
H11	H1	0.705900	0.579100	0.661800
C41	C4	0.666700	0.618140	0.656460
C51	C5	0.637700	0.627440	0.675470
S21	S2	0.629900	0.100910	0.209360
O31	O3	0.655960	0.040920	0.245890
O41	O4	0.705200	0.035150	0.218300
C61	C6	0.676520	0.048920	0.222540
C71	C7	0.666520	0.077560	0.199920
C81	C8	0.685450	0.088770	0.170430
H21	H2	0.705900	0.079100	0.161800
C91	C9	0.666700	0.118140	0.156460
C101	C10	0.637700	0.127440	0.175470
S31	S3	0.129900	0.600910	0.209360
O51	O5	0.155960	0.540920	0.245890
O61	O6	0.205200	0.535150	0.218300
C111	C11	0.176520	0.548920	0.222540
C121	C12	0.166520	0.577560	0.199920
C131	C13	0.185450	0.588770	0.170430
H31	H3	0.205900	0.579100	0.161800
C141	C14	0.166700	0.618140	0.156460
C151	C15	0.137700	0.627440	0.175470
S41	S4	0.129900	0.100910	0.709360
O71	O7	0.155960	0.040920	0.745890
O81	O8	0.205200	0.035150	0.718300
C161	C16	0.176520	0.048920	0.722540
C171	C17	0.166520	0.077560	0.699920
C181	C18	0.185450	0.088770	0.670430
H41	H4	0.205900	0.079100	0.661800
C191	C19	0.166700	0.118140	0.656460
C201	C20	0.137700	0.127440	0.675470
S51	S5	0.370100	0.399090	0.709360
O91	O9	0.344040	0.459080	0.745890
O101	O10	0.294800	0.464850	0.718300
C211	C21	0.323480	0.451080	0.722540
C221	C22	0.333480	0.422440	0.699920
C231	C23	0.314550	0.411230	0.670430
H51	H5	0.294100	0.420900	0.661800
C241	C24	0.333300	0.381860	0.656460
C251	C25	0.362300	0.372560	0.675470
S61	S6	0.370100	0.899090	0.209360
O111	O11	0.344040	0.959080	0.245890
O121	O12	0.294800	0.964850	0.218300
C261	C26	0.323480	0.951080	0.222540
C271	C27	0.333480	0.922440	0.199920
C281	C28	0.314550	0.911230	0.170430
H61	H6	0.294100	0.920900	0.161800
C291	C29	0.333300	0.881860	0.156460
C301	C30	0.362300	0.872560	0.175470
S71	S7	0.870100	0.399090	0.209360
O131	O13	0.844040	0.459080	0.245890
O141	O14	0.794800	0.464850	0.218300
C311	C31	0.823480	0.451080	0.222540
C321	C32	0.833480	0.422440	0.199920
C331	C33	0.814550	0.411230	0.170430
H71	H7	0.794100	0.420900	0.161800
C341	C34	0.833300	0.381860	0.156460
C351	C35	0.862300	0.372560	0.175470
S81	S8	0.870100	0.899090	0.709360
O151	O15	0.844040	0.959080	0.745890
O161	O16	0.794800	0.964850	0.718300
C361	C36	0.823480	0.951080	0.722540
C371	C37	0.833480	0.922440	0.699920
C381	C38	0.814550	0.911230	0.670430
H81	H8	0.794100	0.920900	0.661800
C391	C39	0.833300	0.881860	0.656460
C401	C40	0.862300	0.872560	0.675470
S91	S9	0.370100	0.600910	0.290640
O171	O17	0.344040	0.540920	0.254110
O181	O18	0.294800	0.535150	0.281700
C411	C41	0.323480	0.548920	0.277460
C421	C42	0.333480	0.577560	0.300080
C431	C43	0.314550	0.588770	0.329570
H91	H9	0.294100	0.579100	0.338200
C441	C44	0.333300	0.618140	0.343540
C451	C45	0.362300	0.627440	0.324530
S101	S10	0.370100	0.100910	0.790640
O191	O19	0.344040	0.040920	0.754110
O201	O20	0.294800	0.035150	0.781700
C461	C46	0.323480	0.048920	0.777460
C471	C47	0.333480	0.077560	0.800080
C481	C48	0.314550	0.088770	0.829570
H101	H10	0.294100	0.079100	0.838200
C491	C49	0.333300	0.118140	0.843540
C501	C50	0.362300	0.127440	0.824530
S111	S11	0.870100	0.600910	0.790640
O211	O21	0.844040	0.540920	0.754110
O221	O22	0.794800	0.535150	0.781700
C511	C51	0.823480	0.548920	0.777460
C521	C52	0.833480	0.577560	0.800080
C531	C53	0.814550	0.588770	0.829570
H111	H11	0.794100	0.579100	0.838200
C541	C54	0.833300	0.618140	0.843540
C551	C55	0.862300	0.627440	0.824530
S121	S12	0.870100	0.100910	0.290640
O231	O23	0.844040	0.040920	0.254110
O241	O24	0.794800	0.035150	0.281700
C561	C56	0.823480	0.048920	0.277460
C571	C57	0.833480	0.077560	0.300080
C581	C58	0.814550	0.088770	0.329570
H121	H12	0.794100	0.079100	0.338200
C591	C59	0.833300	0.118140	0.343540
C601	C60	0.862300	0.127440	0.324530
S131	S13	0.629900	0.399090	0.290640
O251	O25	0.655960	0.459080	0.254110
O261	O26	0.705200	0.464850	0.281700
C611	C61	0.676520	0.451080	0.277460
C621	C62	0.666520	0.422440	0.300080
C631	C63	0.685450	0.411230	0.329570
H131	H13	0.705900	0.420900	0.338200
C641	C64	0.666700	0.381860	0.343540
C651	C65	0.637700	0.372560	0.324530
S141	S14	0.629900	0.899090	0.790640
O271	O27	0.655960	0.959080	0.754110
O281	O28	0.705200	0.964850	0.781700
C661	C66	0.676520	0.951080	0.777460
C671	C67	0.666520	0.922440	0.800080
C681	C68	0.685450	0.911230	0.829570
H141	H14	0.705900	0.920900	0.838200
C691	C69	0.666700	0.881860	0.843540
C701	C70	0.637700	0.872560	0.824530
S151	S15	0.129900	0.399090	0.790640
O291	O29	0.155960	0.459080	0.754110
O301	O30	0.205200	0.464850	0.781700
C711	C71	0.176520	0.451080	0.777460
C721	C72	0.166520	0.422440	0.800080
C731	C73	0.185450	0.411230	0.829570
H151	H15	0.205900	0.420900	0.838200
C741	C74	0.166700	0.381860	0.843540
C751	C75	0.137700	0.372560	0.824530
S161	S16	0.129900	0.899090	0.290640
O311	O31	0.155960	0.959080	0.254110
O321	O32	0.205200	0.964850	0.281700
C761	C76	0.176520	0.951080	0.277460
C771	C77	0.166520	0.922440	0.300080
C781	C78	0.185450	0.911230	0.329570
H161	H16	0.205900	0.920900	0.338200
C791	C79	0.166700	0.881860	0.343540
C801	C80	0.137700	0.872560	0.324530
S171	S17	0.709360	0.629900	0.600910
O331	O33	0.745890	0.655960	0.540920
O341	O34	0.718300	0.705200	0.535150
C811	C81	0.722540	0.676520	0.548920
C821	C82	0.699920	0.666520	0.577560
C831	C83	0.670430	0.685450	0.588770
H171	H17	0.661800	0.705900	0.579100
C841	C84	0.656460	0.666700	0.618140
C851	C85	0.675470	0.637700	0.627440
S181	S18	0.709360	0.129900	0.100910
O351	O35	0.745890	0.155960	0.040920
O361	O36	0.718300	0.205200	0.035150
C861	C86	0.722540	0.176520	0.048920
C871	C87	0.699920	0.166520	0.077560
C881	C88	0.670430	0.185450	0.088770
H181	H18	0.661800	0.205900	0.079100
C891	C89	0.656460	0.166700	0.118140
C901	C90	0.675470	0.137700	0.127440
S191	S19	0.209360	0.629900	0.100910
O371	O37	0.245890	0.655960	0.040920
O381	O38	0.218300	0.705200	0.035150
C911	C91	0.222540	0.676520	0.048920
C921	C92	0.199920	0.666520	0.077560
C931	C93	0.170430	0.685450	0.088770
H191	H19	0.161800	0.705900	0.079100
C941	C94	0.156460	0.666700	0.118140
C951	C95	0.175470	0.637700	0.127440
S201	S20	0.209360	0.129900	0.600910
O391	O39	0.245890	0.155960	0.540920
O401	O40	0.218300	0.205200	0.535150
C961	C96	0.222540	0.176520	0.548920
C971	C97	0.199920	0.166520	0.577560
C981	C98	0.170430	0.185450	0.588770
H201	H20	0.161800	0.205900	0.579100
C991	C99	0.156460	0.166700	0.618140
C1001	C100	0.175470	0.137700	0.627440
S211	S21	0.709360	0.370100	0.399090
O411	O41	0.745890	0.344040	0.459080
O421	O42	0.718300	0.294800	0.464850
C1011	C101	0.722540	0.323480	0.451080
C1021	C102	0.699920	0.333480	0.422440
C1031	C103	0.670430	0.314550	0.411230
H211	H21	0.661800	0.294100	0.420900
C1041	C104	0.656460	0.333300	0.381860
C1051	C105	0.675470	0.362300	0.372560
S221	S22	0.709360	0.870100	0.899090
O431	O43	0.745890	0.844040	0.959080
O441	O44	0.718300	0.794800	0.964850
C1061	C106	0.722540	0.823480	0.951080
C1071	C107	0.699920	0.833480	0.922440
C1081	C108	0.670430	0.814550	0.911230
H221	H22	0.661800	0.794100	0.920900
C1091	C109	0.656460	0.833300	0.881860
C1101	C110	0.675470	0.862300	0.872560
S231	S23	0.209360	0.370100	0.899090
O451	O45	0.245890	0.344040	0.959080
O461	O46	0.218300	0.294800	0.964850
C1111	C111	0.222540	0.323480	0.951080
C1121	C112	0.199920	0.333480	0.922440
C1131	C113	0.170430	0.314550	0.911230
H231	H23	0.161800	0.294100	0.920900
C1141	C114	0.156460	0.333300	0.881860
C1151	C115	0.175470	0.362300	0.872560
S241	S24	0.209360	0.870100	0.399090
O471	O47	0.245890	0.844040	0.459080
O481	O48	0.218300	0.794800	0.464850
C1161	C116	0.222540	0.823480	0.451080
C1171	C117	0.199920	0.833480	0.422440
C1181	C118	0.170430	0.814550	0.411230
H241	H24	0.161800	0.794100	0.420900
C1191	C119	0.156460	0.833300	0.381860
C1201	C120	0.175470	0.862300	0.372560
S251	S25	0.290640	0.370100	0.600910
O491	O49	0.254110	0.344040	0.540920
O501	O50	0.281700	0.294800	0.535150
C1211	C121	0.277460	0.323480	0.548920
C1221	C122	0.300080	0.333480	0.577560
C1231	C123	0.329570	0.314550	0.588770
H251	H25	0.338200	0.294100	0.579100
C1241	C124	0.343540	0.333300	0.618140
C1251	C125	0.324530	0.362300	0.627440
S261	S26	0.290640	0.870100	0.100910
O511	O51	0.254110	0.844040	0.040920
O521	O52	0.281700	0.794800	0.035150
C1261	C126	0.277460	0.823480	0.048920
C1271	C127	0.300080	0.833480	0.077560
C1281	C128	0.329570	0.814550	0.088770
H261	H26	0.338200	0.794100	0.079100
C1291	C129	0.343540	0.833300	0.118140
C1301	C130	0.324530	0.862300	0.127440
S271	S27	0.790640	0.370100	0.100910
O531	O53	0.754110	0.344040	0.040920
O541	O54	0.781700	0.294800	0.035150
C1311	C131	0.777460	0.323480	0.048920
C1321	C132	0.800080	0.333480	0.077560
C1331	C133	0.829570	0.314550	0.088770
H271	H27	0.838200	0.294100	0.079100
C1341	C134	0.843540	0.333300	0.118140
C1351	C135	0.824530	0.362300	0.127440
S281	S28	0.790640	0.870100	0.600910
O551	O55	0.754110	0.844040	0.540920
O561	O56	0.781700	0.794800	0.535150
C1361	C136	0.777460	0.823480	0.548920
C1371	C137	0.800080	0.833480	0.577560
C1381	C138	0.829570	0.814550	0.588770
H281	H28	0.838200	0.794100	0.579100
C1391	C139	0.843540	0.833300	0.618140
C1401	C140	0.824530	0.862300	0.627440
S291	S29	0.290640	0.629900	0.399090
O571	O57	0.254110	0.655960	0.459080
O581	O58	0.281700	0.705200	0.464850
C1411	C141	0.277460	0.676520	0.451080
C1421	C142	0.300080	0.666520	0.422440
C1431	C143	0.329570	0.685450	0.411230
H291	H29	0.338200	0.705900	0.420900
C1441	C144	0.343540	0.666700	0.381860
C1451	C145	0.324530	0.637700	0.372560
S301	S30	0.290640	0.129900	0.899090
O591	O59	0.254110	0.155960	0.959080
O601	O60	0.281700	0.205200	0.964850
C1461	C146	0.277460	0.176520	0.951080
C1471	C147	0.300080	0.166520	0.922440
C1481	C148	0.329570	0.185450	0.911230
H301	H30	0.338200	0.205900	0.920900
C1491	C149	0.343540	0.166700	0.881860
C1501	C150	0.324530	0.137700	0.872560
S311	S31	0.790640	0.629900	0.899090
O611	O61	0.754110	0.655960	0.959080
O621	O62	0.781700	0.705200	0.964850
C1511	C151	0.777460	0.676520	0.951080
C1521	C152	0.800080	0.666520	0.922440
C1531	C153	0.829570	0.685450	0.911230
H311	H31	0.838200	0.705900	0.920900
C1541	C154	0.843540	0.666700	0.881860
C1551	C155	0.824530	0.637700	0.872560
S321	S32	0.790640	0.129900	0.399090
O631	O63	0.754110	0.155960	0.459080
O641	O64	0.781700	0.205200	0.464850
C1561	C156	0.777460	0.176520	0.451080
C1571	C157	0.800080	0.166520	0.422440
C1581	C158	0.829570	0.185450	0.411230
H321	H32	0.838200	0.205900	0.420900
C1591	C159	0.843540	0.166700	0.381860
C1601	C160	0.824530	0.137700	0.372560
S331	S33	0.600910	0.709360	0.629900
O651	O65	0.540920	0.745890	0.655960
O661	O66	0.535150	0.718300	0.705200
C1611	C161	0.548920	0.722540	0.676520
C1621	C162	0.577560	0.699920	0.666520
C1631	C163	0.588770	0.670430	0.685450
H331	H33	0.579100	0.661800	0.705900
C1641	C164	0.618140	0.656460	0.666700
C1651	C165	0.627440	0.675470	0.637700
S341	S34	0.600910	0.209360	0.129900
O671	O67	0.540920	0.245890	0.155960
O681	O68	0.535150	0.218300	0.205200
C1661	C166	0.548920	0.222540	0.176520
C1671	C167	0.577560	0.199920	0.166520
C1681	C168	0.588770	0.170430	0.185450
H341	H34	0.579100	0.161800	0.205900
C1691	C169	0.618140	0.156460	0.166700
C1701	C170	0.627440	0.175470	0.137700
S351	S35	0.100910	0.709360	0.129900
O691	O69	0.040920	0.745890	0.155960
O701	O70	0.035150	0.718300	0.205200
C1711	C171	0.048920	0.722540	0.176520
C1721	C172	0.077560	0.699920	0.166520
C1731	C173	0.088770	0.670430	0.185450
H351	H35	0.079100	0.661800	0.205900
C1741	C174	0.118140	0.656460	0.166700
C1751	C175	0.127440	0.675470	0.137700
S361	S36	0.100910	0.209360	0.629900
O711	O71	0.040920	0.245890	0.655960
O721	O72	0.035150	0.218300	0.705200
C1761	C176	0.048920	0.222540	0.676520
C1771	C177	0.077560	0.199920	0.666520
C1781	C178	0.088770	0.170430	0.685450
H361	H36	0.079100	0.161800	0.705900
C1791	C179	0.118140	0.156460	0.666700
C1801	C180	0.127440	0.175470	0.637700
S371	S37	0.399090	0.709360	0.370100
O731	O73	0.459080	0.745890	0.344040
O741	O74	0.464850	0.718300	0.294800
C1811	C181	0.451080	0.722540	0.323480
C1821	C182	0.422440	0.699920	0.333480
C1831	C183	0.411230	0.670430	0.314550
H371	H37	0.420900	0.661800	0.294100
C1841	C184	0.381860	0.656460	0.333300
C1851	C185	0.372560	0.675470	0.362300
S381	S38	0.399090	0.209360	0.870100
O751	O75	0.459080	0.245890	0.844040
O761	O76	0.464850	0.218300	0.794800
C1861	C186	0.451080	0.222540	0.823480
C1871	C187	0.422440	0.199920	0.833480
C1881	C188	0.411230	0.170430	0.814550
H381	H38	0.420900	0.161800	0.794100
C1891	C189	0.381860	0.156460	0.833300
C1901	C190	0.372560	0.175470	0.862300
S391	S39	0.899090	0.709360	0.870100
O771	O77	0.959080	0.745890	0.844040
O781	O78	0.964850	0.718300	0.794800
C1911	C191	0.951080	0.722540	0.823480
C1921	C192	0.922440	0.699920	0.833480
C1931	C193	0.911230	0.670430	0.814550
H391	H39	0.920900	0.661800	0.794100
C1941	C194	0.881860	0.656460	0.833300
C1951	C195	0.872560	0.675470	0.862300
S401	S40	0.899090	0.209360	0.370100
O791	O79	0.959080	0.245890	0.344040
O801	O80	0.964850	0.218300	0.294800
C1961	C196	0.951080	0.222540	0.323480
C1971	C197	0.922440	0.199920	0.333480
C1981	C198	0.911230	0.170430	0.314550
H401	H40	0.920900	0.161800	0.294100
C1991	C199	0.881860	0.156460	0.333300
C2001	C200	0.872560	0.175470	0.362300
S411	S41	0.600910	0.290640	0.370100
O811	O81	0.540920	0.254110	0.344040
O821	O82	0.535150	0.281700	0.294800
C2011	C201	0.548920	0.277460	0.323480
C2021	C202	0.577560	0.300080	0.333480
C2031	C203	0.588770	0.329570	0.314550
H411	H41	0.579100	0.338200	0.294100
C2041	C204	0.618140	0.343540	0.333300
C2051	C205	0.627440	0.324530	0.362300
S421	S42	0.600910	0.790640	0.870100
O831	O83	0.540920	0.754110	0.844040
O841	O84	0.535150	0.781700	0.794800
C2061	C206	0.548920	0.777460	0.823480
C2071	C207	0.577560	0.800080	0.833480
C2081	C208	0.588770	0.829570	0.814550
H421	H42	0.579100	0.838200	0.794100
C2091	C209	0.618140	0.843540	0.833300
C2101	C210	0.627440	0.824530	0.862300
S431	S43	0.100910	0.290640	0.870100
O851	O85	0.040920	0.254110	0.844040
O861	O86	0.035150	0.281700	0.794800
C2111	C211	0.048920	0.277460	0.823480
C2121	C212	0.077560	0.300080	0.833480
C2131	C213	0.088770	0.329570	0.814550
H431	H43	0.079100	0.338200	0.794100
C2141	C214	0.118140	0.343540	0.833300
C2151	C215	0.127440	0.324530	0.862300
S441	S44	0.100910	0.790640	0.370100
O871	O87	0.040920	0.754110	0.344040
O881	O88	0.035150	0.781700	0.294800
C2161	C216	0.048920	0.777460	0.323480
C2171	C217	0.077560	0.800080	0.333480
C2181	C218	0.088770	0.829570	0.314550
H441	H44	0.079100	0.838200	0.294100
C2191	C219	0.118140	0.843540	0.333300
C2201	C220	0.127440	0.824530	0.362300
S451	S45	0.399090	0.290640	0.629900
O891	O89	0.459080	0.254110	0.655960
O901	O90	0.464850	0.281700	0.705200
C2211	C221	0.451080	0.277460	0.676520
C2221	C222	0.422440	0.300080	0.666520
C2231	C223	0.411230	0.329570	0.685450
H451	H45	0.420900	0.338200	0.705900
C2241	C224	0.381860	0.343540	0.666700
C2251	C225	0.372560	0.324530	0.637700
S461	S46	0.399090	0.790640	0.129900
O911	O91	0.459080	0.754110	0.155960
O921	O92	0.464850	0.781700	0.205200
C2261	C226	0.451080	0.777460	0.176520
C2271	C227	0.422440	0.800080	0.166520
C2281	C228	0.411230	0.829570	0.185450
H461	H46	0.420900	0.838200	0.205900
C2291	C229	0.381860	0.843540	0.166700
C2301	C230	0.372560	0.824530	0.137700
S471	S47	0.899090	0.290640	0.129900
O931	O93	0.959080	0.254110	0.155960
O941	O94	0.964850	0.281700	0.205200
C2311	C231	0.951080	0.277460	0.176520
C2321	C232	0.922440	0.300080	0.166520
C2331	C233	0.911230	0.329570	0.185450
H471	H47	0.920900	0.338200	0.205900
C2341	C234	0.881860	0.343540	0.166700
C2351	C235	0.872560	0.324530	0.137700
S481	S48	0.899090	0.790640	0.629900
O951	O95	0.959080	0.754110	0.655960
O961	O96	0.964850	0.781700	0.705200
C2361	C236	0.951080	0.777460	0.676520
C2371	C237	0.922440	0.800080	0.666520
C2381	C238	0.911230	0.829570	0.685450
H481	H48	0.920900	0.838200	0.705900
C2391	C239	0.881860	0.843540	0.666700
C2401	C240	0.872560	0.824530	0.637700
S491	S49	0.100910	0.129900	0.790640
O971	O97	0.040920	0.155960	0.754110
O981	O98	0.035150	0.205200	0.781700
C2411	C241	0.048920	0.176520	0.777460
C2421	C242	0.077560	0.166520	0.800080
C2431	C243	0.088770	0.185450	0.829570
H491	H49	0.079100	0.205900	0.838200
C2441	C244	0.118140	0.166700	0.843540
C2451	C245	0.127440	0.137700	0.824530
S501	S50	0.100910	0.629900	0.290640
O991	O99	0.040920	0.655960	0.254110
O1001	O100	0.035150	0.705200	0.281700
C2461	C246	0.048920	0.676520	0.277460
C2471	C247	0.077560	0.666520	0.300080
C2481	C248	0.088770	0.685450	0.329570
H501	H50	0.079100	0.705900	0.338200
C2491	C249	0.118140	0.666700	0.343540
C2501	C250	0.127440	0.637700	0.324530
S511	S51	0.600910	0.129900	0.290640
O1011	O101	0.540920	0.155960	0.254110
O1021	O102	0.535150	0.205200	0.281700
C2511	C251	0.548920	0.176520	0.277460
C2521	C252	0.577560	0.166520	0.300080
C2531	C253	0.588770	0.185450	0.329570
H511	H51	0.579100	0.205900	0.338200
C2541	C254	0.618140	0.166700	0.343540
C2551	C255	0.627440	0.137700	0.324530
S521	S52	0.600910	0.629900	0.790640
O1031	O103	0.540920	0.655960	0.754110
O1041	O104	0.535150	0.705200	0.781700
C2561	C256	0.548920	0.676520	0.777460
C2571	C257	0.577560	0.666520	0.800080
C2581	C258	0.588770	0.685450	0.829570
H521	H52	0.579100	0.705900	0.838200
C2591	C259	0.618140	0.666700	0.843540
C2601	C260	0.627440	0.637700	0.824530
S531	S53	0.899090	0.870100	0.790640
O1051	O105	0.959080	0.844040	0.754110
O1061	O106	0.964850	0.794800	0.781700
C2611	C261	0.951080	0.823480	0.777460
C2621	C262	0.922440	0.833480	0.800080
C2631	C263	0.911230	0.814550	0.829570
H531	H53	0.920900	0.794100	0.838200
C2641	C264	0.881860	0.833300	0.843540
C2651	C265	0.872560	0.862300	0.824530
S541	S54	0.899090	0.370100	0.290640
O1071	O107	0.959080	0.344040	0.254110
O1081	O108	0.964850	0.294800	0.281700
C2661	C266	0.951080	0.323480	0.277460
C2671	C267	0.922440	0.333480	0.300080
C2681	C268	0.911230	0.314550	0.329570
H541	H54	0.920900	0.294100	0.338200
C2691	C269	0.881860	0.333300	0.343540
C2701	C270	0.872560	0.362300	0.324530
S551	S55	0.399090	0.870100	0.290640
O1091	O109	0.459080	0.844040	0.254110
O1101	O110	0.464850	0.794800	0.281700
C2711	C271	0.451080	0.823480	0.277460
C2721	C272	0.422440	0.833480	0.300080
C2731	C273	0.411230	0.814550	0.329570
H551	H55	0.420900	0.794100	0.338200
C2741	C274	0.381860	0.833300	0.343540
C2751	C275	0.372560	0.862300	0.324530
S561	S56	0.399090	0.370100	0.790640
O1111	O111	0.459080	0.344040	0.754110
O1121	O112	0.464850	0.294800	0.781700
C2761	C276	0.451080	0.323480	0.777460
C2771	C277	0.422440	0.333480	0.800080
C2781	C278	0.411230	0.314550	0.829570
H561	H56	0.420900	0.294100	0.838200
C2791	C279	0.381860	0.333300	0.843540
C2801	C280	0.372560	0.362300	0.824530
S571	S57	0.100910	0.870100	0.209360
O1131	O113	0.040920	0.844040	0.245890
O1141	O114	0.035150	0.794800	0.218300
C2811	C281	0.048920	0.823480	0.222540
C2821	C282	0.077560	0.833480	0.199920
C2831	C283	0.088770	0.814550	0.170430
H571	H57	0.079100	0.794100	0.161800
C2841	C284	0.118140	0.833300	0.156460
C2851	C285	0.127440	0.862300	0.175470
S581	S58	0.100910	0.370100	0.709360
O1151	O115	0.040920	0.344040	0.745890
O1161	O116	0.035150	0.294800	0.718300
C2861	C286	0.048920	0.323480	0.722540
C2871	C287	0.077560	0.333480	0.699920
C2881	C288	0.088770	0.314550	0.670430
H581	H58	0.079100	0.294100	0.661800
C2891	C289	0.118140	0.333300	0.656460
C2901	C290	0.127440	0.362300	0.675470
S591	S59	0.600910	0.870100	0.709360
O1171	O117	0.540920	0.844040	0.745890
O1181	O118	0.535150	0.794800	0.718300
C2911	C291	0.548920	0.823480	0.722540
C2921	C292	0.577560	0.833480	0.699920
C2931	C293	0.588770	0.814550	0.670430
H591	H59	0.579100	0.794100	0.661800
C2941	C294	0.618140	0.833300	0.656460
C2951	C295	0.627440	0.862300	0.675470
S601	S60	0.600910	0.370100	0.209360
O1191	O119	0.540920	0.344040	0.245890
O1201	O120	0.535150	0.294800	0.218300
C2961	C296	0.548920	0.323480	0.222540
C2971	C297	0.577560	0.333480	0.199920
C2981	C298	0.588770	0.314550	0.170430
H601	H60	0.579100	0.294100	0.161800
C2991	C299	0.618140	0.333300	0.156460
C3001	C300	0.627440	0.362300	0.175470
S611	S61	0.899090	0.129900	0.209360
O1211	O121	0.959080	0.155960	0.245890
O1221	O122	0.964850	0.205200	0.218300
C3011	C301	0.951080	0.176520	0.222540
C3021	C302	0.922440	0.166520	0.199920
C3031	C303	0.911230	0.185450	0.170430
H611	H61	0.920900	0.205900	0.161800
C3041	C304	0.881860	0.166700	0.156460
C3051	C305	0.872560	0.137700	0.175470
S621	S62	0.899090	0.629900	0.709360
O1231	O123	0.959080	0.655960	0.745890
O1241	O124	0.964850	0.705200	0.718300
C3061	C306	0.951080	0.676520	0.722540
C3071	C307	0.922440	0.666520	0.699920
C3081	C308	0.911230	0.685450	0.670430
H621	H62	0.920900	0.705900	0.661800
C3091	C309	0.881860	0.666700	0.656460
C3101	C310	0.872560	0.637700	0.675470
S631	S63	0.399090	0.129900	0.709360
O1251	O125	0.459080	0.155960	0.745890
O1261	O126	0.464850	0.205200	0.718300
C3111	C311	0.451080	0.176520	0.722540
C3121	C312	0.422440	0.166520	0.699920
C3131	C313	0.411230	0.185450	0.670430
H631	H63	0.420900	0.205900	0.661800
C3141	C314	0.381860	0.166700	0.656460
C3151	C315	0.372560	0.137700	0.675470
S641	S64	0.399090	0.629900	0.209360
O1271	O127	0.459080	0.655960	0.245890
O1281	O128	0.464850	0.705200	0.218300
C3161	C316	0.451080	0.676520	0.222540
C3171	C317	0.422440	0.666520	0.199920
C3181	C318	0.411230	0.685450	0.170430
H641	H64	0.420900	0.705900	0.161800
C3191	C319	0.381860	0.666700	0.156460
C3201	C320	0.372560	0.637700	0.175470
S651	S65	0.129900	0.209360	0.899090
O1291	O129	0.155960	0.245890	0.959080
O1301	O130	0.205200	0.218300	0.964850
C3211	C321	0.176520	0.222540	0.951080
C3221	C322	0.166520	0.199920	0.922440
C3231	C323	0.185450	0.170430	0.911230
H651	H65	0.205900	0.161800	0.920900
C3241	C324	0.166700	0.156460	0.881860
C3251	C325	0.137700	0.175470	0.872560
S661	S66	0.129900	0.709360	0.399090
O1311	O131	0.155960	0.745890	0.459080
O1321	O132	0.205200	0.718300	0.464850
C3261	C326	0.176520	0.722540	0.451080
C3271	C327	0.166520	0.699920	0.422440
C3281	C328	0.185450	0.670430	0.411230
H661	H66	0.205900	0.661800	0.420900
C3291	C329	0.166700	0.656460	0.381860
C3301	C330	0.137700	0.675470	0.372560
S671	S67	0.629900	0.209360	0.399090
O1331	O133	0.655960	0.245890	0.459080
O1341	O134	0.705200	0.218300	0.464850
C3311	C331	0.676520	0.222540	0.451080
C3321	C332	0.666520	0.199920	0.422440
C3331	C333	0.685450	0.170430	0.411230
H671	H67	0.705900	0.161800	0.420900
C3341	C334	0.666700	0.156460	0.381860
C3351	C335	0.637700	0.175470	0.372560
S681	S68	0.629900	0.709360	0.899090
O1351	O135	0.655960	0.745890	0.959080
O1361	O136	0.705200	0.718300	0.964850
C3361	C336	0.676520	0.722540	0.951080
C3371	C337	0.666520	0.699920	0.922440
C3381	C338	0.685450	0.670430	0.911230
H681	H68	0.705900	0.661800	0.920900
C3391	C339	0.666700	0.656460	0.881860
C3401	C340	0.637700	0.675470	0.872560
S691	S69	0.870100	0.209360	0.100910
O1371	O137	0.844040	0.245890	0.040920
O1381	O138	0.794800	0.218300	0.035150
C3411	C341	0.823480	0.222540	0.048920
C3421	C342	0.833480	0.199920	0.077560
C3431	C343	0.814550	0.170430	0.088770
H691	H69	0.794100	0.161800	0.079100
C3441	C344	0.833300	0.156460	0.118140
C3451	C345	0.862300	0.175470	0.127440
S701	S70	0.870100	0.709360	0.600910
O1391	O139	0.844040	0.745890	0.540920
O1401	O140	0.794800	0.718300	0.535150
C3461	C346	0.823480	0.722540	0.548920
C3471	C347	0.833480	0.699920	0.577560
C3481	C348	0.814550	0.670430	0.588770
H701	H70	0.794100	0.661800	0.579100
C3491	C349	0.833300	0.656460	0.618140
C3501	C350	0.862300	0.675470	0.627440
S711	S71	0.370100	0.209360	0.600910
O1411	O141	0.344040	0.245890	0.540920
O1421	O142	0.294800	0.218300	0.535150
C3511	C351	0.323480	0.222540	0.548920
C3521	C352	0.333480	0.199920	0.577560
C3531	C353	0.314550	0.170430	0.588770
H711	H71	0.294100	0.161800	0.579100
C3541	C354	0.333300	0.156460	0.618140
C3551	C355	0.362300	0.175470	0.627440
S721	S72	0.370100	0.709360	0.100910
O1431	O143	0.344040	0.745890	0.040920
O1441	O144	0.294800	0.718300	0.035150
C3561	C356	0.323480	0.722540	0.048920
C3571	C357	0.333480	0.699920	0.077560
C3581	C358	0.314550	0.670430	0.088770
H721	H72	0.294100	0.661800	0.079100
C3591	C359	0.333300	0.656460	0.118140
C3601	C360	0.362300	0.675470	0.127440
S731	S73	0.870100	0.790640	0.899090
O1451	O145	0.844040	0.754110	0.959080
O1461	O146	0.794800	0.781700	0.964850
C3611	C361	0.823480	0.777460	0.951080
C3621	C362	0.833480	0.800080	0.922440
C3631	C363	0.814550	0.829570	0.911230
H731	H73	0.794100	0.838200	0.920900
C3641	C364	0.833300	0.843540	0.881860
C3651	C365	0.862300	0.824530	0.872560
S741	S74	0.870100	0.290640	0.399090
O1471	O147	0.844040	0.254110	0.459080
O1481	O148	0.794800	0.281700	0.464850
C3661	C366	0.823480	0.277460	0.451080
C3671	C367	0.833480	0.300080	0.422440
C3681	C368	0.814550	0.329570	0.411230
H741	H74	0.794100	0.338200	0.420900
C3691	C369	0.833300	0.343540	0.381860
C3701	C370	0.862300	0.324530	0.372560
S751	S75	0.370100	0.790640	0.399090
O1491	O149	0.344040	0.754110	0.459080
O1501	O150	0.294800	0.781700	0.464850
C3711	C371	0.323480	0.777460	0.451080
C3721	C372	0.333480	0.800080	0.422440
C3731	C373	0.314550	0.829570	0.411230
H751	H75	0.294100	0.838200	0.420900
C3741	C374	0.333300	0.843540	0.381860
C3751	C375	0.362300	0.824530	0.372560
S761	S76	0.370100	0.290640	0.899090
O1511	O151	0.344040	0.254110	0.959080
O1521	O152	0.294800	0.281700	0.964850
C3761	C376	0.323480	0.277460	0.951080
C3771	C377	0.333480	0.300080	0.922440
C3781	C378	0.314550	0.329570	0.911230
H761	H76	0.294100	0.338200	0.920900
C3791	C379	0.333300	0.343540	0.881860
C3801	C380	0.362300	0.324530	0.872560
S771	S77	0.129900	0.790640	0.100910
O1531	O153	0.155960	0.754110	0.040920
O1541	O154	0.205200	0.781700	0.035150
C3811	C381	0.176520	0.777460	0.048920
C3821	C382	0.166520	0.800080	0.077560
C3831	C383	0.185450	0.829570	0.088770
H771	H77	0.205900	0.838200	0.079100
C3841	C384	0.166700	0.843540	0.118140
C3851	C385	0.137700	0.824530	0.127440
S781	S78	0.129900	0.290640	0.600910
O1551	O155	0.155960	0.254110	0.540920
O1561	O156	0.205200	0.281700	0.535150
C3861	C386	0.176520	0.277460	0.548920
C3871	C387	0.166520	0.300080	0.577560
C3881	C388	0.185450	0.329570	0.588770
H781	H78	0.205900	0.338200	0.579100
C3891	C389	0.166700	0.343540	0.618140
C3901	C390	0.137700	0.324530	0.627440
S791	S79	0.629900	0.790640	0.600910
O1571	O157	0.655960	0.754110	0.540920
O1581	O158	0.705200	0.781700	0.535150
C3911	C391	0.676520	0.777460	0.548920
C3921	C392	0.666520	0.800080	0.577560
C3931	C393	0.685450	0.829570	0.588770
H791	H79	0.705900	0.838200	0.579100
C3941	C394	0.666700	0.843540	0.618140
C3951	C395	0.637700	0.824530	0.627440
S801	S80	0.629900	0.290640	0.100910
O1591	O159	0.655960	0.254110	0.040920
O1601	O160	0.705200	0.281700	0.035150
C3961	C396	0.676520	0.277460	0.048920
C3971	C397	0.666520	0.300080	0.077560
C3981	C398	0.685450	0.329570	0.088770
H801	H80	0.705900	0.338200	0.079100
C3991	C399	0.666700	0.343540	0.118140
C4001	C400	0.637700	0.324530	0.127440
S811	S81	0.209360	0.100910	0.870100
O1611	O161	0.245890	0.040920	0.844040
O1621	O162	0.218300	0.035150	0.794800
C4011	C401	0.222540	0.048920	0.823480
C4021	C402	0.199920	0.077560	0.833480
C4031	C403	0.170430	0.088770	0.814550
H811	H81	0.161800	0.079100	0.794100
C4041	C404	0.156460	0.118140	0.833300
C4051	C405	0.175470	0.127440	0.862300
S821	S82	0.209360	0.600910	0.370100
O1631	O163	0.245890	0.540920	0.344040
O1641	O164	0.218300	0.535150	0.294800
C4061	C406	0.222540	0.548920	0.323480
C4071	C407	0.199920	0.577560	0.333480
C4081	C408	0.170430	0.588770	0.314550
H821	H82	0.161800	0.579100	0.294100
C4091	C409	0.156460	0.618140	0.333300
C4101	C410	0.175470	0.627440	0.362300
S831	S83	0.709360	0.100910	0.370100
O1651	O165	0.745890	0.040920	0.344040
O1661	O166	0.718300	0.035150	0.294800
C4111	C411	0.722540	0.048920	0.323480
C4121	C412	0.699920	0.077560	0.333480
C4131	C413	0.670430	0.088770	0.314550
H831	H83	0.661800	0.079100	0.294100
C4141	C414	0.656460	0.118140	0.333300
C4151	C415	0.675470	0.127440	0.362300
S841	S84	0.709360	0.600910	0.870100
O1671	O167	0.745890	0.540920	0.844040
O1681	O168	0.718300	0.535150	0.794800
C4161	C416	0.722540	0.548920	0.823480
C4171	C417	0.699920	0.577560	0.833480
C4181	C418	0.670430	0.588770	0.814550
H841	H84	0.661800	0.579100	0.794100
C4191	C419	0.656460	0.618140	0.833300
C4201	C420	0.675470	0.627440	0.862300
S851	S85	0.209360	0.899090	0.129900
O1691	O169	0.245890	0.959080	0.155960
O1701	O170	0.218300	0.964850	0.205200
C4211	C421	0.222540	0.951080	0.176520
C4221	C422	0.199920	0.922440	0.166520
C4231	C423	0.170430	0.911230	0.185450
H851	H85	0.161800	0.920900	0.205900
C4241	C424	0.156460	0.881860	0.166700
C4251	C425	0.175470	0.872560	0.137700
S861	S86	0.209360	0.399090	0.629900
O1711	O171	0.245890	0.459080	0.655960
O1721	O172	0.218300	0.464850	0.705200
C4261	C426	0.222540	0.451080	0.676520
C4271	C427	0.199920	0.422440	0.666520
C4281	C428	0.170430	0.411230	0.685450
H861	H86	0.161800	0.420900	0.705900
C4291	C429	0.156460	0.381860	0.666700
C4301	C430	0.175470	0.372560	0.637700
S871	S87	0.709360	0.899090	0.629900
O1731	O173	0.745890	0.959080	0.655960
O1741	O174	0.718300	0.964850	0.705200
C4311	C431	0.722540	0.951080	0.676520
C4321	C432	0.699920	0.922440	0.666520
C4331	C433	0.670430	0.911230	0.685450
H871	H87	0.661800	0.920900	0.705900
C4341	C434	0.656460	0.881860	0.666700
C4351	C435	0.675470	0.872560	0.637700
S881	S88	0.709360	0.399090	0.129900
O1751	O175	0.745890	0.459080	0.155960
O1761	O176	0.718300	0.464850	0.205200
C4361	C436	0.722540	0.451080	0.176520
C4371	C437	0.699920	0.422440	0.166520
C4381	C438	0.670430	0.411230	0.185450
H881	H88	0.661800	0.420900	0.205900
C4391	C439	0.656460	0.381860	0.166700
C4401	C440	0.675470	0.372560	0.137700
S891	S89	0.790640	0.100910	0.129900
O1771	O177	0.754110	0.040920	0.155960
O1781	O178	0.781700	0.035150	0.205200
C4411	C441	0.777460	0.048920	0.176520
C4421	C442	0.800080	0.077560	0.166520
C4431	C443	0.829570	0.088770	0.185450
H891	H89	0.838200	0.079100	0.205900
C4441	C444	0.843540	0.118140	0.166700
C4451	C445	0.824530	0.127440	0.137700
S901	S90	0.790640	0.600910	0.629900
O1791	O179	0.754110	0.540920	0.655960
O1801	O180	0.781700	0.535150	0.705200
C4461	C446	0.777460	0.548920	0.676520
C4471	C447	0.800080	0.577560	0.666520
C4481	C448	0.829570	0.588770	0.685450
H901	H90	0.838200	0.579100	0.705900
C4491	C449	0.843540	0.618140	0.666700
C4501	C450	0.824530	0.627440	0.637700
S911	S91	0.290640	0.100910	0.629900
O1811	O181	0.254110	0.040920	0.655960
O1821	O182	0.281700	0.035150	0.705200
C4511	C451	0.277460	0.048920	0.676520
C4521	C452	0.300080	0.077560	0.666520
C4531	C453	0.329570	0.088770	0.685450
H911	H91	0.338200	0.079100	0.705900
C4541	C454	0.343540	0.118140	0.666700
C4551	C455	0.324530	0.127440	0.637700
S921	S92	0.290640	0.600910	0.129900
O1831	O183	0.254110	0.540920	0.155960
O1841	O184	0.281700	0.535150	0.205200
C4561	C456	0.277460	0.548920	0.176520
C4571	C457	0.300080	0.577560	0.166520
C4581	C458	0.329570	0.588770	0.185450
H921	H92	0.338200	0.579100	0.205900
C4591	C459	0.343540	0.618140	0.166700
C4601	C460	0.324530	0.627440	0.137700
S931	S93	0.790640	0.899090	0.870100
O1851	O185	0.754110	0.959080	0.844040
O1861	O186	0.781700	0.964850	0.794800
C4611	C461	0.777460	0.951080	0.823480
C4621	C462	0.800080	0.922440	0.833480
C4631	C463	0.829570	0.911230	0.814550
H931	H93	0.838200	0.920900	0.794100
C4641	C464	0.843540	0.881860	0.833300
C4651	C465	0.824530	0.872560	0.862300
S941	S94	0.790640	0.399090	0.370100
O1871	O187	0.754110	0.459080	0.344040
O1881	O188	0.781700	0.464850	0.294800
C4661	C466	0.777460	0.451080	0.323480
C4671	C467	0.800080	0.422440	0.333480
C4681	C468	0.829570	0.411230	0.314550
H941	H94	0.838200	0.420900	0.294100
C4691	C469	0.843540	0.381860	0.333300
C4701	C470	0.824530	0.372560	0.362300
S951	S95	0.290640	0.899090	0.370100
O1891	O189	0.254110	0.959080	0.344040
O1901	O190	0.281700	0.964850	0.294800
C4711	C471	0.277460	0.951080	0.323480
C4721	C472	0.300080	0.922440	0.333480
C4731	C473	0.329570	0.911230	0.314550
H951	H95	0.338200	0.920900	0.294100
C4741	C474	0.343540	0.881860	0.333300
C4751	C475	0.324530	0.872560	0.362300
S961	S96	0.290640	0.399090	0.870100
O1911	O191	0.254110	0.459080	0.844040
O1921	O192	0.281700	0.464850	0.794800
C4761	C476	0.277460	0.451080	0.823480
C4771	C477	0.300080	0.422440	0.833480
C4781	C478	0.329570	0.411230	0.814550
H961	H96	0.338200	0.420900	0.794100
C4791	C479	0.343540	0.381860	0.833300
C4801	C480	0.324530	0.372560	0.862300
S971	S97	0.370100	0.399090	0.290640
O1931	O193	0.344040	0.459080	0.254110
O1941	O194	0.294800	0.464850	0.281700
C4811	C481	0.323480	0.451080	0.277460
C4821	C482	0.333480	0.422440	0.300080
C4831	C483	0.314550	0.411230	0.329570
H971	H97	0.294100	0.420900	0.338200
C4841	C484	0.333300	0.381860	0.343540
C4851	C485	0.362300	0.372560	0.324530
S981	S98	0.370100	0.899090	0.790640
O1951	O195	0.344040	0.959080	0.754110
O1961	O196	0.294800	0.964850	0.781700
C4861	C486	0.323480	0.951080	0.777460
C4871	C487	0.333480	0.922440	0.800080
C4881	C488	0.314550	0.911230	0.829570
H981	H98	0.294100	0.920900	0.838200
C4891	C489	0.333300	0.881860	0.843540
C4901	C490	0.362300	0.872560	0.824530
S991	S99	0.870100	0.399090	0.790640
O1971	O197	0.844040	0.459080	0.754110
O1981	O198	0.794800	0.464850	0.781700
C4911	C491	0.823480	0.451080	0.777460
C4921	C492	0.833480	0.422440	0.800080
C4931	C493	0.814550	0.411230	0.829570
H991	H99	0.794100	0.420900	0.838200
C4941	C494	0.833300	0.381860	0.843540
C4951	C495	0.862300	0.372560	0.824530
S1001	S100	0.870100	0.899090	0.290640
O1991	O199	0.844040	0.959080	0.254110
O2001	O200	0.794800	0.964850	0.281700
C4961	C496	0.823480	0.951080	0.277460
C4971	C497	0.833480	0.922440	0.300080
C4981	C498	0.814550	0.911230	0.329570
H1001	H100	0.794100	0.920900	0.338200
C4991	C499	0.833300	0.881860	0.343540
C5001	C500	0.862300	0.872560	0.324530
S1011	S101	0.629900	0.600910	0.290640
O2011	O201	0.655960	0.540920	0.254110
O2021	O202	0.705200	0.535150	0.281700
C5011	C501	0.676520	0.548920	0.277460
C5021	C502	0.666520	0.577560	0.300080
C5031	C503	0.685450	0.588770	0.329570
H1011	H101	0.705900	0.579100	0.338200
C5041	C504	0.666700	0.618140	0.343540
C5051	C505	0.637700	0.627440	0.324530
S1021	S102	0.629900	0.100910	0.790640
O2031	O203	0.655960	0.040920	0.754110
O2041	O204	0.705200	0.035150	0.781700
C5061	C506	0.676520	0.048920	0.777460
C5071	C507	0.666520	0.077560	0.800080
C5081	C508	0.685450	0.088770	0.829570
H1021	H102	0.705900	0.079100	0.838200
C5091	C509	0.666700	0.118140	0.843540
C5101	C510	0.637700	0.127440	0.824530
S1031	S103	0.129900	0.600910	0.790640
O2051	O205	0.155960	0.540920	0.754110
O2061	O206	0.205200	0.535150	0.781700
C5111	C511	0.176520	0.548920	0.777460
C5121	C512	0.166520	0.577560	0.800080
C5131	C513	0.185450	0.588770	0.829570
H1031	H103	0.205900	0.579100	0.838200
C5141	C514	0.166700	0.618140	0.843540
C5151	C515	0.137700	0.627440	0.824530
S1041	S104	0.129900	0.100910	0.290640
O2071	O207	0.155960	0.040920	0.254110
O2081	O208	0.205200	0.035150	0.281700
C5161	C516	0.176520	0.048920	0.277460
C5171	C517	0.166520	0.077560	0.300080
C5181	C518	0.185450	0.088770	0.329570
H1041	H104	0.205900	0.079100	0.338200
C5191	C519	0.166700	0.118140	0.343540
C5201	C520	0.137700	0.127440	0.324530
S1051	S105	0.629900	0.399090	0.709360
O2091	O209	0.655960	0.459080	0.745890
O2101	O210	0.705200	0.464850	0.718300
C5211	C521	0.676520	0.451080	0.722540
C5221	C522	0.666520	0.422440	0.699920
C5231	C523	0.685450	0.411230	0.670430
H1051	H105	0.705900	0.420900	0.661800
C5241	C524	0.666700	0.381860	0.656460
C5251	C525	0.637700	0.372560	0.675470
S1061	S106	0.629900	0.899090	0.209360
O2111	O211	0.655960	0.959080	0.245890
O2121	O212	0.705200	0.964850	0.218300
C5261	C526	0.676520	0.951080	0.222540
C5271	C527	0.666520	0.922440	0.199920
C5281	C528	0.685450	0.911230	0.170430
H1061	H106	0.705900	0.920900	0.161800
C5291	C529	0.666700	0.881860	0.156460
C5301	C530	0.637700	0.872560	0.175470
S1071	S107	0.129900	0.399090	0.209360
O2131	O213	0.155960	0.459080	0.245890
O2141	O214	0.205200	0.464850	0.218300
C5311	C531	0.176520	0.451080	0.222540
C5321	C532	0.166520	0.422440	0.199920
C5331	C533	0.185450	0.411230	0.170430
H1071	H107	0.205900	0.420900	0.161800
C5341	C534	0.166700	0.381860	0.156460
C5351	C535	0.137700	0.372560	0.175470
S1081	S108	0.129900	0.899090	0.709360
O2151	O215	0.155960	0.959080	0.745890
O2161	O216	0.205200	0.964850	0.718300
C5361	C536	0.176520	0.951080	0.722540
C5371	C537	0.166520	0.922440	0.699920
C5381	C538	0.185450	0.911230	0.670430
H1081	H108	0.205900	0.920900	0.661800
C5391	C539	0.166700	0.881860	0.656460
C5401	C540	0.137700	0.872560	0.675470
S1091	S109	0.370100	0.600910	0.709360
O2171	O217	0.344040	0.540920	0.745890
O2181	O218	0.294800	0.535150	0.718300
C5411	C541	0.323480	0.548920	0.722540
C5421	C542	0.333480	0.577560	0.699920
C5431	C543	0.314550	0.588770	0.670430
H1091	H109	0.294100	0.579100	0.661800
C5441	C544	0.333300	0.618140	0.656460
C5451	C545	0.362300	0.627440	0.675470
S1101	S110	0.370100	0.100910	0.209360
O2191	O219	0.344040	0.040920	0.245890
O2201	O220	0.294800	0.035150	0.218300
C5461	C546	0.323480	0.048920	0.222540
C5471	C547	0.333480	0.077560	0.199920
C5481	C548	0.314550	0.088770	0.170430
H1101	H110	0.294100	0.079100	0.161800
C5491	C549	0.333300	0.118140	0.156460
C5501	C550	0.362300	0.127440	0.175470
S1111	S111	0.870100	0.600910	0.209360
O2211	O221	0.844040	0.540920	0.245890
O2221	O222	0.794800	0.535150	0.218300
C5511	C551	0.823480	0.548920	0.222540
C5521	C552	0.833480	0.577560	0.199920
C5531	C553	0.814550	0.588770	0.170430
H1111	H111	0.794100	0.579100	0.161800
C5541	C554	0.833300	0.618140	0.156460
C5551	C555	0.862300	0.627440	0.175470
S1121	S112	0.870100	0.100910	0.709360
O2231	O223	0.844040	0.040920	0.745890
O2241	O224	0.794800	0.035150	0.718300
C5561	C556	0.823480	0.048920	0.722540
C5571	C557	0.833480	0.077560	0.699920
C5581	C558	0.814550	0.088770	0.670430
H1121	H112	0.794100	0.079100	0.661800
C5591	C559	0.833300	0.118140	0.656460
C5601	C560	0.862300	0.127440	0.675470
S1131	S113	0.290640	0.370100	0.399090
O2251	O225	0.254110	0.344040	0.459080
O2261	O226	0.281700	0.294800	0.464850
C5611	C561	0.277460	0.323480	0.451080
C5621	C562	0.300080	0.333480	0.422440
C5631	C563	0.329570	0.314550	0.411230
H1131	H113	0.338200	0.294100	0.420900
C5641	C564	0.343540	0.333300	0.381860
C5651	C565	0.324530	0.362300	0.372560
S1141	S114	0.290640	0.870100	0.899090
O2271	O227	0.254110	0.844040	0.959080
O2281	O228	0.281700	0.794800	0.964850
C5661	C566	0.277460	0.823480	0.951080
C5671	C567	0.300080	0.833480	0.922440
C5681	C568	0.329570	0.814550	0.911230
H1141	H114	0.338200	0.794100	0.920900
C5691	C569	0.343540	0.833300	0.881860
C5701	C570	0.324530	0.862300	0.872560
S1151	S115	0.790640	0.370100	0.899090
O2291	O229	0.754110	0.344040	0.959080
O2301	O230	0.781700	0.294800	0.964850
C5711	C571	0.777460	0.323480	0.951080
C5721	C572	0.800080	0.333480	0.922440
C5731	C573	0.829570	0.314550	0.911230
H1151	H115	0.838200	0.294100	0.920900
C5741	C574	0.843540	0.333300	0.881860
C5751	C575	0.824530	0.362300	0.872560
S1161	S116	0.790640	0.870100	0.399090
O2311	O231	0.754110	0.844040	0.459080
O2321	O232	0.781700	0.794800	0.464850
C5761	C576	0.777460	0.823480	0.451080
C5771	C577	0.800080	0.833480	0.422440
C5781	C578	0.829570	0.814550	0.411230
H1161	H116	0.838200	0.794100	0.420900
C5791	C579	0.843540	0.833300	0.381860
C5801	C580	0.824530	0.862300	0.372560
S1171	S117	0.290640	0.629900	0.600910
O2331	O233	0.254110	0.655960	0.540920
O2341	O234	0.281700	0.705200	0.535150
C5811	C581	0.277460	0.676520	0.548920
C5821	C582	0.300080	0.666520	0.577560
C5831	C583	0.329570	0.685450	0.588770
H1171	H117	0.338200	0.705900	0.579100
C5841	C584	0.343540	0.666700	0.618140
C5851	C585	0.324530	0.637700	0.627440
S1181	S118	0.290640	0.129900	0.100910
O2351	O235	0.254110	0.155960	0.040920
O2361	O236	0.281700	0.205200	0.035150
C5861	C586	0.277460	0.176520	0.048920
C5871	C587	0.300080	0.166520	0.077560
C5881	C588	0.329570	0.185450	0.088770
H1181	H118	0.338200	0.205900	0.079100
C5891	C589	0.343540	0.166700	0.118140
C5901	C590	0.324530	0.137700	0.127440
S1191	S119	0.790640	0.629900	0.100910
O2371	O237	0.754110	0.655960	0.040920
O2381	O238	0.781700	0.705200	0.035150
C5911	C591	0.777460	0.676520	0.048920
C5921	C592	0.800080	0.666520	0.077560
C5931	C593	0.829570	0.685450	0.088770
H1191	H119	0.838200	0.705900	0.079100
C5941	C594	0.843540	0.666700	0.118140
C5951	C595	0.824530	0.637700	0.127440
S1201	S120	0.790640	0.129900	0.600910
O2391	O239	0.754110	0.155960	0.540920
O2401	O240	0.781700	0.205200	0.535150
C5961	C596	0.777460	0.176520	0.548920
C5971	C597	0.800080	0.166520	0.577560
C5981	C598	0.829570	0.185450	0.588770
H1201	H120	0.838200	0.205900	0.579100
C5991	C599	0.843540	0.166700	0.618140
C6001	C600	0.824530	0.137700	0.627440
S1211	S121	0.709360	0.629900	0.399090
O2411	O241	0.745890	0.655960	0.459080
O2421	O242	0.718300	0.705200	0.464850
C6011	C601	0.722540	0.676520	0.451080
C6021	C602	0.699920	0.666520	0.422440
C6031	C603	0.670430	0.685450	0.411230
H1211	H121	0.661800	0.705900	0.420900
C6041	C604	0.656460	0.666700	0.381860
C6051	C605	0.675470	0.637700	0.372560
S1221	S122	0.709360	0.129900	0.899090
O2431	O243	0.745890	0.155960	0.959080
O2441	O244	0.718300	0.205200	0.964850
C6061	C606	0.722540	0.176520	0.951080
C6071	C607	0.699920	0.166520	0.922440
C6081	C608	0.670430	0.185450	0.911230
H1221	H122	0.661800	0.205900	0.920900
C6091	C609	0.656460	0.166700	0.881860
C6101	C610	0.675470	0.137700	0.872560
S1231	S123	0.209360	0.629900	0.899090
O2451	O245	0.245890	0.655960	0.959080
O2461	O246	0.218300	0.705200	0.964850
C6111	C611	0.222540	0.676520	0.951080
C6121	C612	0.199920	0.666520	0.922440
C6131	C613	0.170430	0.685450	0.911230
H1231	H123	0.161800	0.705900	0.920900
C6141	C614	0.156460	0.666700	0.881860
C6151	C615	0.175470	0.637700	0.872560
S1241	S124	0.209360	0.129900	0.399090
O2471	O247	0.245890	0.155960	0.459080
O2481	O248	0.218300	0.205200	0.464850
C6161	C616	0.222540	0.176520	0.451080
C6171	C617	0.199920	0.166520	0.422440
C6181	C618	0.170430	0.185450	0.411230
H1241	H124	0.161800	0.205900	0.420900
C6191	C619	0.156460	0.166700	0.381860
C6201	C620	0.175470	0.137700	0.372560
S1251	S125	0.709360	0.370100	0.600910
O2491	O249	0.745890	0.344040	0.540920
O2501	O250	0.718300	0.294800	0.535150
C6211	C621	0.722540	0.323480	0.548920
C6221	C622	0.699920	0.333480	0.577560
C6231	C623	0.670430	0.314550	0.588770
H1251	H125	0.661800	0.294100	0.579100
C6241	C624	0.656460	0.333300	0.618140
C6251	C625	0.675470	0.362300	0.627440
S1261	S126	0.709360	0.870100	0.100910
O2511	O251	0.745890	0.844040	0.040920
O2521	O252	0.718300	0.794800	0.035150
C6261	C626	0.722540	0.823480	0.048920
C6271	C627	0.699920	0.833480	0.077560
C6281	C628	0.670430	0.814550	0.088770
H1261	H126	0.661800	0.794100	0.079100
C6291	C629	0.656460	0.833300	0.118140
C6301	C630	0.675470	0.862300	0.127440
S1271	S127	0.209360	0.370100	0.100910
O2531	O253	0.245890	0.344040	0.040920
O2541	O254	0.218300	0.294800	0.035150
C6311	C631	0.222540	0.323480	0.048920
C6321	C632	0.199920	0.333480	0.077560
C6331	C633	0.170430	0.314550	0.088770
H1271	H127	0.161800	0.294100	0.079100
C6341	C634	0.156460	0.333300	0.118140
C6351	C635	0.175470	0.362300	0.127440
S1281	S128	0.209360	0.870100	0.600910
O2551	O255	0.245890	0.844040	0.540920
O2561	O256	0.218300	0.794800	0.535150
C6361	C636	0.222540	0.823480	0.548920
C6371	C637	0.199920	0.833480	0.577560
C6381	C638	0.170430	0.814550	0.588770
H1281	H128	0.161800	0.794100	0.579100
C6391	C639	0.156460	0.833300	0.618140
C6401	C640	0.175470	0.862300	0.627440
S1291	S129	0.399090	0.290640	0.370100
O2571	O257	0.459080	0.254110	0.344040
O2581	O258	0.464850	0.281700	0.294800
C6411	C641	0.451080	0.277460	0.323480
C6421	C642	0.422440	0.300080	0.333480
C6431	C643	0.411230	0.329570	0.314550
H1291	H129	0.420900	0.338200	0.294100
C6441	C644	0.381860	0.343540	0.333300
C6451	C645	0.372560	0.324530	0.362300
S1301	S130	0.399090	0.790640	0.870100
O2591	O259	0.459080	0.754110	0.844040
O2601	O260	0.464850	0.781700	0.794800
C6461	C646	0.451080	0.777460	0.823480
C6471	C647	0.422440	0.800080	0.833480
C6481	C648	0.411230	0.829570	0.814550
H1301	H130	0.420900	0.838200	0.794100
C6491	C649	0.381860	0.843540	0.833300
C6501	C650	0.372560	0.824530	0.862300
S1311	S131	0.899090	0.290640	0.870100
O2611	O261	0.959080	0.254110	0.844040
O2621	O262	0.964850	0.281700	0.794800
C6511	C651	0.951080	0.277460	0.823480
C6521	C652	0.922440	0.300080	0.833480
C6531	C653	0.911230	0.329570	0.814550
H1311	H131	0.920900	0.338200	0.794100
C6541	C654	0.881860	0.343540	0.833300
C6551	C655	0.872560	0.324530	0.862300
S1321	S132	0.899090	0.790640	0.370100
O2631	O263	0.959080	0.754110	0.344040
O2641	O264	0.964850	0.781700	0.294800
C6561	C656	0.951080	0.777460	0.323480
C6571	C657	0.922440	0.800080	0.333480
C6581	C658	0.911230	0.829570	0.314550
H1321	H132	0.920900	0.838200	0.294100
C6591	C659	0.881860	0.843540	0.333300
C6601	C660	0.872560	0.824530	0.362300
S1331	S133	0.600910	0.290640	0.629900
O2651	O265	0.540920	0.254110	0.655960
O2661	O266	0.535150	0.281700	0.705200
C6611	C661	0.548920	0.277460	0.676520
C6621	C662	0.577560	0.300080	0.666520
C6631	C663	0.588770	0.329570	0.685450
H1331	H133	0.579100	0.338200	0.705900
C6641	C664	0.618140	0.343540	0.666700
C6651	C665	0.627440	0.324530	0.637700
S1341	S134	0.600910	0.790640	0.129900
O2671	O267	0.540920	0.754110	0.155960
O2681	O268	0.535150	0.781700	0.205200
C6661	C666	0.548920	0.777460	0.176520
C6671	C667	0.577560	0.800080	0.166520
C6681	C668	0.588770	0.829570	0.185450
H1341	H134	0.579100	0.838200	0.205900
C6691	C669	0.618140	0.843540	0.166700
C6701	C670	0.627440	0.824530	0.137700
S1351	S135	0.100910	0.290640	0.129900
O2691	O269	0.040920	0.254110	0.155960
O2701	O270	0.035150	0.281700	0.205200
C6711	C671	0.048920	0.277460	0.176520
C6721	C672	0.077560	0.300080	0.166520
C6731	C673	0.088770	0.329570	0.185450
H1351	H135	0.079100	0.338200	0.205900
C6741	C674	0.118140	0.343540	0.166700
C6751	C675	0.127440	0.324530	0.137700
S1361	S136	0.100910	0.790640	0.629900
O2711	O271	0.040920	0.754110	0.655960
O2721	O272	0.035150	0.781700	0.705200
C6761	C676	0.048920	0.777460	0.676520
C6771	C677	0.077560	0.800080	0.666520
C6781	C678	0.088770	0.829570	0.685450
H1361	H136	0.079100	0.838200	0.705900
C6791	C679	0.118140	0.843540	0.666700
C6801	C680	0.127440	0.824530	0.637700
S1371	S137	0.399090	0.709360	0.629900
O2731	O273	0.459080	0.745890	0.655960
O2741	O274	0.464850	0.718300	0.705200
C6811	C681	0.451080	0.722540	0.676520
C6821	C682	0.422440	0.699920	0.666520
C6831	C683	0.411230	0.670430	0.685450
H1371	H137	0.420900	0.661800	0.705900
C6841	C684	0.381860	0.656460	0.666700
C6851	C685	0.372560	0.675470	0.637700
S1381	S138	0.399090	0.209360	0.129900
O2751	O275	0.459080	0.245890	0.155960
O2761	O276	0.464850	0.218300	0.205200
C6861	C686	0.451080	0.222540	0.176520
C6871	C687	0.422440	0.199920	0.166520
C6881	C688	0.411230	0.170430	0.185450
H1381	H138	0.420900	0.161800	0.205900
C6891	C689	0.381860	0.156460	0.166700
C6901	C690	0.372560	0.175470	0.137700
S1391	S139	0.899090	0.709360	0.129900
O2771	O277	0.959080	0.745890	0.155960
O2781	O278	0.964850	0.718300	0.205200
C6911	C691	0.951080	0.722540	0.176520
C6921	C692	0.922440	0.699920	0.166520
C6931	C693	0.911230	0.670430	0.185450
H1391	H139	0.920900	0.661800	0.205900
C6941	C694	0.881860	0.656460	0.166700
C6951	C695	0.872560	0.675470	0.137700
S1401	S140	0.899090	0.209360	0.629900
O2791	O279	0.959080	0.245890	0.655960
O2801	O280	0.964850	0.218300	0.705200
C6961	C696	0.951080	0.222540	0.676520
C6971	C697	0.922440	0.199920	0.666520
C6981	C698	0.911230	0.170430	0.685450
H1401	H140	0.920900	0.161800	0.705900
C6991	C699	0.881860	0.156460	0.666700
C7001	C700	0.872560	0.175470	0.637700
S1411	S141	0.600910	0.709360	0.370100
O2811	O281	0.540920	0.745890	0.344040
O2821	O282	0.535150	0.718300	0.294800
C7011	C701	0.548920	0.722540	0.323480
C7021	C702	0.577560	0.699920	0.333480
C7031	C703	0.588770	0.670430	0.314550
H1411	H141	0.579100	0.661800	0.294100
C7041	C704	0.618140	0.656460	0.333300
C7051	C705	0.627440	0.675470	0.362300
S1421	S142	0.600910	0.209360	0.870100
O2831	O283	0.540920	0.245890	0.844040
O2841	O284	0.535150	0.218300	0.794800
C7061	C706	0.548920	0.222540	0.823480
C7071	C707	0.577560	0.199920	0.833480
C7081	C708	0.588770	0.170430	0.814550
H1421	H142	0.579100	0.161800	0.794100
C7091	C709	0.618140	0.156460	0.833300
C7101	C710	0.627440	0.175470	0.862300
S1431	S143	0.100910	0.709360	0.870100
O2851	O285	0.040920	0.745890	0.844040
O2861	O286	0.035150	0.718300	0.794800
C7111	C711	0.048920	0.722540	0.823480
C7121	C712	0.077560	0.699920	0.833480
C7131	C713	0.088770	0.670430	0.814550
H1431	H143	0.079100	0.661800	0.794100
C7141	C714	0.118140	0.656460	0.833300
C7151	C715	0.127440	0.675470	0.862300
S1441	S144	0.100910	0.209360	0.370100
O2871	O287	0.040920	0.245890	0.344040
O2881	O288	0.035150	0.218300	0.294800
C7161	C716	0.048920	0.222540	0.323480
C7171	C717	0.077560	0.199920	0.333480
C7181	C718	0.088770	0.170430	0.314550
H1441	H144	0.079100	0.161800	0.294100
C7191	C719	0.118140	0.156460	0.333300
C7201	C720	0.127440	0.175470	0.362300
S1451	S145	0.899090	0.870100	0.209360
O2891	O289	0.959080	0.844040	0.245890
O2901	O290	0.964850	0.794800	0.218300
C7211	C721	0.951080	0.823480	0.222540
C7221	C722	0.922440	0.833480	0.199920
C7231	C723	0.911230	0.814550	0.170430
H1451	H145	0.920900	0.794100	0.161800
C7241	C724	0.881860	0.833300	0.156460
C7251	C725	0.872560	0.862300	0.175470
S1461	S146	0.899090	0.370100	0.709360
O2911	O291	0.959080	0.344040	0.745890
O2921	O292	0.964850	0.294800	0.718300
C7261	C726	0.951080	0.323480	0.722540
C7271	C727	0.922440	0.333480	0.699920
C7281	C728	0.911230	0.314550	0.670430
H1461	H146	0.920900	0.294100	0.661800
C7291	C729	0.881860	0.333300	0.656460
C7301	C730	0.872560	0.362300	0.675470
S1471	S147	0.399090	0.870100	0.709360
O2931	O293	0.459080	0.844040	0.745890
O2941	O294	0.464850	0.794800	0.718300
C7311	C731	0.451080	0.823480	0.722540
C7321	C732	0.422440	0.833480	0.699920
C7331	C733	0.411230	0.814550	0.670430
H1471	H147	0.420900	0.794100	0.661800
C7341	C734	0.381860	0.833300	0.656460
C7351	C735	0.372560	0.862300	0.675470
S1481	S148	0.399090	0.370100	0.209360
O2951	O295	0.459080	0.344040	0.245890
O2961	O296	0.464850	0.294800	0.218300
C7361	C736	0.451080	0.323480	0.222540
C7371	C737	0.422440	0.333480	0.199920
C7381	C738	0.411230	0.314550	0.170430
H1481	H148	0.420900	0.294100	0.161800
C7391	C739	0.381860	0.333300	0.156460
C7401	C740	0.372560	0.362300	0.175470
S1491	S149	0.100910	0.129900	0.209360
O2971	O297	0.040920	0.155960	0.245890
O2981	O298	0.035150	0.205200	0.218300
C7411	C741	0.048920	0.176520	0.222540
C7421	C742	0.077560	0.166520	0.199920
C7431	C743	0.088770	0.185450	0.170430
H1491	H149	0.079100	0.205900	0.161800
C7441	C744	0.118140	0.166700	0.156460
C7451	C745	0.127440	0.137700	0.175470
S1501	S150	0.100910	0.629900	0.709360
O2991	O299	0.040920	0.655960	0.745890
O3001	O300	0.035150	0.705200	0.718300
C7461	C746	0.048920	0.676520	0.722540
C7471	C747	0.077560	0.666520	0.699920
C7481	C748	0.088770	0.685450	0.670430
H1501	H150	0.079100	0.705900	0.661800
C7491	C749	0.118140	0.666700	0.656460
C7501	C750	0.127440	0.637700	0.675470
S1511	S151	0.600910	0.129900	0.709360
O3011	O301	0.540920	0.155960	0.745890
O3021	O302	0.535150	0.205200	0.718300
C7511	C751	0.548920	0.176520	0.722540
C7521	C752	0.577560	0.166520	0.699920
C7531	C753	0.588770	0.185450	0.670430
H1511	H151	0.579100	0.205900	0.661800
C7541	C754	0.618140	0.166700	0.656460
C7551	C755	0.627440	0.137700	0.675470
S1521	S152	0.600910	0.629900	0.209360
O3031	O303	0.540920	0.655960	0.245890
O3041	O304	0.535150	0.705200	0.218300
C7561	C756	0.548920	0.676520	0.222540
C7571	C757	0.577560	0.666520	0.199920
C7581	C758	0.588770	0.685450	0.170430
H1521	H152	0.579100	0.705900	0.161800
C7591	C759	0.618140	0.666700	0.156460
C7601	C760	0.627440	0.637700	0.175470
S1531	S153	0.899090	0.129900	0.790640
O3051	O305	0.959080	0.155960	0.754110
O3061	O306	0.964850	0.205200	0.781700
C7611	C761	0.951080	0.176520	0.777460
C7621	C762	0.922440	0.166520	0.800080
C7631	C763	0.911230	0.185450	0.829570
H1531	H153	0.920900	0.205900	0.838200
C7641	C764	0.881860	0.166700	0.843540
C7651	C765	0.872560	0.137700	0.824530
S1541	S154	0.899090	0.629900	0.290640
O3071	O307	0.959080	0.655960	0.254110
O3081	O308	0.964850	0.705200	0.281700
C7661	C766	0.951080	0.676520	0.277460
C7671	C767	0.922440	0.666520	0.300080
C7681	C768	0.911230	0.685450	0.329570
H1541	H154	0.920900	0.705900	0.338200
C7691	C769	0.881860	0.666700	0.343540
C7701	C770	0.872560	0.637700	0.324530
S1551	S155	0.399090	0.129900	0.290640
O3091	O309	0.459080	0.155960	0.254110
O3101	O310	0.464850	0.205200	0.281700
C7711	C771	0.451080	0.176520	0.277460
C7721	C772	0.422440	0.166520	0.300080
C7731	C773	0.411230	0.185450	0.329570
H1551	H155	0.420900	0.205900	0.338200
C7741	C774	0.381860	0.166700	0.343540
C7751	C775	0.372560	0.137700	0.324530
S1561	S156	0.399090	0.629900	0.790640
O3111	O311	0.459080	0.655960	0.754110
O3121	O312	0.464850	0.705200	0.781700
C7761	C776	0.451080	0.676520	0.777460
C7771	C777	0.422440	0.666520	0.800080
C7781	C778	0.411230	0.685450	0.829570
H1561	H156	0.420900	0.705900	0.838200
C7791	C779	0.381860	0.666700	0.843540
C7801	C780	0.372560	0.637700	0.824530
S1571	S157	0.100910	0.870100	0.790640
O3131	O313	0.040920	0.844040	0.754110
O3141	O314	0.035150	0.794800	0.781700
C7811	C781	0.048920	0.823480	0.777460
C7821	C782	0.077560	0.833480	0.800080
C7831	C783	0.088770	0.814550	0.829570
H1571	H157	0.079100	0.794100	0.838200
C7841	C784	0.118140	0.833300	0.843540
C7851	C785	0.127440	0.862300	0.824530
S1581	S158	0.100910	0.370100	0.290640
O3151	O315	0.040920	0.344040	0.254110
O3161	O316	0.035150	0.294800	0.281700
C7861	C786	0.048920	0.323480	0.277460
C7871	C787	0.077560	0.333480	0.300080
C7881	C788	0.088770	0.314550	0.329570
H1581	H158	0.079100	0.294100	0.338200
C7891	C789	0.118140	0.333300	0.343540
C7901	C790	0.127440	0.362300	0.324530
S1591	S159	0.600910	0.870100	0.290640
O3171	O317	0.540920	0.844040	0.254110
O3181	O318	0.535150	0.794800	0.281700
C7911	C791	0.548920	0.823480	0.277460
C7921	C792	0.577560	0.833480	0.300080
C7931	C793	0.588770	0.814550	0.329570
H1591	H159	0.579100	0.794100	0.338200
C7941	C794	0.618140	0.833300	0.343540
C7951	C795	0.627440	0.862300	0.324530
S1601	S160	0.600910	0.370100	0.790640
O3191	O319	0.540920	0.344040	0.754110
O3201	O320	0.535150	0.294800	0.781700
C7961	C796	0.548920	0.323480	0.777460
C7971	C797	0.577560	0.333480	0.800080
C7981	C798	0.588770	0.314550	0.829570
H1601	H160	0.579100	0.294100	0.838200
C7991	C799	0.618140	0.333300	0.843540
C8001	C800	0.627440	0.362300	0.824530
S1611	S161	0.870100	0.790640	0.100910
O3211	O321	0.844040	0.754110	0.040920
O3221	O322	0.794800	0.781700	0.035150
C8011	C801	0.823480	0.777460	0.048920
C8021	C802	0.833480	0.800080	0.077560
C8031	C803	0.814550	0.829570	0.088770
H1611	H161	0.794100	0.838200	0.079100
C8041	C804	0.833300	0.843540	0.118140
C8051	C805	0.862300	0.824530	0.127440
S1621	S162	0.870100	0.290640	0.600910
O3231	O323	0.844040	0.254110	0.540920
O3241	O324	0.794800	0.281700	0.535150
C8061	C806	0.823480	0.277460	0.548920
C8071	C807	0.833480	0.300080	0.577560
C8081	C808	0.814550	0.329570	0.588770
H1621	H162	0.794100	0.338200	0.579100
C8091	C809	0.833300	0.343540	0.618140
C8101	C810	0.862300	0.324530	0.627440
S1631	S163	0.370100	0.790640	0.600910
O3251	O325	0.344040	0.754110	0.540920
O3261	O326	0.294800	0.781700	0.535150
C8111	C811	0.323480	0.777460	0.548920
C8121	C812	0.333480	0.800080	0.577560
C8131	C813	0.314550	0.829570	0.588770
H1631	H163	0.294100	0.838200	0.579100
C8141	C814	0.333300	0.843540	0.618140
C8151	C815	0.362300	0.824530	0.627440
S1641	S164	0.370100	0.290640	0.100910
O3271	O327	0.344040	0.254110	0.040920
O3281	O328	0.294800	0.281700	0.035150
C8161	C816	0.323480	0.277460	0.048920
C8171	C817	0.333480	0.300080	0.077560
C8181	C818	0.314550	0.329570	0.088770
H1641	H164	0.294100	0.338200	0.079100
C8191	C819	0.333300	0.343540	0.118140
C8201	C820	0.362300	0.324530	0.127440
S1651	S165	0.129900	0.790640	0.899090
O3291	O329	0.155960	0.754110	0.959080
O3301	O330	0.205200	0.781700	0.964850
C8211	C821	0.176520	0.777460	0.951080
C8221	C822	0.166520	0.800080	0.922440
C8231	C823	0.185450	0.829570	0.911230
H1651	H165	0.205900	0.838200	0.920900
C8241	C824	0.166700	0.843540	0.881860
C8251	C825	0.137700	0.824530	0.872560
S1661	S166	0.129900	0.290640	0.399090
O3311	O331	0.155960	0.254110	0.459080
O3321	O332	0.205200	0.281700	0.464850
C8261	C826	0.176520	0.277460	0.451080
C8271	C827	0.166520	0.300080	0.422440
C8281	C828	0.185450	0.329570	0.411230
H1661	H166	0.205900	0.338200	0.420900
C8291	C829	0.166700	0.343540	0.381860
C8301	C830	0.137700	0.324530	0.372560
S1671	S167	0.629900	0.790640	0.399090
O3331	O333	0.655960	0.754110	0.459080
O3341	O334	0.705200	0.781700	0.464850
C8311	C831	0.676520	0.777460	0.451080
C8321	C832	0.666520	0.800080	0.422440
C8331	C833	0.685450	0.829570	0.411230
H1671	H167	0.705900	0.838200	0.420900
C8341	C834	0.666700	0.843540	0.381860
C8351	C835	0.637700	0.824530	0.372560
S1681	S168	0.629900	0.290640	0.899090
O3351	O335	0.655960	0.254110	0.959080
O3361	O336	0.705200	0.281700	0.964850
C8361	C836	0.676520	0.277460	0.951080
C8371	C837	0.666520	0.300080	0.922440
C8381	C838	0.685450	0.329570	0.911230
H1681	H168	0.705900	0.338200	0.920900
C8391	C839	0.666700	0.343540	0.881860
C8401	C840	0.637700	0.324530	0.872560
S1691	S169	0.129900	0.209360	0.100910
O3371	O337	0.155960	0.245890	0.040920
O3381	O338	0.205200	0.218300	0.035150
C8411	C841	0.176520	0.222540	0.048920
C8421	C842	0.166520	0.199920	0.077560
C8431	C843	0.185450	0.170430	0.088770
H1691	H169	0.205900	0.161800	0.079100
C8441	C844	0.166700	0.156460	0.118140
C8451	C845	0.137700	0.175470	0.127440
S1701	S170	0.129900	0.709360	0.600910
O3391	O339	0.155960	0.745890	0.540920
O3401	O340	0.205200	0.718300	0.535150
C8461	C846	0.176520	0.722540	0.548920
C8471	C847	0.166520	0.699920	0.577560
C8481	C848	0.185450	0.670430	0.588770
H1701	H170	0.205900	0.661800	0.579100
C8491	C849	0.166700	0.656460	0.618140
C8501	C850	0.137700	0.675470	0.627440
S1711	S171	0.629900	0.209360	0.600910
O3411	O341	0.655960	0.245890	0.540920
O3421	O342	0.705200	0.218300	0.535150
C8511	C851	0.676520	0.222540	0.548920
C8521	C852	0.666520	0.199920	0.577560
C8531	C853	0.685450	0.170430	0.588770
H1711	H171	0.705900	0.161800	0.579100
C8541	C854	0.666700	0.156460	0.618140
C8551	C855	0.637700	0.175470	0.627440
S1721	S172	0.629900	0.709360	0.100910
O3431	O343	0.655960	0.745890	0.040920
O3441	O344	0.705200	0.718300	0.035150
C8561	C856	0.676520	0.722540	0.048920
C8571	C857	0.666520	0.699920	0.077560
C8581	C858	0.685450	0.670430	0.088770
H1721	H172	0.705900	0.661800	0.079100
C8591	C859	0.666700	0.656460	0.118140
C8601	C860	0.637700	0.675470	0.127440
S1731	S173	0.870100	0.209360	0.899090
O3451	O345	0.844040	0.245890	0.959080
O3461	O346	0.794800	0.218300	0.964850
C8611	C861	0.823480	0.222540	0.951080
C8621	C862	0.833480	0.199920	0.922440
C8631	C863	0.814550	0.170430	0.911230
H1731	H173	0.794100	0.161800	0.920900
C8641	C864	0.833300	0.156460	0.881860
C8651	C865	0.862300	0.175470	0.872560
S1741	S174	0.870100	0.709360	0.399090
O3471	O347	0.844040	0.745890	0.459080
O3481	O348	0.794800	0.718300	0.464850
C8661	C866	0.823480	0.722540	0.451080
C8671	C867	0.833480	0.699920	0.422440
C8681	C868	0.814550	0.670430	0.411230
H1741	H174	0.794100	0.661800	0.420900
C8691	C869	0.833300	0.656460	0.381860
C8701	C870	0.862300	0.675470	0.372560
S1751	S175	0.370100	0.209360	0.399090
O3491	O349	0.344040	0.245890	0.459080
O3501	O350	0.294800	0.218300	0.464850
C8711	C871	0.323480	0.222540	0.451080
C8721	C872	0.333480	0.199920	0.422440
C8731	C873	0.314550	0.170430	0.411230
H1751	H175	0.294100	0.161800	0.420900
C8741	C874	0.333300	0.156460	0.381860
C8751	C875	0.362300	0.175470	0.372560
S1761	S176	0.370100	0.709360	0.899090
O3511	O351	0.344040	0.745890	0.959080
O3521	O352	0.294800	0.718300	0.964850
C8761	C876	0.323480	0.722540	0.951080
C8771	C877	0.333480	0.699920	0.922440
C8781	C878	0.314550	0.670430	0.911230
H1761	H176	0.294100	0.661800	0.920900
C8791	C879	0.333300	0.656460	0.881860
C8801	C880	0.362300	0.675470	0.872560
S1771	S177	0.790640	0.899090	0.129900
O3531	O353	0.754110	0.959080	0.155960
O3541	O354	0.781700	0.964850	0.205200
C8811	C881	0.777460	0.951080	0.176520
C8821	C882	0.800080	0.922440	0.166520
C8831	C883	0.829570	0.911230	0.185450
H1771	H177	0.838200	0.920900	0.205900
C8841	C884	0.843540	0.881860	0.166700
C8851	C885	0.824530	0.872560	0.137700
S1781	S178	0.790640	0.399090	0.629900
O3551	O355	0.754110	0.459080	0.655960
O3561	O356	0.781700	0.464850	0.705200
C8861	C886	0.777460	0.451080	0.676520
C8871	C887	0.800080	0.422440	0.666520
C8881	C888	0.829570	0.411230	0.685450
H1781	H178	0.838200	0.420900	0.705900
C8891	C889	0.843540	0.381860	0.666700
C8901	C890	0.824530	0.372560	0.637700
S1791	S179	0.290640	0.899090	0.629900
O3571	O357	0.254110	0.959080	0.655960
O3581	O358	0.281700	0.964850	0.705200
C8911	C891	0.277460	0.951080	0.676520
C8921	C892	0.300080	0.922440	0.666520
C8931	C893	0.329570	0.911230	0.685450
H1791	H179	0.338200	0.920900	0.705900
C8941	C894	0.343540	0.881860	0.666700
C8951	C895	0.324530	0.872560	0.637700
S1801	S180	0.290640	0.399090	0.129900
O3591	O359	0.254110	0.459080	0.155960
O3601	O360	0.281700	0.464850	0.205200
C8961	C896	0.277460	0.451080	0.176520
C8971	C897	0.300080	0.422440	0.166520
C8981	C898	0.329570	0.411230	0.185450
H1801	H180	0.338200	0.420900	0.205900
C8991	C899	0.343540	0.381860	0.166700
C9001	C900	0.324530	0.372560	0.137700
S1811	S181	0.790640	0.100910	0.870100
O3611	O361	0.754110	0.040920	0.844040
O3621	O362	0.781700	0.035150	0.794800
C9011	C901	0.777460	0.048920	0.823480
C9021	C902	0.800080	0.077560	0.833480
C9031	C903	0.829570	0.088770	0.814550
H1811	H181	0.838200	0.079100	0.794100
C9041	C904	0.843540	0.118140	0.833300
C9051	C905	0.824530	0.127440	0.862300
S1821	S182	0.790640	0.600910	0.370100
O3631	O363	0.754110	0.540920	0.344040
O3641	O364	0.781700	0.535150	0.294800
C9061	C906	0.777460	0.548920	0.323480
C9071	C907	0.800080	0.577560	0.333480
C9081	C908	0.829570	0.588770	0.314550
H1821	H182	0.838200	0.579100	0.294100
C9091	C909	0.843540	0.618140	0.333300
C9101	C910	0.824530	0.627440	0.362300
S1831	S183	0.290640	0.100910	0.370100
O3651	O365	0.254110	0.040920	0.344040
O3661	O366	0.281700	0.035150	0.294800
C9111	C911	0.277460	0.048920	0.323480
C9121	C912	0.300080	0.077560	0.333480
C9131	C913	0.329570	0.088770	0.314550
H1831	H183	0.338200	0.079100	0.294100
C9141	C914	0.343540	0.118140	0.333300
C9151	C915	0.324530	0.127440	0.362300
S1841	S184	0.290640	0.600910	0.870100
O3671	O367	0.254110	0.540920	0.844040
O3681	O368	0.281700	0.535150	0.794800
C9161	C916	0.277460	0.548920	0.823480
C9171	C917	0.300080	0.577560	0.833480
C9181	C918	0.329570	0.588770	0.814550
H1841	H184	0.338200	0.579100	0.794100
C9191	C919	0.343540	0.618140	0.833300
C9201	C920	0.324530	0.627440	0.862300
S1851	S185	0.209360	0.899090	0.870100
O3691	O369	0.245890	0.959080	0.844040
O3701	O370	0.218300	0.964850	0.794800
C9211	C921	0.222540	0.951080	0.823480
C9221	C922	0.199920	0.922440	0.833480
C9231	C923	0.170430	0.911230	0.814550
H1851	H185	0.161800	0.920900	0.794100
C9241	C924	0.156460	0.881860	0.833300
C9251	C925	0.175470	0.872560	0.862300
S1861	S186	0.209360	0.399090	0.370100
O3711	O371	0.245890	0.459080	0.344040
O3721	O372	0.218300	0.464850	0.294800
C9261	C926	0.222540	0.451080	0.323480
C9271	C927	0.199920	0.422440	0.333480
C9281	C928	0.170430	0.411230	0.314550
H1861	H186	0.161800	0.420900	0.294100
C9291	C929	0.156460	0.381860	0.333300
C9301	C930	0.175470	0.372560	0.362300
S1871	S187	0.709360	0.899090	0.370100
O3731	O373	0.745890	0.959080	0.344040
O3741	O374	0.718300	0.964850	0.294800
C9311	C931	0.722540	0.951080	0.323480
C9321	C932	0.699920	0.922440	0.333480
C9331	C933	0.670430	0.911230	0.314550
H1871	H187	0.661800	0.920900	0.294100
C9341	C934	0.656460	0.881860	0.333300
C9351	C935	0.675470	0.872560	0.362300
S1881	S188	0.709360	0.399090	0.870100
O3751	O375	0.745890	0.459080	0.844040
O3761	O376	0.718300	0.464850	0.794800
C9361	C936	0.722540	0.451080	0.823480
C9371	C937	0.699920	0.422440	0.833480
C9381	C938	0.670430	0.411230	0.814550
H1881	H188	0.661800	0.420900	0.794100
C9391	C939	0.656460	0.381860	0.833300
C9401	C940	0.675470	0.372560	0.862300
S1891	S189	0.209360	0.100910	0.129900
O3771	O377	0.245890	0.040920	0.155960
O3781	O378	0.218300	0.035150	0.205200
C9411	C941	0.222540	0.048920	0.176520
C9421	C942	0.199920	0.077560	0.166520
C9431	C943	0.170430	0.088770	0.185450
H1891	H189	0.161800	0.079100	0.205900
C9441	C944	0.156460	0.118140	0.166700
C9451	C945	0.175470	0.127440	0.137700
S1901	S190	0.209360	0.600910	0.629900
O3791	O379	0.245890	0.540920	0.655960
O3801	O380	0.218300	0.535150	0.705200
C9461	C946	0.222540	0.548920	0.676520
C9471	C947	0.199920	0.577560	0.666520
C9481	C948	0.170430	0.588770	0.685450
H1901	H190	0.161800	0.579100	0.705900
C9491	C949	0.156460	0.618140	0.666700
C9501	C950	0.175470	0.627440	0.637700
S1911	S191	0.709360	0.100910	0.629900
O3811	O381	0.745890	0.040920	0.655960
O3821	O382	0.718300	0.035150	0.705200
C9511	C951	0.722540	0.048920	0.676520
C9521	C952	0.699920	0.077560	0.666520
C9531	C953	0.670430	0.088770	0.685450
H1911	H191	0.661800	0.079100	0.705900
C9541	C954	0.656460	0.118140	0.666700
C9551	C955	0.675470	0.127440	0.637700
S1921	S192	0.709360	0.600910	0.129900
O3831	O383	0.745890	0.540920	0.155960
O3841	O384	0.718300	0.535150	0.205200
C9561	C956	0.722540	0.548920	0.176520
C9571	C957	0.699920	0.577560	0.166520
C9581	C958	0.670430	0.588770	0.185450
H1921	H192	0.661800	0.579100	0.205900
C9591	C959	0.656460	0.618140	0.166700
C9601	C960	0.675470	0.627440	0.137700
Mn11	Mn1	0.683860	0.500000	0.771630
O3851	O385	0.648850	0.500000	0.816130
Mn21	Mn2	0.683860	0.000000	0.271630
O3861	O386	0.648850	0.000000	0.316130
Mn31	Mn3	0.183860	0.500000	0.271630
O3871	O387	0.148850	0.500000	0.316130
Mn41	Mn4	0.183860	0.000000	0.771630
O3881	O388	0.148850	0.000000	0.816130
Mn51	Mn5	0.316140	0.500000	0.771630
O3891	O389	0.351150	0.500000	0.816130
Mn61	Mn6	0.316140	0.000000	0.271630
O3901	O390	0.351150	0.000000	0.316130
Mn71	Mn7	0.816140	0.500000	0.271630
O3911	O391	0.851150	0.500000	0.316130
Mn81	Mn8	0.816140	0.000000	0.771630
O3921	O392	0.851150	0.000000	0.816130
Mn91	Mn9	0.316140	0.500000	0.228370
O3931	O393	0.351150	0.500000	0.183870
Mn101	Mn10	0.316140	0.000000	0.728370
O3941	O394	0.351150	0.000000	0.683870
Mn111	Mn11	0.816140	0.500000	0.728370
O3951	O395	0.851150	0.500000	0.683870
Mn121	Mn12	0.816140	0.000000	0.228370
O3961	O396	0.851150	0.000000	0.183870
Mn131	Mn13	0.683860	0.500000	0.228370
O3971	O397	0.648850	0.500000	0.183870
Mn141	Mn14	0.683860	0.000000	0.728370
O3981	O398	0.648850	0.000000	0.683870
Mn151	Mn15	0.183860	0.500000	0.728370
O3991	O399	0.148850	0.500000	0.683870
Mn161	Mn16	0.183860	0.000000	0.228370
O4001	O400	0.148850	0.000000	0.183870
Mn171	Mn17	0.771630	0.683860	0.500000
O4011	O401	0.816130	0.648850	0.500000
Mn181	Mn18	0.771630	0.183860	0.000000
O4021	O402	0.816130	0.148850	0.000000
Mn191	Mn19	0.271630	0.683860	0.000000
O4031	O403	0.316130	0.648850	0.000000
Mn201	Mn20	0.271630	0.183860	0.500000
O4041	O404	0.316130	0.148850	0.500000
Mn211	Mn21	0.771630	0.316140	0.500000
O4051	O405	0.816130	0.351150	0.500000
Mn221	Mn22	0.771630	0.816140	0.000000
O4061	O406	0.816130	0.851150	0.000000
Mn231	Mn23	0.271630	0.316140	0.000000
O4071	O407	0.316130	0.351150	0.000000
Mn241	Mn24	0.271630	0.816140	0.500000
O4081	O408	0.316130	0.851150	0.500000
Mn251	Mn25	0.228370	0.316140	0.500000
O4091	O409	0.183870	0.351150	0.500000
Mn261	Mn26	0.228370	0.816140	0.000000
O4101	O410	0.183870	0.851150	0.000000
Mn271	Mn27	0.728370	0.316140	0.000000
O4111	O411	0.683870	0.351150	0.000000
Mn281	Mn28	0.728370	0.816140	0.500000
O4121	O412	0.683870	0.851150	0.500000
Mn291	Mn29	0.228370	0.683860	0.500000
O4131	O413	0.183870	0.648850	0.500000
Mn301	Mn30	0.228370	0.183860	0.000000
O4141	O414	0.183870	0.148850	0.000000
Mn311	Mn31	0.728370	0.683860	0.000000
O4151	O415	0.683870	0.648850	0.000000
Mn321	Mn32	0.728370	0.183860	0.500000
O4161	O416	0.683870	0.148850	0.500000
Mn331	Mn33	0.500000	0.771630	0.683860
O4171	O417	0.500000	0.816130	0.648850
Mn341	Mn34	0.500000	0.271630	0.183860
O4181	O418	0.500000	0.316130	0.148850
Mn351	Mn35	0.000000	0.771630	0.183860
O4191	O419	0.000000	0.816130	0.148850
Mn361	Mn36	0.000000	0.271630	0.683860
O4201	O420	0.000000	0.316130	0.648850
Mn371	Mn37	0.500000	0.771630	0.316140
O4211	O421	0.500000	0.816130	0.351150
Mn381	Mn38	0.500000	0.271630	0.816140
O4221	O422	0.500000	0.316130	0.851150
Mn391	Mn39	0.000000	0.771630	0.816140
O4231	O423	0.000000	0.816130	0.851150
Mn401	Mn40	0.000000	0.271630	0.316140
O4241	O424	0.000000	0.316130	0.351150
Mn411	Mn41	0.500000	0.228370	0.316140
O4251	O425	0.500000	0.183870	0.351150
Mn421	Mn42	0.500000	0.728370	0.816140
O4261	O426	0.500000	0.683870	0.851150
Mn431	Mn43	0.000000	0.228370	0.816140
O4271	O427	0.000000	0.183870	0.851150
Mn441	Mn44	0.000000	0.728370	0.316140
O4281	O428	0.000000	0.683870	0.351150
Mn451	Mn45	0.500000	0.228370	0.683860
O4291	O429	0.500000	0.183870	0.648850
Mn461	Mn46	0.500000	0.728370	0.183860
O4301	O430	0.500000	0.683870	0.148850
Mn471	Mn47	0.000000	0.228370	0.183860
O4311	O431	0.000000	0.183870	0.148850
Mn481	Mn48	0.000000	0.728370	0.683860
O4321	O432	0.000000	0.683870	0.648850
Mn491	Mn49	0.000000	0.183860	0.728370
O4331	O433	0.000000	0.148850	0.683870
Mn501	Mn50	0.000000	0.683860	0.228370
O4341	O434	0.000000	0.648850	0.183870
Mn511	Mn51	0.500000	0.183860	0.228370
O4351	O435	0.500000	0.148850	0.183870
Mn521	Mn52	0.500000	0.683860	0.728370
O4361	O436	0.500000	0.648850	0.683870
Mn531	Mn53	0.000000	0.816140	0.728370
O4371	O437	0.000000	0.851150	0.683870
Mn541	Mn54	0.000000	0.316140	0.228370
O4381	O438	0.000000	0.351150	0.183870
Mn551	Mn55	0.500000	0.816140	0.228370
O4391	O439	0.500000	0.851150	0.183870
Mn561	Mn56	0.500000	0.316140	0.728370
O4401	O440	0.500000	0.351150	0.683870
Mn571	Mn57	0.000000	0.816140	0.271630
O4411	O441	0.000000	0.851150	0.316130
Mn581	Mn58	0.000000	0.316140	0.771630
O4421	O442	0.000000	0.351150	0.816130
Mn591	Mn59	0.500000	0.816140	0.771630
O4431	O443	0.500000	0.851150	0.816130
Mn601	Mn60	0.500000	0.316140	0.271630
O4441	O444	0.500000	0.351150	0.316130
Mn611	Mn61	0.000000	0.183860	0.271630
O4451	O445	0.000000	0.148850	0.316130
Mn621	Mn62	0.000000	0.683860	0.771630
O4461	O446	0.000000	0.648850	0.816130
Mn631	Mn63	0.500000	0.183860	0.771630
O4471	O447	0.500000	0.148850	0.816130
Mn641	Mn64	0.500000	0.683860	0.271630
O4481	O448	0.500000	0.648850	0.316130
Mn651	Mn65	0.183860	0.271630	0.000000
O4491	O449	0.148850	0.316130	0.000000
Mn661	Mn66	0.183860	0.771630	0.500000
O4501	O450	0.148850	0.816130	0.500000
Mn671	Mn67	0.683860	0.271630	0.500000
O4511	O451	0.648850	0.316130	0.500000
Mn681	Mn68	0.683860	0.771630	0.000000
O4521	O452	0.648850	0.816130	0.000000
Mn691	Mn69	0.816140	0.271630	0.000000
O4531	O453	0.851150	0.316130	0.000000
Mn701	Mn70	0.816140	0.771630	0.500000
O4541	O454	0.851150	0.816130	0.500000
Mn711	Mn71	0.316140	0.271630	0.500000
O4551	O455	0.351150	0.316130	0.500000
Mn721	Mn72	0.316140	0.771630	0.000000
O4561	O456	0.351150	0.816130	0.000000
Mn731	Mn73	0.816140	0.728370	0.000000
O4571	O457	0.851150	0.683870	0.000000
Mn741	Mn74	0.816140	0.228370	0.500000
O4581	O458	0.851150	0.183870	0.500000
Mn751	Mn75	0.316140	0.728370	0.500000
O4591	O459	0.351150	0.683870	0.500000
Mn761	Mn76	0.316140	0.228370	0.000000
O4601	O460	0.351150	0.183870	0.000000
Mn771	Mn77	0.183860	0.728370	0.000000
O4611	O461	0.148850	0.683870	0.000000
Mn781	Mn78	0.183860	0.228370	0.500000
O4621	O462	0.148850	0.183870	0.500000
Mn791	Mn79	0.683860	0.728370	0.500000
O4631	O463	0.648850	0.683870	0.500000
Mn801	Mn80	0.683860	0.228370	0.000000
O4641	O464	0.648850	0.183870	0.000000
Mn811	Mn81	0.271630	0.000000	0.816140
O4651	O465	0.316130	0.000000	0.851150
Mn821	Mn82	0.271630	0.500000	0.316140
O4661	O466	0.316130	0.500000	0.351150
Mn831	Mn83	0.771630	0.000000	0.316140
O4671	O467	0.816130	0.000000	0.351150
Mn841	Mn84	0.771630	0.500000	0.816140
O4681	O468	0.816130	0.500000	0.851150
Mn851	Mn85	0.271630	0.000000	0.183860
O4691	O469	0.316130	0.000000	0.148850
Mn861	Mn86	0.271630	0.500000	0.683860
O4701	O470	0.316130	0.500000	0.648850
Mn871	Mn87	0.771630	0.000000	0.683860
O4711	O471	0.816130	0.000000	0.648850
Mn881	Mn88	0.771630	0.500000	0.183860
O4721	O472	0.816130	0.500000	0.148850
Mn891	Mn89	0.728370	0.000000	0.183860
O4731	O473	0.683870	0.000000	0.148850
Mn901	Mn90	0.728370	0.500000	0.683860
O4741	O474	0.683870	0.500000	0.648850
Mn911	Mn91	0.228370	0.000000	0.683860
O4751	O475	0.183870	0.000000	0.648850
Mn921	Mn92	0.228370	0.500000	0.183860
O4761	O476	0.183870	0.500000	0.148850
Mn931	Mn93	0.728370	0.000000	0.816140
O4771	O477	0.683870	0.000000	0.851150
Mn941	Mn94	0.728370	0.500000	0.316140
O4781	O478	0.683870	0.500000	0.351150
Mn951	Mn95	0.228370	0.000000	0.316140
O4791	O479	0.183870	0.000000	0.351150
Mn961	Mn96	0.228370	0.500000	0.816140
O4801	O480	0.183870	0.500000	0.851150
