data_RAVFIF_freeONLY_PM
_symmetry_space_group_name_H-M	'P1'
_cell_length_a	15.673300
_cell_length_b	10.702800
_cell_length_c	23.263100
_cell_angle_alpha	90.000000
_cell_angle_beta	90.000000
_cell_angle_gamma	90.000000
_symmetry_Int_Tables_number 1

loop_
_symmetry_equiv_pos_as_xyz
'x,y,z'

loop_
_atom_site_label
_atom_site_type_symbol
_atom_site_fract_x
_atom_site_fract_y
_atom_site_fract_z
Yb11	Yb1	0.951890	0.030480	0.084340
C11	C1	0.093560	0.249800	0.202810
C21	C2	0.116920	0.202200	0.255980
H11	H1	0.099400	0.120600	0.267000
C31	C3	0.166230	0.274400	0.293400
C41	C4	0.192270	0.393700	0.276240
H21	H2	0.228100	0.441300	0.300800
C51	C5	0.166600	0.444000	0.223740
C61	C6	0.117070	0.371300	0.187400
H31	H3	0.098900	0.404400	0.151600
C71	C7	0.189600	0.578100	0.209250
H41	H4	0.147300	0.633800	0.227700
H51	H5	0.245900	0.596900	0.226600
C81	C8	0.193610	0.610000	0.145930
C91	C9	0.263930	0.573200	0.112800
H61	H6	0.308700	0.526900	0.130200
C101	C10	0.269020	0.603300	0.054810
C111	C11	0.203600	0.671300	0.029140
H71	H7	0.206000	0.689800	0.989200
C121	C12	0.134640	0.712400	0.061860
C131	C13	0.130530	0.680900	0.119790
H81	H8	0.083300	0.708600	0.142000
C141	C14	0.042490	0.174100	0.161490
C151	C15	0.192540	0.221700	0.350980
C161	C16	0.345280	0.567500	0.019360
C171	C17	0.069240	0.796300	0.034680
O11	O1	0.008030	0.226550	0.119440
O21	O2	0.034220	0.056080	0.169000
O31	O3	0.157720	0.122100	0.367450
O41	O4	0.248350	0.277100	0.379660
O51	O5	0.416120	0.554810	0.043360
O61	O6	0.333940	0.552040	0.965760
O71	O7	0.080140	0.822050	0.982440
O81	O8	0.009140	0.835220	0.065700
O91	O9	0.895330	0.882700	0.149200
H91	H9	0.909500	0.872000	0.185200
H101	H10	0.843300	0.854000	0.144200
Yb21	Yb2	0.548110	0.469520	0.584340
C181	C18	0.406440	0.250200	0.702810
C191	C19	0.383080	0.297800	0.755980
H111	H11	0.400600	0.379400	0.767000
C201	C20	0.333770	0.225600	0.793400
C211	C21	0.307730	0.106300	0.776240
H121	H12	0.271900	0.058700	0.800800
C221	C22	0.333400	0.056000	0.723740
C231	C23	0.382930	0.128700	0.687400
H131	H13	0.401100	0.095600	0.651600
C241	C24	0.310400	0.921900	0.709250
H141	H14	0.352700	0.866200	0.727700
H151	H15	0.254100	0.903100	0.726600
C251	C25	0.306390	0.890000	0.645930
C261	C26	0.236070	0.926800	0.612800
H161	H16	0.191300	0.973100	0.630200
C271	C27	0.230980	0.896700	0.554810
C281	C28	0.296400	0.828700	0.529140
H171	H17	0.294000	0.810200	0.489200
C291	C29	0.365360	0.787600	0.561860
C301	C30	0.369470	0.819100	0.619790
H181	H18	0.416700	0.791400	0.642000
C311	C31	0.457510	0.325900	0.661490
C321	C32	0.307460	0.278300	0.850980
C331	C33	0.154720	0.932500	0.519360
C341	C34	0.430760	0.703700	0.534680
O101	O10	0.491970	0.273450	0.619440
O111	O11	0.465780	0.443920	0.669000
O121	O12	0.342280	0.377900	0.867450
O131	O13	0.251650	0.222900	0.879660
O141	O14	0.083880	0.945190	0.543360
O151	O15	0.166060	0.947960	0.465760
O161	O16	0.419860	0.677950	0.482440
O171	O17	0.490860	0.664780	0.565700
O181	O18	0.604670	0.617300	0.649200
H191	H19	0.590500	0.628000	0.685200
H201	H20	0.656700	0.646000	0.644200
Yb31	Yb3	0.048110	0.030480	0.415660
C351	C35	0.906440	0.249800	0.297190
C361	C36	0.883080	0.202200	0.244020
H211	H21	0.900600	0.120600	0.233000
C371	C37	0.833770	0.274400	0.206600
C381	C38	0.807730	0.393700	0.223760
H221	H22	0.771900	0.441300	0.199200
C391	C39	0.833400	0.444000	0.276260
C401	C40	0.882930	0.371300	0.312600
H231	H23	0.901100	0.404400	0.348400
C411	C41	0.810400	0.578100	0.290750
H241	H24	0.852700	0.633800	0.272300
H251	H25	0.754100	0.596900	0.273400
C421	C42	0.806390	0.610000	0.354070
C431	C43	0.736070	0.573200	0.387200
H261	H26	0.691300	0.526900	0.369800
C441	C44	0.730980	0.603300	0.445190
C451	C45	0.796400	0.671300	0.470860
H271	H27	0.794000	0.689800	0.510800
C461	C46	0.865360	0.712400	0.438140
C471	C47	0.869470	0.680900	0.380210
H281	H28	0.916700	0.708600	0.358000
C481	C48	0.957510	0.174100	0.338510
C491	C49	0.807460	0.221700	0.149020
C501	C50	0.654720	0.567500	0.480640
C511	C51	0.930760	0.796300	0.465320
O191	O19	0.991970	0.226550	0.380560
O201	O20	0.965780	0.056080	0.331000
O211	O21	0.842280	0.122100	0.132550
O221	O22	0.751650	0.277100	0.120340
O231	O23	0.583880	0.554810	0.456640
O241	O24	0.666060	0.552040	0.534240
O251	O25	0.919860	0.822050	0.517560
O261	O26	0.990860	0.835220	0.434300
O271	O27	0.104670	0.882700	0.350800
H291	H29	0.090500	0.872000	0.314800
H301	H30	0.156700	0.854000	0.355800
Yb41	Yb4	0.451890	0.469520	0.915660
C521	C52	0.593560	0.250200	0.797190
C531	C53	0.616920	0.297800	0.744020
H311	H31	0.599400	0.379400	0.733000
C541	C54	0.666230	0.225600	0.706600
C551	C55	0.692270	0.106300	0.723760
H321	H32	0.728100	0.058700	0.699200
C561	C56	0.666600	0.056000	0.776260
C571	C57	0.617070	0.128700	0.812600
H331	H33	0.598900	0.095600	0.848400
C581	C58	0.689600	0.921900	0.790750
H341	H34	0.647300	0.866200	0.772300
H351	H35	0.745900	0.903100	0.773400
C591	C59	0.693610	0.890000	0.854070
C601	C60	0.763930	0.926800	0.887200
H361	H36	0.808700	0.973100	0.869800
C611	C61	0.769020	0.896700	0.945190
C621	C62	0.703600	0.828700	0.970860
H371	H37	0.706000	0.810200	0.010800
C631	C63	0.634640	0.787600	0.938140
C641	C64	0.630530	0.819100	0.880210
H381	H38	0.583300	0.791400	0.858000
C651	C65	0.542490	0.325900	0.838510
C661	C66	0.692540	0.278300	0.649020
C671	C67	0.845280	0.932500	0.980640
C681	C68	0.569240	0.703700	0.965320
O281	O28	0.508030	0.273450	0.880560
O291	O29	0.534220	0.443920	0.831000
O301	O30	0.657720	0.377900	0.632550
O311	O31	0.748350	0.222900	0.620340
O321	O32	0.916120	0.945190	0.956640
O331	O33	0.833940	0.947960	0.034240
O341	O34	0.580140	0.677950	0.017560
O351	O35	0.509140	0.664780	0.934300
O361	O36	0.395330	0.617300	0.850800
H391	H39	0.409500	0.628000	0.814800
H401	H40	0.343300	0.646000	0.855800
Yb51	Yb5	0.048110	0.969520	0.915660
C691	C69	0.906440	0.750200	0.797190
C701	C70	0.883080	0.797800	0.744020
H411	H41	0.900600	0.879400	0.733000
C711	C71	0.833770	0.725600	0.706600
C721	C72	0.807730	0.606300	0.723760
H421	H42	0.771900	0.558700	0.699200
C731	C73	0.833400	0.556000	0.776260
C741	C74	0.882930	0.628700	0.812600
H431	H43	0.901100	0.595600	0.848400
C751	C75	0.810400	0.421900	0.790750
H441	H44	0.852700	0.366200	0.772300
H451	H45	0.754100	0.403100	0.773400
C761	C76	0.806390	0.390000	0.854070
C771	C77	0.736070	0.426800	0.887200
H461	H46	0.691300	0.473100	0.869800
C781	C78	0.730980	0.396700	0.945190
C791	C79	0.796400	0.328700	0.970860
H471	H47	0.794000	0.310200	0.010800
C801	C80	0.865360	0.287600	0.938140
C811	C81	0.869470	0.319100	0.880210
H481	H48	0.916700	0.291400	0.858000
C821	C82	0.957510	0.825900	0.838510
C831	C83	0.807460	0.778300	0.649020
C841	C84	0.654720	0.432500	0.980640
C851	C85	0.930760	0.203700	0.965320
O371	O37	0.991970	0.773450	0.880560
O381	O38	0.965780	0.943920	0.831000
O391	O39	0.842280	0.877900	0.632550
O401	O40	0.751650	0.722900	0.620340
O411	O41	0.583880	0.445190	0.956640
O421	O42	0.666060	0.447960	0.034240
O431	O43	0.919860	0.177950	0.017560
O441	O44	0.990860	0.164780	0.934300
O451	O45	0.104670	0.117300	0.850800
H491	H49	0.090500	0.128000	0.814800
H501	H50	0.156700	0.146000	0.855800
Yb61	Yb6	0.451890	0.530480	0.415660
C861	C86	0.593560	0.749800	0.297190
C871	C87	0.616920	0.702200	0.244020
H511	H51	0.599400	0.620600	0.233000
C881	C88	0.666230	0.774400	0.206600
C891	C89	0.692270	0.893700	0.223760
H521	H52	0.728100	0.941300	0.199200
C901	C90	0.666600	0.944000	0.276260
C911	C91	0.617070	0.871300	0.312600
H531	H53	0.598900	0.904400	0.348400
C921	C92	0.689600	0.078100	0.290750
H541	H54	0.647300	0.133800	0.272300
H551	H55	0.745900	0.096900	0.273400
C931	C93	0.693610	0.110000	0.354070
C941	C94	0.763930	0.073200	0.387200
H561	H56	0.808700	0.026900	0.369800
C951	C95	0.769020	0.103300	0.445190
C961	C96	0.703600	0.171300	0.470860
H571	H57	0.706000	0.189800	0.510800
C971	C97	0.634640	0.212400	0.438140
C981	C98	0.630530	0.180900	0.380210
H581	H58	0.583300	0.208600	0.358000
C991	C99	0.542490	0.674100	0.338510
C1001	C100	0.692540	0.721700	0.149020
C1011	C101	0.845280	0.067500	0.480640
C1021	C102	0.569240	0.296300	0.465320
O461	O46	0.508030	0.726550	0.380560
O471	O47	0.534220	0.556080	0.331000
O481	O48	0.657720	0.622100	0.132550
O491	O49	0.748350	0.777100	0.120340
O501	O50	0.916120	0.054810	0.456640
O511	O51	0.833940	0.052040	0.534240
O521	O52	0.580140	0.322050	0.517560
O531	O53	0.509140	0.335220	0.434300
O541	O54	0.395330	0.382700	0.350800
H591	H59	0.409500	0.372000	0.314800
H601	H60	0.343300	0.354000	0.355800
Yb71	Yb7	0.951890	0.969520	0.584340
C1031	C103	0.093560	0.750200	0.702810
C1041	C104	0.116920	0.797800	0.755980
H611	H61	0.099400	0.879400	0.767000
C1051	C105	0.166230	0.725600	0.793400
C1061	C106	0.192270	0.606300	0.776240
H621	H62	0.228100	0.558700	0.800800
C1071	C107	0.166600	0.556000	0.723740
C1081	C108	0.117070	0.628700	0.687400
H631	H63	0.098900	0.595600	0.651600
C1091	C109	0.189600	0.421900	0.709250
H641	H64	0.147300	0.366200	0.727700
H651	H65	0.245900	0.403100	0.726600
C1101	C110	0.193610	0.390000	0.645930
C1111	C111	0.263930	0.426800	0.612800
H661	H66	0.308700	0.473100	0.630200
C1121	C112	0.269020	0.396700	0.554810
C1131	C113	0.203600	0.328700	0.529140
H671	H67	0.206000	0.310200	0.489200
C1141	C114	0.134640	0.287600	0.561860
C1151	C115	0.130530	0.319100	0.619790
H681	H68	0.083300	0.291400	0.642000
C1161	C116	0.042490	0.825900	0.661490
C1171	C117	0.192540	0.778300	0.850980
C1181	C118	0.345280	0.432500	0.519360
C1191	C119	0.069240	0.203700	0.534680
O551	O55	0.008030	0.773450	0.619440
O561	O56	0.034220	0.943920	0.669000
O571	O57	0.157720	0.877900	0.867450
O581	O58	0.248350	0.722900	0.879660
O591	O59	0.416120	0.445190	0.543360
O601	O60	0.333940	0.447960	0.465760
O611	O61	0.080140	0.177950	0.482440
O621	O62	0.009140	0.164780	0.565700
O631	O63	0.895330	0.117300	0.649200
H691	H69	0.909500	0.128000	0.685200
H701	H70	0.843300	0.146000	0.644200
Yb81	Yb8	0.548110	0.530480	0.084340
C1201	C120	0.406440	0.749800	0.202810
C1211	C121	0.383080	0.702200	0.255980
H711	H71	0.400600	0.620600	0.267000
C1221	C122	0.333770	0.774400	0.293400
C1231	C123	0.307730	0.893700	0.276240
H721	H72	0.271900	0.941300	0.300800
C1241	C124	0.333400	0.944000	0.223740
C1251	C125	0.382930	0.871300	0.187400
H731	H73	0.401100	0.904400	0.151600
C1261	C126	0.310400	0.078100	0.209250
H741	H74	0.352700	0.133800	0.227700
H751	H75	0.254100	0.096900	0.226600
C1271	C127	0.306390	0.110000	0.145930
C1281	C128	0.236070	0.073200	0.112800
H761	H76	0.191300	0.026900	0.130200
C1291	C129	0.230980	0.103300	0.054810
C1301	C130	0.296400	0.171300	0.029140
H771	H77	0.294000	0.189800	0.989200
C1311	C131	0.365360	0.212400	0.061860
C1321	C132	0.369470	0.180900	0.119790
H781	H78	0.416700	0.208600	0.142000
C1331	C133	0.457510	0.674100	0.161490
C1341	C134	0.307460	0.721700	0.350980
C1351	C135	0.154720	0.067500	0.019360
C1361	C136	0.430760	0.296300	0.034680
O641	O64	0.491970	0.726550	0.119440
O651	O65	0.465780	0.556080	0.169000
O661	O66	0.342280	0.622100	0.367450
O671	O67	0.251650	0.777100	0.379660
O681	O68	0.083880	0.054810	0.043360
O691	O69	0.166060	0.052040	0.965760
O701	O70	0.419860	0.322050	0.982440
O711	O71	0.490860	0.335220	0.065700
O721	O72	0.604670	0.382700	0.149200
H791	H79	0.590500	0.372000	0.185200
H801	H80	0.656700	0.354000	0.144200
