data_RAVFAX_freeONLY_PM
_symmetry_space_group_name_H-M	'P1'
_cell_length_a	15.734000
_cell_length_b	10.691400
_cell_length_c	23.326000
_cell_angle_alpha	90.000000
_cell_angle_beta	90.000000
_cell_angle_gamma	90.000000
_symmetry_Int_Tables_number 1

loop_
_symmetry_equiv_pos_as_xyz
'x,y,z'

loop_
_atom_site_label
_atom_site_type_symbol
_atom_site_fract_x
_atom_site_fract_y
_atom_site_fract_z
Er11	Er1	0.547640	0.969120	0.915940
O11	O1	0.465420	0.942200	0.830830
O21	O2	0.490340	0.772400	0.880620
O31	O3	0.342840	0.876300	0.632980
O41	O4	0.253100	0.721700	0.620690
O51	O5	0.167390	0.448700	0.034810
O61	O6	0.084310	0.446200	0.958250
O71	O7	0.420420	0.180700	0.017340
O81	O8	0.490100	0.166600	0.933760
O91	O9	0.604900	0.118200	0.850900
H11	H1	0.655000	0.149000	0.854000
H21	H2	0.596000	0.125000	0.822000
C11	C1	0.405800	0.749200	0.797190
C21	C2	0.381500	0.628300	0.812680
H31	H3	0.399000	0.595500	0.848700
C31	C3	0.332400	0.555200	0.776580
C41	C4	0.307300	0.605100	0.724100
H41	H4	0.271500	0.557600	0.699600
C51	C5	0.334000	0.723800	0.706850
C61	C6	0.383500	0.796400	0.743920
H51	H5	0.401700	0.877500	0.732700
C71	C7	0.307800	0.421900	0.791250
H61	H6	0.251300	0.404600	0.774300
H71	H7	0.349100	0.364800	0.772700
C81	C8	0.304100	0.390400	0.854270
C91	C9	0.234500	0.426800	0.887570
H81	H8	0.189300	0.472300	0.870300
C101	C10	0.230300	0.397500	0.945480
C111	C11	0.296400	0.329300	0.970910
H91	H9	0.294600	0.310900	0.010700
C121	C12	0.364300	0.288700	0.937890
C131	C13	0.368100	0.320000	0.880240
H101	H10	0.415200	0.293000	0.858000
C141	C14	0.456800	0.825000	0.838850
C151	C15	0.308600	0.776800	0.649520
C161	C16	0.155400	0.433300	0.981450
C171	C17	0.430500	0.205900	0.965190
Er21	Er2	0.952360	0.530880	0.415940
O101	O10	0.034580	0.557800	0.330830
O111	O11	0.009660	0.727600	0.380620
O121	O12	0.157160	0.623700	0.132980
O131	O13	0.246900	0.778300	0.120690
O141	O14	0.332610	0.051300	0.534810
O151	O15	0.415690	0.053800	0.458250
O161	O16	0.079580	0.319300	0.517340
O171	O17	0.009900	0.333400	0.433760
O181	O18	0.895100	0.381800	0.350900
H111	H11	0.845000	0.351000	0.354000
H121	H12	0.904000	0.375000	0.322000
C181	C18	0.094200	0.750800	0.297190
C191	C19	0.118500	0.871700	0.312680
H131	H13	0.101000	0.904500	0.348700
C201	C20	0.167600	0.944800	0.276580
C211	C21	0.192700	0.894900	0.224100
H141	H14	0.228500	0.942400	0.199600
C221	C22	0.166000	0.776200	0.206850
C231	C23	0.116500	0.703600	0.243920
H151	H15	0.098300	0.622500	0.232700
C241	C24	0.192200	0.078100	0.291250
H161	H16	0.248700	0.095400	0.274300
H171	H17	0.150900	0.135200	0.272700
C251	C25	0.195900	0.109600	0.354270
C261	C26	0.265500	0.073200	0.387570
H181	H18	0.310700	0.027700	0.370300
C271	C27	0.269700	0.102500	0.445480
C281	C28	0.203600	0.170700	0.470910
H191	H19	0.205400	0.189100	0.510700
C291	C29	0.135700	0.211300	0.437890
C301	C30	0.131900	0.180000	0.380240
H201	H20	0.084800	0.207000	0.358000
C311	C31	0.043200	0.675000	0.338850
C321	C32	0.191400	0.723200	0.149520
C331	C33	0.344600	0.066700	0.481450
C341	C34	0.069500	0.294100	0.465190
Er31	Er3	0.452360	0.969120	0.584060
O191	O19	0.534580	0.942200	0.669170
O201	O20	0.509660	0.772400	0.619380
O211	O21	0.657160	0.876300	0.867020
O221	O22	0.746900	0.721700	0.879310
O231	O23	0.832610	0.448700	0.465190
O241	O24	0.915690	0.446200	0.541750
O251	O25	0.579580	0.180700	0.482660
O261	O26	0.509900	0.166600	0.566240
O271	O27	0.395100	0.118200	0.649100
H211	H21	0.345000	0.149000	0.646000
H221	H22	0.404000	0.125000	0.678000
C351	C35	0.594200	0.749200	0.702810
C361	C36	0.618500	0.628300	0.687320
H231	H23	0.601000	0.595500	0.651300
C371	C37	0.667600	0.555200	0.723420
C381	C38	0.692700	0.605100	0.775900
H241	H24	0.728500	0.557600	0.800400
C391	C39	0.666000	0.723800	0.793150
C401	C40	0.616500	0.796400	0.756080
H251	H25	0.598300	0.877500	0.767300
C411	C41	0.692200	0.421900	0.708750
H261	H26	0.748700	0.404600	0.725700
H271	H27	0.650900	0.364800	0.727300
C421	C42	0.695900	0.390400	0.645730
C431	C43	0.765500	0.426800	0.612430
H281	H28	0.810700	0.472300	0.629700
C441	C44	0.769700	0.397500	0.554520
C451	C45	0.703600	0.329300	0.529090
H291	H29	0.705400	0.310900	0.489300
C461	C46	0.635700	0.288700	0.562110
C471	C47	0.631900	0.320000	0.619760
H301	H30	0.584800	0.293000	0.642000
C481	C48	0.543200	0.825000	0.661150
C491	C49	0.691400	0.776800	0.850480
C501	C50	0.844600	0.433300	0.518550
C511	C51	0.569500	0.205900	0.534810
Er41	Er4	0.047640	0.530880	0.084060
O281	O28	0.965420	0.557800	0.169170
O291	O29	0.990340	0.727600	0.119380
O301	O30	0.842840	0.623700	0.367020
O311	O31	0.753100	0.778300	0.379310
O321	O32	0.667390	0.051300	0.965190
O331	O33	0.584310	0.053800	0.041750
O341	O34	0.920420	0.319300	0.982660
O351	O35	0.990100	0.333400	0.066240
O361	O36	0.104900	0.381800	0.149100
H311	H31	0.155000	0.351000	0.146000
H321	H32	0.096000	0.375000	0.178000
C521	C52	0.905800	0.750800	0.202810
C531	C53	0.881500	0.871700	0.187320
H331	H33	0.899000	0.904500	0.151300
C541	C54	0.832400	0.944800	0.223420
C551	C55	0.807300	0.894900	0.275900
H341	H34	0.771500	0.942400	0.300400
C561	C56	0.834000	0.776200	0.293150
C571	C57	0.883500	0.703600	0.256080
H351	H35	0.901700	0.622500	0.267300
C581	C58	0.807800	0.078100	0.208750
H361	H36	0.751300	0.095400	0.225700
H371	H37	0.849100	0.135200	0.227300
C591	C59	0.804100	0.109600	0.145730
C601	C60	0.734500	0.073200	0.112430
H381	H38	0.689300	0.027700	0.129700
C611	C61	0.730300	0.102500	0.054520
C621	C62	0.796400	0.170700	0.029090
H391	H39	0.794600	0.189100	0.989300
C631	C63	0.864300	0.211300	0.062110
C641	C64	0.868100	0.180000	0.119760
H401	H40	0.915200	0.207000	0.142000
C651	C65	0.956800	0.675000	0.161150
C661	C66	0.808600	0.723200	0.350480
C671	C67	0.655400	0.066700	0.018550
C681	C68	0.930500	0.294100	0.034810
Er51	Er5	0.452360	0.030880	0.084060
O371	O37	0.534580	0.057800	0.169170
O381	O38	0.509660	0.227600	0.119380
O391	O39	0.657160	0.123700	0.367020
O401	O40	0.746900	0.278300	0.379310
O411	O41	0.832610	0.551300	0.965190
O421	O42	0.915690	0.553800	0.041750
O431	O43	0.579580	0.819300	0.982660
O441	O44	0.509900	0.833400	0.066240
O451	O45	0.395100	0.881800	0.149100
H411	H41	0.345000	0.851000	0.146000
H421	H42	0.404000	0.875000	0.178000
C691	C69	0.594200	0.250800	0.202810
C701	C70	0.618500	0.371700	0.187320
H431	H43	0.601000	0.404500	0.151300
C711	C71	0.667600	0.444800	0.223420
C721	C72	0.692700	0.394900	0.275900
H441	H44	0.728500	0.442400	0.300400
C731	C73	0.666000	0.276200	0.293150
C741	C74	0.616500	0.203600	0.256080
H451	H45	0.598300	0.122500	0.267300
C751	C75	0.692200	0.578100	0.208750
H461	H46	0.748700	0.595400	0.225700
H471	H47	0.650900	0.635200	0.227300
C761	C76	0.695900	0.609600	0.145730
C771	C77	0.765500	0.573200	0.112430
H481	H48	0.810700	0.527700	0.129700
C781	C78	0.769700	0.602500	0.054520
C791	C79	0.703600	0.670700	0.029090
H491	H49	0.705400	0.689100	0.989300
C801	C80	0.635700	0.711300	0.062110
C811	C81	0.631900	0.680000	0.119760
H501	H50	0.584800	0.707000	0.142000
C821	C82	0.543200	0.175000	0.161150
C831	C83	0.691400	0.223200	0.350480
C841	C84	0.844600	0.566700	0.018550
C851	C85	0.569500	0.794100	0.034810
Er61	Er6	0.047640	0.469120	0.584060
O461	O46	0.965420	0.442200	0.669170
O471	O47	0.990340	0.272400	0.619380
O481	O48	0.842840	0.376300	0.867020
O491	O49	0.753100	0.221700	0.879310
O501	O50	0.667390	0.948700	0.465190
O511	O51	0.584310	0.946200	0.541750
O521	O52	0.920420	0.680700	0.482660
O531	O53	0.990100	0.666600	0.566240
O541	O54	0.104900	0.618200	0.649100
H511	H51	0.155000	0.649000	0.646000
H521	H52	0.096000	0.625000	0.678000
C861	C86	0.905800	0.249200	0.702810
C871	C87	0.881500	0.128300	0.687320
H531	H53	0.899000	0.095500	0.651300
C881	C88	0.832400	0.055200	0.723420
C891	C89	0.807300	0.105100	0.775900
H541	H54	0.771500	0.057600	0.800400
C901	C90	0.834000	0.223800	0.793150
C911	C91	0.883500	0.296400	0.756080
H551	H55	0.901700	0.377500	0.767300
C921	C92	0.807800	0.921900	0.708750
H561	H56	0.751300	0.904600	0.725700
H571	H57	0.849100	0.864800	0.727300
C931	C93	0.804100	0.890400	0.645730
C941	C94	0.734500	0.926800	0.612430
H581	H58	0.689300	0.972300	0.629700
C951	C95	0.730300	0.897500	0.554520
C961	C96	0.796400	0.829300	0.529090
H591	H59	0.794600	0.810900	0.489300
C971	C97	0.864300	0.788700	0.562110
C981	C98	0.868100	0.820000	0.619760
H601	H60	0.915200	0.793000	0.642000
C991	C99	0.956800	0.325000	0.661150
C1001	C100	0.808600	0.276800	0.850480
C1011	C101	0.655400	0.933300	0.518550
C1021	C102	0.930500	0.705900	0.534810
Er71	Er7	0.547640	0.030880	0.415940
O551	O55	0.465420	0.057800	0.330830
O561	O56	0.490340	0.227600	0.380620
O571	O57	0.342840	0.123700	0.132980
O581	O58	0.253100	0.278300	0.120690
O591	O59	0.167390	0.551300	0.534810
O601	O60	0.084310	0.553800	0.458250
O611	O61	0.420420	0.819300	0.517340
O621	O62	0.490100	0.833400	0.433760
O631	O63	0.604900	0.881800	0.350900
H611	H61	0.655000	0.851000	0.354000
H621	H62	0.596000	0.875000	0.322000
C1031	C103	0.405800	0.250800	0.297190
C1041	C104	0.381500	0.371700	0.312680
H631	H63	0.399000	0.404500	0.348700
C1051	C105	0.332400	0.444800	0.276580
C1061	C106	0.307300	0.394900	0.224100
H641	H64	0.271500	0.442400	0.199600
C1071	C107	0.334000	0.276200	0.206850
C1081	C108	0.383500	0.203600	0.243920
H651	H65	0.401700	0.122500	0.232700
C1091	C109	0.307800	0.578100	0.291250
H661	H66	0.251300	0.595400	0.274300
H671	H67	0.349100	0.635200	0.272700
C1101	C110	0.304100	0.609600	0.354270
C1111	C111	0.234500	0.573200	0.387570
H681	H68	0.189300	0.527700	0.370300
C1121	C112	0.230300	0.602500	0.445480
C1131	C113	0.296400	0.670700	0.470910
H691	H69	0.294600	0.689100	0.510700
C1141	C114	0.364300	0.711300	0.437890
C1151	C115	0.368100	0.680000	0.380240
H701	H70	0.415200	0.707000	0.358000
C1161	C116	0.456800	0.175000	0.338850
C1171	C117	0.308600	0.223200	0.149520
C1181	C118	0.155400	0.566700	0.481450
C1191	C119	0.430500	0.794100	0.465190
Er81	Er8	0.952360	0.469120	0.915940
O641	O64	0.034580	0.442200	0.830830
O651	O65	0.009660	0.272400	0.880620
O661	O66	0.157160	0.376300	0.632980
O671	O67	0.246900	0.221700	0.620690
O681	O68	0.332610	0.948700	0.034810
O691	O69	0.415690	0.946200	0.958250
O701	O70	0.079580	0.680700	0.017340
O711	O71	0.009900	0.666600	0.933760
O721	O72	0.895100	0.618200	0.850900
H711	H71	0.845000	0.649000	0.854000
H721	H72	0.904000	0.625000	0.822000
C1201	C120	0.094200	0.249200	0.797190
C1211	C121	0.118500	0.128300	0.812680
H731	H73	0.101000	0.095500	0.848700
C1221	C122	0.167600	0.055200	0.776580
C1231	C123	0.192700	0.105100	0.724100
H741	H74	0.228500	0.057600	0.699600
C1241	C124	0.166000	0.223800	0.706850
C1251	C125	0.116500	0.296400	0.743920
H751	H75	0.098300	0.377500	0.732700
C1261	C126	0.192200	0.921900	0.791250
H761	H76	0.248700	0.904600	0.774300
H771	H77	0.150900	0.864800	0.772700
C1271	C127	0.195900	0.890400	0.854270
C1281	C128	0.265500	0.926800	0.887570
H781	H78	0.310700	0.972300	0.870300
C1291	C129	0.269700	0.897500	0.945480
C1301	C130	0.203600	0.829300	0.970910
H791	H79	0.205400	0.810900	0.010700
C1311	C131	0.135700	0.788700	0.937890
C1321	C132	0.131900	0.820000	0.880240
H801	H80	0.084800	0.793000	0.858000
C1331	C133	0.043200	0.325000	0.838850
C1341	C134	0.191400	0.276800	0.649520
C1351	C135	0.344600	0.933300	0.981450
C1361	C136	0.069500	0.705900	0.965190
