data_RAVKEG_freeONLY_PM
_symmetry_space_group_name_H-M	'P1'
_cell_length_a	11.443000
_cell_length_b	9.828000
_cell_length_c	19.074000
_cell_angle_alpha	90.000000
_cell_angle_beta	107.249000
_cell_angle_gamma	90.000000
_symmetry_Int_Tables_number 1

loop_
_symmetry_equiv_pos_as_xyz
'x,y,z'

loop_
_atom_site_label
_atom_site_type_symbol
_atom_site_fract_x
_atom_site_fract_y
_atom_site_fract_z
Cd11	Cd1	0.349850	0.317900	0.741520
C11	C1	0.068700	0.259400	0.649800
H11	H1	0.109600	0.209000	0.621600
C21	C2	0.943800	0.256700	0.628400
H21	H2	0.899900	0.205500	0.586700
C31	C3	0.882400	0.329200	0.668100
C41	C4	0.951200	0.399300	0.728000
H31	H3	0.912200	0.451200	0.756700
C51	C5	0.076900	0.394800	0.746900
H41	H4	0.122700	0.441400	0.789900
C61	C6	0.744700	0.330700	0.644100
H51	H5	0.716200	0.391600	0.677000
H61	H6	0.715200	0.368600	0.593800
C71	C7	0.636800	0.119200	0.585200
H71	H7	0.624800	0.142200	0.535200
C81	C8	0.602900	0.003000	0.611100
H81	H8	0.561100	0.929700	0.581700
C91	C9	0.690800	0.125400	0.705300
C101	C10	0.742500	0.175600	0.781100
H91	H9	0.732000	0.106300	0.815700
H101	H10	0.700100	0.259200	0.787500
H111	H11	0.829900	0.194700	0.790400
C111	C11	0.421800	0.392800	0.495400
H121	H12	0.366700	0.319100	0.492000
C121	C12	0.460400	0.465800	0.560500
C131	C13	0.538800	0.576200	0.564500
C141	C14	0.420000	0.420100	0.624900
C151	C15	0.576600	0.665400	0.631000
N11	N1	0.137100	0.328400	0.707800
N21	N2	0.691600	0.197200	0.644600
N31	N3	0.638300	0.006700	0.686400
O11	O1	0.497900	0.410600	0.686800
O21	O2	0.362100	0.104300	0.692800
H131	H13	0.374000	0.044300	0.726200
H141	H14	0.422200	0.102300	0.675200
O31	O3	0.310200	0.386100	0.614700
O41	O4	0.688200	0.682000	0.661000
O51	O5	0.496500	0.717000	0.654200
Cd21	Cd2	0.650150	0.817900	0.758480
C161	C16	0.931300	0.759400	0.850200
H151	H15	0.890400	0.709000	0.878400
C171	C17	0.056200	0.756700	0.871600
H161	H16	0.100100	0.705500	0.913300
C181	C18	0.117600	0.829200	0.831900
C191	C19	0.048800	0.899300	0.772000
H171	H17	0.087800	0.951200	0.743300
C201	C20	0.923100	0.894800	0.753100
H181	H18	0.877300	0.941400	0.710100
C211	C21	0.255300	0.830700	0.855900
H191	H19	0.283800	0.891600	0.823000
H201	H20	0.284800	0.868600	0.906200
C221	C22	0.363200	0.619200	0.914800
H211	H21	0.375200	0.642200	0.964800
C231	C23	0.397100	0.503000	0.888900
H221	H22	0.438900	0.429700	0.918300
C241	C24	0.309200	0.625400	0.794700
C251	C25	0.257500	0.675600	0.718900
H231	H23	0.268000	0.606300	0.684300
H241	H24	0.299900	0.759200	0.712500
H251	H25	0.170100	0.694700	0.709600
C261	C26	0.578200	0.892800	0.004600
H261	H26	0.633300	0.819100	0.008000
C271	C27	0.539600	0.965800	0.939500
C281	C28	0.461200	0.076200	0.935500
C291	C29	0.580000	0.920100	0.875100
C301	C30	0.423400	0.165400	0.869000
N41	N4	0.862900	0.828400	0.792200
N51	N5	0.308400	0.697200	0.855400
N61	N6	0.361700	0.506700	0.813600
O61	O6	0.502100	0.910600	0.813200
O71	O7	0.637900	0.604300	0.807200
H271	H27	0.626000	0.544300	0.773800
H281	H28	0.577800	0.602300	0.824800
O81	O8	0.689800	0.886100	0.885300
O91	O9	0.311800	0.182000	0.839000
O101	O10	0.503500	0.217000	0.845800
Cd31	Cd3	0.650150	0.682100	0.258480
C311	C31	0.931300	0.740600	0.350200
H291	H29	0.890400	0.791000	0.378400
C321	C32	0.056200	0.743300	0.371600
H301	H30	0.100100	0.794500	0.413300
C331	C33	0.117600	0.670800	0.331900
C341	C34	0.048800	0.600700	0.272000
H311	H31	0.087800	0.548800	0.243300
C351	C35	0.923100	0.605200	0.253100
H321	H32	0.877300	0.558600	0.210100
C361	C36	0.255300	0.669300	0.355900
H331	H33	0.283800	0.608400	0.323000
H341	H34	0.284800	0.631400	0.406200
C371	C37	0.363200	0.880800	0.414800
H351	H35	0.375200	0.857800	0.464800
C381	C38	0.397100	0.997000	0.388900
H361	H36	0.438900	0.070300	0.418300
C391	C39	0.309200	0.874600	0.294700
C401	C40	0.257500	0.824400	0.218900
H371	H37	0.268000	0.893700	0.184300
H381	H38	0.299900	0.740800	0.212500
H391	H39	0.170100	0.805300	0.209600
C411	C41	0.578200	0.607200	0.504600
H401	H40	0.633300	0.680900	0.508000
C421	C42	0.539600	0.534200	0.439500
C431	C43	0.461200	0.423800	0.435500
C441	C44	0.580000	0.579900	0.375100
C451	C45	0.423400	0.334600	0.369000
N71	N7	0.862900	0.671600	0.292200
N81	N8	0.308400	0.802800	0.355400
N91	N9	0.361700	0.993300	0.313600
O111	O11	0.502100	0.589400	0.313200
O121	O12	0.637900	0.895700	0.307200
H411	H41	0.626000	0.955700	0.273800
H421	H42	0.577800	0.897700	0.324800
O131	O13	0.689800	0.613900	0.385300
O141	O14	0.311800	0.318000	0.339000
O151	O15	0.503500	0.283000	0.345800
Cd41	Cd4	0.349850	0.182100	0.241520
C461	C46	0.068700	0.240600	0.149800
H431	H43	0.109600	0.291000	0.121600
C471	C47	0.943800	0.243300	0.128400
H441	H44	0.899900	0.294500	0.086700
C481	C48	0.882400	0.170800	0.168100
C491	C49	0.951200	0.100700	0.228000
H451	H45	0.912200	0.048800	0.256700
C501	C50	0.076900	0.105200	0.246900
H461	H46	0.122700	0.058600	0.289900
C511	C51	0.744700	0.169300	0.144100
H471	H47	0.716200	0.108400	0.177000
H481	H48	0.715200	0.131400	0.093800
C521	C52	0.636800	0.380800	0.085200
H491	H49	0.624800	0.357800	0.035200
C531	C53	0.602900	0.497000	0.111100
H501	H50	0.561100	0.570300	0.081700
C541	C54	0.690800	0.374600	0.205300
C551	C55	0.742500	0.324400	0.281100
H511	H51	0.732000	0.393700	0.315700
H521	H52	0.700100	0.240800	0.287500
H531	H53	0.829900	0.305300	0.290400
C561	C56	0.421800	0.107200	0.995400
H541	H54	0.366700	0.180900	0.992000
C571	C57	0.460400	0.034200	0.060500
C581	C58	0.538800	0.923800	0.064500
C591	C59	0.420000	0.079900	0.124900
C601	C60	0.576600	0.834600	0.131000
N101	N10	0.137100	0.171600	0.207800
N111	N11	0.691600	0.302800	0.144600
N121	N12	0.638300	0.493300	0.186400
O161	O16	0.497900	0.089400	0.186800
O171	O17	0.362100	0.395700	0.192800
H551	H55	0.374000	0.455700	0.226200
H561	H56	0.422200	0.397700	0.175200
O181	O18	0.310200	0.113900	0.114700
O191	O19	0.688200	0.818000	0.161000
O201	O20	0.496500	0.783000	0.154200
