data_RAVWOC_freeONLY_PM
_symmetry_space_group_name_H-M	'P1'
_cell_length_a	6.461850
_cell_length_b	39.871500
_cell_length_c	39.871500
_cell_angle_alpha	60.289200
_cell_angle_beta	86.903200
_cell_angle_gamma	93.096800
_symmetry_Int_Tables_number 1

loop_
_symmetry_equiv_pos_as_xyz
'x,y,z'

loop_
_atom_site_label
_atom_site_type_symbol
_atom_site_fract_x
_atom_site_fract_y
_atom_site_fract_z
Mg11	Mg1	0.869310	0.638190	0.672900
Mg21	Mg2	0.542210	0.672900	0.688910
Mg31	Mg3	0.231120	0.688910	0.638190
Mg41	Mg4	0.130690	0.361810	0.327100
Mg51	Mg5	0.457790	0.327100	0.311090
Mg61	Mg6	0.768880	0.311090	0.361810
H11	H1	0.862970	0.571970	0.723020
H21	H2	0.861800	0.625520	0.592310
H31	H3	0.559580	0.578980	0.624010
H41	H4	0.336360	0.553880	0.592370
H51	H5	0.939180	0.513620	0.622070
H61	H6	0.707020	0.592910	0.490550
H71	H7	0.334740	0.495490	0.560050
H81	H8	0.890030	0.649330	0.481330
H91	H9	0.859310	0.652260	0.524820
H101	H10	0.661130	0.455830	0.584890
H111	H11	0.874780	0.455490	0.611640
H121	H12	0.617310	0.461640	0.626730
H131	H13	0.005250	0.522070	0.459640
H141	H14	0.998190	0.549450	0.483720
H151	H15	0.950220	0.576360	0.684240
H161	H16	0.237870	0.620270	0.366920
H171	H17	0.154930	0.578880	0.393420
H181	H18	0.154980	0.558420	0.458520
H191	H19	0.147610	0.605310	0.436020
H201	H20	0.585990	0.723020	0.705010
H211	H21	0.454110	0.592310	0.782170
H221	H22	0.183590	0.624010	0.797010
H231	H23	0.928730	0.592370	0.853750
H241	H24	0.561250	0.622070	0.864310
H251	H25	0.197570	0.490550	0.916540
H261	H26	0.894790	0.560050	0.944460
H271	H27	0.371360	0.481330	0.869340
H281	H28	0.384130	0.524820	0.822920
H291	H29	0.246020	0.584890	0.959280
H301	H30	0.486420	0.611640	0.932870
H311	H31	0.244040	0.626730	0.911630
H321	H32	0.464890	0.459640	0.018290
H331	H33	0.481910	0.483720	0.966830
H341	H34	0.634460	0.684240	0.739400
H351	H35	0.604790	0.366920	0.012810
H361	H36	0.548350	0.393420	0.027700
H371	H37	0.613500	0.458520	0.983060
H381	H38	0.583630	0.436020	0.958670
H391	H39	0.291000	0.705010	0.571970
H401	H40	0.236280	0.782170	0.625520
H411	H41	0.980600	0.797010	0.578980
H421	H42	0.782480	0.853750	0.553880
H431	H43	0.425560	0.864310	0.513620
H441	H44	0.114110	0.916540	0.592910
H451	H45	0.839250	0.944460	0.495490
H461	H46	0.240700	0.869340	0.649330
H471	H47	0.207050	0.822920	0.652260
H481	H48	0.205300	0.959280	0.455830
H491	H49	0.419290	0.932870	0.455490
H501	H50	0.155670	0.911630	0.461640
H511	H51	0.483180	0.018290	0.522070
H521	H52	0.448740	0.966830	0.549450
H531	H53	0.373860	0.739400	0.576360
H541	H54	0.617600	0.012810	0.620270
H551	H55	0.576050	0.027700	0.578880
H561	H56	0.596560	0.983060	0.558420
H571	H57	0.542300	0.958670	0.605310
H581	H58	0.137030	0.428030	0.276980
H591	H59	0.138200	0.374480	0.407690
H601	H60	0.440420	0.421020	0.375990
H611	H61	0.663640	0.446120	0.407630
H621	H62	0.060820	0.486380	0.377930
H631	H63	0.292980	0.407090	0.509450
H641	H64	0.665260	0.504510	0.439950
H651	H65	0.109970	0.350670	0.518670
H661	H66	0.140690	0.347740	0.475180
H671	H67	0.338870	0.544170	0.415110
H681	H68	0.125220	0.544510	0.388360
H691	H69	0.382690	0.538360	0.373270
H701	H70	0.994750	0.477930	0.540360
H711	H71	0.001810	0.450550	0.516280
H721	H72	0.049780	0.423640	0.315760
H731	H73	0.762130	0.379730	0.633080
H741	H74	0.845070	0.421120	0.606580
H751	H75	0.845020	0.441580	0.541480
H761	H76	0.852390	0.394690	0.563980
H771	H77	0.414010	0.276980	0.294990
H781	H78	0.545890	0.407690	0.217830
H791	H79	0.816410	0.375990	0.202990
H801	H80	0.071270	0.407630	0.146250
H811	H81	0.438750	0.377930	0.135690
H821	H82	0.802430	0.509450	0.083460
H831	H83	0.105210	0.439950	0.055540
H841	H84	0.628640	0.518670	0.130660
H851	H85	0.615870	0.475180	0.177080
H861	H86	0.753980	0.415110	0.040720
H871	H87	0.513580	0.388360	0.067130
H881	H88	0.755960	0.373270	0.088370
H891	H89	0.535110	0.540360	0.981710
H901	H90	0.518090	0.516280	0.033170
H911	H91	0.365540	0.315760	0.260600
H921	H92	0.395210	0.633080	0.987190
H931	H93	0.451650	0.606580	0.972300
H941	H94	0.386500	0.541480	0.016940
H951	H95	0.416370	0.563980	0.041330
H961	H96	0.709000	0.294990	0.428030
H971	H97	0.763720	0.217830	0.374480
H981	H98	0.019400	0.202990	0.421020
H991	H99	0.217520	0.146250	0.446120
H1001	H100	0.574440	0.135690	0.486380
H1011	H101	0.885890	0.083460	0.407090
H1021	H102	0.160750	0.055540	0.504510
H1031	H103	0.759300	0.130660	0.350670
H1041	H104	0.792950	0.177080	0.347740
H1051	H105	0.794700	0.040720	0.544170
H1061	H106	0.580710	0.067130	0.544510
H1071	H107	0.844330	0.088370	0.538360
H1081	H108	0.516820	0.981710	0.477930
H1091	H109	0.551260	0.033170	0.450550
H1101	H110	0.626140	0.260600	0.423640
H1111	H111	0.382400	0.987190	0.379730
H1121	H112	0.423950	0.972300	0.421120
H1131	H113	0.403440	0.016940	0.441580
H1141	H114	0.457700	0.041330	0.394690
C11	C1	0.483130	0.631770	0.646200
C21	C2	0.340890	0.617860	0.626470
C31	C3	0.138310	0.630100	0.617710
C41	C4	0.014130	0.615400	0.599320
C51	C5	0.082660	0.587930	0.590180
C61	C6	0.280540	0.575220	0.599250
C71	C7	0.408110	0.589950	0.617070
C81	C8	0.944920	0.571110	0.572610
C91	C9	0.876350	0.593910	0.535320
C101	C10	0.757680	0.575690	0.519320
C111	C11	0.711560	0.535150	0.539080
C121	C12	0.773410	0.512580	0.577110
C131	C13	0.888530	0.530930	0.593300
C141	C14	0.605670	0.517340	0.518630
C151	C15	0.407300	0.497340	0.533880
C161	C16	0.698450	0.520370	0.483980
C171	C17	0.936850	0.637030	0.511360
C181	C18	0.728080	0.469030	0.601180
C191	C19	0.910000	0.541370	0.465230
C201	C20	0.046180	0.579670	0.438460
C211	C21	0.138950	0.605930	0.396020
C221	C22	0.129330	0.646200	0.722030
C231	C23	0.967360	0.626470	0.755670
C241	C24	0.756020	0.617710	0.752190
C251	C25	0.613450	0.599320	0.785280
C261	C26	0.672840	0.590180	0.821890
C271	C27	0.879790	0.599250	0.825530
C281	C28	0.025180	0.617070	0.792980
C291	C29	0.517530	0.572610	0.856280
C301	C30	0.411670	0.535320	0.870770
C311	C31	0.277000	0.519320	0.904990
C321	C32	0.250640	0.539080	0.925770
C331	C33	0.350520	0.577110	0.910310
C341	C34	0.481830	0.593300	0.875770
C351	C35	0.124300	0.518630	0.964030
C361	C36	0.941180	0.533880	0.968780
C371	C37	0.182430	0.483980	0.995650
C381	C38	0.448210	0.511360	0.851610
C391	C39	0.329260	0.601180	0.929790
C401	C40	0.375230	0.465230	0.993400
C411	C41	0.484640	0.438460	0.981870
C421	C42	0.534970	0.396020	0.998050
C431	C43	0.851360	0.722030	0.631770
C441	C44	0.723030	0.755670	0.617860
C451	C45	0.508210	0.752190	0.630100
C461	C46	0.398730	0.785280	0.615400
C471	C47	0.494730	0.821890	0.587930
C481	C48	0.705320	0.825530	0.575220
C491	C49	0.818160	0.792980	0.589950
C501	C50	0.373810	0.856280	0.571110
C511	C51	0.282440	0.870770	0.593910
C521	C52	0.181990	0.904990	0.575690
C531	C53	0.176410	0.925770	0.535150
C541	C54	0.260830	0.910310	0.512580
C551	C55	0.357600	0.875770	0.530930
C561	C56	0.088330	0.964030	0.517340
C571	C57	0.909960	0.968780	0.497340
C581	C58	0.178080	0.995650	0.520370
C591	C59	0.299820	0.851610	0.637030
C601	C60	0.259050	0.929790	0.469030
C611	C61	0.368630	0.993400	0.541370
C621	C62	0.466510	0.981870	0.579670
C631	C63	0.533020	0.998050	0.605930
C641	C64	0.516870	0.368230	0.353800
C651	C65	0.659110	0.382140	0.373530
C661	C66	0.861690	0.369900	0.382290
C671	C67	0.985870	0.384600	0.400680
C681	C68	0.917340	0.412070	0.409820
C691	C69	0.719460	0.424780	0.400750
C701	C70	0.591890	0.410050	0.382930
C711	C71	0.055080	0.428890	0.427390
C721	C72	0.123650	0.406090	0.464680
C731	C73	0.242320	0.424310	0.480680
C741	C74	0.288440	0.464850	0.460920
C751	C75	0.226590	0.487420	0.422890
C761	C76	0.111470	0.469070	0.406700
C771	C77	0.394330	0.482660	0.481370
C781	C78	0.592700	0.502660	0.466120
C791	C79	0.301550	0.479630	0.516020
C801	C80	0.063150	0.362970	0.488640
C811	C81	0.271920	0.530970	0.398820
C821	C82	0.090000	0.458630	0.534770
C831	C83	0.953820	0.420330	0.561540
C841	C84	0.861050	0.394070	0.603980
C851	C85	0.870670	0.353800	0.277970
C861	C86	0.032640	0.373530	0.244330
C871	C87	0.243980	0.382290	0.247810
C881	C88	0.386550	0.400680	0.214720
C891	C89	0.327160	0.409820	0.178110
C901	C90	0.120210	0.400750	0.174470
C911	C91	0.974820	0.382930	0.207020
C921	C92	0.482470	0.427390	0.143720
C931	C93	0.588330	0.464680	0.129230
C941	C94	0.723000	0.480680	0.095010
C951	C95	0.749360	0.460920	0.074230
C961	C96	0.649480	0.422890	0.089690
C971	C97	0.518170	0.406700	0.124230
C981	C98	0.875700	0.481370	0.035970
C991	C99	0.058820	0.466120	0.031220
C1001	C100	0.817570	0.516020	0.004350
C1011	C101	0.551790	0.488640	0.148390
C1021	C102	0.670740	0.398820	0.070210
C1031	C103	0.624770	0.534770	0.006600
C1041	C104	0.515360	0.561540	0.018130
C1051	C105	0.465030	0.603980	0.001950
C1061	C106	0.148640	0.277970	0.368230
C1071	C107	0.276970	0.244330	0.382140
C1081	C108	0.491790	0.247810	0.369900
C1091	C109	0.601270	0.214720	0.384600
C1101	C110	0.505270	0.178110	0.412070
C1111	C111	0.294680	0.174470	0.424780
C1121	C112	0.181840	0.207020	0.410050
C1131	C113	0.626190	0.143720	0.428890
C1141	C114	0.717560	0.129230	0.406090
C1151	C115	0.818010	0.095010	0.424310
C1161	C116	0.823590	0.074230	0.464850
C1171	C117	0.739170	0.089690	0.487420
C1181	C118	0.642400	0.124230	0.469070
C1191	C119	0.911670	0.035970	0.482660
C1201	C120	0.090040	0.031220	0.502660
C1211	C121	0.821920	0.004350	0.479630
C1221	C122	0.700180	0.148390	0.362970
C1231	C123	0.740950	0.070210	0.530970
C1241	C124	0.631370	0.006600	0.458630
C1251	C125	0.533490	0.018130	0.420330
C1261	C126	0.466980	0.001950	0.394070
O11	O1	0.663200	0.619790	0.651950
O21	O2	0.429130	0.655010	0.657080
O31	O3	0.054000	0.657490	0.625030
O41	O4	0.971820	0.587350	0.701380
O51	O5	0.315150	0.651950	0.728260
O61	O6	0.086210	0.657080	0.687910
O71	O7	0.679030	0.625030	0.717480
O81	O8	0.673200	0.701380	0.711270
O91	O9	0.043410	0.728260	0.619790
O101	O10	0.774120	0.687910	0.655010
O111	O11	0.396510	0.717480	0.657490
O121	O12	0.384470	0.711270	0.587350
O131	O13	0.336800	0.380210	0.348050
O141	O14	0.570870	0.344990	0.342920
O151	O15	0.946000	0.342510	0.374970
O161	O16	0.028180	0.412650	0.298620
O171	O17	0.684850	0.348050	0.271740
O181	O18	0.913790	0.342920	0.312090
O191	O19	0.320970	0.374970	0.282520
O201	O20	0.326800	0.298620	0.288730
O211	O21	0.956590	0.271740	0.380210
O221	O22	0.225880	0.312090	0.344990
O231	O23	0.603490	0.282520	0.342510
O241	O24	0.615530	0.288730	0.412650
