data_RAWZIA_freeONLY_PM
_symmetry_space_group_name_H-M	'P1'
_cell_length_a	17.544800
_cell_length_b	13.578100
_cell_length_c	6.664200
_cell_angle_alpha	90.000000
_cell_angle_beta	113.196000
_cell_angle_gamma	90.000000
_symmetry_Int_Tables_number 1

loop_
_symmetry_equiv_pos_as_xyz
'x,y,z'

loop_
_atom_site_label
_atom_site_type_symbol
_atom_site_fract_x
_atom_site_fract_y
_atom_site_fract_z
O11	O1	0.909680	0.080770	0.833470
O21	O2	0.922850	0.096540	0.510480
O31	O3	0.738290	0.005690	0.748220
O41	O4	0.755460	0.124530	0.992840
C11	C1	0.814070	0.180530	0.559690
C21	C2	0.756230	0.176030	0.652960
C31	C3	0.810090	0.253770	0.412600
H11	H1	0.849000	0.257000	0.340000
C41	C4	0.891410	0.113660	0.648000
C51	C5	0.749590	0.094650	0.799480
O51	O5	0.409680	0.580770	0.833470
O61	O6	0.422850	0.596540	0.510480
O71	O7	0.238290	0.505690	0.748220
O81	O8	0.255460	0.624530	0.992840
C61	C6	0.314070	0.680530	0.559690
C71	C7	0.256230	0.676030	0.652960
C81	C8	0.310090	0.753770	0.412600
H21	H2	0.349000	0.757000	0.340000
C91	C9	0.391410	0.613660	0.648000
C101	C10	0.249590	0.594650	0.799480
O91	O9	0.090320	0.080770	0.666530
O101	O10	0.077150	0.096540	0.989520
O111	O11	0.261710	0.005690	0.751780
O121	O12	0.244540	0.124530	0.507160
C111	C11	0.185930	0.180530	0.940310
C121	C12	0.243770	0.176030	0.847040
C131	C13	0.189910	0.253770	0.087400
H31	H3	0.151000	0.257000	0.160000
C141	C14	0.108590	0.113660	0.852000
C151	C15	0.250410	0.094650	0.700520
O131	O13	0.590320	0.580770	0.666530
O141	O14	0.577150	0.596540	0.989520
O151	O15	0.761710	0.505690	0.751780
O161	O16	0.744540	0.624530	0.507160
C161	C16	0.685930	0.680530	0.940310
C171	C17	0.743770	0.676030	0.847040
C181	C18	0.689910	0.753770	0.087400
H41	H4	0.651000	0.757000	0.160000
C191	C19	0.608590	0.613660	0.852000
C201	C20	0.750410	0.594650	0.700520
O171	O17	0.090320	0.919230	0.166530
O181	O18	0.077150	0.903460	0.489520
O191	O19	0.261710	0.994310	0.251780
O201	O20	0.244540	0.875470	0.007160
C211	C21	0.185930	0.819470	0.440310
C221	C22	0.243770	0.823970	0.347040
C231	C23	0.189910	0.746230	0.587400
H51	H5	0.151000	0.743000	0.660000
C241	C24	0.108590	0.886340	0.352000
C251	C25	0.250410	0.905350	0.200520
O211	O21	0.590320	0.419230	0.166530
O221	O22	0.577150	0.403460	0.489520
O231	O23	0.761710	0.494310	0.251780
O241	O24	0.744540	0.375470	0.007160
C261	C26	0.685930	0.319470	0.440310
C271	C27	0.743770	0.323970	0.347040
C281	C28	0.689910	0.246230	0.587400
H61	H6	0.651000	0.243000	0.660000
C291	C29	0.608590	0.386340	0.352000
C301	C30	0.750410	0.405350	0.200520
O251	O25	0.909680	0.919230	0.333470
O261	O26	0.922850	0.903460	0.010480
O271	O27	0.738290	0.994310	0.248220
O281	O28	0.755460	0.875470	0.492840
C311	C31	0.814070	0.819470	0.059690
C321	C32	0.756230	0.823970	0.152960
C331	C33	0.810090	0.746230	0.912600
H71	H7	0.849000	0.743000	0.840000
C341	C34	0.891410	0.886340	0.148000
C351	C35	0.749590	0.905350	0.299480
O291	O29	0.409680	0.419230	0.333470
O301	O30	0.422850	0.403460	0.010480
O311	O31	0.238290	0.494310	0.248220
O321	O32	0.255460	0.375470	0.492840
C361	C36	0.314070	0.319470	0.059690
C371	C37	0.256230	0.323970	0.152960
C381	C38	0.310090	0.246230	0.912600
H81	H8	0.349000	0.243000	0.840000
C391	C39	0.391410	0.386340	0.148000
C401	C40	0.249590	0.405350	0.299480
Al11	Al1	0.000000	0.000000	0.000000
Al21	Al2	0.500000	0.500000	0.000000
Al31	Al3	0.000000	0.000000	0.500000
Al41	Al4	0.500000	0.500000	0.500000
O331	O33	0.000000	0.937930	0.750000
O341	O34	0.500000	0.437930	0.750000
O351	O35	0.000000	0.062070	0.250000
O361	O36	0.500000	0.562070	0.250000
