data_RAYFAA_freeONLY_PM
_symmetry_space_group_name_H-M	'P1'
_cell_length_a	18.276600
_cell_length_b	24.640100
_cell_length_c	24.640100
_cell_angle_alpha	65.901700
_cell_angle_beta	75.685300
_cell_angle_gamma	104.315000
_symmetry_Int_Tables_number 1

loop_
_symmetry_equiv_pos_as_xyz
'x,y,z'

loop_
_atom_site_label
_atom_site_type_symbol
_atom_site_fract_x
_atom_site_fract_y
_atom_site_fract_z
Cu11	Cu1	0.867160	0.167110	0.282680
Cu21	Cu2	0.879960	0.350890	0.211760
Cu31	Cu3	0.792460	0.960900	0.398940
Cu41	Cu4	0.960290	0.556940	0.109160
Cu51	Cu5	0.149840	0.282680	0.550210
Cu61	Cu6	0.091720	0.211760	0.437350
Cu71	Cu7	0.191400	0.398940	0.640160
Cu81	Cu8	0.069450	0.109160	0.333900
Cu91	Cu9	0.700050	0.550210	0.167110
Cu101	Cu10	0.529070	0.437350	0.350890
Cu111	Cu11	0.831560	0.640160	0.960900
Cu121	Cu12	0.403350	0.333900	0.556940
Cu131	Cu13	0.132840	0.832890	0.717320
Cu141	Cu14	0.120040	0.649110	0.788240
Cu151	Cu15	0.207540	0.039100	0.601060
Cu161	Cu16	0.039710	0.443060	0.890840
Cu171	Cu17	0.850160	0.717320	0.449790
Cu181	Cu18	0.908280	0.788240	0.562650
Cu191	Cu19	0.808600	0.601060	0.359840
Cu201	Cu20	0.930550	0.890840	0.666100
Cu211	Cu21	0.299950	0.449790	0.832890
Cu221	Cu22	0.470930	0.562650	0.649110
Cu231	Cu23	0.168440	0.359840	0.039100
Cu241	Cu24	0.596650	0.666100	0.443060
H11	H1	0.055200	0.700000	0.993900
H21	H2	0.161900	0.754800	0.893300
H31	H3	0.225600	0.697100	0.859300
H41	H4	0.180100	0.586300	0.924600
H51	H5	0.681300	0.815700	0.510000
H61	H6	0.549100	0.759200	0.586100
H71	H7	0.468100	0.814400	0.599600
H81	H8	0.518500	0.926000	0.530600
H91	H9	0.704000	0.296300	0.317400
H101	H10	0.776400	0.008700	0.266800
H111	H11	0.737900	0.858700	0.289300
H121	H12	0.747300	0.877100	0.218300
H131	H13	0.661500	0.856400	0.270800
H141	H14	0.691000	0.987400	0.182500
H151	H15	0.764900	0.977600	0.145100
H161	H16	0.781400	0.035000	0.159300
H171	H17	0.991900	0.582000	0.218800
H181	H18	0.124100	0.654900	0.257500
H191	H19	0.078400	0.582800	0.313200
H201	H20	0.028900	0.619900	0.281000
H211	H21	0.226600	0.623500	0.174200
H221	H22	0.167900	0.573100	0.164600
H231	H23	0.177800	0.551600	0.230700
H241	H24	0.031800	0.220000	0.159800
H251	H25	0.059700	0.422700	0.218800
H261	H26	0.031400	0.417300	0.286900
H271	H27	0.000900	0.455600	0.235200
H281	H28	0.959200	0.334900	0.281300
H291	H29	0.049100	0.993900	0.306100
H301	H30	0.055200	0.893300	0.351900
H311	H31	0.084900	0.859300	0.443600
H321	H32	0.104700	0.924600	0.489100
H331	H33	0.191300	0.510000	0.674300
H341	H34	0.135200	0.586100	0.654700
H351	H35	0.067700	0.599600	0.586000
H361	H36	0.049100	0.530600	0.543400
H371	H37	0.021400	0.317400	0.386300
H381	H38	0.043200	0.266800	0.724500
H391	H39	0.027200	0.289300	0.852000
H401	H40	0.965600	0.218300	0.904600
H411	H41	0.932300	0.270800	0.872800
H421	H42	0.873500	0.182500	0.830100
H431	H43	0.910000	0.145100	0.877300
H441	H44	0.940700	0.159300	0.805700
H451	H45	0.210700	0.218800	0.199200
H461	H46	0.381600	0.257500	0.087600
H471	H47	0.391600	0.313200	0.104000
H481	H48	0.309900	0.281000	0.099100
H491	H49	0.400800	0.174200	0.202300
H501	H50	0.332500	0.164600	0.262300
H511	H51	0.408500	0.230700	0.217700
H521	H52	0.191600	0.159800	0.620200
H531	H53	0.278500	0.218800	0.358500
H541	H54	0.318300	0.286900	0.295800
H551	H55	0.236100	0.235200	0.309200
H561	H56	0.240500	0.281300	0.383800
H571	H57	0.355200	0.306100	0.700000
H581	H58	0.407100	0.351900	0.754800
H591	H59	0.528500	0.443600	0.697100
H601	H60	0.593800	0.489100	0.586300
H611	H61	0.865600	0.674300	0.815700
H621	H62	0.789900	0.654700	0.759200
H631	H63	0.653700	0.586000	0.814400
H641	H64	0.592500	0.543400	0.926000
H651	H65	0.407700	0.386300	0.296300
H661	H66	0.767700	0.724500	0.008700
H671	H67	0.879200	0.852000	0.858700
H681	H68	0.870200	0.904600	0.877100
H691	H69	0.805100	0.872800	0.856400
H701	H70	0.703600	0.830100	0.987400
H711	H71	0.787300	0.877300	0.977600
H721	H72	0.746400	0.805700	0.035000
H731	H73	0.409900	0.199200	0.582000
H741	H74	0.469200	0.087600	0.654900
H751	H75	0.495600	0.104000	0.582800
H761	H76	0.409000	0.099100	0.619900
H771	H77	0.603100	0.202300	0.623500
H781	H78	0.594800	0.262300	0.573100
H791	H79	0.626200	0.217700	0.551600
H801	H80	0.811800	0.620200	0.220000
H811	H81	0.637000	0.358500	0.422700
H821	H82	0.614100	0.295800	0.417300
H831	H83	0.545300	0.309200	0.455600
H841	H84	0.624300	0.383800	0.334900
H851	H85	0.944800	0.300000	0.006100
H861	H86	0.838100	0.245200	0.106700
H871	H87	0.774400	0.302900	0.140700
H881	H88	0.819900	0.413700	0.075400
H891	H89	0.318700	0.184300	0.490000
H901	H90	0.450900	0.240800	0.413900
H911	H91	0.531900	0.185600	0.400400
H921	H92	0.481500	0.074000	0.469400
H931	H93	0.296000	0.703700	0.682600
H941	H94	0.223600	0.991300	0.733200
H951	H95	0.262100	0.141300	0.710700
H961	H96	0.252700	0.122900	0.781700
H971	H97	0.338500	0.143600	0.729200
H981	H98	0.309000	0.012600	0.817500
H991	H99	0.235100	0.022400	0.854900
H1001	H100	0.218600	0.965000	0.840700
H1011	H101	0.008100	0.418000	0.781200
H1021	H102	0.875900	0.345100	0.742500
H1031	H103	0.921600	0.417200	0.686800
H1041	H104	0.971100	0.380100	0.719000
H1051	H105	0.773400	0.376500	0.825800
H1061	H106	0.832100	0.426900	0.835400
H1071	H107	0.822200	0.448400	0.769300
H1081	H108	0.968200	0.780000	0.840200
H1091	H109	0.940300	0.577300	0.781200
H1101	H110	0.968600	0.582700	0.713100
H1111	H111	0.999100	0.544400	0.764800
H1121	H112	0.040800	0.665100	0.718700
H1131	H113	0.950900	0.006100	0.693900
H1141	H114	0.944800	0.106700	0.648100
H1151	H115	0.915100	0.140700	0.556400
H1161	H116	0.895300	0.075400	0.510900
H1171	H117	0.808700	0.490000	0.325700
H1181	H118	0.864800	0.413900	0.345300
H1191	H119	0.932300	0.400400	0.414000
H1201	H120	0.950900	0.469400	0.456600
H1211	H121	0.978600	0.682600	0.613700
H1221	H122	0.956800	0.733200	0.275500
H1231	H123	0.972800	0.710700	0.148000
H1241	H124	0.034400	0.781700	0.095400
H1251	H125	0.067700	0.729200	0.127200
H1261	H126	0.126500	0.817500	0.169900
H1271	H127	0.090000	0.854900	0.122700
H1281	H128	0.059300	0.840700	0.194300
H1291	H129	0.789300	0.781200	0.800800
H1301	H130	0.618400	0.742500	0.912400
H1311	H131	0.608400	0.686800	0.896000
H1321	H132	0.690100	0.719000	0.900900
H1331	H133	0.599200	0.825800	0.797700
H1341	H134	0.667500	0.835400	0.737700
H1351	H135	0.591500	0.769300	0.782300
H1361	H136	0.808400	0.840200	0.379800
H1371	H137	0.721500	0.781200	0.641500
H1381	H138	0.681700	0.713100	0.704200
H1391	H139	0.763900	0.764800	0.690800
H1401	H140	0.759500	0.718700	0.616200
H1411	H141	0.644800	0.693900	0.300000
H1421	H142	0.592900	0.648100	0.245200
H1431	H143	0.471500	0.556400	0.302900
H1441	H144	0.406200	0.510900	0.413700
H1451	H145	0.134400	0.325700	0.184300
H1461	H146	0.210100	0.345300	0.240800
H1471	H147	0.346300	0.414000	0.185600
H1481	H148	0.407500	0.456600	0.074000
H1491	H149	0.592300	0.613700	0.703700
H1501	H150	0.232300	0.275500	0.991300
H1511	H151	0.120800	0.148000	0.141300
H1521	H152	0.129800	0.095400	0.122900
H1531	H153	0.194900	0.127200	0.143600
H1541	H154	0.296400	0.169900	0.012600
H1551	H155	0.212700	0.122700	0.022400
H1561	H156	0.253600	0.194300	0.965000
H1571	H157	0.590100	0.800800	0.418000
H1581	H158	0.530800	0.912400	0.345100
H1591	H159	0.504400	0.896000	0.417200
H1601	H160	0.591000	0.900900	0.380100
H1611	H161	0.396900	0.797700	0.376500
H1621	H162	0.405200	0.737700	0.426900
H1631	H163	0.373800	0.782300	0.448400
H1641	H164	0.188200	0.379800	0.780000
H1651	H165	0.363000	0.641500	0.577300
H1661	H166	0.385900	0.704200	0.582700
H1671	H167	0.454700	0.690800	0.544400
H1681	H168	0.375700	0.616200	0.665100
C11	C1	0.080050	0.676880	0.979630
C21	C2	0.144470	0.710320	0.919410
C31	C3	0.181970	0.675630	0.899420
C41	C4	0.155570	0.610180	0.937770
C51	C5	0.091190	0.580930	0.996960
C61	C6	0.055880	0.511350	0.044410
C71	C7	0.025900	0.413680	0.097880
C81	C8	0.013000	0.345680	0.127680
C91	C9	0.647760	0.837920	0.514040
C101	C10	0.569200	0.804000	0.560100
C111	C11	0.520900	0.836400	0.567600
C121	C12	0.550900	0.903000	0.526800
C131	C13	0.630130	0.933920	0.480530
C141	C14	0.670640	0.004760	0.435540
C151	C15	0.706930	0.102880	0.382790
C161	C16	0.719820	0.170680	0.352220
C171	C17	0.720030	0.262410	0.320920
C181	C18	0.760100	0.964700	0.281600
C191	C19	0.719600	0.878700	0.255900
C201	C20	0.746400	0.990900	0.175800
C211	C21	0.045000	0.588500	0.195600
C221	C22	0.080100	0.614500	0.273500
C231	C23	0.175900	0.586400	0.195000
C241	C24	0.015710	0.253470	0.157840
C251	C25	0.015000	0.418800	0.252400
C261	C26	0.059680	0.979630	0.343490
C271	C27	0.063880	0.919410	0.370270
C281	C28	0.081390	0.899420	0.424950
C291	C29	0.093340	0.937770	0.452050
C301	C30	0.088150	0.996960	0.422110
C311	C31	0.100290	0.044410	0.444240
C321	C32	0.123780	0.097880	0.488440
C331	C33	0.140680	0.127680	0.526640
C341	C34	0.161800	0.514040	0.648040
C351	C35	0.129300	0.560100	0.635900
C361	C36	0.088500	0.567600	0.596000
C371	C37	0.077700	0.526800	0.570200
C381	C38	0.110660	0.480530	0.585550
C391	C39	0.106180	0.435540	0.559700
C401	C40	0.089720	0.382790	0.514330
C411	C41	0.072040	0.352220	0.477100
C421	C42	0.040950	0.320920	0.416670
C431	C43	0.041700	0.281600	0.753700
C441	C44	0.975500	0.255900	0.865400
C451	C45	0.922200	0.175800	0.833300
C461	C46	0.240600	0.195600	0.215900
C471	C47	0.353600	0.273500	0.112000
C481	C48	0.370900	0.195000	0.218600
C491	C49	0.173550	0.157840	0.588690
C501	C50	0.267400	0.252400	0.328800
C511	C51	0.403170	0.343490	0.676880
C521	C52	0.434150	0.370270	0.710320
C531	C53	0.506340	0.424950	0.675630
C541	C54	0.545390	0.452050	0.610180
C551	C55	0.510260	0.422110	0.580930
C561	C56	0.544530	0.444240	0.511350
C571	C57	0.612220	0.488440	0.413680
C581	C58	0.667320	0.526640	0.345680
C591	C59	0.809840	0.648040	0.837920
C601	C60	0.765200	0.635900	0.804000
C611	C61	0.684500	0.596000	0.836400
C621	C62	0.647900	0.570200	0.903000
C631	C63	0.696210	0.585550	0.933920
C641	C64	0.665880	0.559700	0.004760
C651	C65	0.604050	0.514330	0.102880
C661	C66	0.549140	0.477100	0.170680
C671	C67	0.457620	0.416670	0.262410
C681	C68	0.795400	0.753700	0.964700
C691	C69	0.840900	0.865400	0.878700
C701	C70	0.755500	0.833300	0.990900
C711	C71	0.456500	0.215900	0.588500
C721	C72	0.465600	0.112000	0.614500
C731	C73	0.589500	0.218600	0.586400
C741	C74	0.762240	0.588690	0.253470
C751	C75	0.596200	0.328800	0.418800
C761	C76	0.919950	0.323120	0.020370
C771	C77	0.855530	0.289680	0.080590
C781	C78	0.818030	0.324370	0.100580
C791	C79	0.844430	0.389820	0.062230
C801	C80	0.908810	0.419070	0.003040
C811	C81	0.944120	0.488650	0.955590
C821	C82	0.974100	0.586320	0.902120
C831	C83	0.987000	0.654320	0.872320
C841	C84	0.352240	0.162080	0.485960
C851	C85	0.430800	0.196000	0.439900
C861	C86	0.479100	0.163600	0.432400
C871	C87	0.449100	0.097000	0.473200
C881	C88	0.369870	0.066080	0.519470
C891	C89	0.329360	0.995240	0.564460
C901	C90	0.293070	0.897120	0.617210
C911	C91	0.280180	0.829320	0.647780
C921	C92	0.279970	0.737590	0.679080
C931	C93	0.239900	0.035300	0.718400
C941	C94	0.280400	0.121300	0.744100
C951	C95	0.253600	0.009100	0.824200
C961	C96	0.955000	0.411500	0.804400
C971	C97	0.919900	0.385500	0.726500
C981	C98	0.824100	0.413600	0.805000
C991	C99	0.984290	0.746530	0.842160
C1001	C100	0.985000	0.581200	0.747600
C1011	C101	0.940320	0.020370	0.656510
C1021	C102	0.936120	0.080590	0.629730
C1031	C103	0.918610	0.100580	0.575050
C1041	C104	0.906660	0.062230	0.547950
C1051	C105	0.911850	0.003040	0.577890
C1061	C106	0.899710	0.955590	0.555760
C1071	C107	0.876220	0.902120	0.511560
C1081	C108	0.859320	0.872320	0.473360
C1091	C109	0.838200	0.485960	0.351960
C1101	C110	0.870700	0.439900	0.364100
C1111	C111	0.911500	0.432400	0.404000
C1121	C112	0.922300	0.473200	0.429800
C1131	C113	0.889340	0.519470	0.414450
C1141	C114	0.893820	0.564460	0.440300
C1151	C115	0.910280	0.617210	0.485670
C1161	C116	0.927960	0.647780	0.522900
C1171	C117	0.959050	0.679080	0.583330
C1181	C118	0.958300	0.718400	0.246300
C1191	C119	0.024500	0.744100	0.134600
C1201	C120	0.077800	0.824200	0.166700
C1211	C121	0.759400	0.804400	0.784100
C1221	C122	0.646400	0.726500	0.888000
C1231	C123	0.629100	0.805000	0.781400
C1241	C124	0.826450	0.842160	0.411310
C1251	C125	0.732600	0.747600	0.671200
C1261	C126	0.596830	0.656510	0.323120
C1271	C127	0.565850	0.629730	0.289680
C1281	C128	0.493660	0.575050	0.324370
C1291	C129	0.454610	0.547950	0.389820
C1301	C130	0.489740	0.577890	0.419070
C1311	C131	0.455470	0.555760	0.488650
C1321	C132	0.387780	0.511560	0.586320
C1331	C133	0.332680	0.473360	0.654320
C1341	C134	0.190160	0.351960	0.162080
C1351	C135	0.234800	0.364100	0.196000
C1361	C136	0.315500	0.404000	0.163600
C1371	C137	0.352100	0.429800	0.097000
C1381	C138	0.303790	0.414450	0.066080
C1391	C139	0.334120	0.440300	0.995240
C1401	C140	0.395950	0.485670	0.897120
C1411	C141	0.450860	0.522900	0.829320
C1421	C142	0.542380	0.583330	0.737590
C1431	C143	0.204600	0.246300	0.035300
C1441	C144	0.159100	0.134600	0.121300
C1451	C145	0.244500	0.166700	0.009100
C1461	C146	0.543500	0.784100	0.411500
C1471	C147	0.534400	0.888000	0.385500
C1481	C148	0.410500	0.781400	0.413600
C1491	C149	0.237760	0.411310	0.746530
C1501	C150	0.403800	0.671200	0.581200
S11	S1	0.010160	0.214790	0.336870
S21	S2	0.950060	0.069790	0.276350
S31	S3	0.347030	0.336870	0.448340
S41	S4	0.226410	0.276350	0.653860
S51	S5	0.795370	0.448340	0.214790
S61	S6	0.880270	0.653860	0.069790
S71	S7	0.989840	0.785210	0.663130
S81	S8	0.049940	0.930210	0.723650
S91	S9	0.652970	0.663130	0.551660
S101	S10	0.773590	0.723650	0.346140
S111	S11	0.204630	0.551660	0.785210
S121	S12	0.119730	0.346140	0.930210
N11	N1	0.052510	0.613460	0.017730
N21	N2	0.989840	0.490060	0.096740
N31	N3	0.969580	0.426020	0.132720
N41	N4	0.081830	0.465100	0.042410
N51	N5	0.947160	0.305710	0.181550
N61	N6	0.948820	0.245470	0.201170
N71	N7	0.678520	0.902780	0.474020
N81	N8	0.746020	0.025670	0.392310
N91	N9	0.769790	0.090820	0.357080
N101	N10	0.642310	0.050940	0.431710
N111	N11	0.791820	0.210880	0.302120
N121	N12	0.791810	0.271000	0.281570
N131	N13	0.672790	0.200250	0.366280
N141	N14	0.743700	0.944900	0.239900
N151	N15	0.101300	0.603300	0.216400
N161	N16	0.058210	0.315720	0.110410
N171	N17	0.070240	0.017730	0.368810
N181	N18	0.086580	0.096740	0.413200
N191	N19	0.102300	0.132720	0.441260
N201	N20	0.124240	0.042410	0.492490
N211	N21	0.128710	0.181550	0.512740
N221	N22	0.149990	0.201170	0.553360
N231	N23	0.152540	0.474020	0.623200
N241	N24	0.138330	0.392310	0.582020
N251	N25	0.126870	0.357080	0.552100
N261	N26	0.074020	0.431710	0.517350
N271	N27	0.093940	0.302120	0.487000
N281	N28	0.073380	0.281570	0.447430
N291	N29	0.039070	0.366280	0.433470
N301	N30	0.983600	0.239900	0.815200
N311	N31	0.317700	0.216400	0.180300
N321	N32	0.168620	0.110410	0.573870
N331	N33	0.439050	0.368810	0.613460
N341	N34	0.499780	0.413200	0.490060
N351	N35	0.543560	0.441260	0.426020
N361	N36	0.616730	0.492490	0.465100
N371	N37	0.641450	0.512740	0.305710
N381	N38	0.703350	0.553360	0.245470
N391	N39	0.775740	0.623200	0.902780
N401	N40	0.720350	0.582020	0.025670
N411	N41	0.678970	0.552100	0.090820
N421	N42	0.591370	0.517350	0.050940
N431	N43	0.580940	0.487000	0.210880
N441	N44	0.520810	0.447430	0.271000
N451	N45	0.472540	0.433470	0.200250
N461	N46	0.798800	0.815200	0.944900
N471	N47	0.498000	0.180300	0.603300
N481	N48	0.742490	0.573870	0.315720
N491	N49	0.947490	0.386540	0.982270
N501	N50	0.010160	0.509940	0.903260
N511	N51	0.030420	0.573980	0.867280
N521	N52	0.918170	0.534900	0.957590
N531	N53	0.052840	0.694290	0.818450
N541	N54	0.051180	0.754530	0.798830
N551	N55	0.321480	0.097220	0.525980
N561	N56	0.253980	0.974330	0.607690
N571	N57	0.230210	0.909180	0.642920
N581	N58	0.357690	0.949060	0.568290
N591	N59	0.208180	0.789120	0.697880
N601	N60	0.208190	0.729000	0.718430
N611	N61	0.327210	0.799750	0.633720
N621	N62	0.256300	0.055100	0.760100
N631	N63	0.898700	0.396700	0.783600
N641	N64	0.941790	0.684280	0.889590
N651	N65	0.929760	0.982270	0.631190
N661	N66	0.913420	0.903260	0.586800
N671	N67	0.897700	0.867280	0.558740
N681	N68	0.875760	0.957590	0.507510
N691	N69	0.871290	0.818450	0.487260
N701	N70	0.850010	0.798830	0.446640
N711	N71	0.847460	0.525980	0.376800
N721	N72	0.861670	0.607690	0.417980
N731	N73	0.873130	0.642920	0.447900
N741	N74	0.925980	0.568290	0.482650
N751	N75	0.906060	0.697880	0.513000
N761	N76	0.926620	0.718430	0.552570
N771	N77	0.960930	0.633720	0.566530
N781	N78	0.016400	0.760100	0.184800
N791	N79	0.682300	0.783600	0.819700
N801	N80	0.831380	0.889590	0.426130
N811	N81	0.560950	0.631190	0.386540
N821	N82	0.500220	0.586800	0.509940
N831	N83	0.456440	0.558740	0.573980
N841	N84	0.383270	0.507510	0.534900
N851	N85	0.358550	0.487260	0.694290
N861	N86	0.296650	0.446640	0.754530
N871	N87	0.224260	0.376800	0.097220
N881	N88	0.279650	0.417980	0.974330
N891	N89	0.321030	0.447900	0.909180
N901	N90	0.408630	0.482650	0.949060
N911	N91	0.419060	0.513000	0.789120
N921	N92	0.479190	0.552570	0.729000
N931	N93	0.527460	0.566530	0.799750
N941	N94	0.201200	0.184800	0.055100
N951	N95	0.502000	0.819700	0.396700
N961	N96	0.257510	0.426130	0.684280
O11	O1	0.905690	0.026340	0.346930
O21	O2	0.953550	0.034610	0.242160
O31	O3	0.909220	0.113790	0.251680
O41	O4	0.030010	0.283230	0.294250
O51	O5	0.075790	0.197380	0.307940
O61	O6	0.007830	0.203850	0.401380
O71	O7	0.945460	0.360900	0.276220
O81	O8	0.756110	0.933820	0.331690
O91	O9	0.056630	0.582360	0.147670
O101	O10	0.034140	0.108580	0.265280
O111	O11	0.930230	0.172580	0.347640
O121	O12	0.252620	0.346930	0.626730
O131	O13	0.195710	0.242160	0.723230
O141	O14	0.160900	0.251680	0.634530
O151	O15	0.324260	0.294250	0.422520
O161	O16	0.383730	0.307940	0.494680
O171	O17	0.409210	0.401380	0.394770
O181	O18	0.221680	0.276220	0.362880
O191	O19	0.087800	0.331690	0.734490
O201	O20	0.204300	0.147670	0.269970
O211	O21	0.299420	0.265280	0.626140
O221	O22	0.277870	0.347640	0.479780
O231	O23	0.879350	0.626730	0.026340
O241	O24	0.918940	0.723230	0.034610
O251	O25	0.795430	0.634530	0.113790
O261	O26	0.746780	0.422520	0.283230
O271	O27	0.878410	0.494680	0.197380
O281	O28	0.803980	0.394770	0.203850
O291	O29	0.584560	0.362880	0.360900
O301	O30	0.822290	0.734490	0.933820
O311	O31	0.474270	0.269970	0.582360
O321	O32	0.925560	0.626140	0.108580
O331	O33	0.757650	0.479780	0.172580
O341	O34	0.094310	0.973660	0.653070
O351	O35	0.046450	0.965390	0.757840
O361	O36	0.090780	0.886210	0.748320
O371	O37	0.969990	0.716770	0.705750
O381	O38	0.924210	0.802620	0.692060
O391	O39	0.992170	0.796150	0.598620
O401	O40	0.054540	0.639100	0.723780
O411	O41	0.243890	0.066180	0.668310
O421	O42	0.943370	0.417640	0.852330
O431	O43	0.965860	0.891420	0.734720
O441	O44	0.069770	0.827420	0.652360
O451	O45	0.747380	0.653070	0.373270
O461	O46	0.804290	0.757840	0.276770
O471	O47	0.839100	0.748320	0.365470
O481	O48	0.675740	0.705750	0.577480
O491	O49	0.616270	0.692060	0.505320
O501	O50	0.590790	0.598620	0.605230
O511	O51	0.778320	0.723780	0.637120
O521	O52	0.912200	0.668310	0.265510
O531	O53	0.795700	0.852330	0.730030
O541	O54	0.700580	0.734720	0.373860
O551	O55	0.722130	0.652360	0.520220
O561	O56	0.120650	0.373270	0.973660
O571	O57	0.081060	0.276770	0.965390
O581	O58	0.204570	0.365470	0.886210
O591	O59	0.253220	0.577480	0.716770
O601	O60	0.121590	0.505320	0.802620
O611	O61	0.196020	0.605230	0.796150
O621	O62	0.415440	0.637120	0.639100
O631	O63	0.177710	0.265510	0.066180
O641	O64	0.525730	0.730030	0.417640
O651	O65	0.074440	0.373860	0.891420
O661	O66	0.242350	0.520220	0.827420
