data_RAYKIN_freeONLY_PM
_symmetry_space_group_name_H-M	'P1'
_cell_length_a	16.527600
_cell_length_b	16.527600
_cell_length_c	25.395900
_cell_angle_alpha	90.000000
_cell_angle_beta	90.000000
_cell_angle_gamma	120.000000
_symmetry_Int_Tables_number 1

loop_
_symmetry_equiv_pos_as_xyz
'x,y,z'

loop_
_atom_site_label
_atom_site_type_symbol
_atom_site_fract_x
_atom_site_fract_y
_atom_site_fract_z
Zn11	Zn1	0.287040	0.712950	0.000000
Zn21	Zn2	0.425910	0.712950	0.333330
Zn31	Zn3	0.287040	0.574080	0.666670
Zn41	Zn4	0.712960	0.287050	0.000000
Zn51	Zn5	0.574090	0.287050	0.333330
Zn61	Zn6	0.712960	0.425920	0.666670
H11	H1	0.597600	0.820800	0.912200
H21	H2	0.693400	0.485900	0.960100
H31	H3	0.541800	0.455800	0.955600
H41	H4	0.100500	0.642400	0.051800
H51	H5	0.943800	0.585100	0.030200
H61	H6	0.022400	0.631100	0.881200
H71	H7	0.583300	0.555600	0.817000
H81	H8	0.734300	0.581800	0.821200
H91	H9	0.170200	0.670200	0.906200
H101	H10	0.833100	0.548400	0.966800
H111	H11	0.223200	0.402400	0.245530
H121	H12	0.792500	0.306600	0.293430
H131	H13	0.914000	0.458200	0.288930
H141	H14	0.541900	0.899500	0.385130
H151	H15	0.641300	0.056200	0.363530
H161	H16	0.608700	0.977600	0.214530
H171	H17	0.972300	0.416700	0.150330
H181	H18	0.847500	0.265700	0.154530
H191	H19	0.500000	0.829800	0.239530
H201	H20	0.715300	0.166900	0.300130
H211	H21	0.179200	0.776800	0.578870
H221	H22	0.514100	0.207500	0.626770
H231	H23	0.544200	0.086000	0.622270
H241	H24	0.357600	0.458100	0.718470
H251	H25	0.414900	0.358700	0.696870
H261	H26	0.368900	0.391300	0.547870
H271	H27	0.444400	0.027700	0.483670
H281	H28	0.418200	0.152500	0.487870
H291	H29	0.329800	0.500000	0.572870
H301	H30	0.451600	0.284700	0.633470
H311	H31	0.402400	0.179200	0.912200
H321	H32	0.306600	0.514100	0.960100
H331	H33	0.458200	0.544200	0.955600
H341	H34	0.899500	0.357600	0.051800
H351	H35	0.056200	0.414900	0.030200
H361	H36	0.977600	0.368900	0.881200
H371	H37	0.416700	0.444400	0.817000
H381	H38	0.265700	0.418200	0.821200
H391	H39	0.829800	0.329800	0.906200
H401	H40	0.166900	0.451600	0.966800
H411	H41	0.776800	0.597600	0.245530
H421	H42	0.207500	0.693400	0.293430
H431	H43	0.086000	0.541800	0.288930
H441	H44	0.458100	0.100500	0.385130
H451	H45	0.358700	0.943800	0.363530
H461	H46	0.391300	0.022400	0.214530
H471	H47	0.027700	0.583300	0.150330
H481	H48	0.152500	0.734300	0.154530
H491	H49	0.500000	0.170200	0.239530
H501	H50	0.284700	0.833100	0.300130
H511	H51	0.820800	0.223200	0.578870
H521	H52	0.485900	0.792500	0.626770
H531	H53	0.455800	0.914000	0.622270
H541	H54	0.642400	0.541900	0.718470
H551	H55	0.585100	0.641300	0.696870
H561	H56	0.631100	0.608700	0.547870
H571	H57	0.555600	0.972300	0.483670
H581	H58	0.581800	0.847500	0.487870
H591	H59	0.670200	0.500000	0.572870
H601	H60	0.548400	0.715300	0.633470
H611	H61	0.776800	0.179200	0.421130
H621	H62	0.207500	0.514100	0.373230
H631	H63	0.086000	0.544200	0.377730
H641	H64	0.458100	0.357600	0.281530
H651	H65	0.358700	0.414900	0.303130
H661	H66	0.391300	0.368900	0.452130
H671	H67	0.027700	0.444400	0.516330
H681	H68	0.152500	0.418200	0.512130
H691	H69	0.500000	0.329800	0.427130
H701	H70	0.284700	0.451600	0.366530
H711	H71	0.820800	0.597600	0.087800
H721	H72	0.485900	0.693400	0.039900
H731	H73	0.455800	0.541800	0.044400
H741	H74	0.642400	0.100500	0.948200
H751	H75	0.585100	0.943800	0.969800
H761	H76	0.631100	0.022400	0.118800
H771	H77	0.555600	0.583300	0.183000
H781	H78	0.581800	0.734300	0.178800
H791	H79	0.670200	0.170200	0.093800
H801	H80	0.548400	0.833100	0.033200
H811	H81	0.402400	0.223200	0.754470
H821	H82	0.306600	0.792500	0.706570
H831	H83	0.458200	0.914000	0.711070
H841	H84	0.899500	0.541900	0.614870
H851	H85	0.056200	0.641300	0.636470
H861	H86	0.977600	0.608700	0.785470
H871	H87	0.416700	0.972300	0.849670
H881	H88	0.265700	0.847500	0.845470
H891	H89	0.829800	0.500000	0.760470
H901	H90	0.166900	0.715300	0.699870
H911	H91	0.223200	0.820800	0.421130
H921	H92	0.792500	0.485900	0.373230
H931	H93	0.914000	0.455800	0.377730
H941	H94	0.541900	0.642400	0.281530
H951	H95	0.641300	0.585100	0.303130
H961	H96	0.608700	0.631100	0.452130
H971	H97	0.972300	0.555600	0.516330
H981	H98	0.847500	0.581800	0.512130
H991	H99	0.500000	0.670200	0.427130
H1001	H100	0.715300	0.548400	0.366530
H1011	H101	0.179200	0.402400	0.087800
H1021	H102	0.514100	0.306600	0.039900
H1031	H103	0.544200	0.458200	0.044400
H1041	H104	0.357600	0.899500	0.948200
H1051	H105	0.414900	0.056200	0.969800
H1061	H106	0.368900	0.977600	0.118800
H1071	H107	0.444400	0.416700	0.183000
H1081	H108	0.418200	0.265700	0.178800
H1091	H109	0.329800	0.829800	0.093800
H1101	H110	0.451600	0.166900	0.033200
H1111	H111	0.597600	0.776800	0.754470
H1121	H112	0.693400	0.207500	0.706570
H1131	H113	0.541800	0.086000	0.711070
H1141	H114	0.100500	0.458100	0.614870
H1151	H115	0.943800	0.358700	0.636470
H1161	H116	0.022400	0.391300	0.785470
H1171	H117	0.583300	0.027700	0.849670
H1181	H118	0.734300	0.152500	0.845470
H1191	H119	0.170200	0.500000	0.760470
H1201	H120	0.833100	0.284700	0.699870
H1211	H121	0.356000	0.678000	0.833330
H1221	H122	0.679100	0.839550	0.833330
H1231	H123	0.322000	0.644000	0.166670
H1241	H124	0.160450	0.320900	0.166670
H1251	H125	0.322000	0.678000	0.500000
H1261	H126	0.160450	0.839550	0.500000
H1271	H127	0.644000	0.322000	0.833330
H1281	H128	0.320900	0.160450	0.833330
H1291	H129	0.678000	0.356000	0.166670
H1301	H130	0.839550	0.679100	0.166670
H1311	H131	0.678000	0.322000	0.500000
H1321	H132	0.839550	0.160450	0.500000
C11	C1	0.415900	0.739900	0.929250
C21	C2	0.467100	0.749300	0.879330
C31	C3	0.565500	0.796800	0.880800
C41	C4	0.734400	0.550100	0.894340
C51	C5	0.834700	0.578400	0.895700
C61	C6	0.674900	0.506200	0.930700
C71	C7	0.581200	0.487400	0.927600
C81	C8	0.084400	0.638400	0.016400
C91	C9	0.988500	0.604700	0.003650
C101	C10	0.035400	0.630100	0.916740
C111	C11	0.963700	0.601600	0.953270
C121	C12	0.604600	0.543600	0.848300
C131	C13	0.697600	0.561300	0.851400
C141	C14	0.547000	0.510300	0.889310
C151	C15	0.125500	0.656700	0.932160
C161	C16	0.324000	0.584100	0.262580
C171	C17	0.282200	0.532900	0.212660
C181	C18	0.231300	0.434500	0.214130
C191	C19	0.815700	0.265600	0.227670
C201	C20	0.743700	0.165300	0.229030
C211	C21	0.831300	0.325100	0.264030
C221	C22	0.906200	0.418800	0.260930
C231	C23	0.554000	0.915600	0.349730
C241	C24	0.616200	0.011500	0.336980
C251	C25	0.594700	0.964600	0.250070
C261	C26	0.637900	0.036300	0.286600
C271	C27	0.939000	0.395400	0.181630
C281	C28	0.863700	0.302400	0.184730
C291	C29	0.963300	0.453000	0.222640
C301	C30	0.531200	0.874500	0.265490
C311	C31	0.260100	0.676000	0.595920
C321	C32	0.250700	0.717800	0.546000
C331	C33	0.203200	0.768700	0.547470
C341	C34	0.449900	0.184300	0.561010
C351	C35	0.421600	0.256300	0.562370
C361	C36	0.493800	0.168700	0.597370
C371	C37	0.512600	0.093800	0.594270
C381	C38	0.361600	0.446000	0.683070
C391	C39	0.395300	0.383800	0.670320
C401	C40	0.369900	0.405300	0.583410
C411	C41	0.398400	0.362100	0.619940
C421	C42	0.456400	0.061000	0.514970
C431	C43	0.438700	0.136300	0.518070
C441	C44	0.489700	0.036700	0.555980
C451	C45	0.343300	0.468800	0.598830
C461	C46	0.584100	0.260100	0.929250
C471	C47	0.532900	0.250700	0.879330
C481	C48	0.434500	0.203200	0.880800
C491	C49	0.265600	0.449900	0.894340
C501	C50	0.165300	0.421600	0.895700
C511	C51	0.325100	0.493800	0.930700
C521	C52	0.418800	0.512600	0.927600
C531	C53	0.915600	0.361600	0.016400
C541	C54	0.011500	0.395300	0.003650
C551	C55	0.964600	0.369900	0.916740
C561	C56	0.036300	0.398400	0.953270
C571	C57	0.395400	0.456400	0.848300
C581	C58	0.302400	0.438700	0.851400
C591	C59	0.453000	0.489700	0.889310
C601	C60	0.874500	0.343300	0.932160
C611	C61	0.676000	0.415900	0.262580
C621	C62	0.717800	0.467100	0.212660
C631	C63	0.768700	0.565500	0.214130
C641	C64	0.184300	0.734400	0.227670
C651	C65	0.256300	0.834700	0.229030
C661	C66	0.168700	0.674900	0.264030
C671	C67	0.093800	0.581200	0.260930
C681	C68	0.446000	0.084400	0.349730
C691	C69	0.383800	0.988500	0.336980
C701	C70	0.405300	0.035400	0.250070
C711	C71	0.362100	0.963700	0.286600
C721	C72	0.061000	0.604600	0.181630
C731	C73	0.136300	0.697600	0.184730
C741	C74	0.036700	0.547000	0.222640
C751	C75	0.468800	0.125500	0.265490
C761	C76	0.739900	0.324000	0.595920
C771	C77	0.749300	0.282200	0.546000
C781	C78	0.796800	0.231300	0.547470
C791	C79	0.550100	0.815700	0.561010
C801	C80	0.578400	0.743700	0.562370
C811	C81	0.506200	0.831300	0.597370
C821	C82	0.487400	0.906200	0.594270
C831	C83	0.638400	0.554000	0.683070
C841	C84	0.604700	0.616200	0.670320
C851	C85	0.630100	0.594700	0.583410
C861	C86	0.601600	0.637900	0.619940
C871	C87	0.543600	0.939000	0.514970
C881	C88	0.561300	0.863700	0.518070
C891	C89	0.510300	0.963300	0.555980
C901	C90	0.656700	0.531200	0.598830
C911	C91	0.676000	0.260100	0.404080
C921	C92	0.717800	0.250700	0.454000
C931	C93	0.768700	0.203200	0.452530
C941	C94	0.184300	0.449900	0.438990
C951	C95	0.256300	0.421600	0.437630
C961	C96	0.168700	0.493800	0.402630
C971	C97	0.093800	0.512600	0.405730
C981	C98	0.446000	0.361600	0.316930
C991	C99	0.383800	0.395300	0.329680
C1001	C100	0.405300	0.369900	0.416590
C1011	C101	0.362100	0.398400	0.380060
C1021	C102	0.061000	0.456400	0.485030
C1031	C103	0.136300	0.438700	0.481930
C1041	C104	0.036700	0.489700	0.444020
C1051	C105	0.468800	0.343300	0.401170
C1061	C106	0.739900	0.415900	0.070750
C1071	C107	0.749300	0.467100	0.120670
C1081	C108	0.796800	0.565500	0.119200
C1091	C109	0.550100	0.734400	0.105660
C1101	C110	0.578400	0.834700	0.104300
C1111	C111	0.506200	0.674900	0.069300
C1121	C112	0.487400	0.581200	0.072400
C1131	C113	0.638400	0.084400	0.983600
C1141	C114	0.604700	0.988500	0.996350
C1151	C115	0.630100	0.035400	0.083260
C1161	C116	0.601600	0.963700	0.046730
C1171	C117	0.543600	0.604600	0.151700
C1181	C118	0.561300	0.697600	0.148600
C1191	C119	0.510300	0.547000	0.110690
C1201	C120	0.656700	0.125500	0.067840
C1211	C121	0.584100	0.324000	0.737420
C1221	C122	0.532900	0.282200	0.787340
C1231	C123	0.434500	0.231300	0.785870
C1241	C124	0.265600	0.815700	0.772330
C1251	C125	0.165300	0.743700	0.770970
C1261	C126	0.325100	0.831300	0.735970
C1271	C127	0.418800	0.906200	0.739070
C1281	C128	0.915600	0.554000	0.650270
C1291	C129	0.011500	0.616200	0.663020
C1301	C130	0.964600	0.594700	0.749930
C1311	C131	0.036300	0.637900	0.713400
C1321	C132	0.395400	0.939000	0.818370
C1331	C133	0.302400	0.863700	0.815270
C1341	C134	0.453000	0.963300	0.777360
C1351	C135	0.874500	0.531200	0.734510
C1361	C136	0.324000	0.739900	0.404080
C1371	C137	0.282200	0.749300	0.454000
C1381	C138	0.231300	0.796800	0.452530
C1391	C139	0.815700	0.550100	0.438990
C1401	C140	0.743700	0.578400	0.437630
C1411	C141	0.831300	0.506200	0.402630
C1421	C142	0.906200	0.487400	0.405730
C1431	C143	0.554000	0.638400	0.316930
C1441	C144	0.616200	0.604700	0.329680
C1451	C145	0.594700	0.630100	0.416590
C1461	C146	0.637900	0.601600	0.380060
C1471	C147	0.939000	0.543600	0.485030
C1481	C148	0.863700	0.561300	0.481930
C1491	C149	0.963300	0.510300	0.444020
C1501	C150	0.531200	0.656700	0.401170
C1511	C151	0.260100	0.584100	0.070750
C1521	C152	0.250700	0.532900	0.120670
C1531	C153	0.203200	0.434500	0.119200
C1541	C154	0.449900	0.265600	0.105660
C1551	C155	0.421600	0.165300	0.104300
C1561	C156	0.493800	0.325100	0.069300
C1571	C157	0.512600	0.418800	0.072400
C1581	C158	0.361600	0.915600	0.983600
C1591	C159	0.395300	0.011500	0.996350
C1601	C160	0.369900	0.964600	0.083260
C1611	C161	0.398400	0.036300	0.046730
C1621	C162	0.456400	0.395400	0.151700
C1631	C163	0.438700	0.302400	0.148600
C1641	C164	0.489700	0.453000	0.110690
C1651	C165	0.343300	0.874500	0.067840
C1661	C166	0.415900	0.676000	0.737420
C1671	C167	0.467100	0.717800	0.787340
C1681	C168	0.565500	0.768700	0.785870
C1691	C169	0.734400	0.184300	0.772330
C1701	C170	0.834700	0.256300	0.770970
C1711	C171	0.674900	0.168700	0.735970
C1721	C172	0.581200	0.093800	0.739070
C1731	C173	0.084400	0.446000	0.650270
C1741	C174	0.988500	0.383800	0.663020
C1751	C175	0.035400	0.405300	0.749930
C1761	C176	0.963700	0.362100	0.713400
C1771	C177	0.604600	0.061000	0.818370
C1781	C178	0.697600	0.136300	0.815270
C1791	C179	0.547000	0.036700	0.777360
C1801	C180	0.125500	0.468800	0.734510
C1811	C181	0.421000	0.710500	0.833330
C1821	C182	0.614100	0.807050	0.833330
C1831	C183	0.289500	0.579000	0.166670
C1841	C184	0.192950	0.385900	0.166670
C1851	C185	0.289500	0.710500	0.500000
C1861	C186	0.192950	0.807050	0.500000
C1871	C187	0.579000	0.289500	0.833330
C1881	C188	0.385900	0.192950	0.833330
C1891	C189	0.710500	0.421000	0.166670
C1901	C190	0.807050	0.614100	0.166670
C1911	C191	0.710500	0.289500	0.500000
C1921	C192	0.807050	0.192950	0.500000
N11	N1	0.150830	0.663910	0.981450
N21	N2	0.871940	0.573140	0.941200
N31	N3	0.513080	0.849170	0.314780
N41	N4	0.701200	0.128060	0.274530
N51	N5	0.336090	0.486920	0.648120
N61	N6	0.426860	0.298800	0.607870
N71	N7	0.849170	0.336090	0.981450
N81	N8	0.128060	0.426860	0.941200
N91	N9	0.486920	0.150830	0.314780
N101	N10	0.298800	0.871940	0.274530
N111	N11	0.663910	0.513080	0.648120
N121	N12	0.573140	0.701200	0.607870
N131	N13	0.486920	0.336090	0.351880
N141	N14	0.298800	0.426860	0.392130
N151	N15	0.663910	0.150830	0.018550
N161	N16	0.573140	0.871940	0.058800
N171	N17	0.849170	0.513080	0.685220
N181	N18	0.128060	0.701200	0.725470
N191	N19	0.513080	0.663910	0.351880
N201	N20	0.701200	0.573140	0.392130
N211	N21	0.336090	0.849170	0.018550
N221	N22	0.426860	0.128060	0.058800
N231	N23	0.150830	0.486920	0.685220
N241	N24	0.871940	0.298800	0.725470
O11	O1	0.330280	0.708710	0.928340
O21	O2	0.461300	0.765320	0.971430
O31	O3	0.882600	0.608500	0.856530
O41	O4	0.378430	0.669720	0.261670
O51	O5	0.304020	0.538700	0.304760
O61	O6	0.725900	0.117400	0.189860
O71	O7	0.291290	0.621570	0.595010
O81	O8	0.234680	0.695980	0.638100
O91	O9	0.391500	0.274100	0.523200
O101	O10	0.669720	0.291290	0.928340
O111	O11	0.538700	0.234680	0.971430
O121	O12	0.117400	0.391500	0.856530
O131	O13	0.621570	0.330280	0.261670
O141	O14	0.695980	0.461300	0.304760
O151	O15	0.274100	0.882600	0.189860
O161	O16	0.708710	0.378430	0.595010
O171	O17	0.765320	0.304020	0.638100
O181	O18	0.608500	0.725900	0.523200
O191	O19	0.621570	0.291290	0.404990
O201	O20	0.695980	0.234680	0.361900
O211	O21	0.274100	0.391500	0.476800
O221	O22	0.708710	0.330280	0.071660
O231	O23	0.765320	0.461300	0.028570
O241	O24	0.608500	0.882600	0.143470
O251	O25	0.669720	0.378430	0.738330
O261	O26	0.538700	0.304020	0.695240
O271	O27	0.117400	0.725900	0.810140
O281	O28	0.378430	0.708710	0.404990
O291	O29	0.304020	0.765320	0.361900
O301	O30	0.725900	0.608500	0.476800
O311	O31	0.291290	0.669720	0.071660
O321	O32	0.234680	0.538700	0.028570
O331	O33	0.391500	0.117400	0.143470
O341	O34	0.330280	0.621570	0.738330
O351	O35	0.461300	0.695980	0.695240
O361	O36	0.882600	0.274100	0.810140
