data_RAZXIA02_freeONLY_PM
_symmetry_space_group_name_H-M	'P1'
_cell_length_a	13.000500
_cell_length_b	13.000500
_cell_length_c	30.200200
_cell_angle_alpha	90.000000
_cell_angle_beta	90.000000
_cell_angle_gamma	90.000000
_symmetry_Int_Tables_number 1

loop_
_symmetry_equiv_pos_as_xyz
'x,y,z'

loop_
_atom_site_label
_atom_site_type_symbol
_atom_site_fract_x
_atom_site_fract_y
_atom_site_fract_z
Co11	Co1	0.895400	0.951310	0.459640
C11	C1	0.106500	0.915900	0.378300
C21	C2	0.150200	0.832800	0.408200
C31	C3	0.077100	0.809000	0.448300
C41	C4	0.140000	0.733500	0.476700
C51	C5	0.080100	0.684100	0.513500
C61	C6	0.978500	0.755700	0.431400
O11	O1	0.109600	0.009300	0.390710
O21	O2	0.069700	0.889300	0.340920
O31	O3	0.054300	0.901100	0.471280
O41	O4	0.895200	0.801100	0.437680
O51	O5	0.990700	0.671400	0.414400
O61	O6	0.037300	0.736800	0.541930
O71	O7	0.075300	0.584800	0.514300
H11	H1	0.217100	0.856100	0.419200
H21	H2	0.158100	0.770100	0.391600
H31	H3	0.194600	0.772600	0.489900
H41	H4	0.169700	0.681000	0.458600
O81	O8	0.623000	0.690300	0.417500
Co21	Co2	0.395400	0.451310	0.959640
C71	C7	0.606500	0.415900	0.878300
C81	C8	0.650200	0.332800	0.908200
C91	C9	0.577100	0.309000	0.948300
C101	C10	0.640000	0.233500	0.976700
C111	C11	0.580100	0.184100	0.013500
C121	C12	0.478500	0.255700	0.931400
O91	O9	0.609600	0.509300	0.890710
O101	O10	0.569700	0.389300	0.840920
O111	O11	0.554300	0.401100	0.971280
O121	O12	0.395200	0.301100	0.937680
O131	O13	0.490700	0.171400	0.914400
O141	O14	0.537300	0.236800	0.041930
O151	O15	0.575300	0.084800	0.014300
H51	H5	0.717100	0.356100	0.919200
H61	H6	0.658100	0.270100	0.891600
H71	H7	0.694600	0.272600	0.989900
H81	H8	0.669700	0.181000	0.958600
O161	O16	0.123000	0.190300	0.917500
Co31	Co3	0.104600	0.048690	0.459640
C131	C13	0.893500	0.084100	0.378300
C141	C14	0.849800	0.167200	0.408200
C151	C15	0.922900	0.191000	0.448300
C161	C16	0.860000	0.266500	0.476700
C171	C17	0.919900	0.315900	0.513500
C181	C18	0.021500	0.244300	0.431400
O171	O17	0.890400	0.990700	0.390710
O181	O18	0.930300	0.110700	0.340920
O191	O19	0.945700	0.098900	0.471280
O201	O20	0.104800	0.198900	0.437680
O211	O21	0.009300	0.328600	0.414400
O221	O22	0.962700	0.263200	0.541930
O231	O23	0.924700	0.415200	0.514300
H91	H9	0.782900	0.143900	0.419200
H101	H10	0.841900	0.229900	0.391600
H111	H11	0.805400	0.227400	0.489900
H121	H12	0.830300	0.319000	0.458600
O241	O24	0.377000	0.309700	0.417500
Co41	Co4	0.604600	0.548690	0.959640
C191	C19	0.393500	0.584100	0.878300
C201	C20	0.349800	0.667200	0.908200
C211	C21	0.422900	0.691000	0.948300
C221	C22	0.360000	0.766500	0.976700
C231	C23	0.419900	0.815900	0.013500
C241	C24	0.521500	0.744300	0.931400
O251	O25	0.390400	0.490700	0.890710
O261	O26	0.430300	0.610700	0.840920
O271	O27	0.445700	0.598900	0.971280
O281	O28	0.604800	0.698900	0.937680
O291	O29	0.509300	0.828600	0.914400
O301	O30	0.462700	0.763200	0.041930
O311	O31	0.424700	0.915200	0.014300
H131	H13	0.282900	0.643900	0.919200
H141	H14	0.341900	0.729900	0.891600
H151	H15	0.305400	0.727400	0.989900
H161	H16	0.330300	0.819000	0.958600
O321	O32	0.877000	0.809700	0.917500
Co51	Co5	0.951310	0.104600	0.540360
C251	C25	0.915900	0.893500	0.621700
C261	C26	0.832800	0.849800	0.591800
C271	C27	0.809000	0.922900	0.551700
C281	C28	0.733500	0.860000	0.523300
C291	C29	0.684100	0.919900	0.486500
C301	C30	0.755700	0.021500	0.568600
O331	O33	0.009300	0.890400	0.609290
O341	O34	0.889300	0.930300	0.659080
O351	O35	0.901100	0.945700	0.528720
O361	O36	0.801100	0.104800	0.562320
O371	O37	0.671400	0.009300	0.585600
O381	O38	0.736800	0.962700	0.458070
O391	O39	0.584800	0.924700	0.485700
H171	H17	0.856100	0.782900	0.580800
H181	H18	0.770100	0.841900	0.608400
H191	H19	0.772600	0.805400	0.510100
H201	H20	0.681000	0.830300	0.541400
O401	O40	0.690300	0.377000	0.582500
Co61	Co6	0.451310	0.604600	0.040360
C311	C31	0.415900	0.393500	0.121700
C321	C32	0.332800	0.349800	0.091800
C331	C33	0.309000	0.422900	0.051700
C341	C34	0.233500	0.360000	0.023300
C351	C35	0.184100	0.419900	0.986500
C361	C36	0.255700	0.521500	0.068600
O411	O41	0.509300	0.390400	0.109290
O421	O42	0.389300	0.430300	0.159080
O431	O43	0.401100	0.445700	0.028720
O441	O44	0.301100	0.604800	0.062320
O451	O45	0.171400	0.509300	0.085600
O461	O46	0.236800	0.462700	0.958070
O471	O47	0.084800	0.424700	0.985700
H211	H21	0.356100	0.282900	0.080800
H221	H22	0.270100	0.341900	0.108400
H231	H23	0.272600	0.305400	0.010100
H241	H24	0.181000	0.330300	0.041400
O481	O48	0.190300	0.877000	0.082500
Co71	Co7	0.048690	0.895400	0.540360
C371	C37	0.084100	0.106500	0.621700
C381	C38	0.167200	0.150200	0.591800
C391	C39	0.191000	0.077100	0.551700
C401	C40	0.266500	0.140000	0.523300
C411	C41	0.315900	0.080100	0.486500
C421	C42	0.244300	0.978500	0.568600
O491	O49	0.990700	0.109600	0.609290
O501	O50	0.110700	0.069700	0.659080
O511	O51	0.098900	0.054300	0.528720
O521	O52	0.198900	0.895200	0.562320
O531	O53	0.328600	0.990700	0.585600
O541	O54	0.263200	0.037300	0.458070
O551	O55	0.415200	0.075300	0.485700
H251	H25	0.143900	0.217100	0.580800
H261	H26	0.229900	0.158100	0.608400
H271	H27	0.227400	0.194600	0.510100
H281	H28	0.319000	0.169700	0.541400
O561	O56	0.309700	0.623000	0.582500
Co81	Co8	0.548690	0.395400	0.040360
C431	C43	0.584100	0.606500	0.121700
C441	C44	0.667200	0.650200	0.091800
C451	C45	0.691000	0.577100	0.051700
C461	C46	0.766500	0.640000	0.023300
C471	C47	0.815900	0.580100	0.986500
C481	C48	0.744300	0.478500	0.068600
O571	O57	0.490700	0.609600	0.109290
O581	O58	0.610700	0.569700	0.159080
O591	O59	0.598900	0.554300	0.028720
O601	O60	0.698900	0.395200	0.062320
O611	O61	0.828600	0.490700	0.085600
O621	O62	0.763200	0.537300	0.958070
O631	O63	0.915200	0.575300	0.985700
H291	H29	0.643900	0.717100	0.080800
H301	H30	0.729900	0.658100	0.108400
H311	H31	0.727400	0.694600	0.010100
H321	H32	0.819000	0.669700	0.041400
O641	O64	0.809700	0.123000	0.082500
Co91	Co9	0.604600	0.951310	0.290360
C491	C49	0.393500	0.915900	0.371700
C501	C50	0.349800	0.832800	0.341800
C511	C51	0.422900	0.809000	0.301700
C521	C52	0.360000	0.733500	0.273300
C531	C53	0.419900	0.684100	0.236500
C541	C54	0.521500	0.755700	0.318600
O651	O65	0.390400	0.009300	0.359290
O661	O66	0.430300	0.889300	0.409080
O671	O67	0.445700	0.901100	0.278720
O681	O68	0.604800	0.801100	0.312320
O691	O69	0.509300	0.671400	0.335600
O701	O70	0.462700	0.736800	0.208070
O711	O71	0.424700	0.584800	0.235700
H331	H33	0.282900	0.856100	0.330800
H341	H34	0.341900	0.770100	0.358400
H351	H35	0.305400	0.772600	0.260100
H361	H36	0.330300	0.681000	0.291400
O721	O72	0.877000	0.690300	0.332500
Co101	Co10	0.104600	0.451310	0.790360
C551	C55	0.893500	0.415900	0.871700
C561	C56	0.849800	0.332800	0.841800
C571	C57	0.922900	0.309000	0.801700
C581	C58	0.860000	0.233500	0.773300
C591	C59	0.919900	0.184100	0.736500
C601	C60	0.021500	0.255700	0.818600
O731	O73	0.890400	0.509300	0.859290
O741	O74	0.930300	0.389300	0.909080
O751	O75	0.945700	0.401100	0.778720
O761	O76	0.104800	0.301100	0.812320
O771	O77	0.009300	0.171400	0.835600
O781	O78	0.962700	0.236800	0.708070
O791	O79	0.924700	0.084800	0.735700
H371	H37	0.782900	0.356100	0.830800
H381	H38	0.841900	0.270100	0.858400
H391	H39	0.805400	0.272600	0.760100
H401	H40	0.830300	0.181000	0.791400
O801	O80	0.377000	0.190300	0.832500
Co111	Co11	0.395400	0.048690	0.290360
C611	C61	0.606500	0.084100	0.371700
C621	C62	0.650200	0.167200	0.341800
C631	C63	0.577100	0.191000	0.301700
C641	C64	0.640000	0.266500	0.273300
C651	C65	0.580100	0.315900	0.236500
C661	C66	0.478500	0.244300	0.318600
O811	O81	0.609600	0.990700	0.359290
O821	O82	0.569700	0.110700	0.409080
O831	O83	0.554300	0.098900	0.278720
O841	O84	0.395200	0.198900	0.312320
O851	O85	0.490700	0.328600	0.335600
O861	O86	0.537300	0.263200	0.208070
O871	O87	0.575300	0.415200	0.235700
H411	H41	0.717100	0.143900	0.330800
H421	H42	0.658100	0.229900	0.358400
H431	H43	0.694600	0.227400	0.260100
H441	H44	0.669700	0.319000	0.291400
O881	O88	0.123000	0.309700	0.332500
Co121	Co12	0.895400	0.548690	0.790360
C671	C67	0.106500	0.584100	0.871700
C681	C68	0.150200	0.667200	0.841800
C691	C69	0.077100	0.691000	0.801700
C701	C70	0.140000	0.766500	0.773300
C711	C71	0.080100	0.815900	0.736500
C721	C72	0.978500	0.744300	0.818600
O891	O89	0.109600	0.490700	0.859290
O901	O90	0.069700	0.610700	0.909080
O911	O91	0.054300	0.598900	0.778720
O921	O92	0.895200	0.698900	0.812320
O931	O93	0.990700	0.828600	0.835600
O941	O94	0.037300	0.763200	0.708070
O951	O95	0.075300	0.915200	0.735700
H451	H45	0.217100	0.643900	0.830800
H461	H46	0.158100	0.729900	0.858400
H471	H47	0.194600	0.727400	0.760100
H481	H48	0.169700	0.819000	0.791400
O961	O96	0.623000	0.809700	0.832500
Co131	Co13	0.548690	0.104600	0.209640
C731	C73	0.584100	0.893500	0.128300
C741	C74	0.667200	0.849800	0.158200
C751	C75	0.691000	0.922900	0.198300
C761	C76	0.766500	0.860000	0.226700
C771	C77	0.815900	0.919900	0.263500
C781	C78	0.744300	0.021500	0.181400
O971	O97	0.490700	0.890400	0.140710
O981	O98	0.610700	0.930300	0.090920
O991	O99	0.598900	0.945700	0.221280
O1001	O100	0.698900	0.104800	0.187680
O1011	O101	0.828600	0.009300	0.164400
O1021	O102	0.763200	0.962700	0.291930
O1031	O103	0.915200	0.924700	0.264300
H491	H49	0.643900	0.782900	0.169200
H501	H50	0.729900	0.841900	0.141600
H511	H51	0.727400	0.805400	0.239900
H521	H52	0.819000	0.830300	0.208600
O1041	O104	0.809700	0.377000	0.167500
Co141	Co14	0.048690	0.604600	0.709640
C791	C79	0.084100	0.393500	0.628300
C801	C80	0.167200	0.349800	0.658200
C811	C81	0.191000	0.422900	0.698300
C821	C82	0.266500	0.360000	0.726700
C831	C83	0.315900	0.419900	0.763500
C841	C84	0.244300	0.521500	0.681400
O1051	O105	0.990700	0.390400	0.640710
O1061	O106	0.110700	0.430300	0.590920
O1071	O107	0.098900	0.445700	0.721280
O1081	O108	0.198900	0.604800	0.687680
O1091	O109	0.328600	0.509300	0.664400
O1101	O110	0.263200	0.462700	0.791930
O1111	O111	0.415200	0.424700	0.764300
H531	H53	0.143900	0.282900	0.669200
H541	H54	0.229900	0.341900	0.641600
H551	H55	0.227400	0.305400	0.739900
H561	H56	0.319000	0.330300	0.708600
O1121	O112	0.309700	0.877000	0.667500
Co151	Co15	0.451310	0.895400	0.209640
C851	C85	0.415900	0.106500	0.128300
C861	C86	0.332800	0.150200	0.158200
C871	C87	0.309000	0.077100	0.198300
C881	C88	0.233500	0.140000	0.226700
C891	C89	0.184100	0.080100	0.263500
C901	C90	0.255700	0.978500	0.181400
O1131	O113	0.509300	0.109600	0.140710
O1141	O114	0.389300	0.069700	0.090920
O1151	O115	0.401100	0.054300	0.221280
O1161	O116	0.301100	0.895200	0.187680
O1171	O117	0.171400	0.990700	0.164400
O1181	O118	0.236800	0.037300	0.291930
O1191	O119	0.084800	0.075300	0.264300
H571	H57	0.356100	0.217100	0.169200
H581	H58	0.270100	0.158100	0.141600
H591	H59	0.272600	0.194600	0.239900
H601	H60	0.181000	0.169700	0.208600
O1201	O120	0.190300	0.623000	0.167500
Co161	Co16	0.951310	0.395400	0.709640
C911	C91	0.915900	0.606500	0.628300
C921	C92	0.832800	0.650200	0.658200
C931	C93	0.809000	0.577100	0.698300
C941	C94	0.733500	0.640000	0.726700
C951	C95	0.684100	0.580100	0.763500
C961	C96	0.755700	0.478500	0.681400
O1211	O121	0.009300	0.609600	0.640710
O1221	O122	0.889300	0.569700	0.590920
O1231	O123	0.901100	0.554300	0.721280
O1241	O124	0.801100	0.395200	0.687680
O1251	O125	0.671400	0.490700	0.664400
O1261	O126	0.736800	0.537300	0.791930
O1271	O127	0.584800	0.575300	0.764300
H611	H61	0.856100	0.717100	0.669200
H621	H62	0.770100	0.658100	0.641600
H631	H63	0.772600	0.694600	0.739900
H641	H64	0.681000	0.669700	0.708600
O1281	O128	0.690300	0.123000	0.667500
Co171	Co17	0.000000	0.000000	0.307810
Co181	Co18	0.500000	0.500000	0.807810
Co191	Co19	0.000000	0.000000	0.692190
Co201	Co20	0.500000	0.500000	0.192190
Co211	Co21	0.500000	0.000000	0.442190
Co221	Co22	0.000000	0.500000	0.942190
Co231	Co23	0.500000	0.000000	0.057810
Co241	Co24	0.000000	0.500000	0.557810
K11	K1	0.750000	0.836900	0.375000
K21	K2	0.250000	0.336900	0.875000
K31	K3	0.250000	0.163100	0.375000
K41	K4	0.750000	0.663100	0.875000
K51	K5	0.836900	0.250000	0.625000
K61	K6	0.163100	0.750000	0.625000
K71	K7	0.663100	0.250000	0.125000
K81	K8	0.336900	0.750000	0.125000
