data_RAZYIC_freeONLY_PM
_symmetry_space_group_name_H-M	'P1'
_cell_length_a	13.126100
_cell_length_b	17.131500
_cell_length_c	17.131500
_cell_angle_alpha	81.560500
_cell_angle_beta	67.474200
_cell_angle_gamma	67.474300
_symmetry_Int_Tables_number 1

loop_
_symmetry_equiv_pos_as_xyz
'x,y,z'

loop_
_atom_site_label
_atom_site_type_symbol
_atom_site_fract_x
_atom_site_fract_y
_atom_site_fract_z
Cu11	Cu1	0.366950	0.250000	0.766100
Cu21	Cu2	0.883050	0.250000	0.733900
Cu31	Cu3	0.633050	0.233900	0.750000
Cu41	Cu4	0.116950	0.266100	0.750000
Cu51	Cu5	0.633050	0.750000	0.233900
Cu61	Cu6	0.116950	0.750000	0.266100
Cu71	Cu7	0.366950	0.766100	0.250000
Cu81	Cu8	0.883050	0.733900	0.250000
H11	H1	0.210200	0.182500	0.945700
H21	H2	0.257300	0.145900	0.856500
H31	H3	0.267500	0.016000	0.902400
H41	H4	0.146200	0.075000	0.958600
H51	H5	0.838400	0.317500	0.554300
H61	H6	0.759700	0.354100	0.643500
H71	H7	0.685900	0.484000	0.597600
H81	H8	0.679800	0.425000	0.541400
H91	H9	0.655900	0.054300	0.682500
H101	H10	0.613800	0.143500	0.645900
H111	H11	0.669900	0.097600	0.516000
H121	H12	0.604800	0.041400	0.575000
H131	H13	0.892700	0.445700	0.817500
H141	H14	0.903200	0.356500	0.854100
H151	H15	0.783500	0.402400	0.984000
H161	H16	0.721200	0.458600	0.925000
H171	H17	0.161600	0.445700	0.682500
H181	H18	0.240300	0.356500	0.645900
H191	H19	0.314100	0.402400	0.516000
H201	H20	0.320200	0.458600	0.575000
H211	H21	0.789800	0.054300	0.817500
H221	H22	0.742700	0.143500	0.854100
H231	H23	0.732500	0.097600	0.984000
H241	H24	0.853800	0.041400	0.925000
H251	H25	0.107300	0.182500	0.554300
H261	H26	0.096800	0.145900	0.643500
H271	H27	0.216500	0.016000	0.597600
H281	H28	0.278800	0.075000	0.541400
H291	H29	0.344100	0.317500	0.945700
H301	H30	0.386200	0.354100	0.856500
H311	H31	0.330100	0.484000	0.902400
H321	H32	0.395200	0.425000	0.958600
H331	H33	0.789800	0.817500	0.054300
H341	H34	0.742700	0.854100	0.143500
H351	H35	0.732500	0.984000	0.097600
H361	H36	0.853800	0.925000	0.041400
H371	H37	0.161600	0.682500	0.445700
H381	H38	0.240300	0.645900	0.356500
H391	H39	0.314100	0.516000	0.402400
H401	H40	0.320200	0.575000	0.458600
H411	H41	0.344100	0.945700	0.317500
H421	H42	0.386200	0.856500	0.354100
H431	H43	0.330100	0.902400	0.484000
H441	H44	0.395200	0.958600	0.425000
H451	H45	0.107300	0.554300	0.182500
H461	H46	0.096800	0.643500	0.145900
H471	H47	0.216500	0.597600	0.016000
H481	H48	0.278800	0.541400	0.075000
H491	H49	0.838400	0.554300	0.317500
H501	H50	0.759700	0.643500	0.354100
H511	H51	0.685900	0.597600	0.484000
H521	H52	0.679800	0.541400	0.425000
H531	H53	0.210200	0.945700	0.182500
H541	H54	0.257300	0.856500	0.145900
H551	H55	0.267500	0.902400	0.016000
H561	H56	0.146200	0.958600	0.075000
H571	H57	0.892700	0.817500	0.445700
H581	H58	0.903200	0.854100	0.356500
H591	H59	0.783500	0.984000	0.402400
H601	H60	0.721200	0.925000	0.458600
H611	H61	0.655900	0.682500	0.054300
H621	H62	0.613800	0.645900	0.143500
H631	H63	0.669900	0.516000	0.097600
H641	H64	0.604800	0.575000	0.041400
H651	H65	0.207800	0.065100	0.065100
H661	H66	0.838000	0.434900	0.434900
H671	H67	0.772900	0.934900	0.565100
H681	H68	0.772900	0.565100	0.934900
H691	H69	0.162000	0.565100	0.565100
H701	H70	0.792200	0.934900	0.934900
H711	H71	0.227100	0.065100	0.434900
H721	H72	0.227100	0.434900	0.065100
C11	C1	0.386700	0.119500	0.901700
C21	C2	0.441300	0.059100	0.952700
C31	C3	0.263200	0.134300	0.911100
C41	C4	0.229800	0.058500	0.944700
C51	C5	0.907900	0.380500	0.598300
C61	C6	0.953100	0.440900	0.547300
C71	C7	0.808600	0.365700	0.588900
C81	C8	0.733000	0.441500	0.555300
C91	C9	0.788400	0.098300	0.619500
C101	C10	0.894000	0.047300	0.559100
C111	C11	0.674300	0.088900	0.634300
C121	C12	0.674500	0.055300	0.558500
C131	C13	0.006200	0.401700	0.880500
C141	C14	0.000400	0.452700	0.940900
C151	C15	0.897500	0.411100	0.865700
C161	C16	0.788300	0.444700	0.941500
C171	C17	0.092100	0.401700	0.619500
C181	C18	0.046900	0.452700	0.559100
C191	C19	0.191400	0.411100	0.634300
C201	C20	0.267000	0.444700	0.558500
C211	C21	0.613300	0.098300	0.880500
C221	C22	0.558700	0.047300	0.940900
C231	C23	0.736800	0.088900	0.865700
C241	C24	0.770200	0.055300	0.941500
C251	C25	0.993800	0.119500	0.598300
C261	C26	0.999600	0.059100	0.547300
C271	C27	0.102500	0.134300	0.588900
C281	C28	0.211700	0.058500	0.555300
C291	C29	0.211600	0.380500	0.901700
C301	C30	0.106000	0.440900	0.952700
C311	C31	0.325700	0.365700	0.911100
C321	C32	0.325500	0.441500	0.944700
C331	C33	0.613300	0.880500	0.098300
C341	C34	0.558700	0.940900	0.047300
C351	C35	0.736800	0.865700	0.088900
C361	C36	0.770200	0.941500	0.055300
C371	C37	0.092100	0.619500	0.401700
C381	C38	0.046900	0.559100	0.452700
C391	C39	0.191400	0.634300	0.411100
C401	C40	0.267000	0.558500	0.444700
C411	C41	0.211600	0.901700	0.380500
C421	C42	0.106000	0.952700	0.440900
C431	C43	0.325700	0.911100	0.365700
C441	C44	0.325500	0.944700	0.441500
C451	C45	0.993800	0.598300	0.119500
C461	C46	0.999600	0.547300	0.059100
C471	C47	0.102500	0.588900	0.134300
C481	C48	0.211700	0.555300	0.058500
C491	C49	0.907900	0.598300	0.380500
C501	C50	0.953100	0.547300	0.440900
C511	C51	0.808600	0.588900	0.365700
C521	C52	0.733000	0.555300	0.441500
C531	C53	0.386700	0.901700	0.119500
C541	C54	0.441300	0.952700	0.059100
C551	C55	0.263200	0.911100	0.134300
C561	C56	0.229800	0.944700	0.058500
C571	C57	0.006200	0.880500	0.401700
C581	C58	0.000400	0.940900	0.452700
C591	C59	0.897500	0.865700	0.411100
C601	C60	0.788300	0.941500	0.444700
C611	C61	0.788400	0.619500	0.098300
C621	C62	0.894000	0.559100	0.047300
C631	C63	0.674300	0.634300	0.088900
C641	C64	0.674500	0.558500	0.055300
C651	C65	0.380700	0.011500	0.011500
C661	C66	0.256700	0.022800	0.022800
C671	C67	0.903700	0.488500	0.488500
C681	C68	0.802300	0.477200	0.477200
C691	C69	0.892200	0.988500	0.511500
C701	C70	0.779500	0.977200	0.522800
C711	C71	0.892200	0.511500	0.988500
C721	C72	0.779500	0.522800	0.977200
C731	C73	0.096300	0.511500	0.511500
C741	C74	0.197700	0.522800	0.522800
C751	C75	0.619300	0.988500	0.988500
C761	C76	0.743300	0.977200	0.977200
C771	C77	0.107800	0.011500	0.488500
C781	C78	0.220500	0.022800	0.477200
C791	C79	0.107800	0.488500	0.011500
C801	C80	0.220500	0.477200	0.022800
I11	I1	0.500000	0.332780	0.667220
I21	I2	0.000000	0.167220	0.832780
I31	I3	0.667220	0.332780	0.832780
I41	I4	0.332780	0.167220	0.667220
I51	I5	0.500000	0.667220	0.332780
I61	I6	0.000000	0.832780	0.167220
I71	I7	0.332780	0.667220	0.167220
I81	I8	0.667220	0.832780	0.332780
N11	N1	0.441600	0.165100	0.845700
N21	N2	0.952400	0.334900	0.654300
N31	N3	0.787300	0.154300	0.665100
N41	N4	0.106700	0.345700	0.834900
N51	N5	0.047600	0.345700	0.665100
N61	N6	0.558400	0.154300	0.834900
N71	N7	0.893300	0.165100	0.654300
N81	N8	0.212700	0.334900	0.845700
N91	N9	0.558400	0.834900	0.154300
N101	N10	0.047600	0.665100	0.345700
N111	N11	0.212700	0.845700	0.334900
N121	N12	0.893300	0.654300	0.165100
N131	N13	0.952400	0.654300	0.334900
N141	N14	0.441600	0.845700	0.165100
N151	N15	0.106700	0.834900	0.345700
N161	N16	0.787300	0.665100	0.154300
