data_REGJIW_freeONLY_PM
_symmetry_space_group_name_H-M	'P1'
_cell_length_a	5.506000
_cell_length_b	7.946000
_cell_length_c	7.946000
_cell_angle_alpha	108.100000
_cell_angle_beta	90.223100
_cell_angle_gamma	90.223100
_symmetry_Int_Tables_number 1

loop_
_symmetry_equiv_pos_as_xyz
'x,y,z'

loop_
_atom_site_label
_atom_site_type_symbol
_atom_site_fract_x
_atom_site_fract_y
_atom_site_fract_z
Co11	Co1	0.500000	0.000000	0.000000
Co21	Co2	0.000000	0.120550	0.879450
Co31	Co3	0.000000	0.879450	0.120550
H11	H1	0.164200	0.821300	0.821300
H21	H2	0.835800	0.178700	0.178700
C11	C1	0.341700	0.051700	0.567100
C21	C2	0.575000	0.992300	0.615700
C31	C3	0.658300	0.432900	0.948300
C41	C4	0.425000	0.384300	0.007700
C51	C5	0.658300	0.948300	0.432900
C61	C6	0.425000	0.007700	0.384300
C71	C7	0.341700	0.567100	0.051700
C81	C8	0.575000	0.615700	0.992300
O11	O1	0.150900	0.117600	0.643200
O21	O2	0.671400	0.981450	0.756750
O31	O3	0.849100	0.356800	0.882400
O41	O4	0.328600	0.243250	0.018550
O51	O5	0.849100	0.882400	0.356800
O61	O6	0.328600	0.018550	0.243250
O71	O7	0.150900	0.643200	0.117600
O81	O8	0.671400	0.756750	0.981450
O91	O9	0.175300	0.898600	0.898600
O101	O10	0.824700	0.101400	0.101400
