data_REHVEH_freeONLY_PM
_symmetry_space_group_name_H-M	'P1'
_cell_length_a	52.349000
_cell_length_b	20.421000
_cell_length_c	9.911100
_cell_angle_alpha	90.000000
_cell_angle_beta	90.000000
_cell_angle_gamma	90.000000
_symmetry_Int_Tables_number 1

loop_
_symmetry_equiv_pos_as_xyz
'x,y,z'

loop_
_atom_site_label
_atom_site_type_symbol
_atom_site_fract_x
_atom_site_fract_y
_atom_site_fract_z
Co11	Co1	0.461790	0.339560	0.165360
O11	O1	0.459390	0.415900	0.309660
O21	O2	0.464880	0.323490	0.415900
O31	O3	0.458870	0.419700	0.028990
O41	O4	0.461250	0.327080	0.925800
N11	N1	0.464470	0.734470	0.663300
N21	N2	0.502450	0.350570	0.157700
N31	N3	0.670860	0.421180	0.929700
C11	C1	0.464170	0.524280	0.665900
C21	C2	0.464230	0.488590	0.545100
H11	H1	0.465000	0.510900	0.461200
C31	C3	0.463170	0.420700	0.547800
C41	C4	0.462260	0.387710	0.668700
H21	H2	0.461800	0.341200	0.669900
C51	C5	0.462040	0.422820	0.790000
C61	C6	0.463140	0.490270	0.787600
H31	H3	0.463200	0.513900	0.870200
C71	C7	0.454810	0.699670	0.560600
H41	H4	0.447900	0.722600	0.485700
C81	C8	0.454440	0.632360	0.558600
H51	H5	0.447100	0.610100	0.483700
C91	C9	0.464580	0.596740	0.664500
C101	C10	0.474660	0.632770	0.770800
H61	H6	0.481700	0.611000	0.846900
C111	C11	0.474380	0.700630	0.765600
H71	H7	0.481700	0.724200	0.838700
C121	C12	0.462480	0.384010	0.416500
C131	C13	0.460580	0.386750	0.921900
C141	C14	0.583310	0.386460	0.114300
H81	H8	0.589900	0.409600	0.194900
H91	H9	0.592200	0.343900	0.107900
C151	C15	0.512390	0.410390	0.176600
H101	H10	0.501100	0.445100	0.199700
C161	C16	0.538050	0.424230	0.164300
H111	H11	0.544100	0.467600	0.177700
C171	C17	0.555030	0.374280	0.132200
C181	C18	0.544840	0.312810	0.111600
H121	H12	0.555700	0.277200	0.089200
C191	C19	0.518790	0.303090	0.123600
H131	H13	0.512200	0.260500	0.106700
C201	C20	0.589250	0.426290	0.991000
H141	H14	0.583000	0.471600	0.003700
H151	H15	0.580300	0.407300	0.912000
C211	C21	0.660430	0.457260	0.025600
H161	H16	0.671400	0.481800	0.082700
C221	C22	0.634210	0.461220	0.047400
H171	H17	0.627700	0.487200	0.119200
C231	C23	0.617660	0.427420	0.964900
C241	C24	0.628420	0.391560	0.864000
H181	H18	0.617900	0.368100	0.802900
C251	C25	0.654800	0.389180	0.850100
H191	H19	0.661700	0.363200	0.779600
Co21	Co2	0.461790	0.839560	0.665360
O51	O5	0.459390	0.915900	0.809660
O61	O6	0.464880	0.823490	0.915900
O71	O7	0.458870	0.919700	0.528990
O81	O8	0.461250	0.827080	0.425800
N41	N4	0.464470	0.234470	0.163300
N51	N5	0.502450	0.850570	0.657700
N61	N6	0.670860	0.921180	0.429700
C261	C26	0.464170	0.024280	0.165900
C271	C27	0.464230	0.988590	0.045100
H201	H20	0.465000	0.010900	0.961200
C281	C28	0.463170	0.920700	0.047800
C291	C29	0.462260	0.887710	0.168700
H211	H21	0.461800	0.841200	0.169900
C301	C30	0.462040	0.922820	0.290000
C311	C31	0.463140	0.990270	0.287600
H221	H22	0.463200	0.013900	0.370200
C321	C32	0.454810	0.199670	0.060600
H231	H23	0.447900	0.222600	0.985700
C331	C33	0.454440	0.132360	0.058600
H241	H24	0.447100	0.110100	0.983700
C341	C34	0.464580	0.096740	0.164500
C351	C35	0.474660	0.132770	0.270800
H251	H25	0.481700	0.111000	0.346900
C361	C36	0.474380	0.200630	0.265600
H261	H26	0.481700	0.224200	0.338700
C371	C37	0.462480	0.884010	0.916500
C381	C38	0.460580	0.886750	0.421900
C391	C39	0.583310	0.886460	0.614300
H271	H27	0.589900	0.909600	0.694900
H281	H28	0.592200	0.843900	0.607900
C401	C40	0.512390	0.910390	0.676600
H291	H29	0.501100	0.945100	0.699700
C411	C41	0.538050	0.924230	0.664300
H301	H30	0.544100	0.967600	0.677700
C421	C42	0.555030	0.874280	0.632200
C431	C43	0.544840	0.812810	0.611600
H311	H31	0.555700	0.777200	0.589200
C441	C44	0.518790	0.803090	0.623600
H321	H32	0.512200	0.760500	0.606700
C451	C45	0.589250	0.926290	0.491000
H331	H33	0.583000	0.971600	0.503700
H341	H34	0.580300	0.907300	0.412000
C461	C46	0.660430	0.957260	0.525600
H351	H35	0.671400	0.981800	0.582700
C471	C47	0.634210	0.961220	0.547400
H361	H36	0.627700	0.987200	0.619200
C481	C48	0.617660	0.927420	0.464900
C491	C49	0.628420	0.891560	0.364000
H371	H37	0.617900	0.868100	0.302900
C501	C50	0.654800	0.889180	0.350100
H381	H38	0.661700	0.863200	0.279600
Co31	Co3	0.961790	0.339560	0.665360
O91	O9	0.959390	0.415900	0.809660
O101	O10	0.964880	0.323490	0.915900
O111	O11	0.958870	0.419700	0.528990
O121	O12	0.961250	0.327080	0.425800
N71	N7	0.964470	0.734470	0.163300
N81	N8	0.002450	0.350570	0.657700
N91	N9	0.170860	0.421180	0.429700
C511	C51	0.964170	0.524280	0.165900
C521	C52	0.964230	0.488590	0.045100
H391	H39	0.965000	0.510900	0.961200
C531	C53	0.963170	0.420700	0.047800
C541	C54	0.962260	0.387710	0.168700
H401	H40	0.961800	0.341200	0.169900
C551	C55	0.962040	0.422820	0.290000
C561	C56	0.963140	0.490270	0.287600
H411	H41	0.963200	0.513900	0.370200
C571	C57	0.954810	0.699670	0.060600
H421	H42	0.947900	0.722600	0.985700
C581	C58	0.954440	0.632360	0.058600
H431	H43	0.947100	0.610100	0.983700
C591	C59	0.964580	0.596740	0.164500
C601	C60	0.974660	0.632770	0.270800
H441	H44	0.981700	0.611000	0.346900
C611	C61	0.974380	0.700630	0.265600
H451	H45	0.981700	0.724200	0.338700
C621	C62	0.962480	0.384010	0.916500
C631	C63	0.960580	0.386750	0.421900
C641	C64	0.083310	0.386460	0.614300
H461	H46	0.089900	0.409600	0.694900
H471	H47	0.092200	0.343900	0.607900
C651	C65	0.012390	0.410390	0.676600
H481	H48	0.001100	0.445100	0.699700
C661	C66	0.038050	0.424230	0.664300
H491	H49	0.044100	0.467600	0.677700
C671	C67	0.055030	0.374280	0.632200
C681	C68	0.044840	0.312810	0.611600
H501	H50	0.055700	0.277200	0.589200
C691	C69	0.018790	0.303090	0.623600
H511	H51	0.012200	0.260500	0.606700
C701	C70	0.089250	0.426290	0.491000
H521	H52	0.083000	0.471600	0.503700
H531	H53	0.080300	0.407300	0.412000
C711	C71	0.160430	0.457260	0.525600
H541	H54	0.171400	0.481800	0.582700
C721	C72	0.134210	0.461220	0.547400
H551	H55	0.127700	0.487200	0.619200
C731	C73	0.117660	0.427420	0.464900
C741	C74	0.128420	0.391560	0.364000
H561	H56	0.117900	0.368100	0.302900
C751	C75	0.154800	0.389180	0.350100
H571	H57	0.161700	0.363200	0.279600
Co41	Co4	0.961790	0.839560	0.165360
O131	O13	0.959390	0.915900	0.309660
O141	O14	0.964880	0.823490	0.415900
O151	O15	0.958870	0.919700	0.028990
O161	O16	0.961250	0.827080	0.925800
N101	N10	0.964470	0.234470	0.663300
N111	N11	0.002450	0.850570	0.157700
N121	N12	0.170860	0.921180	0.929700
C761	C76	0.964170	0.024280	0.665900
C771	C77	0.964230	0.988590	0.545100
H581	H58	0.965000	0.010900	0.461200
C781	C78	0.963170	0.920700	0.547800
C791	C79	0.962260	0.887710	0.668700
H591	H59	0.961800	0.841200	0.669900
C801	C80	0.962040	0.922820	0.790000
C811	C81	0.963140	0.990270	0.787600
H601	H60	0.963200	0.013900	0.870200
C821	C82	0.954810	0.199670	0.560600
H611	H61	0.947900	0.222600	0.485700
C831	C83	0.954440	0.132360	0.558600
H621	H62	0.947100	0.110100	0.483700
C841	C84	0.964580	0.096740	0.664500
C851	C85	0.974660	0.132770	0.770800
H631	H63	0.981700	0.111000	0.846900
C861	C86	0.974380	0.200630	0.765600
H641	H64	0.981700	0.224200	0.838700
C871	C87	0.962480	0.884010	0.416500
C881	C88	0.960580	0.886750	0.921900
C891	C89	0.083310	0.886460	0.114300
H651	H65	0.089900	0.909600	0.194900
H661	H66	0.092200	0.843900	0.107900
C901	C90	0.012390	0.910390	0.176600
H671	H67	0.001100	0.945100	0.199700
C911	C91	0.038050	0.924230	0.164300
H681	H68	0.044100	0.967600	0.177700
C921	C92	0.055030	0.874280	0.132200
C931	C93	0.044840	0.812810	0.111600
H691	H69	0.055700	0.777200	0.089200
C941	C94	0.018790	0.803090	0.123600
H701	H70	0.012200	0.760500	0.106700
C951	C95	0.089250	0.926290	0.991000
H711	H71	0.083000	0.971600	0.003700
H721	H72	0.080300	0.907300	0.912000
C961	C96	0.160430	0.957260	0.025600
H731	H73	0.171400	0.981800	0.082700
C971	C97	0.134210	0.961220	0.047400
H741	H74	0.127700	0.987200	0.119200
C981	C98	0.117660	0.927420	0.964900
C991	C99	0.128420	0.891560	0.864000
H751	H75	0.117900	0.868100	0.802900
C1001	C100	0.154800	0.889180	0.850100
H761	H76	0.161700	0.863200	0.779600
Co51	Co5	0.711790	0.910440	0.415360
O171	O17	0.709390	0.834100	0.559660
O181	O18	0.714880	0.926510	0.665900
O191	O19	0.708870	0.830300	0.278990
O201	O20	0.711250	0.922920	0.175800
N131	N13	0.714470	0.515530	0.913300
N141	N14	0.752450	0.899430	0.407700
N151	N15	0.920860	0.828820	0.179700
C1011	C101	0.714170	0.725720	0.915900
C1021	C102	0.714230	0.761410	0.795100
H771	H77	0.715000	0.739100	0.711200
C1031	C103	0.713170	0.829300	0.797800
C1041	C104	0.712260	0.862290	0.918700
H781	H78	0.711800	0.908800	0.919900
C1051	C105	0.712040	0.827180	0.040000
C1061	C106	0.713140	0.759730	0.037600
H791	H79	0.713200	0.736100	0.120200
C1071	C107	0.704810	0.550330	0.810600
H801	H80	0.697900	0.527400	0.735700
C1081	C108	0.704440	0.617640	0.808600
H811	H81	0.697100	0.639900	0.733700
C1091	C109	0.714580	0.653260	0.914500
C1101	C110	0.724660	0.617230	0.020800
H821	H82	0.731700	0.639000	0.096900
C1111	C111	0.724380	0.549370	0.015600
H831	H83	0.731700	0.525800	0.088700
C1121	C112	0.712480	0.865990	0.666500
C1131	C113	0.710580	0.863250	0.171900
C1141	C114	0.833310	0.863540	0.364300
H841	H84	0.839900	0.840400	0.444900
H851	H85	0.842200	0.906100	0.357900
C1151	C115	0.762390	0.839610	0.426600
H861	H86	0.751100	0.804900	0.449700
C1161	C116	0.788050	0.825770	0.414300
H871	H87	0.794100	0.782400	0.427700
C1171	C117	0.805030	0.875720	0.382200
C1181	C118	0.794840	0.937190	0.361600
H881	H88	0.805700	0.972800	0.339200
C1191	C119	0.768790	0.946910	0.373600
H891	H89	0.762200	0.989500	0.356700
C1201	C120	0.839250	0.823710	0.241000
H901	H90	0.833000	0.778400	0.253700
H911	H91	0.830300	0.842700	0.162000
C1211	C121	0.910430	0.792740	0.275600
H921	H92	0.921400	0.768200	0.332700
C1221	C122	0.884210	0.788780	0.297400
H931	H93	0.877700	0.762800	0.369200
C1231	C123	0.867660	0.822580	0.214900
C1241	C124	0.878420	0.858440	0.114000
H941	H94	0.867900	0.881900	0.052900
C1251	C125	0.904800	0.860820	0.100100
H951	H95	0.911700	0.886800	0.029600
Co61	Co6	0.711790	0.410440	0.915360
O211	O21	0.709390	0.334100	0.059660
O221	O22	0.714880	0.426510	0.165900
O231	O23	0.708870	0.330300	0.778990
O241	O24	0.711250	0.422920	0.675800
N161	N16	0.714470	0.015530	0.413300
N171	N17	0.752450	0.399430	0.907700
N181	N18	0.920860	0.328820	0.679700
C1261	C126	0.714170	0.225720	0.415900
C1271	C127	0.714230	0.261410	0.295100
H961	H96	0.715000	0.239100	0.211200
C1281	C128	0.713170	0.329300	0.297800
C1291	C129	0.712260	0.362290	0.418700
H971	H97	0.711800	0.408800	0.419900
C1301	C130	0.712040	0.327180	0.540000
C1311	C131	0.713140	0.259730	0.537600
H981	H98	0.713200	0.236100	0.620200
C1321	C132	0.704810	0.050330	0.310600
H991	H99	0.697900	0.027400	0.235700
C1331	C133	0.704440	0.117640	0.308600
H1001	H100	0.697100	0.139900	0.233700
C1341	C134	0.714580	0.153260	0.414500
C1351	C135	0.724660	0.117230	0.520800
H1011	H101	0.731700	0.139000	0.596900
C1361	C136	0.724380	0.049370	0.515600
H1021	H102	0.731700	0.025800	0.588700
C1371	C137	0.712480	0.365990	0.166500
C1381	C138	0.710580	0.363250	0.671900
C1391	C139	0.833310	0.363540	0.864300
H1031	H103	0.839900	0.340400	0.944900
H1041	H104	0.842200	0.406100	0.857900
C1401	C140	0.762390	0.339610	0.926600
H1051	H105	0.751100	0.304900	0.949700
C1411	C141	0.788050	0.325770	0.914300
H1061	H106	0.794100	0.282400	0.927700
C1421	C142	0.805030	0.375720	0.882200
C1431	C143	0.794840	0.437190	0.861600
H1071	H107	0.805700	0.472800	0.839200
C1441	C144	0.768790	0.446910	0.873600
H1081	H108	0.762200	0.489500	0.856700
C1451	C145	0.839250	0.323710	0.741000
H1091	H109	0.833000	0.278400	0.753700
H1101	H110	0.830300	0.342700	0.662000
C1461	C146	0.910430	0.292740	0.775600
H1111	H111	0.921400	0.268200	0.832700
C1471	C147	0.884210	0.288780	0.797400
H1121	H112	0.877700	0.262800	0.869200
C1481	C148	0.867660	0.322580	0.714900
C1491	C149	0.878420	0.358440	0.614000
H1131	H113	0.867900	0.381900	0.552900
C1501	C150	0.904800	0.360820	0.600100
H1141	H114	0.911700	0.386800	0.529600
Co71	Co7	0.211790	0.910440	0.915360
O251	O25	0.209390	0.834100	0.059660
O261	O26	0.214880	0.926510	0.165900
O271	O27	0.208870	0.830300	0.778990
O281	O28	0.211250	0.922920	0.675800
N191	N19	0.214470	0.515530	0.413300
N201	N20	0.252450	0.899430	0.907700
N211	N21	0.420860	0.828820	0.679700
C1511	C151	0.214170	0.725720	0.415900
C1521	C152	0.214230	0.761410	0.295100
H1151	H115	0.215000	0.739100	0.211200
C1531	C153	0.213170	0.829300	0.297800
C1541	C154	0.212260	0.862290	0.418700
H1161	H116	0.211800	0.908800	0.419900
C1551	C155	0.212040	0.827180	0.540000
C1561	C156	0.213140	0.759730	0.537600
H1171	H117	0.213200	0.736100	0.620200
C1571	C157	0.204810	0.550330	0.310600
H1181	H118	0.197900	0.527400	0.235700
C1581	C158	0.204440	0.617640	0.308600
H1191	H119	0.197100	0.639900	0.233700
C1591	C159	0.214580	0.653260	0.414500
C1601	C160	0.224660	0.617230	0.520800
H1201	H120	0.231700	0.639000	0.596900
C1611	C161	0.224380	0.549370	0.515600
H1211	H121	0.231700	0.525800	0.588700
C1621	C162	0.212480	0.865990	0.166500
C1631	C163	0.210580	0.863250	0.671900
C1641	C164	0.333310	0.863540	0.864300
H1221	H122	0.339900	0.840400	0.944900
H1231	H123	0.342200	0.906100	0.857900
C1651	C165	0.262390	0.839610	0.926600
H1241	H124	0.251100	0.804900	0.949700
C1661	C166	0.288050	0.825770	0.914300
H1251	H125	0.294100	0.782400	0.927700
C1671	C167	0.305030	0.875720	0.882200
C1681	C168	0.294840	0.937190	0.861600
H1261	H126	0.305700	0.972800	0.839200
C1691	C169	0.268790	0.946910	0.873600
H1271	H127	0.262200	0.989500	0.856700
C1701	C170	0.339250	0.823710	0.741000
H1281	H128	0.333000	0.778400	0.753700
H1291	H129	0.330300	0.842700	0.662000
C1711	C171	0.410430	0.792740	0.775600
H1301	H130	0.421400	0.768200	0.832700
C1721	C172	0.384210	0.788780	0.797400
H1311	H131	0.377700	0.762800	0.869200
C1731	C173	0.367660	0.822580	0.714900
C1741	C174	0.378420	0.858440	0.614000
H1321	H132	0.367900	0.881900	0.552900
C1751	C175	0.404800	0.860820	0.600100
H1331	H133	0.411700	0.886800	0.529600
Co81	Co8	0.211790	0.410440	0.415360
O291	O29	0.209390	0.334100	0.559660
O301	O30	0.214880	0.426510	0.665900
O311	O31	0.208870	0.330300	0.278990
O321	O32	0.211250	0.422920	0.175800
N221	N22	0.214470	0.015530	0.913300
N231	N23	0.252450	0.399430	0.407700
N241	N24	0.420860	0.328820	0.179700
C1761	C176	0.214170	0.225720	0.915900
C1771	C177	0.214230	0.261410	0.795100
H1341	H134	0.215000	0.239100	0.711200
C1781	C178	0.213170	0.329300	0.797800
C1791	C179	0.212260	0.362290	0.918700
H1351	H135	0.211800	0.408800	0.919900
C1801	C180	0.212040	0.327180	0.040000
C1811	C181	0.213140	0.259730	0.037600
H1361	H136	0.213200	0.236100	0.120200
C1821	C182	0.204810	0.050330	0.810600
H1371	H137	0.197900	0.027400	0.735700
C1831	C183	0.204440	0.117640	0.808600
H1381	H138	0.197100	0.139900	0.733700
C1841	C184	0.214580	0.153260	0.914500
C1851	C185	0.224660	0.117230	0.020800
H1391	H139	0.231700	0.139000	0.096900
C1861	C186	0.224380	0.049370	0.015600
H1401	H140	0.231700	0.025800	0.088700
C1871	C187	0.212480	0.365990	0.666500
C1881	C188	0.210580	0.363250	0.171900
C1891	C189	0.333310	0.363540	0.364300
H1411	H141	0.339900	0.340400	0.444900
H1421	H142	0.342200	0.406100	0.357900
C1901	C190	0.262390	0.339610	0.426600
H1431	H143	0.251100	0.304900	0.449700
C1911	C191	0.288050	0.325770	0.414300
H1441	H144	0.294100	0.282400	0.427700
C1921	C192	0.305030	0.375720	0.382200
C1931	C193	0.294840	0.437190	0.361600
H1451	H145	0.305700	0.472800	0.339200
C1941	C194	0.268790	0.446910	0.373600
H1461	H146	0.262200	0.489500	0.356700
C1951	C195	0.339250	0.323710	0.241000
H1471	H147	0.333000	0.278400	0.253700
H1481	H148	0.330300	0.342700	0.162000
C1961	C196	0.410430	0.292740	0.275600
H1491	H149	0.421400	0.268200	0.332700
C1971	C197	0.384210	0.288780	0.297400
H1501	H150	0.377700	0.262800	0.369200
C1981	C198	0.367660	0.322580	0.214900
C1991	C199	0.378420	0.358440	0.114000
H1511	H151	0.367900	0.381900	0.052900
C2001	C200	0.404800	0.360820	0.100100
H1521	H152	0.411700	0.386800	0.029600
Co91	Co9	0.538210	0.660440	0.165360
O331	O33	0.540610	0.584100	0.309660
O341	O34	0.535120	0.676510	0.415900
O351	O35	0.541130	0.580300	0.028990
O361	O36	0.538750	0.672920	0.925800
N251	N25	0.535530	0.265530	0.663300
N261	N26	0.497550	0.649430	0.157700
N271	N27	0.329140	0.578820	0.929700
C2011	C201	0.535830	0.475720	0.665900
C2021	C202	0.535770	0.511410	0.545100
H1531	H153	0.535000	0.489100	0.461200
C2031	C203	0.536830	0.579300	0.547800
C2041	C204	0.537740	0.612290	0.668700
H1541	H154	0.538200	0.658800	0.669900
C2051	C205	0.537960	0.577180	0.790000
C2061	C206	0.536860	0.509730	0.787600
H1551	H155	0.536800	0.486100	0.870200
C2071	C207	0.545190	0.300330	0.560600
H1561	H156	0.552100	0.277400	0.485700
C2081	C208	0.545560	0.367640	0.558600
H1571	H157	0.552900	0.389900	0.483700
C2091	C209	0.535420	0.403260	0.664500
C2101	C210	0.525340	0.367230	0.770800
H1581	H158	0.518300	0.389000	0.846900
C2111	C211	0.525620	0.299370	0.765600
H1591	H159	0.518300	0.275800	0.838700
C2121	C212	0.537520	0.615990	0.416500
C2131	C213	0.539420	0.613250	0.921900
C2141	C214	0.416690	0.613540	0.114300
H1601	H160	0.410100	0.590400	0.194900
H1611	H161	0.407800	0.656100	0.107900
C2151	C215	0.487610	0.589610	0.176600
H1621	H162	0.498900	0.554900	0.199700
C2161	C216	0.461950	0.575770	0.164300
H1631	H163	0.455900	0.532400	0.177700
C2171	C217	0.444970	0.625720	0.132200
C2181	C218	0.455160	0.687190	0.111600
H1641	H164	0.444300	0.722800	0.089200
C2191	C219	0.481210	0.696910	0.123600
H1651	H165	0.487800	0.739500	0.106700
C2201	C220	0.410750	0.573710	0.991000
H1661	H166	0.417000	0.528400	0.003700
H1671	H167	0.419700	0.592700	0.912000
C2211	C221	0.339570	0.542740	0.025600
H1681	H168	0.328600	0.518200	0.082700
C2221	C222	0.365790	0.538780	0.047400
H1691	H169	0.372300	0.512800	0.119200
C2231	C223	0.382340	0.572580	0.964900
C2241	C224	0.371580	0.608440	0.864000
H1701	H170	0.382100	0.631900	0.802900
C2251	C225	0.345200	0.610820	0.850100
H1711	H171	0.338300	0.636800	0.779600
Co101	Co10	0.538210	0.160440	0.665360
O371	O37	0.540610	0.084100	0.809660
O381	O38	0.535120	0.176510	0.915900
O391	O39	0.541130	0.080300	0.528990
O401	O40	0.538750	0.172920	0.425800
N281	N28	0.535530	0.765530	0.163300
N291	N29	0.497550	0.149430	0.657700
N301	N30	0.329140	0.078820	0.429700
C2261	C226	0.535830	0.975720	0.165900
C2271	C227	0.535770	0.011410	0.045100
H1721	H172	0.535000	0.989100	0.961200
C2281	C228	0.536830	0.079300	0.047800
C2291	C229	0.537740	0.112290	0.168700
H1731	H173	0.538200	0.158800	0.169900
C2301	C230	0.537960	0.077180	0.290000
C2311	C231	0.536860	0.009730	0.287600
H1741	H174	0.536800	0.986100	0.370200
C2321	C232	0.545190	0.800330	0.060600
H1751	H175	0.552100	0.777400	0.985700
C2331	C233	0.545560	0.867640	0.058600
H1761	H176	0.552900	0.889900	0.983700
C2341	C234	0.535420	0.903260	0.164500
C2351	C235	0.525340	0.867230	0.270800
H1771	H177	0.518300	0.889000	0.346900
C2361	C236	0.525620	0.799370	0.265600
H1781	H178	0.518300	0.775800	0.338700
C2371	C237	0.537520	0.115990	0.916500
C2381	C238	0.539420	0.113250	0.421900
C2391	C239	0.416690	0.113540	0.614300
H1791	H179	0.410100	0.090400	0.694900
H1801	H180	0.407800	0.156100	0.607900
C2401	C240	0.487610	0.089610	0.676600
H1811	H181	0.498900	0.054900	0.699700
C2411	C241	0.461950	0.075770	0.664300
H1821	H182	0.455900	0.032400	0.677700
C2421	C242	0.444970	0.125720	0.632200
C2431	C243	0.455160	0.187190	0.611600
H1831	H183	0.444300	0.222800	0.589200
C2441	C244	0.481210	0.196910	0.623600
H1841	H184	0.487800	0.239500	0.606700
C2451	C245	0.410750	0.073710	0.491000
H1851	H185	0.417000	0.028400	0.503700
H1861	H186	0.419700	0.092700	0.412000
C2461	C246	0.339570	0.042740	0.525600
H1871	H187	0.328600	0.018200	0.582700
C2471	C247	0.365790	0.038780	0.547400
H1881	H188	0.372300	0.012800	0.619200
C2481	C248	0.382340	0.072580	0.464900
C2491	C249	0.371580	0.108440	0.364000
H1891	H189	0.382100	0.131900	0.302900
C2501	C250	0.345200	0.110820	0.350100
H1901	H190	0.338300	0.136800	0.279600
Co111	Co11	0.038210	0.660440	0.665360
O411	O41	0.040610	0.584100	0.809660
O421	O42	0.035120	0.676510	0.915900
O431	O43	0.041130	0.580300	0.528990
O441	O44	0.038750	0.672920	0.425800
N311	N31	0.035530	0.265530	0.163300
N321	N32	0.997550	0.649430	0.657700
N331	N33	0.829140	0.578820	0.429700
C2511	C251	0.035830	0.475720	0.165900
C2521	C252	0.035770	0.511410	0.045100
H1911	H191	0.035000	0.489100	0.961200
C2531	C253	0.036830	0.579300	0.047800
C2541	C254	0.037740	0.612290	0.168700
H1921	H192	0.038200	0.658800	0.169900
C2551	C255	0.037960	0.577180	0.290000
C2561	C256	0.036860	0.509730	0.287600
H1931	H193	0.036800	0.486100	0.370200
C2571	C257	0.045190	0.300330	0.060600
H1941	H194	0.052100	0.277400	0.985700
C2581	C258	0.045560	0.367640	0.058600
H1951	H195	0.052900	0.389900	0.983700
C2591	C259	0.035420	0.403260	0.164500
C2601	C260	0.025340	0.367230	0.270800
H1961	H196	0.018300	0.389000	0.346900
C2611	C261	0.025620	0.299370	0.265600
H1971	H197	0.018300	0.275800	0.338700
C2621	C262	0.037520	0.615990	0.916500
C2631	C263	0.039420	0.613250	0.421900
C2641	C264	0.916690	0.613540	0.614300
H1981	H198	0.910100	0.590400	0.694900
H1991	H199	0.907800	0.656100	0.607900
C2651	C265	0.987610	0.589610	0.676600
H2001	H200	0.998900	0.554900	0.699700
C2661	C266	0.961950	0.575770	0.664300
H2011	H201	0.955900	0.532400	0.677700
C2671	C267	0.944970	0.625720	0.632200
C2681	C268	0.955160	0.687190	0.611600
H2021	H202	0.944300	0.722800	0.589200
C2691	C269	0.981210	0.696910	0.623600
H2031	H203	0.987800	0.739500	0.606700
C2701	C270	0.910750	0.573710	0.491000
H2041	H204	0.917000	0.528400	0.503700
H2051	H205	0.919700	0.592700	0.412000
C2711	C271	0.839570	0.542740	0.525600
H2061	H206	0.828600	0.518200	0.582700
C2721	C272	0.865790	0.538780	0.547400
H2071	H207	0.872300	0.512800	0.619200
C2731	C273	0.882340	0.572580	0.464900
C2741	C274	0.871580	0.608440	0.364000
H2081	H208	0.882100	0.631900	0.302900
C2751	C275	0.845200	0.610820	0.350100
H2091	H209	0.838300	0.636800	0.279600
Co121	Co12	0.038210	0.160440	0.165360
O451	O45	0.040610	0.084100	0.309660
O461	O46	0.035120	0.176510	0.415900
O471	O47	0.041130	0.080300	0.028990
O481	O48	0.038750	0.172920	0.925800
N341	N34	0.035530	0.765530	0.663300
N351	N35	0.997550	0.149430	0.157700
N361	N36	0.829140	0.078820	0.929700
C2761	C276	0.035830	0.975720	0.665900
C2771	C277	0.035770	0.011410	0.545100
H2101	H210	0.035000	0.989100	0.461200
C2781	C278	0.036830	0.079300	0.547800
C2791	C279	0.037740	0.112290	0.668700
H2111	H211	0.038200	0.158800	0.669900
C2801	C280	0.037960	0.077180	0.790000
C2811	C281	0.036860	0.009730	0.787600
H2121	H212	0.036800	0.986100	0.870200
C2821	C282	0.045190	0.800330	0.560600
H2131	H213	0.052100	0.777400	0.485700
C2831	C283	0.045560	0.867640	0.558600
H2141	H214	0.052900	0.889900	0.483700
C2841	C284	0.035420	0.903260	0.664500
C2851	C285	0.025340	0.867230	0.770800
H2151	H215	0.018300	0.889000	0.846900
C2861	C286	0.025620	0.799370	0.765600
H2161	H216	0.018300	0.775800	0.838700
C2871	C287	0.037520	0.115990	0.416500
C2881	C288	0.039420	0.113250	0.921900
C2891	C289	0.916690	0.113540	0.114300
H2171	H217	0.910100	0.090400	0.194900
H2181	H218	0.907800	0.156100	0.107900
C2901	C290	0.987610	0.089610	0.176600
H2191	H219	0.998900	0.054900	0.199700
C2911	C291	0.961950	0.075770	0.164300
H2201	H220	0.955900	0.032400	0.177700
C2921	C292	0.944970	0.125720	0.132200
C2931	C293	0.955160	0.187190	0.111600
H2211	H221	0.944300	0.222800	0.089200
C2941	C294	0.981210	0.196910	0.123600
H2221	H222	0.987800	0.239500	0.106700
C2951	C295	0.910750	0.073710	0.991000
H2231	H223	0.917000	0.028400	0.003700
H2241	H224	0.919700	0.092700	0.912000
C2961	C296	0.839570	0.042740	0.025600
H2251	H225	0.828600	0.018200	0.082700
C2971	C297	0.865790	0.038780	0.047400
H2261	H226	0.872300	0.012800	0.119200
C2981	C298	0.882340	0.072580	0.964900
C2991	C299	0.871580	0.108440	0.864000
H2271	H227	0.882100	0.131900	0.802900
C3001	C300	0.845200	0.110820	0.850100
H2281	H228	0.838300	0.136800	0.779600
Co131	Co13	0.788210	0.589560	0.415360
O491	O49	0.790610	0.665900	0.559660
O501	O50	0.785120	0.573490	0.665900
O511	O51	0.791130	0.669700	0.278990
O521	O52	0.788750	0.577080	0.175800
N371	N37	0.785530	0.984470	0.913300
N381	N38	0.747550	0.600570	0.407700
N391	N39	0.579140	0.671180	0.179700
C3011	C301	0.785830	0.774280	0.915900
C3021	C302	0.785770	0.738590	0.795100
H2291	H229	0.785000	0.760900	0.711200
C3031	C303	0.786830	0.670700	0.797800
C3041	C304	0.787740	0.637710	0.918700
H2301	H230	0.788200	0.591200	0.919900
C3051	C305	0.787960	0.672820	0.040000
C3061	C306	0.786860	0.740270	0.037600
H2311	H231	0.786800	0.763900	0.120200
C3071	C307	0.795190	0.949670	0.810600
H2321	H232	0.802100	0.972600	0.735700
C3081	C308	0.795560	0.882360	0.808600
H2331	H233	0.802900	0.860100	0.733700
C3091	C309	0.785420	0.846740	0.914500
C3101	C310	0.775340	0.882770	0.020800
H2341	H234	0.768300	0.861000	0.096900
C3111	C311	0.775620	0.950630	0.015600
H2351	H235	0.768300	0.974200	0.088700
C3121	C312	0.787520	0.634010	0.666500
C3131	C313	0.789420	0.636750	0.171900
C3141	C314	0.666690	0.636460	0.364300
H2361	H236	0.660100	0.659600	0.444900
H2371	H237	0.657800	0.593900	0.357900
C3151	C315	0.737610	0.660390	0.426600
H2381	H238	0.748900	0.695100	0.449700
C3161	C316	0.711950	0.674230	0.414300
H2391	H239	0.705900	0.717600	0.427700
C3171	C317	0.694970	0.624280	0.382200
C3181	C318	0.705160	0.562810	0.361600
H2401	H240	0.694300	0.527200	0.339200
C3191	C319	0.731210	0.553090	0.373600
H2411	H241	0.737800	0.510500	0.356700
C3201	C320	0.660750	0.676290	0.241000
H2421	H242	0.667000	0.721600	0.253700
H2431	H243	0.669700	0.657300	0.162000
C3211	C321	0.589570	0.707260	0.275600
H2441	H244	0.578600	0.731800	0.332700
C3221	C322	0.615790	0.711220	0.297400
H2451	H245	0.622300	0.737200	0.369200
C3231	C323	0.632340	0.677420	0.214900
C3241	C324	0.621580	0.641560	0.114000
H2461	H246	0.632100	0.618100	0.052900
C3251	C325	0.595200	0.639180	0.100100
H2471	H247	0.588300	0.613200	0.029600
Co141	Co14	0.788210	0.089560	0.915360
O531	O53	0.790610	0.165900	0.059660
O541	O54	0.785120	0.073490	0.165900
O551	O55	0.791130	0.169700	0.778990
O561	O56	0.788750	0.077080	0.675800
N401	N40	0.785530	0.484470	0.413300
N411	N41	0.747550	0.100570	0.907700
N421	N42	0.579140	0.171180	0.679700
C3261	C326	0.785830	0.274280	0.415900
C3271	C327	0.785770	0.238590	0.295100
H2481	H248	0.785000	0.260900	0.211200
C3281	C328	0.786830	0.170700	0.297800
C3291	C329	0.787740	0.137710	0.418700
H2491	H249	0.788200	0.091200	0.419900
C3301	C330	0.787960	0.172820	0.540000
C3311	C331	0.786860	0.240270	0.537600
H2501	H250	0.786800	0.263900	0.620200
C3321	C332	0.795190	0.449670	0.310600
H2511	H251	0.802100	0.472600	0.235700
C3331	C333	0.795560	0.382360	0.308600
H2521	H252	0.802900	0.360100	0.233700
C3341	C334	0.785420	0.346740	0.414500
C3351	C335	0.775340	0.382770	0.520800
H2531	H253	0.768300	0.361000	0.596900
C3361	C336	0.775620	0.450630	0.515600
H2541	H254	0.768300	0.474200	0.588700
C3371	C337	0.787520	0.134010	0.166500
C3381	C338	0.789420	0.136750	0.671900
C3391	C339	0.666690	0.136460	0.864300
H2551	H255	0.660100	0.159600	0.944900
H2561	H256	0.657800	0.093900	0.857900
C3401	C340	0.737610	0.160390	0.926600
H2571	H257	0.748900	0.195100	0.949700
C3411	C341	0.711950	0.174230	0.914300
H2581	H258	0.705900	0.217600	0.927700
C3421	C342	0.694970	0.124280	0.882200
C3431	C343	0.705160	0.062810	0.861600
H2591	H259	0.694300	0.027200	0.839200
C3441	C344	0.731210	0.053090	0.873600
H2601	H260	0.737800	0.010500	0.856700
C3451	C345	0.660750	0.176290	0.741000
H2611	H261	0.667000	0.221600	0.753700
H2621	H262	0.669700	0.157300	0.662000
C3461	C346	0.589570	0.207260	0.775600
H2631	H263	0.578600	0.231800	0.832700
C3471	C347	0.615790	0.211220	0.797400
H2641	H264	0.622300	0.237200	0.869200
C3481	C348	0.632340	0.177420	0.714900
C3491	C349	0.621580	0.141560	0.614000
H2651	H265	0.632100	0.118100	0.552900
C3501	C350	0.595200	0.139180	0.600100
H2661	H266	0.588300	0.113200	0.529600
Co151	Co15	0.288210	0.589560	0.915360
O571	O57	0.290610	0.665900	0.059660
O581	O58	0.285120	0.573490	0.165900
O591	O59	0.291130	0.669700	0.778990
O601	O60	0.288750	0.577080	0.675800
N431	N43	0.285530	0.984470	0.413300
N441	N44	0.247550	0.600570	0.907700
N451	N45	0.079140	0.671180	0.679700
C3511	C351	0.285830	0.774280	0.415900
C3521	C352	0.285770	0.738590	0.295100
H2671	H267	0.285000	0.760900	0.211200
C3531	C353	0.286830	0.670700	0.297800
C3541	C354	0.287740	0.637710	0.418700
H2681	H268	0.288200	0.591200	0.419900
C3551	C355	0.287960	0.672820	0.540000
C3561	C356	0.286860	0.740270	0.537600
H2691	H269	0.286800	0.763900	0.620200
C3571	C357	0.295190	0.949670	0.310600
H2701	H270	0.302100	0.972600	0.235700
C3581	C358	0.295560	0.882360	0.308600
H2711	H271	0.302900	0.860100	0.233700
C3591	C359	0.285420	0.846740	0.414500
C3601	C360	0.275340	0.882770	0.520800
H2721	H272	0.268300	0.861000	0.596900
C3611	C361	0.275620	0.950630	0.515600
H2731	H273	0.268300	0.974200	0.588700
C3621	C362	0.287520	0.634010	0.166500
C3631	C363	0.289420	0.636750	0.671900
C3641	C364	0.166690	0.636460	0.864300
H2741	H274	0.160100	0.659600	0.944900
H2751	H275	0.157800	0.593900	0.857900
C3651	C365	0.237610	0.660390	0.926600
H2761	H276	0.248900	0.695100	0.949700
C3661	C366	0.211950	0.674230	0.914300
H2771	H277	0.205900	0.717600	0.927700
C3671	C367	0.194970	0.624280	0.882200
C3681	C368	0.205160	0.562810	0.861600
H2781	H278	0.194300	0.527200	0.839200
C3691	C369	0.231210	0.553090	0.873600
H2791	H279	0.237800	0.510500	0.856700
C3701	C370	0.160750	0.676290	0.741000
H2801	H280	0.167000	0.721600	0.753700
H2811	H281	0.169700	0.657300	0.662000
C3711	C371	0.089570	0.707260	0.775600
H2821	H282	0.078600	0.731800	0.832700
C3721	C372	0.115790	0.711220	0.797400
H2831	H283	0.122300	0.737200	0.869200
C3731	C373	0.132340	0.677420	0.714900
C3741	C374	0.121580	0.641560	0.614000
H2841	H284	0.132100	0.618100	0.552900
C3751	C375	0.095200	0.639180	0.600100
H2851	H285	0.088300	0.613200	0.529600
Co161	Co16	0.288210	0.089560	0.415360
O611	O61	0.290610	0.165900	0.559660
O621	O62	0.285120	0.073490	0.665900
O631	O63	0.291130	0.169700	0.278990
O641	O64	0.288750	0.077080	0.175800
N461	N46	0.285530	0.484470	0.913300
N471	N47	0.247550	0.100570	0.407700
N481	N48	0.079140	0.171180	0.179700
C3761	C376	0.285830	0.274280	0.915900
C3771	C377	0.285770	0.238590	0.795100
H2861	H286	0.285000	0.260900	0.711200
C3781	C378	0.286830	0.170700	0.797800
C3791	C379	0.287740	0.137710	0.918700
H2871	H287	0.288200	0.091200	0.919900
C3801	C380	0.287960	0.172820	0.040000
C3811	C381	0.286860	0.240270	0.037600
H2881	H288	0.286800	0.263900	0.120200
C3821	C382	0.295190	0.449670	0.810600
H2891	H289	0.302100	0.472600	0.735700
C3831	C383	0.295560	0.382360	0.808600
H2901	H290	0.302900	0.360100	0.733700
C3841	C384	0.285420	0.346740	0.914500
C3851	C385	0.275340	0.382770	0.020800
H2911	H291	0.268300	0.361000	0.096900
C3861	C386	0.275620	0.450630	0.015600
H2921	H292	0.268300	0.474200	0.088700
C3871	C387	0.287520	0.134010	0.666500
C3881	C388	0.289420	0.136750	0.171900
C3891	C389	0.166690	0.136460	0.364300
H2931	H293	0.160100	0.159600	0.444900
H2941	H294	0.157800	0.093900	0.357900
C3901	C390	0.237610	0.160390	0.426600
H2951	H295	0.248900	0.195100	0.449700
C3911	C391	0.211950	0.174230	0.414300
H2961	H296	0.205900	0.217600	0.427700
C3921	C392	0.194970	0.124280	0.382200
C3931	C393	0.205160	0.062810	0.361600
H2971	H297	0.194300	0.027200	0.339200
C3941	C394	0.231210	0.053090	0.373600
H2981	H298	0.237800	0.010500	0.356700
C3951	C395	0.160750	0.176290	0.241000
H2991	H299	0.167000	0.221600	0.253700
H3001	H300	0.169700	0.157300	0.162000
C3961	C396	0.089570	0.207260	0.275600
H3011	H301	0.078600	0.231800	0.332700
C3971	C397	0.115790	0.211220	0.297400
H3021	H302	0.122300	0.237200	0.369200
C3981	C398	0.132340	0.177420	0.214900
C3991	C399	0.121580	0.141560	0.114000
H3031	H303	0.132100	0.118100	0.052900
C4001	C400	0.095200	0.139180	0.100100
H3041	H304	0.088300	0.113200	0.029600
