data_RESWOC_freeONLY_PM
_symmetry_space_group_name_H-M	'P1'
_cell_length_a	11.671000
_cell_length_b	11.891600
_cell_length_c	14.305000
_cell_angle_alpha	110.633000
_cell_angle_beta	99.920000
_cell_angle_gamma	101.351000
_symmetry_Int_Tables_number 1

loop_
_symmetry_equiv_pos_as_xyz
'x,y,z'

loop_
_atom_site_label
_atom_site_type_symbol
_atom_site_fract_x
_atom_site_fract_y
_atom_site_fract_z
Er11	Er1	0.901520	0.027800	0.895310
Er21	Er2	0.584300	0.918400	0.569250
Er31	Er3	0.098480	0.972200	0.104690
Er41	Er4	0.415700	0.081600	0.430750
H11	H1	0.818000	0.166000	0.788000
H21	H2	0.916000	0.243000	0.848000
H31	H3	0.591600	0.646400	0.407300
H41	H4	0.695700	0.601200	0.625700
H51	H5	0.642200	0.452600	0.565600
H61	H6	0.777600	0.519500	0.570700
H71	H7	0.616300	0.464800	0.317900
H81	H8	0.728800	0.434900	0.376300
H91	H9	0.593500	0.365100	0.368900
H101	H10	0.182000	0.834000	0.212000
H111	H11	0.084000	0.757000	0.152000
H121	H12	0.408400	0.353600	0.592700
H131	H13	0.304300	0.398800	0.374300
H141	H14	0.357800	0.547400	0.434400
H151	H15	0.222400	0.480500	0.429300
H161	H16	0.383700	0.535200	0.682100
H171	H17	0.271200	0.565100	0.623700
H181	H18	0.406500	0.634900	0.631100
C11	C1	0.894900	0.750200	0.901500
C21	C2	0.829800	0.612100	0.845300
C31	C3	0.710700	0.566700	0.842900
C41	C4	0.646800	0.443000	0.786500
C51	C5	0.701800	0.358500	0.729800
C61	C6	0.821800	0.403600	0.733800
C71	C7	0.884800	0.528500	0.790100
C81	C8	0.628100	0.228200	0.656900
C91	C9	0.143800	0.032700	0.891100
C101	C10	0.266100	0.020100	0.879700
C111	C11	0.299000	0.911700	0.869500
C121	C12	0.411500	0.900200	0.855500
C131	C13	0.494400	0.995800	0.850100
C141	C14	0.462200	0.103900	0.860100
C151	C15	0.350900	0.116100	0.874600
C161	C16	0.614400	0.983200	0.827900
C171	C17	0.868800	0.934200	0.641000
C181	C18	0.985900	0.926900	0.612500
C191	C19	0.017000	0.816400	0.582800
C201	C20	0.130500	0.810700	0.570500
C211	C21	0.220300	0.918200	0.587200
C221	C22	0.187700	0.029600	0.616000
C231	C23	0.073500	0.033200	0.626200
C241	C24	0.343300	0.912500	0.577000
C251	C25	0.616500	0.641200	0.472100
C261	C26	0.695200	0.527800	0.566000
C271	C27	0.647100	0.443900	0.376100
C281	C28	0.105100	0.249800	0.098500
C291	C29	0.170200	0.387900	0.154700
C301	C30	0.289300	0.433300	0.157100
C311	C31	0.353200	0.557000	0.213500
C321	C32	0.298200	0.641500	0.270200
C331	C33	0.178200	0.596400	0.266200
C341	C34	0.115200	0.471500	0.209900
C351	C35	0.371900	0.771800	0.343100
C361	C36	0.856200	0.967300	0.108900
C371	C37	0.733900	0.979900	0.120300
C381	C38	0.701000	0.088300	0.130500
C391	C39	0.588500	0.099800	0.144500
C401	C40	0.505600	0.004200	0.149900
C411	C41	0.537800	0.896100	0.139900
C421	C42	0.649100	0.883900	0.125400
C431	C43	0.385600	0.016800	0.172100
C441	C44	0.131200	0.065800	0.359000
C451	C45	0.014100	0.073100	0.387500
C461	C46	0.983000	0.183600	0.417200
C471	C47	0.869500	0.189300	0.429500
C481	C48	0.779700	0.081800	0.412800
C491	C49	0.812300	0.970400	0.384000
C501	C50	0.926500	0.966800	0.373800
C511	C51	0.656700	0.087500	0.423000
C521	C52	0.383500	0.358800	0.527900
C531	C53	0.304800	0.472200	0.434000
C541	C54	0.352900	0.556100	0.623900
N11	N1	0.651100	0.542900	0.472400
N21	N2	0.348900	0.457100	0.527600
O11	O1	0.849100	0.818700	0.866500
O21	O2	0.984100	0.782300	0.977100
O31	O3	0.665400	0.138600	0.667000
O41	O4	0.538800	0.222200	0.590900
O51	O5	0.091800	0.088700	0.846800
O61	O6	0.091700	0.981500	0.943200
O71	O7	0.702000	0.006500	0.902900
O81	O8	0.618200	0.953600	0.736900
O91	O9	0.862300	0.919700	0.721800
O101	O10	0.788300	0.950900	0.581000
O111	O11	0.406200	0.992700	0.551400
O121	O12	0.387500	0.833500	0.595800
O131	O13	0.614200	0.728400	0.551200
O141	O14	0.859000	0.173100	0.834500
O151	O15	0.150900	0.181300	0.133500
O161	O16	0.015900	0.217700	0.022900
O171	O17	0.334600	0.861400	0.333000
O181	O18	0.461200	0.777800	0.409100
O191	O19	0.908200	0.911300	0.153200
O201	O20	0.908300	0.018500	0.056800
O211	O21	0.298000	0.993500	0.097100
O221	O22	0.381800	0.046400	0.263100
O231	O23	0.137700	0.080300	0.278200
O241	O24	0.211700	0.049100	0.419000
O251	O25	0.593800	0.007300	0.448600
O261	O26	0.612500	0.166500	0.404200
O271	O27	0.385800	0.271600	0.448800
O281	O28	0.141000	0.826900	0.165500
F11	F1	0.653000	0.643800	0.895400
F21	F2	0.530400	0.404800	0.785200
F31	F3	0.876900	0.327600	0.677500
F41	F4	0.998500	0.568500	0.786000
F51	F5	0.221100	0.813100	0.869100
F61	F6	0.438400	0.793000	0.845000
F71	F7	0.540200	0.199300	0.854700
F81	F8	0.326900	0.224000	0.884800
F91	F9	0.935200	0.710400	0.566600
F101	F10	0.152700	0.699600	0.540500
F111	F11	0.270100	0.137800	0.639700
F121	F12	0.047800	0.143100	0.655100
F131	F13	0.347000	0.356200	0.104600
F141	F14	0.469600	0.595200	0.214800
F151	F15	0.123100	0.672400	0.322500
F161	F16	0.001500	0.431500	0.214000
F171	F17	0.778900	0.186900	0.130900
F181	F18	0.561600	0.207000	0.155000
F191	F19	0.459800	0.800700	0.145300
F201	F20	0.673100	0.776000	0.115200
F211	F21	0.064800	0.289600	0.433400
F221	F22	0.847300	0.300400	0.459500
F231	F23	0.729900	0.862200	0.360300
F241	F24	0.952200	0.856900	0.344900
