data_REXDEF_freeONLY_PM
_symmetry_space_group_name_H-M	'P1'
_cell_length_a	14.952000
_cell_length_b	18.584000
_cell_length_c	30.231600
_cell_angle_alpha	98.819700
_cell_angle_beta	92.086800
_cell_angle_gamma	111.615000
_symmetry_Int_Tables_number 1

loop_
_symmetry_equiv_pos_as_xyz
'x,y,z'

loop_
_atom_site_label
_atom_site_type_symbol
_atom_site_fract_x
_atom_site_fract_y
_atom_site_fract_z
Zn11	Zn1	0.465010	0.674010	0.215010
Zn21	Zn2	0.556410	0.296710	0.027710
Zn31	Zn3	0.048890	0.843580	0.907970
Zn41	Zn4	0.176520	0.642620	0.739520
Zn51	Zn5	0.714370	0.243750	0.566250
Zn61	Zn6	0.792650	0.841370	0.403670
H11	H1	0.334300	0.748100	0.257500
H21	H2	0.170500	0.728000	0.256900
H31	H3	0.114600	0.543100	0.156700
H41	H4	0.278600	0.564600	0.160100
H51	H5	0.690500	0.708500	0.324100
H61	H6	0.724400	0.623200	0.269800
H71	H7	0.006300	0.746500	0.306900
H81	H8	0.959800	0.820300	0.362000
H91	H9	0.763600	0.344000	0.060000
H101	H10	0.875600	0.429400	0.117100
H111	H11	0.673500	0.495900	0.174600
H121	H12	0.569700	0.411300	0.114800
H131	H13	0.621700	0.182000	0.972200
H141	H14	0.666000	0.077300	0.971400
H151	H15	0.566200	0.068400	0.093000
H161	H16	0.542000	0.181600	0.090900
H171	H17	0.950300	0.804400	0.987900
H181	H18	0.815400	0.811100	0.022100
H191	H19	0.848600	0.003900	0.962400
H201	H20	0.971700	0.978400	0.926700
H211	H21	0.455900	0.814700	0.185000
H221	H22	0.503100	0.893300	0.133200
H231	H23	0.656300	0.766100	0.091400
H241	H24	0.593000	0.684600	0.140300
H251	H25	0.860000	0.826900	0.866600
H261	H26	0.728800	0.742200	0.814200
H271	H27	0.875300	0.592900	0.796300
H281	H28	0.995900	0.682800	0.849400
H291	H29	0.253000	0.529900	0.681100
H301	H30	0.396400	0.509600	0.677600
H311	H31	0.514100	0.681500	0.784400
H321	H32	0.365300	0.689800	0.789200
H331	H33	0.817200	0.359000	0.651100
H341	H34	0.794400	0.453600	0.702700
H351	H35	0.536200	0.407000	0.636500
H361	H36	0.570100	0.317700	0.582100
H371	H37	0.529700	0.150800	0.497900
H381	H38	0.392800	0.039600	0.495700
H391	H39	0.459000	0.030200	0.622700
H401	H40	0.606700	0.128400	0.622300
H411	H41	0.865200	0.765400	0.469900
H421	H42	0.991200	0.775500	0.520500
H431	H43	0.136300	0.981400	0.475600
H441	H44	0.997400	0.963800	0.431300
H451	H45	0.309300	0.791200	0.720100
H461	H46	0.350100	0.850500	0.658300
H471	H47	0.089900	0.716700	0.595800
H481	H48	0.072400	0.637700	0.650600
C11	C1	0.287900	0.704600	0.237800
C21	C2	0.191700	0.693200	0.237800
C31	C3	0.127800	0.629000	0.208800
C41	C4	0.159300	0.583700	0.178700
C51	C5	0.255900	0.596900	0.180300
C61	C6	0.019800	0.609300	0.208300
C71	C7	0.898500	0.634900	0.243800
C81	C8	0.867100	0.544900	0.182000
C91	C9	0.755300	0.711800	0.323200
C101	C10	0.775500	0.664600	0.288700
C111	C11	0.869400	0.677500	0.281700
C121	C12	0.939700	0.735000	0.310200
C131	C13	0.910300	0.776000	0.344200
C141	C14	0.744400	0.375400	0.082500
C151	C15	0.811000	0.427200	0.116500
C161	C16	0.789700	0.476000	0.149700
C171	C17	0.695300	0.468000	0.151200
C181	C18	0.634900	0.415400	0.115300
C191	C19	0.612200	0.159400	0.998600
C201	C20	0.637600	0.095200	0.996200
C211	C21	0.618400	0.059600	0.032900
C221	C22	0.581000	0.092600	0.067300
C231	C23	0.564300	0.159500	0.065200
C241	C24	0.647800	0.988900	0.039500
C251	C25	0.736600	0.923100	0.022000
C261	C26	0.635900	0.890900	0.075000
C271	C27	0.923200	0.840500	0.980600
C281	C28	0.847700	0.847300	0.003400
C291	C29	0.821500	0.909400	0.997600
C301	C30	0.866200	0.961300	0.967100
C311	C31	0.936600	0.943700	0.945600
C321	C32	0.496900	0.802500	0.164400
C331	C33	0.527300	0.852900	0.134300
C341	C34	0.593800	0.843600	0.105600
C351	C35	0.612800	0.778200	0.110500
C361	C36	0.575500	0.728800	0.140300
C371	C37	0.861100	0.778200	0.851900
C381	C38	0.783500	0.729800	0.820600
C391	C39	0.793600	0.661100	0.799400
C401	C40	0.870900	0.640900	0.810100
C411	C41	0.941100	0.694600	0.842000
C421	C42	0.710400	0.608100	0.763700
C431	C43	0.563200	0.574600	0.731400
C441	C44	0.650300	0.505800	0.707200
C451	C45	0.305400	0.559300	0.703500
C461	C46	0.391100	0.547200	0.701400
C471	C47	0.468500	0.588300	0.732900
C481	C48	0.460200	0.646500	0.764200
C491	C49	0.372100	0.652700	0.765500
C501	C50	0.759600	0.368900	0.647600
C511	C51	0.745400	0.425300	0.678600
C521	C52	0.664000	0.442600	0.676300
C531	C53	0.595300	0.399400	0.639800
C541	C54	0.615100	0.344100	0.607900
C551	C55	0.518300	0.124000	0.522700
C561	C56	0.436100	0.059000	0.522400
C571	C57	0.411700	0.019800	0.557800
C581	C58	0.475300	0.051100	0.596000
C591	C59	0.562000	0.112300	0.596200
C601	C60	0.321600	0.954700	0.556000
C611	C61	0.162400	0.894900	0.533000
C621	C62	0.226200	0.854600	0.590100
C631	C63	0.921200	0.812300	0.473200
C641	C64	0.995700	0.814700	0.502900
C651	C65	0.076800	0.881000	0.503600
C661	C66	0.078600	0.937000	0.475800
C671	C67	0.995900	0.925900	0.449400
C681	C68	0.271000	0.770500	0.692000
C691	C69	0.287600	0.811700	0.658600
C701	C70	0.217900	0.800400	0.625100
C711	C71	0.138200	0.731300	0.620400
C721	C72	0.129600	0.683300	0.652100
I11	I1	0.535190	0.757510	0.292610
I21	I2	0.485020	0.545230	0.185410
I31	I3	0.623470	0.352270	0.959370
I41	I4	0.390270	0.270570	0.058170
I51	I5	0.123530	0.769640	0.951470
I61	I6	0.134760	0.955380	0.867030
I71	I7	0.202610	0.739100	0.813280
I81	I8	0.023950	0.521690	0.713920
I91	I9	0.839400	0.202850	0.603230
I101	I10	0.726210	0.295130	0.492280
I111	I11	0.647500	0.765390	0.440450
I121	I12	0.817570	0.960030	0.367820
N11	N1	0.317400	0.656000	0.210600
N21	N2	0.992900	0.651700	0.240900
N31	N3	0.830300	0.577300	0.215300
N41	N4	0.955700	0.554600	0.177500
N51	N5	0.821200	0.761500	0.355300
N61	N6	0.652800	0.369600	0.081400
N71	N7	0.577200	0.196400	0.030200
N81	N8	0.714500	0.982800	0.012500
N91	N9	0.701400	0.876000	0.050900
N101	N10	0.606200	0.948300	0.069200
N111	N11	0.959900	0.881900	0.948900
N121	N12	0.515000	0.740900	0.169200
N131	N13	0.938500	0.760000	0.862800
N141	N14	0.632000	0.626300	0.762600
N151	N15	0.566600	0.516500	0.702200
N161	N16	0.726200	0.545800	0.737100
N171	N17	0.295400	0.611200	0.736300
N181	N18	0.693900	0.327600	0.612600
N191	N19	0.586900	0.150100	0.562000
N201	N20	0.247300	0.947600	0.526900
N211	N21	0.150900	0.843800	0.561100
N221	N22	0.317400	0.908200	0.588000
N231	N23	0.914000	0.864100	0.448400
N241	N24	0.200900	0.700200	0.684900
Zn71	Zn7	0.534990	0.325990	0.784990
Zn81	Zn8	0.443590	0.703290	0.972290
Zn91	Zn9	0.951110	0.156420	0.092030
Zn101	Zn10	0.823480	0.357380	0.260480
Zn111	Zn11	0.285630	0.756250	0.433750
Zn121	Zn12	0.207350	0.158630	0.596330
H491	H49	0.665700	0.251900	0.742500
H501	H50	0.829500	0.272000	0.743100
H511	H51	0.885400	0.456900	0.843300
H521	H52	0.721400	0.435400	0.839900
H531	H53	0.309500	0.291500	0.675900
H541	H54	0.275600	0.376800	0.730200
H551	H55	0.993700	0.253500	0.693100
H561	H56	0.040200	0.179700	0.638000
H571	H57	0.236400	0.656000	0.940000
H581	H58	0.124400	0.570600	0.882900
H591	H59	0.326500	0.504100	0.825400
H601	H60	0.430300	0.588700	0.885200
H611	H61	0.378300	0.818000	0.027800
H621	H62	0.334000	0.922700	0.028600
H631	H63	0.433800	0.931600	0.907000
H641	H64	0.458000	0.818400	0.909100
H651	H65	0.049700	0.195600	0.012100
H661	H66	0.184600	0.188900	0.977900
H671	H67	0.151400	0.996100	0.037600
H681	H68	0.028300	0.021600	0.073300
H691	H69	0.544100	0.185300	0.815000
H701	H70	0.496900	0.106700	0.866800
H711	H71	0.343700	0.233900	0.908600
H721	H72	0.407000	0.315400	0.859700
H731	H73	0.140000	0.173100	0.133400
H741	H74	0.271200	0.257800	0.185800
H751	H75	0.124700	0.407100	0.203700
H761	H76	0.004100	0.317200	0.150600
H771	H77	0.747000	0.470100	0.318900
H781	H78	0.603600	0.490400	0.322400
H791	H79	0.485900	0.318500	0.215600
H801	H80	0.634700	0.310200	0.210800
H811	H81	0.182800	0.641000	0.348900
H821	H82	0.205600	0.546400	0.297300
H831	H83	0.463800	0.593000	0.363500
H841	H84	0.429900	0.682300	0.417900
H851	H85	0.470300	0.849200	0.502100
H861	H86	0.607200	0.960400	0.504300
H871	H87	0.541000	0.969800	0.377300
H881	H88	0.393300	0.871600	0.377700
H891	H89	0.134800	0.234600	0.530100
H901	H90	0.008800	0.224500	0.479500
H911	H91	0.863700	0.018600	0.524400
H921	H92	0.002600	0.036200	0.568700
H931	H93	0.690700	0.208800	0.279900
H941	H94	0.649900	0.149500	0.341700
H951	H95	0.910100	0.283300	0.404200
H961	H96	0.927600	0.362300	0.349400
C731	C73	0.712100	0.295400	0.762200
C741	C74	0.808300	0.306800	0.762200
C751	C75	0.872200	0.371000	0.791200
C761	C76	0.840700	0.416300	0.821300
C771	C77	0.744100	0.403100	0.819700
C781	C78	0.980200	0.390700	0.791700
C791	C79	0.101500	0.365100	0.756200
C801	C80	0.132900	0.455100	0.818000
C811	C81	0.244700	0.288200	0.676800
C821	C82	0.224500	0.335400	0.711300
C831	C83	0.130600	0.322500	0.718300
C841	C84	0.060300	0.265000	0.689800
C851	C85	0.089700	0.224000	0.655800
C861	C86	0.255600	0.624600	0.917500
C871	C87	0.189000	0.572800	0.883500
C881	C88	0.210300	0.524000	0.850300
C891	C89	0.304700	0.532000	0.848800
C901	C90	0.365100	0.584600	0.884700
C911	C91	0.387800	0.840600	0.001400
C921	C92	0.362400	0.904800	0.003800
C931	C93	0.381600	0.940400	0.967100
C941	C94	0.419000	0.907400	0.932700
C951	C95	0.435700	0.840500	0.934800
C961	C96	0.352200	0.011100	0.960500
C971	C97	0.263400	0.076900	0.978000
C981	C98	0.364100	0.109100	0.925000
C991	C99	0.076800	0.159500	0.019400
C1001	C100	0.152300	0.152700	0.996600
C1011	C101	0.178500	0.090600	0.002400
C1021	C102	0.133800	0.038700	0.032900
C1031	C103	0.063400	0.056300	0.054400
C1041	C104	0.503100	0.197500	0.835600
C1051	C105	0.472700	0.147100	0.865700
C1061	C106	0.406200	0.156400	0.894400
C1071	C107	0.387200	0.221800	0.889500
C1081	C108	0.424500	0.271200	0.859700
C1091	C109	0.138900	0.221800	0.148100
C1101	C110	0.216500	0.270200	0.179400
C1111	C111	0.206400	0.338900	0.200600
C1121	C112	0.129100	0.359100	0.189900
C1131	C113	0.058900	0.305400	0.158000
C1141	C114	0.289600	0.391900	0.236300
C1151	C115	0.436800	0.425400	0.268600
C1161	C116	0.349700	0.494200	0.292800
C1171	C117	0.694600	0.440700	0.296500
C1181	C118	0.608900	0.452800	0.298600
C1191	C119	0.531500	0.411700	0.267100
C1201	C120	0.539800	0.353500	0.235800
C1211	C121	0.627900	0.347300	0.234500
C1221	C122	0.240400	0.631100	0.352400
C1231	C123	0.254600	0.574700	0.321400
C1241	C124	0.336000	0.557400	0.323700
C1251	C125	0.404700	0.600600	0.360200
C1261	C126	0.384900	0.655900	0.392100
C1271	C127	0.481700	0.876000	0.477300
C1281	C128	0.563900	0.941000	0.477600
C1291	C129	0.588300	0.980200	0.442200
C1301	C130	0.524700	0.948900	0.404000
C1311	C131	0.438000	0.887700	0.403800
C1321	C132	0.678400	0.045300	0.444000
C1331	C133	0.837600	0.105100	0.467000
C1341	C134	0.773800	0.145400	0.409900
C1351	C135	0.078800	0.187700	0.526800
C1361	C136	0.004300	0.185300	0.497100
C1371	C137	0.923200	0.119000	0.496400
C1381	C138	0.921400	0.063000	0.524200
C1391	C139	0.004100	0.074100	0.550600
C1401	C140	0.729000	0.229500	0.308000
C1411	C141	0.712400	0.188300	0.341400
C1421	C142	0.782100	0.199600	0.374900
C1431	C143	0.861800	0.268700	0.379600
C1441	C144	0.870400	0.316700	0.347900
I131	I13	0.464810	0.242490	0.707390
I141	I14	0.514980	0.454770	0.814590
I151	I15	0.376530	0.647730	0.040630
I161	I16	0.609730	0.729430	0.941830
I171	I17	0.876470	0.230360	0.048530
I181	I18	0.865240	0.044620	0.132970
I191	I19	0.797390	0.260900	0.186720
I201	I20	0.976050	0.478310	0.286080
I211	I21	0.160600	0.797150	0.396770
I221	I22	0.273790	0.704870	0.507720
I231	I23	0.352500	0.234610	0.559550
I241	I24	0.182430	0.039970	0.632180
N251	N25	0.682600	0.344000	0.789400
N261	N26	0.007100	0.348300	0.759100
N271	N27	0.169700	0.422700	0.784700
N281	N28	0.044300	0.445400	0.822500
N291	N29	0.178800	0.238500	0.644700
N301	N30	0.347200	0.630400	0.918600
N311	N31	0.422800	0.803600	0.969800
N321	N32	0.285500	0.017200	0.987500
N331	N33	0.298600	0.124000	0.949100
N341	N34	0.393800	0.051700	0.930800
N351	N35	0.040100	0.118100	0.051100
N361	N36	0.485000	0.259100	0.830800
N371	N37	0.061500	0.240000	0.137200
N381	N38	0.368000	0.373700	0.237400
N391	N39	0.433400	0.483500	0.297800
N401	N40	0.273800	0.454200	0.262900
N411	N41	0.704600	0.388800	0.263700
N421	N42	0.306100	0.672400	0.387400
N431	N43	0.413100	0.849900	0.438000
N441	N44	0.752700	0.052400	0.473100
N451	N45	0.849100	0.156200	0.438900
N461	N46	0.682600	0.091800	0.412000
N471	N47	0.086000	0.135900	0.551600
N481	N48	0.799100	0.299800	0.315100
