data_REXFEH_freeONLY_PM
_symmetry_space_group_name_H-M	'P1'
_cell_length_a	14.879000
_cell_length_b	19.293000
_cell_length_c	30.538000
_cell_angle_alpha	102.120000
_cell_angle_beta	90.000000
_cell_angle_gamma	112.681000
_symmetry_Int_Tables_number 1

loop_
_symmetry_equiv_pos_as_xyz
'x,y,z'

loop_
_atom_site_label
_atom_site_type_symbol
_atom_site_fract_x
_atom_site_fract_y
_atom_site_fract_z
Zn11	Zn1	0.541850	0.829960	0.411720
Zn21	Zn2	0.024460	0.239520	0.557750
Zn31	Zn3	0.961840	0.654600	0.731530
Zn41	Zn4	0.288110	0.829960	0.911720
Zn51	Zn5	0.215060	0.239520	0.057750
Zn61	Zn6	0.692760	0.654600	0.231530
H11	H1	0.415000	0.765200	0.480800
H21	H2	0.308200	0.787600	0.531100
H31	H3	0.340300	0.974400	0.483600
H41	H4	0.457000	0.953200	0.440100
H51	H5	0.928800	0.778200	0.695900
H61	H6	0.994900	0.858400	0.647900
H71	H7	0.197500	0.770600	0.624700
H81	H8	0.121800	0.685400	0.669100
H91	H9	0.101100	0.132800	0.495800
H101	H10	0.149000	0.034200	0.497200
H111	H11	0.078600	0.045800	0.626100
H121	H12	0.024700	0.139800	0.618600
H131	H13	0.040500	0.357800	0.645500
H141	H14	0.161400	0.461000	0.693300
H151	H15	0.367300	0.418200	0.619800
H161	H16	0.239100	0.322400	0.567300
H171	H17	0.456500	0.800200	0.878200
H181	H18	0.502200	0.726200	0.817200
H191	H19	0.214300	0.604600	0.779400
H201	H20	0.179000	0.680600	0.841600
H211	H21	0.770800	0.531800	0.677000
H221	H22	0.608000	0.514000	0.667800
H231	H23	0.661200	0.698600	0.768200
H241	H24	0.824700	0.724000	0.768400
H251	H25	0.350200	0.765200	0.980800
H261	H26	0.479400	0.787600	0.031100
H271	H27	0.634100	0.974400	0.983600
H281	H28	0.496200	0.953200	0.940100
H291	H29	0.849400	0.778200	0.195900
H301	H30	0.863500	0.858400	0.147900
H311	H31	0.573100	0.770600	0.124700
H321	H32	0.563600	0.685400	0.169100
H331	H33	0.031700	0.132800	0.995800
H341	H34	0.885200	0.034200	0.997200
H351	H35	0.967200	0.045800	0.126100
H361	H36	0.115100	0.139800	0.118600
H371	H37	0.317300	0.357800	0.145500
H381	H38	0.299600	0.461000	0.193300
H391	H39	0.050900	0.418200	0.119800
H401	H40	0.083300	0.322400	0.067300
H411	H41	0.343700	0.800200	0.378200
H421	H42	0.224000	0.726200	0.317200
H431	H43	0.390300	0.604600	0.279400
H441	H44	0.501600	0.680600	0.341600
H451	H45	0.761000	0.531800	0.177000
H461	H46	0.906000	0.514000	0.167800
H471	H47	0.037400	0.698600	0.268200
H481	H48	0.899300	0.724000	0.268400
C11	C1	0.401200	0.809800	0.482500
C21	C2	0.335500	0.820800	0.511300
C31	C3	0.310300	0.882000	0.510300
C41	C4	0.355900	0.931200	0.484000
C51	C5	0.424400	0.917800	0.458000
C61	C6	0.236500	0.896400	0.541300
C71	C7	0.143600	0.869600	0.597700
C81	C8	0.143200	0.961600	0.563500
C91	C9	0.982800	0.774800	0.680300
C101	C10	0.022500	0.822800	0.651600
C111	C11	0.098200	0.821400	0.628800
C121	C12	0.139600	0.770800	0.637700
C131	C13	0.096100	0.722000	0.665100
C141	C14	0.096000	0.114600	0.522700
C151	C15	0.123800	0.055000	0.522900
C161	C16	0.115300	0.025400	0.560400
C171	C17	0.081300	0.061400	0.598400
C181	C18	0.052900	0.119200	0.594000
C191	C19	0.106900	0.370600	0.639500
C201	C20	0.179100	0.431800	0.668300
C211	C21	0.276500	0.451000	0.661300
C221	C22	0.300800	0.408200	0.624600
C231	C23	0.223500	0.348600	0.594200
C241	C24	0.351500	0.514600	0.692800
C251	C25	0.389600	0.613000	0.753600
C261	C26	0.509200	0.584400	0.717900
C271	C27	0.407200	0.760200	0.857100
C281	C28	0.435400	0.716400	0.821000
C291	C29	0.362100	0.659000	0.791900
C301	C30	0.265900	0.645000	0.799200
C311	C31	0.245500	0.691600	0.836200
C321	C32	0.748800	0.568000	0.694600
C331	C33	0.650900	0.555600	0.690400
C341	C34	0.614200	0.602400	0.718500
C351	C35	0.682200	0.664400	0.747900
C361	C36	0.779700	0.678400	0.748800
C371	C37	0.408600	0.809800	0.982500
C381	C38	0.485300	0.820800	0.011300
C391	C39	0.571700	0.882000	0.010300
C401	C40	0.575300	0.931200	0.984000
C411	C41	0.493400	0.917800	0.958000
C421	C42	0.659900	0.896400	0.041300
C431	C43	0.726000	0.869600	0.097700
C441	C44	0.818400	0.961600	0.063500
C451	C45	0.792000	0.774800	0.180300
C461	C46	0.800300	0.822800	0.151600
C471	C47	0.723200	0.821400	0.128800
C481	C48	0.631200	0.770800	0.137700
C491	C49	0.625900	0.722000	0.165100
C501	C50	0.018600	0.114600	0.022700
C511	C51	0.931200	0.055000	0.022900
C521	C52	0.910100	0.025400	0.060400
C531	C53	0.980100	0.061400	0.098400
C541	C54	0.066300	0.119200	0.094000
C551	C55	0.263700	0.370600	0.139500
C561	C56	0.252700	0.431800	0.168300
C571	C57	0.174500	0.451000	0.161300
C581	C58	0.107400	0.408200	0.124600
C591	C59	0.125100	0.348600	0.094200
C601	C60	0.163100	0.514600	0.192800
C611	C61	0.223400	0.613000	0.253600
C621	C62	0.075200	0.584400	0.217900
C631	C63	0.353000	0.760200	0.357100
C641	C64	0.281000	0.716400	0.321000
C651	C65	0.296900	0.659000	0.291900
C661	C66	0.379100	0.645000	0.299200
C671	C67	0.446100	0.691600	0.336200
C681	C68	0.819200	0.568000	0.194600
C691	C69	0.904700	0.555600	0.190400
C701	C70	0.988200	0.602400	0.218500
C711	C71	0.982200	0.664400	0.247900
C721	C72	0.898700	0.678400	0.248800
I11	I1	0.629700	0.769960	0.451130
I21	I2	0.616060	0.939460	0.372290
I31	I3	0.864500	0.211080	0.594480
I41	I4	0.051820	0.270920	0.481410
I51	I5	0.994210	0.533520	0.702490
I61	I6	0.025740	0.741220	0.809590
I71	I7	0.140260	0.769960	0.951130
I81	I8	0.323400	0.939460	0.872290
I91	I9	0.346580	0.211080	0.094480
I101	I10	0.219100	0.270920	0.981410
I111	I11	0.539310	0.533520	0.202490
I121	I12	0.715480	0.741220	0.309590
N11	N1	0.447700	0.858200	0.456600
N21	N2	0.208800	0.854000	0.571600
N31	N3	0.110300	0.924200	0.596100
N41	N4	0.203300	0.947800	0.533500
N51	N5	0.018100	0.724200	0.686700
N61	N6	0.061900	0.149200	0.557400
N71	N7	0.128600	0.328200	0.602700
N81	N8	0.320500	0.553600	0.727000
N91	N9	0.485900	0.632000	0.752600
N101	N10	0.448000	0.527600	0.687100
N111	N11	0.311200	0.747200	0.862800
N121	N12	0.813800	0.631000	0.723500
N131	N13	0.410500	0.858200	0.956600
N141	N14	0.645200	0.854000	0.071600
N151	N15	0.813900	0.924200	0.096100
N161	N16	0.744500	0.947800	0.033500
N171	N17	0.706100	0.724200	0.186700
N181	N18	0.087300	0.149200	0.057400
N191	N19	0.199600	0.328200	0.102700
N201	N20	0.233100	0.553600	0.227000
N211	N21	0.146100	0.632000	0.252600
N221	N22	0.079600	0.527600	0.187100
N231	N23	0.436000	0.747200	0.362800
N241	N24	0.817200	0.631000	0.223500
Zn71	Zn7	0.711890	0.170040	0.088280
Zn81	Zn8	0.784940	0.760480	0.942250
Zn91	Zn9	0.307240	0.345400	0.768470
Zn101	Zn10	0.458150	0.170040	0.588280
Zn111	Zn11	0.975540	0.760480	0.442250
Zn121	Zn12	0.038160	0.345400	0.268470
H491	H49	0.649800	0.234800	0.019200
H501	H50	0.520600	0.212400	0.968900
H511	H51	0.365900	0.025600	0.016400
H521	H52	0.503800	0.046800	0.059900
H531	H53	0.150600	0.221800	0.804100
H541	H54	0.136500	0.141600	0.852100
H551	H55	0.426900	0.229400	0.875300
H561	H56	0.436400	0.314600	0.830900
H571	H57	0.968300	0.867200	0.004200
H581	H58	0.114800	0.965800	0.002800
H591	H59	0.032800	0.954200	0.873900
H601	H60	0.884900	0.860200	0.881400
H611	H61	0.682700	0.642200	0.854500
H621	H62	0.700400	0.539000	0.806700
H631	H63	0.949100	0.581800	0.880200
H641	H64	0.916700	0.677600	0.932700
H651	H65	0.656300	0.199800	0.621800
H661	H66	0.776000	0.273800	0.682800
H671	H67	0.609700	0.395400	0.720600
H681	H68	0.498400	0.319400	0.658400
H691	H69	0.239000	0.468200	0.823000
H701	H70	0.094000	0.486000	0.832200
H711	H71	0.962600	0.301400	0.731800
H721	H72	0.100700	0.276000	0.731600
H731	H73	0.585000	0.234800	0.519200
H741	H74	0.691800	0.212400	0.468900
H751	H75	0.659700	0.025600	0.516400
H761	H76	0.543000	0.046800	0.559900
H771	H77	0.071200	0.221800	0.304100
H781	H78	0.005100	0.141600	0.352100
H791	H79	0.802500	0.229400	0.375300
H801	H80	0.878200	0.314600	0.330900
H811	H81	0.898900	0.867200	0.504200
H821	H82	0.851000	0.965800	0.502800
H831	H83	0.921400	0.954200	0.373900
H841	H84	0.975300	0.860200	0.381400
H851	H85	0.959500	0.642200	0.354500
H861	H86	0.838600	0.539000	0.306700
H871	H87	0.632700	0.581800	0.380200
H881	H88	0.760900	0.677600	0.432700
H891	H89	0.543500	0.199800	0.121800
H901	H90	0.497800	0.273800	0.182800
H911	H91	0.785700	0.395400	0.220600
H921	H92	0.821000	0.319400	0.158400
H931	H93	0.229200	0.468200	0.323000
H941	H94	0.392000	0.486000	0.332200
H951	H95	0.338800	0.301400	0.231800
H961	H96	0.175300	0.276000	0.231600
C731	C73	0.591400	0.190200	0.017500
C741	C74	0.514700	0.179200	0.988700
C751	C75	0.428300	0.118000	0.989700
C761	C76	0.424700	0.068800	0.016000
C771	C77	0.506600	0.082200	0.042000
C781	C78	0.340100	0.103600	0.958700
C791	C79	0.274000	0.130400	0.902300
C801	C80	0.181600	0.038400	0.936500
C811	C81	0.208000	0.225200	0.819700
C821	C82	0.199700	0.177200	0.848400
C831	C83	0.276800	0.178600	0.871200
C841	C84	0.368800	0.229200	0.862300
C851	C85	0.374100	0.278000	0.834900
C861	C86	0.981400	0.885400	0.977300
C871	C87	0.068800	0.945000	0.977100
C881	C88	0.089900	0.974600	0.939600
C891	C89	0.019900	0.938600	0.901600
C901	C90	0.933700	0.880800	0.906000
C911	C91	0.736300	0.629400	0.860500
C921	C92	0.747300	0.568200	0.831700
C931	C93	0.825500	0.549000	0.838700
C941	C94	0.892600	0.591800	0.875400
C951	C95	0.874900	0.651400	0.905800
C961	C96	0.836900	0.485400	0.807200
C971	C97	0.776600	0.387000	0.746400
C981	C98	0.924800	0.415600	0.782100
C991	C99	0.647000	0.239800	0.642900
C1001	C100	0.719000	0.283600	0.679000
C1011	C101	0.703100	0.341000	0.708100
C1021	C102	0.620900	0.355000	0.700800
C1031	C103	0.553900	0.308400	0.663800
C1041	C104	0.180800	0.432000	0.805400
C1051	C105	0.095300	0.444400	0.809600
C1061	C106	0.011800	0.397600	0.781500
C1071	C107	0.017800	0.335600	0.752100
C1081	C108	0.101300	0.321600	0.751200
C1091	C109	0.598800	0.190200	0.517500
C1101	C110	0.664500	0.179200	0.488700
C1111	C111	0.689700	0.118000	0.489700
C1121	C112	0.644100	0.068800	0.516000
C1131	C113	0.575600	0.082200	0.542000
C1141	C114	0.763500	0.103600	0.458700
C1151	C115	0.856400	0.130400	0.402300
C1161	C116	0.856800	0.038400	0.436500
C1171	C117	0.017200	0.225200	0.319700
C1181	C118	0.977500	0.177200	0.348400
C1191	C119	0.901800	0.178600	0.371200
C1201	C120	0.860400	0.229200	0.362300
C1211	C121	0.903900	0.278000	0.334900
C1221	C122	0.904000	0.885400	0.477300
C1231	C123	0.876200	0.945000	0.477100
C1241	C124	0.884700	0.974600	0.439600
C1251	C125	0.918700	0.938600	0.401600
C1261	C126	0.947100	0.880800	0.406000
C1271	C127	0.893100	0.629400	0.360500
C1281	C128	0.820900	0.568200	0.331700
C1291	C129	0.723500	0.549000	0.338700
C1301	C130	0.699200	0.591800	0.375400
C1311	C131	0.776500	0.651400	0.405800
C1321	C132	0.648500	0.485400	0.307200
C1331	C133	0.610400	0.387000	0.246400
C1341	C134	0.490800	0.415600	0.282100
C1351	C135	0.592800	0.239800	0.142900
C1361	C136	0.564600	0.283600	0.179000
C1371	C137	0.637900	0.341000	0.208100
C1381	C138	0.734100	0.355000	0.200800
C1391	C139	0.754500	0.308400	0.163800
C1401	C140	0.251200	0.432000	0.305400
C1411	C141	0.349100	0.444400	0.309600
C1421	C142	0.385800	0.397600	0.281500
C1431	C143	0.317800	0.335600	0.252100
C1441	C144	0.220300	0.321600	0.251200
I131	I13	0.859740	0.230040	0.048870
I141	I14	0.676600	0.060540	0.127710
I151	I15	0.653420	0.788920	0.905520
I161	I16	0.780900	0.729080	0.018590
I171	I17	0.460690	0.466480	0.797510
I181	I18	0.284520	0.258780	0.690410
I191	I19	0.370300	0.230040	0.548870
I201	I20	0.383940	0.060540	0.627710
I211	I21	0.135500	0.788920	0.405520
I221	I22	0.948180	0.729080	0.518590
I231	I23	0.005790	0.466480	0.297510
I241	I24	0.974260	0.258780	0.190410
N251	N25	0.589500	0.141800	0.043400
N261	N26	0.354800	0.146000	0.928400
N271	N27	0.186100	0.075800	0.903900
N281	N28	0.255500	0.052200	0.966500
N291	N29	0.293900	0.275800	0.813300
N301	N30	0.912700	0.850800	0.942600
N311	N31	0.800400	0.671800	0.897300
N321	N32	0.766900	0.446400	0.773000
N331	N33	0.853900	0.368000	0.747400
N341	N34	0.920400	0.472400	0.812900
N351	N35	0.564000	0.252800	0.637200
N361	N36	0.182800	0.369000	0.776500
N371	N37	0.552300	0.141800	0.543400
N381	N38	0.791200	0.146000	0.428400
N391	N39	0.889700	0.075800	0.403900
N401	N40	0.796700	0.052200	0.466500
N411	N41	0.981900	0.275800	0.313300
N421	N42	0.938100	0.850800	0.442600
N431	N43	0.871400	0.671800	0.397300
N441	N44	0.679500	0.446400	0.273000
N451	N45	0.514100	0.368000	0.247400
N461	N46	0.552000	0.472400	0.312900
N471	N47	0.688800	0.252800	0.137200
N481	N48	0.186200	0.369000	0.276500
