data_REXFIL_freeONLY_PM
_symmetry_space_group_name_H-M	'P1'
_cell_length_a	14.884000
_cell_length_b	18.821800
_cell_length_c	30.646000
_cell_angle_alpha	100.249000
_cell_angle_beta	90.000000
_cell_angle_gamma	113.290000
_symmetry_Int_Tables_number 1

loop_
_symmetry_equiv_pos_as_xyz
'x,y,z'

loop_
_atom_site_label
_atom_site_type_symbol
_atom_site_fract_x
_atom_site_fract_y
_atom_site_fract_z
Zn11	Zn1	0.355540	0.959480	0.231510
Zn21	Zn2	0.211910	0.145020	0.409580
Zn31	Zn3	0.668300	0.542400	0.582660
Zn41	Zn4	0.603940	0.959480	0.731510
Zn51	Zn5	0.933110	0.145020	0.909580
Zn61	Zn6	0.874100	0.542400	0.082660
H11	H1	0.558200	0.989000	0.271200
H21	H2	0.704000	0.104000	0.308100
H31	H3	0.518700	0.200200	0.354500
H41	H4	0.383400	0.091200	0.308400
H51	H5	0.136600	0.267400	0.469900
H61	H6	0.984200	0.282800	0.473700
H71	H7	0.869900	0.091400	0.379000
H81	H8	0.031100	0.088000	0.376600
H91	H9	0.573300	0.437800	0.495300
H101	H10	0.589300	0.327800	0.449600
H111	H11	0.853000	0.385200	0.516300
H121	H12	0.799200	0.462200	0.572100
H131	H13	0.059200	0.004000	0.437400
H141	H14	0.052100	0.902000	0.477600
H151	H15	0.308600	0.089600	0.545900
H161	H16	0.297800	0.153200	0.490100
H171	H17	0.853600	0.641200	0.647000
H181	H18	0.998100	0.725400	0.641700
H191	H19	0.954200	0.737800	0.521900
H201	H20	0.790900	0.635800	0.518000
H211	H21	0.404400	0.995400	0.614100
H221	H22	0.256200	0.810400	0.663000
H231	H23	0.557700	0.012000	0.656900
H241	H24	0.401900	0.833200	0.705100
H251	H25	0.430800	0.989000	0.771200
H261	H26	0.400000	0.104000	0.808100
H271	H27	0.681500	0.200200	0.854500
H281	H28	0.707800	0.091200	0.808400
H291	H29	0.130800	0.267400	0.969900
H301	H30	0.298600	0.282800	0.973700
H311	H31	0.221500	0.091400	0.879000
H321	H32	0.056900	0.088000	0.876600
H331	H33	0.864500	0.437800	0.995300
H341	H34	0.738500	0.327800	0.949600
H351	H35	0.532200	0.385200	0.016300
H361	H36	0.663000	0.462200	0.072100
H371	H37	0.944800	0.004000	0.937400
H381	H38	0.849900	0.902000	0.977600
H391	H39	0.781000	0.089600	0.045900
H401	H40	0.855400	0.153200	0.990100
H411	H41	0.787600	0.641200	0.147000
H421	H42	0.727300	0.725400	0.141700
H431	H43	0.783600	0.737800	0.021900
H441	H44	0.844900	0.635800	0.018000
H451	H45	0.591000	0.995400	0.114100
H461	H46	0.554200	0.810400	0.163000
H471	H47	0.454300	0.012000	0.156900
H481	H48	0.431300	0.833200	0.205100
C11	C1	0.551200	0.034400	0.287100
C21	C2	0.637300	0.092400	0.313600
C31	C3	0.600200	0.128800	0.350300
C41	C4	0.521400	0.151600	0.341200
C51	C5	0.447100	0.091000	0.309300
C61	C6	0.677800	0.177400	0.385900
C71	C7	0.826400	0.214000	0.422900
C81	C8	0.728600	0.271400	0.444800
C91	C9	0.082400	0.231600	0.449900
C101	C10	0.988500	0.241200	0.452500
C111	C11	0.912800	0.194400	0.426600
C121	C12	0.923800	0.131200	0.397600
C131	C13	0.024800	0.129400	0.397300
C141	C14	0.626900	0.424400	0.500700
C151	C15	0.639600	0.359400	0.472300
C161	C16	0.722100	0.339000	0.475800
C171	C17	0.791300	0.388200	0.512600
C181	C18	0.764300	0.442200	0.543700
C191	C19	0.114900	0.011600	0.455800
C201	C20	0.103600	0.953200	0.482400
C211	C21	0.180000	0.982800	0.516700
C221	C22	0.259500	0.065400	0.521800
C231	C23	0.252000	0.100400	0.488100
C241	C24	0.161600	0.929600	0.551200
C251	C25	0.071900	0.827800	0.580400
C261	C26	0.866700	0.664200	0.621200
C271	C27	0.949200	0.717000	0.619100
C281	C28	0.980700	0.769200	0.585000
C291	C29	0.239400	0.897400	0.604400
C301	C30	0.927100	0.726000	0.549100
C311	C31	0.830500	0.661600	0.545100
C321	C32	0.321700	0.902400	0.634400
C331	C33	0.401800	0.959200	0.632600
C341	C34	0.315900	0.853600	0.660800
C351	C35	0.495400	0.971800	0.659500
C361	C36	0.404100	0.868800	0.686200
C371	C37	0.483200	0.034400	0.787100
C381	C38	0.455100	0.092400	0.813600
C391	C39	0.528600	0.128800	0.850300
C401	C40	0.630200	0.151600	0.841200
C411	C41	0.643900	0.091000	0.809300
C421	C42	0.499600	0.177400	0.885900
C431	C43	0.387600	0.214000	0.922900
C441	C44	0.542800	0.271400	0.944800
C451	C45	0.149200	0.231600	0.949900
C461	C46	0.252700	0.241200	0.952500
C471	C47	0.281600	0.194400	0.926600
C481	C48	0.207400	0.131200	0.897600
C491	C49	0.104600	0.129400	0.897300
C501	C50	0.797500	0.424400	0.000700
C511	C51	0.719800	0.359400	0.972300
C521	C52	0.616900	0.339000	0.975800
C531	C53	0.596900	0.388200	0.012600
C541	C54	0.677900	0.442200	0.043700
C551	C55	0.896700	0.011600	0.955800
C561	C56	0.849600	0.953200	0.982400
C571	C57	0.802800	0.982800	0.016700
C581	C58	0.805900	0.065400	0.021800
C591	C59	0.848400	0.100400	0.988100
C601	C60	0.768000	0.929600	0.051200
C611	C61	0.755900	0.827800	0.080400
C621	C62	0.797500	0.664200	0.121200
C631	C63	0.767800	0.717000	0.119100
C641	C64	0.788500	0.769200	0.085000
C651	C65	0.658000	0.897400	0.104400
C661	C66	0.798900	0.726000	0.049100
C671	C67	0.831100	0.661600	0.045100
C681	C68	0.580700	0.902400	0.134400
C691	C69	0.557400	0.959200	0.132600
C701	C70	0.537700	0.853600	0.160800
C711	C71	0.476400	0.971800	0.159500
C721	C72	0.464700	0.868800	0.186200
I11	I1	0.278680	0.034320	0.195520
I21	I2	0.268090	0.844360	0.271410
I31	I3	0.193770	0.062480	0.336800
I41	I4	0.363240	0.276460	0.441790
I51	I5	0.657050	0.495500	0.653340
I61	I6	0.547110	0.576880	0.546250
I71	I7	0.755640	0.034320	0.695520
I81	I8	0.576270	0.844360	0.771410
I91	I9	0.868710	0.062480	0.836800
I101	I10	0.913220	0.276460	0.941790
I111	I11	0.838450	0.495500	0.153340
I121	I12	0.029770	0.576880	0.046250
N11	N1	0.461000	0.035800	0.281600
N21	N2	0.759100	0.165400	0.390800
N31	N3	0.817100	0.272000	0.452400
N41	N4	0.660900	0.235200	0.410400
N51	N5	0.094900	0.172200	0.419100
N61	N6	0.695100	0.465000	0.535300
N71	N7	0.193000	0.072600	0.454700
N81	N8	0.072800	0.873600	0.551900
N91	N9	0.150300	0.842200	0.607200
N101	N10	0.243400	0.944000	0.575500
N111	N11	0.801600	0.641000	0.590700
N121	N12	0.482600	0.924400	0.685300
N131	N13	0.574800	0.035800	0.781600
N141	N14	0.406300	0.165400	0.890800
N151	N15	0.454900	0.272000	0.952400
N161	N16	0.574300	0.235200	0.910400
N171	N17	0.077300	0.172200	0.919100
N181	N18	0.769900	0.465000	0.035300
N191	N19	0.879600	0.072600	0.954700
N201	N20	0.800800	0.873600	0.051900
N211	N21	0.691900	0.842200	0.107200
N221	N22	0.700600	0.944000	0.075500
N231	N23	0.839400	0.641000	0.090700
N241	N24	0.441800	0.924400	0.185300
Zn71	Zn7	0.923420	0.051040	0.194190
Zn81	Zn8	0.191400	0.636840	0.543000
Zn91	Zn9	0.862960	0.446520	0.364510
Zn101	Zn10	0.127620	0.051040	0.694190
Zn111	Zn11	0.445440	0.636840	0.043000
Zn121	Zn12	0.583560	0.446520	0.864510
H491	H49	0.949100	0.177800	0.283100
H501	H50	0.069000	0.259000	0.332400
H511	H51	0.272000	0.229600	0.253200
H521	H52	0.152200	0.116800	0.213500
H531	H53	0.362600	0.609200	0.515400
H541	H54	0.407200	0.535200	0.454300
H551	H55	0.128500	0.430000	0.409900
H561	H56	0.085000	0.482000	0.476600
H571	H57	0.688100	0.339200	0.314800
H581	H58	0.512400	0.299000	0.315100
H591	H59	0.553900	0.488000	0.401800
H601	H60	0.722900	0.536600	0.400000
H611	H61	0.896200	0.588200	0.344900
H621	H62	0.939200	0.672000	0.297000
H631	H63	0.056600	0.538400	0.224700
H641	H64	0.966000	0.434800	0.271300
H651	H65	0.018700	0.964600	0.138400
H661	H66	0.053800	0.848600	0.129100
H671	H67	0.915400	0.819800	0.242100
H681	H68	0.880200	0.918800	0.236700
H691	H69	0.337900	0.580200	0.126700
H701	H70	0.222600	0.592000	0.169000
H711	H71	0.231200	0.776600	0.110900
H721	H72	0.349400	0.753200	0.063900
H731	H73	0.228700	0.177800	0.783100
H741	H74	0.190000	0.259000	0.832400
H751	H75	0.957600	0.229600	0.753200
H761	H76	0.964600	0.116800	0.713500
H771	H77	0.246600	0.609200	0.015400
H781	H78	0.128000	0.535200	0.954300
H791	H79	0.301500	0.430000	0.909900
H801	H80	0.397000	0.482000	0.976600
H811	H81	0.651100	0.339200	0.814800
H821	H82	0.786600	0.299000	0.815100
H831	H83	0.934100	0.488000	0.901800
H841	H84	0.813700	0.536600	0.900000
H851	H85	0.692000	0.588200	0.844900
H861	H86	0.732800	0.672000	0.797000
H871	H87	0.481800	0.538400	0.724700
H881	H88	0.468800	0.434800	0.771300
H891	H89	0.945900	0.964600	0.638400
H901	H90	0.794800	0.848600	0.629100
H911	H91	0.904400	0.819800	0.742100
H921	H92	0.038600	0.918800	0.736700
H931	H93	0.242300	0.580200	0.626700
H941	H94	0.369400	0.592000	0.669000
H951	H95	0.545400	0.776600	0.610900
H961	H96	0.403800	0.753200	0.563900
C731	C73	0.013900	0.182400	0.277800
C741	C74	0.084100	0.233200	0.305600
C751	C75	0.178500	0.250200	0.297600
C761	C76	0.205600	0.212400	0.260400
C771	C77	0.135300	0.151200	0.235300
C781	C78	0.256800	0.313000	0.330000
C791	C79	0.297800	0.414600	0.389900
C801	C80	0.414300	0.388600	0.356900
C811	C81	0.313100	0.568800	0.494900
C821	C82	0.339800	0.522800	0.458200
C831	C83	0.266900	0.458800	0.427400
C841	C84	0.178200	0.458800	0.433400
C851	C85	0.152100	0.496600	0.470900
C861	C86	0.660800	0.369800	0.333900
C871	C87	0.555800	0.348200	0.332000
C881	C88	0.518700	0.400800	0.355500
C891	C89	0.580200	0.458600	0.381300
C901	C90	0.681000	0.485600	0.384300
C911	C91	0.922300	0.572400	0.318400
C921	C92	0.951700	0.625600	0.291400
C931	C93	0.000800	0.609200	0.255100
C941	C94	0.016800	0.547400	0.247400
C951	C95	0.966900	0.486400	0.277800
C961	C96	0.035400	0.661400	0.221500
C971	C97	0.039300	0.764400	0.187500
C981	C98	0.134100	0.700800	0.168300
C991	C99	0.004600	0.934800	0.161500
C1001	C100	0.028800	0.867000	0.155200
C1011	C101	0.012100	0.834600	0.189700
C1021	C102	0.944500	0.852000	0.221000
C1031	C103	0.927900	0.910200	0.218500
C1041	C104	0.311800	0.617400	0.122500
C1051	C105	0.247500	0.624400	0.147600
C1061	C106	0.212800	0.686800	0.141800
C1071	C107	0.250400	0.734800	0.112800
C1081	C108	0.320900	0.720600	0.085000
C1091	C109	0.168500	0.182400	0.777800
C1101	C110	0.149100	0.233200	0.805600
C1111	C111	0.071700	0.250200	0.797600
C1121	C112	0.006800	0.212400	0.760400
C1131	C113	0.015900	0.151200	0.735300
C1141	C114	0.056200	0.313000	0.830000
C1151	C115	0.116800	0.414600	0.889900
C1161	C116	0.974300	0.388600	0.856900
C1171	C117	0.255700	0.568800	0.994900
C1181	C118	0.183000	0.522800	0.958200
C1191	C119	0.191900	0.458800	0.927400
C1201	C120	0.280600	0.458800	0.933400
C1211	C121	0.344500	0.496600	0.970900
C1221	C122	0.709000	0.369800	0.833900
C1231	C123	0.792400	0.348200	0.832000
C1241	C124	0.882100	0.400800	0.855500
C1251	C125	0.878400	0.458600	0.881300
C1261	C126	0.804600	0.485600	0.884300
C1271	C127	0.650100	0.572400	0.818400
C1281	C128	0.673900	0.625600	0.791400
C1291	C129	0.608400	0.609200	0.755100
C1301	C130	0.530600	0.547400	0.747400
C1311	C131	0.519500	0.486400	0.777800
C1321	C132	0.626000	0.661400	0.721500
C1331	C133	0.725100	0.764400	0.687500
C1341	C134	0.566700	0.700800	0.668300
C1351	C135	0.930200	0.934800	0.661500
C1361	C136	0.838200	0.867000	0.655200
C1371	C137	0.822500	0.834600	0.689700
C1381	C138	0.907500	0.852000	0.721000
C1391	C139	0.982300	0.910200	0.718500
C1401	C140	0.305600	0.617400	0.622500
C1411	C141	0.376900	0.624400	0.647600
C1421	C142	0.474000	0.686800	0.641800
C1431	C143	0.484400	0.734800	0.612800
C1441	C144	0.399700	0.720600	0.585000
I131	I13	0.766750	0.018260	0.230220
I141	I14	0.959720	0.099440	0.122510
I151	I15	0.041530	0.561420	0.581120
I161	I16	0.220520	0.749640	0.504860
I171	I17	0.896890	0.330320	0.345200
I181	I18	0.928200	0.542640	0.443920
I191	I19	0.251510	0.018260	0.730220
I201	I20	0.139720	0.099440	0.622510
I211	I21	0.519890	0.561420	0.081120
I221	I22	0.529120	0.749640	0.004860
I231	I23	0.433430	0.330320	0.845200
I241	I24	0.614440	0.542640	0.943920
N251	N25	0.025800	0.134400	0.240600
N261	N26	0.226000	0.353200	0.362900
N271	N27	0.396000	0.442000	0.387100
N281	N28	0.353400	0.331600	0.324300
N291	N29	0.223600	0.554800	0.499500
N301	N30	0.716100	0.431400	0.362100
N311	N31	0.924200	0.509800	0.314200
N321	N32	0.014100	0.726800	0.220800
N331	N33	0.104800	0.757600	0.160300
N341	N34	0.105900	0.652200	0.196500
N351	N35	0.966800	0.958600	0.194500
N361	N36	0.347100	0.660000	0.088900
N371	N37	0.108600	0.134400	0.740600
N381	N38	0.127200	0.353200	0.862900
N391	N39	0.046000	0.442000	0.887100
N401	N40	0.978200	0.331600	0.824300
N411	N41	0.331200	0.554800	0.999500
N421	N42	0.715300	0.431400	0.862100
N431	N43	0.585600	0.509800	0.814200
N441	N44	0.712700	0.726800	0.720800
N451	N45	0.652800	0.757600	0.660300
N461	N46	0.546300	0.652200	0.696500
N471	N47	0.991800	0.958600	0.694500
N481	N48	0.312900	0.660000	0.588900
