data_REYJEM_freeONLY_PM
_symmetry_space_group_name_H-M	'P1'
_cell_length_a	12.262000
_cell_length_b	13.572000
_cell_length_c	24.934000
_cell_angle_alpha	90.000000
_cell_angle_beta	90.000000
_cell_angle_gamma	90.000000
_symmetry_Int_Tables_number 1

loop_
_symmetry_equiv_pos_as_xyz
'x,y,z'

loop_
_atom_site_label
_atom_site_type_symbol
_atom_site_fract_x
_atom_site_fract_y
_atom_site_fract_z
O11	O1	0.611600	0.917500	0.730700
O21	O2	0.600300	0.006500	0.802700
O31	O3	0.860600	0.958200	0.949600
O41	O4	0.002600	0.875300	0.932970
O51	O5	0.027900	0.149100	0.553330
O61	O6	0.881500	0.071100	0.546900
O71	O7	0.582300	0.124200	0.675400
O81	O8	0.623600	0.212300	0.757000
O91	O9	0.876600	0.658700	0.773700
O101	O10	0.950700	0.414600	0.687100
C11	C1	0.775100	0.905100	0.849200
H11	H1	0.747900	0.961000	0.866100
C21	C2	0.855000	0.855400	0.871700
C31	C3	0.893500	0.768200	0.848900
H21	H2	0.950300	0.733800	0.865100
C41	C4	0.847900	0.733700	0.803100
C51	C5	0.764900	0.793300	0.778600
H31	H3	0.734200	0.773500	0.746300
C61	C6	0.731500	0.876000	0.801600
C71	C7	0.642900	0.961100	0.779400
C81	C8	0.911200	0.893700	0.920400
C91	C9	0.892700	0.344100	0.672800
C101	C10	0.936600	0.283400	0.626300
H41	H4	0.003500	0.300200	0.611300
C111	C11	0.880000	0.204100	0.605700
C121	C12	0.775700	0.178400	0.624200
H51	H5	0.731400	0.134700	0.605500
C131	C13	0.742600	0.220900	0.671000
C141	C14	0.797200	0.311800	0.693500
H61	H6	0.764900	0.345800	0.721800
C151	C15	0.921900	0.134000	0.562100
C161	C16	0.647400	0.181000	0.701000
C171	C17	0.964800	0.600500	0.795800
H71	H7	0.940600	0.565200	0.827400
H81	H8	0.025600	0.642500	0.805600
C181	C18	0.905900	0.466900	0.730700
H91	H9	0.879500	0.422400	0.758200
H101	H10	0.846600	0.509300	0.719200
O111	O11	0.388400	0.082500	0.230700
O121	O12	0.399700	0.993500	0.302700
O131	O13	0.139400	0.041800	0.449600
O141	O14	0.997400	0.124700	0.432970
O151	O15	0.972100	0.850900	0.053330
O161	O16	0.118500	0.928900	0.046900
O171	O17	0.417700	0.875800	0.175400
O181	O18	0.376400	0.787700	0.257000
O191	O19	0.123400	0.341300	0.273700
O201	O20	0.049300	0.585400	0.187100
C191	C19	0.224900	0.094900	0.349200
H111	H11	0.252100	0.039000	0.366100
C201	C20	0.145000	0.144600	0.371700
C211	C21	0.106500	0.231800	0.348900
H121	H12	0.049700	0.266200	0.365100
C221	C22	0.152100	0.266300	0.303100
C231	C23	0.235100	0.206700	0.278600
H131	H13	0.265800	0.226500	0.246300
C241	C24	0.268500	0.124000	0.301600
C251	C25	0.357100	0.038900	0.279400
C261	C26	0.088800	0.106300	0.420400
C271	C27	0.107300	0.655900	0.172800
C281	C28	0.063400	0.716600	0.126300
H141	H14	0.996500	0.699800	0.111300
C291	C29	0.120000	0.795900	0.105700
C301	C30	0.224300	0.821600	0.124200
H151	H15	0.268600	0.865300	0.105500
C311	C31	0.257400	0.779100	0.171000
C321	C32	0.202800	0.688200	0.193500
H161	H16	0.235100	0.654200	0.221800
C331	C33	0.078100	0.866000	0.062100
C341	C34	0.352600	0.819000	0.201000
C351	C35	0.035200	0.399500	0.295800
H171	H17	0.059400	0.434800	0.327400
H181	H18	0.974400	0.357500	0.305600
C361	C36	0.094100	0.533100	0.230700
H191	H19	0.120500	0.577600	0.258200
H201	H20	0.153400	0.490700	0.219200
O211	O21	0.388400	0.917500	0.769300
O221	O22	0.399700	0.006500	0.697300
O231	O23	0.139400	0.958200	0.550400
O241	O24	0.997400	0.875300	0.567030
O251	O25	0.972100	0.149100	0.946670
O261	O26	0.118500	0.071100	0.953100
O271	O27	0.417700	0.124200	0.824600
O281	O28	0.376400	0.212300	0.743000
O291	O29	0.123400	0.658700	0.726300
O301	O30	0.049300	0.414600	0.812900
C371	C37	0.224900	0.905100	0.650800
H211	H21	0.252100	0.961000	0.633900
C381	C38	0.145000	0.855400	0.628300
C391	C39	0.106500	0.768200	0.651100
H221	H22	0.049700	0.733800	0.634900
C401	C40	0.152100	0.733700	0.696900
C411	C41	0.235100	0.793300	0.721400
H231	H23	0.265800	0.773500	0.753700
C421	C42	0.268500	0.876000	0.698400
C431	C43	0.357100	0.961100	0.720600
C441	C44	0.088800	0.893700	0.579600
C451	C45	0.107300	0.344100	0.827200
C461	C46	0.063400	0.283400	0.873700
H241	H24	0.996500	0.300200	0.888700
C471	C47	0.120000	0.204100	0.894300
C481	C48	0.224300	0.178400	0.875800
H251	H25	0.268600	0.134700	0.894500
C491	C49	0.257400	0.220900	0.829000
C501	C50	0.202800	0.311800	0.806500
H261	H26	0.235100	0.345800	0.778200
C511	C51	0.078100	0.134000	0.937900
C521	C52	0.352600	0.181000	0.799000
C531	C53	0.035200	0.600500	0.704200
H271	H27	0.059400	0.565200	0.672600
H281	H28	0.974400	0.642500	0.694400
C541	C54	0.094100	0.466900	0.769300
H291	H29	0.120500	0.422400	0.741800
H301	H30	0.153400	0.509300	0.780800
O311	O31	0.611600	0.082500	0.269300
O321	O32	0.600300	0.993500	0.197300
O331	O33	0.860600	0.041800	0.050400
O341	O34	0.002600	0.124700	0.067030
O351	O35	0.027900	0.850900	0.446670
O361	O36	0.881500	0.928900	0.453100
O371	O37	0.582300	0.875800	0.324600
O381	O38	0.623600	0.787700	0.243000
O391	O39	0.876600	0.341300	0.226300
O401	O40	0.950700	0.585400	0.312900
C551	C55	0.775100	0.094900	0.150800
H311	H31	0.747900	0.039000	0.133900
C561	C56	0.855000	0.144600	0.128300
C571	C57	0.893500	0.231800	0.151100
H321	H32	0.950300	0.266200	0.134900
C581	C58	0.847900	0.266300	0.196900
C591	C59	0.764900	0.206700	0.221400
H331	H33	0.734200	0.226500	0.253700
C601	C60	0.731500	0.124000	0.198400
C611	C61	0.642900	0.038900	0.220600
C621	C62	0.911200	0.106300	0.079600
C631	C63	0.892700	0.655900	0.327200
C641	C64	0.936600	0.716600	0.373700
H341	H34	0.003500	0.699800	0.388700
C651	C65	0.880000	0.795900	0.394300
C661	C66	0.775700	0.821600	0.375800
H351	H35	0.731400	0.865300	0.394500
C671	C67	0.742600	0.779100	0.329000
C681	C68	0.797200	0.688200	0.306500
H361	H36	0.764900	0.654200	0.278200
C691	C69	0.921900	0.866000	0.437900
C701	C70	0.647400	0.819000	0.299000
C711	C71	0.964800	0.399500	0.204200
H371	H37	0.940600	0.434800	0.172600
H381	H38	0.025600	0.357500	0.194400
C721	C72	0.905900	0.533100	0.269300
H391	H39	0.879500	0.577600	0.241800
H401	H40	0.846600	0.490700	0.280800
In11	In1	0.500000	0.087570	0.750000
In21	In2	0.500000	0.912430	0.250000
In31	In3	0.994130	0.000000	0.000000
In41	In4	0.005870	0.000000	0.500000
C731	C73	0.000000	0.525300	0.750000
C741	C74	0.000000	0.474700	0.250000
