data_REYMOZ_freeONLY_PM
_symmetry_space_group_name_H-M	'P1'
_cell_length_a	26.301600
_cell_length_b	26.301600
_cell_length_c	26.301600
_cell_angle_alpha	90.000000
_cell_angle_beta	90.000000
_cell_angle_gamma	90.000000
_symmetry_Int_Tables_number 1

loop_
_symmetry_equiv_pos_as_xyz
'x,y,z'

loop_
_atom_site_label
_atom_site_type_symbol
_atom_site_fract_x
_atom_site_fract_y
_atom_site_fract_z
O11	O1	0.243350	0.052610	0.183000
O21	O2	0.243350	0.552610	0.683000
O31	O3	0.743350	0.052610	0.683000
O41	O4	0.743350	0.552610	0.183000
O51	O5	0.756650	0.947390	0.183000
O61	O6	0.756650	0.447390	0.683000
O71	O7	0.256650	0.947390	0.683000
O81	O8	0.256650	0.447390	0.183000
O91	O9	0.756650	0.052610	0.817000
O101	O10	0.756650	0.552610	0.317000
O111	O11	0.256650	0.052610	0.317000
O121	O12	0.256650	0.552610	0.817000
O131	O13	0.243350	0.947390	0.817000
O141	O14	0.243350	0.447390	0.317000
O151	O15	0.743350	0.947390	0.317000
O161	O16	0.743350	0.447390	0.817000
O171	O17	0.183000	0.243350	0.052610
O181	O18	0.183000	0.743350	0.552610
O191	O19	0.683000	0.243350	0.552610
O201	O20	0.683000	0.743350	0.052610
O211	O21	0.183000	0.756650	0.947390
O221	O22	0.183000	0.256650	0.447390
O231	O23	0.683000	0.756650	0.447390
O241	O24	0.683000	0.256650	0.947390
O251	O25	0.817000	0.756650	0.052610
O261	O26	0.817000	0.256650	0.552610
O271	O27	0.317000	0.756650	0.552610
O281	O28	0.317000	0.256650	0.052610
O291	O29	0.817000	0.243350	0.947390
O301	O30	0.817000	0.743350	0.447390
O311	O31	0.317000	0.243350	0.447390
O321	O32	0.317000	0.743350	0.947390
O331	O33	0.052610	0.183000	0.243350
O341	O34	0.052610	0.683000	0.743350
O351	O35	0.552610	0.183000	0.743350
O361	O36	0.552610	0.683000	0.243350
O371	O37	0.947390	0.183000	0.756650
O381	O38	0.947390	0.683000	0.256650
O391	O39	0.447390	0.183000	0.256650
O401	O40	0.447390	0.683000	0.756650
O411	O41	0.052610	0.817000	0.756650
O421	O42	0.052610	0.317000	0.256650
O431	O43	0.552610	0.817000	0.256650
O441	O44	0.552610	0.317000	0.756650
O451	O45	0.947390	0.817000	0.243350
O461	O46	0.947390	0.317000	0.743350
O471	O47	0.447390	0.817000	0.743350
O481	O48	0.447390	0.317000	0.243350
O491	O49	0.052610	0.243350	0.817000
O501	O50	0.052610	0.743350	0.317000
O511	O51	0.552610	0.243350	0.317000
O521	O52	0.552610	0.743350	0.817000
O531	O53	0.947390	0.756650	0.817000
O541	O54	0.947390	0.256650	0.317000
O551	O55	0.447390	0.756650	0.317000
O561	O56	0.447390	0.256650	0.817000
O571	O57	0.052610	0.756650	0.183000
O581	O58	0.052610	0.256650	0.683000
O591	O59	0.552610	0.756650	0.683000
O601	O60	0.552610	0.256650	0.183000
O611	O61	0.947390	0.243350	0.183000
O621	O62	0.947390	0.743350	0.683000
O631	O63	0.447390	0.243350	0.683000
O641	O64	0.447390	0.743350	0.183000
O651	O65	0.243350	0.183000	0.947390
O661	O66	0.243350	0.683000	0.447390
O671	O67	0.743350	0.183000	0.447390
O681	O68	0.743350	0.683000	0.947390
O691	O69	0.756650	0.183000	0.052610
O701	O70	0.756650	0.683000	0.552610
O711	O71	0.256650	0.183000	0.552610
O721	O72	0.256650	0.683000	0.052610
O731	O73	0.756650	0.817000	0.947390
O741	O74	0.756650	0.317000	0.447390
O751	O75	0.256650	0.817000	0.447390
O761	O76	0.256650	0.317000	0.947390
O771	O77	0.243350	0.817000	0.052610
O781	O78	0.243350	0.317000	0.552610
O791	O79	0.743350	0.817000	0.552610
O801	O80	0.743350	0.317000	0.052610
O811	O81	0.183000	0.052610	0.756650
O821	O82	0.183000	0.552610	0.256650
O831	O83	0.683000	0.052610	0.256650
O841	O84	0.683000	0.552610	0.756650
O851	O85	0.183000	0.947390	0.243350
O861	O86	0.183000	0.447390	0.743350
O871	O87	0.683000	0.947390	0.743350
O881	O88	0.683000	0.447390	0.243350
O891	O89	0.817000	0.052610	0.243350
O901	O90	0.817000	0.552610	0.743350
O911	O91	0.317000	0.052610	0.743350
O921	O92	0.317000	0.552610	0.243350
O931	O93	0.817000	0.947390	0.756650
O941	O94	0.817000	0.447390	0.256650
O951	O95	0.317000	0.947390	0.256650
O961	O96	0.317000	0.447390	0.756650
O971	O97	0.756650	0.947390	0.817000
O981	O98	0.756650	0.447390	0.317000
O991	O99	0.256650	0.947390	0.317000
O1001	O100	0.256650	0.447390	0.817000
O1011	O101	0.243350	0.052610	0.817000
O1021	O102	0.243350	0.552610	0.317000
O1031	O103	0.743350	0.052610	0.317000
O1041	O104	0.743350	0.552610	0.817000
O1051	O105	0.243350	0.947390	0.183000
O1061	O106	0.243350	0.447390	0.683000
O1071	O107	0.743350	0.947390	0.683000
O1081	O108	0.743350	0.447390	0.183000
O1091	O109	0.756650	0.052610	0.183000
O1101	O110	0.756650	0.552610	0.683000
O1111	O111	0.256650	0.052610	0.683000
O1121	O112	0.256650	0.552610	0.183000
O1131	O113	0.817000	0.756650	0.947390
O1141	O114	0.817000	0.256650	0.447390
O1151	O115	0.317000	0.756650	0.447390
O1161	O116	0.317000	0.256650	0.947390
O1171	O117	0.817000	0.243350	0.052610
O1181	O118	0.817000	0.743350	0.552610
O1191	O119	0.317000	0.243350	0.552610
O1201	O120	0.317000	0.743350	0.052610
O1211	O121	0.183000	0.243350	0.947390
O1221	O122	0.183000	0.743350	0.447390
O1231	O123	0.683000	0.243350	0.447390
O1241	O124	0.683000	0.743350	0.947390
O1251	O125	0.183000	0.756650	0.052610
O1261	O126	0.183000	0.256650	0.552610
O1271	O127	0.683000	0.756650	0.552610
O1281	O128	0.683000	0.256650	0.052610
O1291	O129	0.947390	0.817000	0.756650
O1301	O130	0.947390	0.317000	0.256650
O1311	O131	0.447390	0.817000	0.256650
O1321	O132	0.447390	0.317000	0.756650
O1331	O133	0.052610	0.817000	0.243350
O1341	O134	0.052610	0.317000	0.743350
O1351	O135	0.552610	0.817000	0.743350
O1361	O136	0.552610	0.317000	0.243350
O1371	O137	0.947390	0.183000	0.243350
O1381	O138	0.947390	0.683000	0.743350
O1391	O139	0.447390	0.183000	0.743350
O1401	O140	0.447390	0.683000	0.243350
O1411	O141	0.052610	0.183000	0.756650
O1421	O142	0.052610	0.683000	0.256650
O1431	O143	0.552610	0.183000	0.256650
O1441	O144	0.552610	0.683000	0.756650
O1451	O145	0.947390	0.756650	0.183000
O1461	O146	0.947390	0.256650	0.683000
O1471	O147	0.447390	0.756650	0.683000
O1481	O148	0.447390	0.256650	0.183000
O1491	O149	0.052610	0.243350	0.183000
O1501	O150	0.052610	0.743350	0.683000
O1511	O151	0.552610	0.243350	0.683000
O1521	O152	0.552610	0.743350	0.183000
O1531	O153	0.947390	0.243350	0.817000
O1541	O154	0.947390	0.743350	0.317000
O1551	O155	0.447390	0.243350	0.317000
O1561	O156	0.447390	0.743350	0.817000
O1571	O157	0.052610	0.756650	0.817000
O1581	O158	0.052610	0.256650	0.317000
O1591	O159	0.552610	0.756650	0.317000
O1601	O160	0.552610	0.256650	0.817000
O1611	O161	0.756650	0.817000	0.052610
O1621	O162	0.756650	0.317000	0.552610
O1631	O163	0.256650	0.817000	0.552610
O1641	O164	0.256650	0.317000	0.052610
O1651	O165	0.243350	0.817000	0.947390
O1661	O166	0.243350	0.317000	0.447390
O1671	O167	0.743350	0.817000	0.447390
O1681	O168	0.743350	0.317000	0.947390
O1691	O169	0.243350	0.183000	0.052610
O1701	O170	0.243350	0.683000	0.552610
O1711	O171	0.743350	0.183000	0.552610
O1721	O172	0.743350	0.683000	0.052610
O1731	O173	0.756650	0.183000	0.947390
O1741	O174	0.756650	0.683000	0.447390
O1751	O175	0.256650	0.183000	0.447390
O1761	O176	0.256650	0.683000	0.947390
O1771	O177	0.817000	0.947390	0.243350
O1781	O178	0.817000	0.447390	0.743350
O1791	O179	0.317000	0.947390	0.743350
O1801	O180	0.317000	0.447390	0.243350
O1811	O181	0.817000	0.052610	0.756650
O1821	O182	0.817000	0.552610	0.256650
O1831	O183	0.317000	0.052610	0.256650
O1841	O184	0.317000	0.552610	0.756650
O1851	O185	0.183000	0.947390	0.756650
O1861	O186	0.183000	0.447390	0.256650
O1871	O187	0.683000	0.947390	0.256650
O1881	O188	0.683000	0.447390	0.756650
O1891	O189	0.183000	0.052610	0.243350
O1901	O190	0.183000	0.552610	0.743350
O1911	O191	0.683000	0.052610	0.743350
O1921	O192	0.683000	0.552610	0.243350
C11	C1	0.133910	0.133910	0.198300
H11	H1	0.119500	0.119500	0.227300
C21	C2	0.133910	0.633910	0.698300
H21	H2	0.119500	0.619500	0.727300
C31	C3	0.633910	0.133910	0.698300
H31	H3	0.619500	0.119500	0.727300
C41	C4	0.633910	0.633910	0.198300
H41	H4	0.619500	0.619500	0.227300
C51	C5	0.866090	0.866090	0.198300
H51	H5	0.880500	0.880500	0.227300
C61	C6	0.866090	0.366090	0.698300
H61	H6	0.880500	0.380500	0.727300
C71	C7	0.366090	0.866090	0.698300
H71	H7	0.380500	0.880500	0.727300
C81	C8	0.366090	0.366090	0.198300
H81	H8	0.380500	0.380500	0.227300
C91	C9	0.866090	0.133910	0.801700
H91	H9	0.880500	0.119500	0.772700
C101	C10	0.866090	0.633910	0.301700
H101	H10	0.880500	0.619500	0.272700
C111	C11	0.366090	0.133910	0.301700
H111	H11	0.380500	0.119500	0.272700
C121	C12	0.366090	0.633910	0.801700
H121	H12	0.380500	0.619500	0.772700
C131	C13	0.133910	0.866090	0.801700
H131	H13	0.119500	0.880500	0.772700
C141	C14	0.133910	0.366090	0.301700
H141	H14	0.119500	0.380500	0.272700
C151	C15	0.633910	0.866090	0.301700
H151	H15	0.619500	0.880500	0.272700
C161	C16	0.633910	0.366090	0.801700
H161	H16	0.619500	0.380500	0.772700
C171	C17	0.198300	0.133910	0.133910
H171	H17	0.227300	0.119500	0.119500
C181	C18	0.198300	0.633910	0.633910
H181	H18	0.227300	0.619500	0.619500
C191	C19	0.698300	0.133910	0.633910
H191	H19	0.727300	0.119500	0.619500
C201	C20	0.698300	0.633910	0.133910
H201	H20	0.727300	0.619500	0.119500
C211	C21	0.198300	0.866090	0.866090
H211	H21	0.227300	0.880500	0.880500
C221	C22	0.198300	0.366090	0.366090
H221	H22	0.227300	0.380500	0.380500
C231	C23	0.698300	0.866090	0.366090
H231	H23	0.727300	0.880500	0.380500
C241	C24	0.698300	0.366090	0.866090
H241	H24	0.727300	0.380500	0.880500
C251	C25	0.801700	0.866090	0.133910
H251	H25	0.772700	0.880500	0.119500
C261	C26	0.801700	0.366090	0.633910
H261	H26	0.772700	0.380500	0.619500
C271	C27	0.301700	0.866090	0.633910
H271	H27	0.272700	0.880500	0.619500
C281	C28	0.301700	0.366090	0.133910
H281	H28	0.272700	0.380500	0.119500
C291	C29	0.801700	0.133910	0.866090
H291	H29	0.772700	0.119500	0.880500
C301	C30	0.801700	0.633910	0.366090
H301	H30	0.772700	0.619500	0.380500
C311	C31	0.301700	0.133910	0.366090
H311	H31	0.272700	0.119500	0.380500
C321	C32	0.301700	0.633910	0.866090
H321	H32	0.272700	0.619500	0.880500
C331	C33	0.133910	0.198300	0.133910
H331	H33	0.119500	0.227300	0.119500
C341	C34	0.133910	0.698300	0.633910
H341	H34	0.119500	0.727300	0.619500
C351	C35	0.633910	0.198300	0.633910
H351	H35	0.619500	0.227300	0.619500
C361	C36	0.633910	0.698300	0.133910
H361	H36	0.619500	0.727300	0.119500
C371	C37	0.866090	0.198300	0.866090
H371	H37	0.880500	0.227300	0.880500
C381	C38	0.866090	0.698300	0.366090
H381	H38	0.880500	0.727300	0.380500
C391	C39	0.366090	0.198300	0.366090
H391	H39	0.380500	0.227300	0.380500
C401	C40	0.366090	0.698300	0.866090
H401	H40	0.380500	0.727300	0.880500
C411	C41	0.133910	0.801700	0.866090
H411	H41	0.119500	0.772700	0.880500
C421	C42	0.133910	0.301700	0.366090
H421	H42	0.119500	0.272700	0.380500
C431	C43	0.633910	0.801700	0.366090
H431	H43	0.619500	0.772700	0.380500
C441	C44	0.633910	0.301700	0.866090
H441	H44	0.619500	0.272700	0.880500
C451	C45	0.866090	0.801700	0.133910
H451	H45	0.880500	0.772700	0.119500
C461	C46	0.866090	0.301700	0.633910
H461	H46	0.880500	0.272700	0.619500
C471	C47	0.366090	0.801700	0.633910
H471	H47	0.380500	0.772700	0.619500
C481	C48	0.366090	0.301700	0.133910
H481	H48	0.380500	0.272700	0.119500
C491	C49	0.133910	0.133910	0.801700
H491	H49	0.119500	0.119500	0.772700
C501	C50	0.133910	0.633910	0.301700
H501	H50	0.119500	0.619500	0.272700
C511	C51	0.633910	0.133910	0.301700
H511	H51	0.619500	0.119500	0.272700
C521	C52	0.633910	0.633910	0.801700
H521	H52	0.619500	0.619500	0.772700
C531	C53	0.866090	0.866090	0.801700
H531	H53	0.880500	0.880500	0.772700
C541	C54	0.866090	0.366090	0.301700
H541	H54	0.880500	0.380500	0.272700
C551	C55	0.366090	0.866090	0.301700
H551	H55	0.380500	0.880500	0.272700
C561	C56	0.366090	0.366090	0.801700
H561	H56	0.380500	0.380500	0.772700
C571	C57	0.133910	0.866090	0.198300
H571	H57	0.119500	0.880500	0.227300
C581	C58	0.133910	0.366090	0.698300
H581	H58	0.119500	0.380500	0.727300
C591	C59	0.633910	0.866090	0.698300
H591	H59	0.619500	0.880500	0.727300
C601	C60	0.633910	0.366090	0.198300
H601	H60	0.619500	0.380500	0.227300
C611	C61	0.866090	0.133910	0.198300
H611	H61	0.880500	0.119500	0.227300
C621	C62	0.866090	0.633910	0.698300
H621	H62	0.880500	0.619500	0.727300
C631	C63	0.366090	0.133910	0.698300
H631	H63	0.380500	0.119500	0.727300
C641	C64	0.366090	0.633910	0.198300
H641	H64	0.380500	0.619500	0.227300
C651	C65	0.133910	0.198300	0.866090
H651	H65	0.119500	0.227300	0.880500
C661	C66	0.133910	0.698300	0.366090
H661	H66	0.119500	0.727300	0.380500
C671	C67	0.633910	0.198300	0.366090
H671	H67	0.619500	0.227300	0.380500
C681	C68	0.633910	0.698300	0.866090
H681	H68	0.619500	0.727300	0.880500
C691	C69	0.866090	0.198300	0.133910
H691	H69	0.880500	0.227300	0.119500
C701	C70	0.866090	0.698300	0.633910
H701	H70	0.880500	0.727300	0.619500
C711	C71	0.366090	0.198300	0.633910
H711	H71	0.380500	0.227300	0.619500
C721	C72	0.366090	0.698300	0.133910
H721	H72	0.380500	0.727300	0.119500
C731	C73	0.866090	0.801700	0.866090
H731	H73	0.880500	0.772700	0.880500
C741	C74	0.866090	0.301700	0.366090
H741	H74	0.880500	0.272700	0.380500
C751	C75	0.366090	0.801700	0.366090
H751	H75	0.380500	0.772700	0.380500
C761	C76	0.366090	0.301700	0.866090
H761	H76	0.380500	0.272700	0.880500
C771	C77	0.133910	0.801700	0.133910
H771	H77	0.119500	0.772700	0.119500
C781	C78	0.133910	0.301700	0.633910
H781	H78	0.119500	0.272700	0.619500
C791	C79	0.633910	0.801700	0.633910
H791	H79	0.619500	0.772700	0.619500
C801	C80	0.633910	0.301700	0.133910
H801	H80	0.619500	0.272700	0.119500
C811	C81	0.198300	0.133910	0.866090
H811	H81	0.227300	0.119500	0.880500
C821	C82	0.198300	0.633910	0.366090
H821	H82	0.227300	0.619500	0.380500
C831	C83	0.698300	0.133910	0.366090
H831	H83	0.727300	0.119500	0.380500
C841	C84	0.698300	0.633910	0.866090
H841	H84	0.727300	0.619500	0.880500
C851	C85	0.198300	0.866090	0.133910
H851	H85	0.227300	0.880500	0.119500
C861	C86	0.198300	0.366090	0.633910
H861	H86	0.227300	0.380500	0.619500
C871	C87	0.698300	0.866090	0.633910
H871	H87	0.727300	0.880500	0.619500
C881	C88	0.698300	0.366090	0.133910
H881	H88	0.727300	0.380500	0.119500
C891	C89	0.801700	0.133910	0.133910
H891	H89	0.772700	0.119500	0.119500
C901	C90	0.801700	0.633910	0.633910
H901	H90	0.772700	0.619500	0.619500
C911	C91	0.301700	0.133910	0.633910
H911	H91	0.272700	0.119500	0.619500
C921	C92	0.301700	0.633910	0.133910
H921	H92	0.272700	0.619500	0.119500
C931	C93	0.801700	0.866090	0.866090
H931	H93	0.772700	0.880500	0.880500
C941	C94	0.801700	0.366090	0.366090
H941	H94	0.772700	0.380500	0.380500
C951	C95	0.301700	0.866090	0.366090
H951	H95	0.272700	0.880500	0.380500
C961	C96	0.301700	0.366090	0.866090
H961	H96	0.272700	0.380500	0.880500
Cu11	Cu1	0.285130	0.000000	0.214870
O1931	O193	0.343900	0.000000	0.156100
Cu21	Cu2	0.285130	0.500000	0.714870
O1941	O194	0.343900	0.500000	0.656100
Cu31	Cu3	0.714870	0.000000	0.214870
O1951	O195	0.656100	0.000000	0.156100
Cu41	Cu4	0.714870	0.500000	0.714870
O1961	O196	0.656100	0.500000	0.656100
Cu51	Cu5	0.214870	0.500000	0.214870
O1971	O197	0.156100	0.500000	0.156100
Cu61	Cu6	0.714870	0.000000	0.785130
O1981	O198	0.656100	0.000000	0.843900
Cu71	Cu7	0.714870	0.500000	0.285130
O1991	O199	0.656100	0.500000	0.343900
Cu81	Cu8	0.214870	0.000000	0.285130
O2001	O200	0.156100	0.000000	0.343900
Cu91	Cu9	0.285130	0.000000	0.785130
O2011	O201	0.343900	0.000000	0.843900
Cu101	Cu10	0.285130	0.500000	0.285130
O2021	O202	0.343900	0.500000	0.343900
Cu111	Cu11	0.214870	0.285130	0.000000
O2031	O203	0.156100	0.343900	0.000000
Cu121	Cu12	0.214870	0.785130	0.500000
O2041	O204	0.156100	0.843900	0.500000
Cu131	Cu13	0.214870	0.714870	0.000000
O2051	O205	0.156100	0.656100	0.000000
Cu141	Cu14	0.214870	0.214870	0.500000
O2061	O206	0.156100	0.156100	0.500000
Cu151	Cu15	0.785130	0.714870	0.000000
O2071	O207	0.843900	0.656100	0.000000
Cu161	Cu16	0.785130	0.214870	0.500000
O2081	O208	0.843900	0.156100	0.500000
Cu171	Cu17	0.285130	0.214870	0.000000
O2091	O209	0.343900	0.156100	0.000000
Cu181	Cu18	0.785130	0.285130	0.000000
O2101	O210	0.843900	0.343900	0.000000
Cu191	Cu19	0.785130	0.785130	0.500000
O2111	O211	0.843900	0.843900	0.500000
Cu201	Cu20	0.285130	0.285130	0.500000
O2121	O212	0.343900	0.343900	0.500000
Cu211	Cu21	0.000000	0.214870	0.285130
O2131	O213	0.000000	0.156100	0.343900
Cu221	Cu22	0.500000	0.214870	0.785130
O2141	O214	0.500000	0.156100	0.843900
Cu231	Cu23	0.000000	0.214870	0.714870
O2151	O215	0.000000	0.156100	0.656100
Cu241	Cu24	0.500000	0.214870	0.214870
O2161	O216	0.500000	0.156100	0.156100
Cu251	Cu25	0.000000	0.785130	0.714870
O2171	O217	0.000000	0.843900	0.656100
Cu261	Cu26	0.000000	0.285130	0.214870
O2181	O218	0.000000	0.343900	0.156100
Cu271	Cu27	0.500000	0.785130	0.214870
O2191	O219	0.500000	0.843900	0.156100
Cu281	Cu28	0.000000	0.785130	0.285130
O2201	O220	0.000000	0.843900	0.343900
Cu291	Cu29	0.500000	0.785130	0.785130
O2211	O221	0.500000	0.843900	0.843900
Cu301	Cu30	0.500000	0.285130	0.285130
O2221	O222	0.500000	0.343900	0.343900
Cu311	Cu31	0.000000	0.285130	0.785130
O2231	O223	0.000000	0.343900	0.843900
Cu321	Cu32	0.000000	0.714870	0.785130
O2241	O224	0.000000	0.656100	0.843900
Cu331	Cu33	0.500000	0.714870	0.285130
O2251	O225	0.500000	0.656100	0.343900
Cu341	Cu34	0.000000	0.714870	0.214870
O2261	O226	0.000000	0.656100	0.156100
Cu351	Cu35	0.500000	0.714870	0.714870
O2271	O227	0.500000	0.656100	0.656100
Cu361	Cu36	0.500000	0.285130	0.714870
O2281	O228	0.500000	0.343900	0.656100
Cu371	Cu37	0.285130	0.714870	0.500000
O2291	O229	0.343900	0.656100	0.500000
Cu381	Cu38	0.714870	0.214870	0.000000
O2301	O230	0.656100	0.156100	0.000000
Cu391	Cu39	0.714870	0.714870	0.500000
O2311	O231	0.656100	0.656100	0.500000
Cu401	Cu40	0.714870	0.785130	0.000000
O2321	O232	0.656100	0.843900	0.000000
Cu411	Cu41	0.714870	0.285130	0.500000
O2331	O233	0.656100	0.343900	0.500000
Cu421	Cu42	0.285130	0.785130	0.000000
O2341	O234	0.343900	0.843900	0.000000
Cu431	Cu43	0.214870	0.000000	0.714870
O2351	O235	0.156100	0.000000	0.656100
Cu441	Cu44	0.214870	0.500000	0.785130
O2361	O236	0.156100	0.500000	0.843900
Cu451	Cu45	0.785130	0.000000	0.285130
O2371	O237	0.843900	0.000000	0.343900
Cu461	Cu46	0.785130	0.500000	0.785130
O2381	O238	0.843900	0.500000	0.843900
Cu471	Cu47	0.785130	0.000000	0.714870
O2391	O239	0.843900	0.000000	0.656100
Cu481	Cu48	0.785130	0.500000	0.214870
O2401	O240	0.843900	0.500000	0.156100
C971	C97	0.176920	0.112200	0.176920
C981	C98	0.202760	0.068750	0.202760
C991	C99	0.176920	0.612200	0.676920
C1001	C100	0.202760	0.568750	0.702760
C1011	C101	0.676920	0.112200	0.676920
C1021	C102	0.702760	0.068750	0.702760
C1031	C103	0.676920	0.612200	0.176920
C1041	C104	0.702760	0.568750	0.202760
C1051	C105	0.823080	0.887800	0.176920
C1061	C106	0.797240	0.931250	0.202760
C1071	C107	0.823080	0.387800	0.676920
C1081	C108	0.797240	0.431250	0.702760
C1091	C109	0.323080	0.887800	0.676920
C1101	C110	0.297240	0.931250	0.702760
C1111	C111	0.323080	0.387800	0.176920
C1121	C112	0.297240	0.431250	0.202760
C1131	C113	0.823080	0.112200	0.823080
C1141	C114	0.797240	0.068750	0.797240
C1151	C115	0.823080	0.612200	0.323080
C1161	C116	0.797240	0.568750	0.297240
C1171	C117	0.323080	0.112200	0.323080
C1181	C118	0.297240	0.068750	0.297240
C1191	C119	0.323080	0.612200	0.823080
C1201	C120	0.297240	0.568750	0.797240
C1211	C121	0.176920	0.887800	0.823080
C1221	C122	0.202760	0.931250	0.797240
C1231	C123	0.176920	0.387800	0.323080
C1241	C124	0.202760	0.431250	0.297240
C1251	C125	0.676920	0.887800	0.323080
C1261	C126	0.702760	0.931250	0.297240
C1271	C127	0.676920	0.387800	0.823080
C1281	C128	0.702760	0.431250	0.797240
C1291	C129	0.176920	0.176920	0.112200
C1301	C130	0.202760	0.202760	0.068750
C1311	C131	0.176920	0.676920	0.612200
C1321	C132	0.202760	0.702760	0.568750
C1331	C133	0.676920	0.176920	0.612200
C1341	C134	0.702760	0.202760	0.568750
C1351	C135	0.676920	0.676920	0.112200
C1361	C136	0.702760	0.702760	0.068750
C1371	C137	0.176920	0.823080	0.887800
C1381	C138	0.202760	0.797240	0.931250
C1391	C139	0.176920	0.323080	0.387800
C1401	C140	0.202760	0.297240	0.431250
C1411	C141	0.676920	0.823080	0.387800
C1421	C142	0.702760	0.797240	0.431250
C1431	C143	0.676920	0.323080	0.887800
C1441	C144	0.702760	0.297240	0.931250
C1451	C145	0.823080	0.823080	0.112200
C1461	C146	0.797240	0.797240	0.068750
C1471	C147	0.823080	0.323080	0.612200
C1481	C148	0.797240	0.297240	0.568750
C1491	C149	0.323080	0.823080	0.612200
C1501	C150	0.297240	0.797240	0.568750
C1511	C151	0.323080	0.323080	0.112200
C1521	C152	0.297240	0.297240	0.068750
C1531	C153	0.823080	0.176920	0.887800
C1541	C154	0.797240	0.202760	0.931250
C1551	C155	0.823080	0.676920	0.387800
C1561	C156	0.797240	0.702760	0.431250
C1571	C157	0.323080	0.176920	0.387800
C1581	C158	0.297240	0.202760	0.431250
C1591	C159	0.323080	0.676920	0.887800
C1601	C160	0.297240	0.702760	0.931250
C1611	C161	0.112200	0.176920	0.176920
C1621	C162	0.068750	0.202760	0.202760
C1631	C163	0.112200	0.676920	0.676920
C1641	C164	0.068750	0.702760	0.702760
C1651	C165	0.612200	0.176920	0.676920
C1661	C166	0.568750	0.202760	0.702760
C1671	C167	0.612200	0.676920	0.176920
C1681	C168	0.568750	0.702760	0.202760
C1691	C169	0.887800	0.176920	0.823080
C1701	C170	0.931250	0.202760	0.797240
C1711	C171	0.887800	0.676920	0.323080
C1721	C172	0.931250	0.702760	0.297240
C1731	C173	0.387800	0.176920	0.323080
C1741	C174	0.431250	0.202760	0.297240
C1751	C175	0.387800	0.676920	0.823080
C1761	C176	0.431250	0.702760	0.797240
C1771	C177	0.112200	0.823080	0.823080
C1781	C178	0.068750	0.797240	0.797240
C1791	C179	0.112200	0.323080	0.323080
C1801	C180	0.068750	0.297240	0.297240
C1811	C181	0.612200	0.823080	0.323080
C1821	C182	0.568750	0.797240	0.297240
C1831	C183	0.612200	0.323080	0.823080
C1841	C184	0.568750	0.297240	0.797240
C1851	C185	0.887800	0.823080	0.176920
C1861	C186	0.931250	0.797240	0.202760
C1871	C187	0.887800	0.323080	0.676920
C1881	C188	0.931250	0.297240	0.702760
C1891	C189	0.387800	0.823080	0.676920
C1901	C190	0.431250	0.797240	0.702760
C1911	C191	0.387800	0.323080	0.176920
C1921	C192	0.431250	0.297240	0.202760
C1931	C193	0.112200	0.176920	0.823080
C1941	C194	0.068750	0.202760	0.797240
C1951	C195	0.112200	0.676920	0.323080
C1961	C196	0.068750	0.702760	0.297240
C1971	C197	0.612200	0.176920	0.323080
C1981	C198	0.568750	0.202760	0.297240
C1991	C199	0.612200	0.676920	0.823080
C2001	C200	0.568750	0.702760	0.797240
C2011	C201	0.887800	0.823080	0.823080
C2021	C202	0.931250	0.797240	0.797240
C2031	C203	0.887800	0.323080	0.323080
C2041	C204	0.931250	0.297240	0.297240
C2051	C205	0.387800	0.823080	0.323080
C2061	C206	0.431250	0.797240	0.297240
C2071	C207	0.387800	0.323080	0.823080
C2081	C208	0.431250	0.297240	0.797240
C2091	C209	0.112200	0.823080	0.176920
C2101	C210	0.068750	0.797240	0.202760
C2111	C211	0.112200	0.323080	0.676920
C2121	C212	0.068750	0.297240	0.702760
C2131	C213	0.612200	0.823080	0.676920
C2141	C214	0.568750	0.797240	0.702760
C2151	C215	0.612200	0.323080	0.176920
C2161	C216	0.568750	0.297240	0.202760
C2171	C217	0.887800	0.176920	0.176920
C2181	C218	0.931250	0.202760	0.202760
C2191	C219	0.887800	0.676920	0.676920
C2201	C220	0.931250	0.702760	0.702760
C2211	C221	0.387800	0.176920	0.676920
C2221	C222	0.431250	0.202760	0.702760
C2231	C223	0.387800	0.676920	0.176920
C2241	C224	0.431250	0.702760	0.202760
C2251	C225	0.176920	0.176920	0.887800
C2261	C226	0.202760	0.202760	0.931250
C2271	C227	0.176920	0.676920	0.387800
C2281	C228	0.202760	0.702760	0.431250
C2291	C229	0.676920	0.176920	0.387800
C2301	C230	0.702760	0.202760	0.431250
C2311	C231	0.676920	0.676920	0.887800
C2321	C232	0.702760	0.702760	0.931250
C2331	C233	0.823080	0.176920	0.112200
C2341	C234	0.797240	0.202760	0.068750
C2351	C235	0.823080	0.676920	0.612200
C2361	C236	0.797240	0.702760	0.568750
C2371	C237	0.323080	0.176920	0.612200
C2381	C238	0.297240	0.202760	0.568750
C2391	C239	0.323080	0.676920	0.112200
C2401	C240	0.297240	0.702760	0.068750
C2411	C241	0.823080	0.823080	0.887800
C2421	C242	0.797240	0.797240	0.931250
C2431	C243	0.823080	0.323080	0.387800
C2441	C244	0.797240	0.297240	0.431250
C2451	C245	0.323080	0.823080	0.387800
C2461	C246	0.297240	0.797240	0.431250
C2471	C247	0.323080	0.323080	0.887800
C2481	C248	0.297240	0.297240	0.931250
C2491	C249	0.176920	0.823080	0.112200
C2501	C250	0.202760	0.797240	0.068750
C2511	C251	0.176920	0.323080	0.612200
C2521	C252	0.202760	0.297240	0.568750
C2531	C253	0.676920	0.823080	0.612200
C2541	C254	0.702760	0.797240	0.568750
C2551	C255	0.676920	0.323080	0.112200
C2561	C256	0.702760	0.297240	0.068750
C2571	C257	0.176920	0.112200	0.823080
C2581	C258	0.202760	0.068750	0.797240
C2591	C259	0.176920	0.612200	0.323080
C2601	C260	0.202760	0.568750	0.297240
C2611	C261	0.676920	0.112200	0.323080
C2621	C262	0.702760	0.068750	0.297240
C2631	C263	0.676920	0.612200	0.823080
C2641	C264	0.702760	0.568750	0.797240
C2651	C265	0.176920	0.887800	0.176920
C2661	C266	0.202760	0.931250	0.202760
C2671	C267	0.176920	0.387800	0.676920
C2681	C268	0.202760	0.431250	0.702760
C2691	C269	0.676920	0.887800	0.676920
C2701	C270	0.702760	0.931250	0.702760
C2711	C271	0.676920	0.387800	0.176920
C2721	C272	0.702760	0.431250	0.202760
C2731	C273	0.823080	0.112200	0.176920
C2741	C274	0.797240	0.068750	0.202760
C2751	C275	0.823080	0.612200	0.676920
C2761	C276	0.797240	0.568750	0.702760
C2771	C277	0.323080	0.112200	0.676920
C2781	C278	0.297240	0.068750	0.702760
C2791	C279	0.323080	0.612200	0.176920
C2801	C280	0.297240	0.568750	0.202760
C2811	C281	0.823080	0.887800	0.823080
C2821	C282	0.797240	0.931250	0.797240
C2831	C283	0.823080	0.387800	0.323080
C2841	C284	0.797240	0.431250	0.297240
C2851	C285	0.323080	0.887800	0.323080
C2861	C286	0.297240	0.931250	0.297240
C2871	C287	0.323080	0.387800	0.823080
C2881	C288	0.297240	0.431250	0.797240
