data_REZVAU_freeONLY_PM
_symmetry_space_group_name_H-M	'P1'
_cell_length_a	11.345700
_cell_length_b	11.468000
_cell_length_c	18.207700
_cell_angle_alpha	97.529600
_cell_angle_beta	90.000000
_cell_angle_gamma	90.000000
_symmetry_Int_Tables_number 1

loop_
_symmetry_equiv_pos_as_xyz
'x,y,z'

loop_
_atom_site_label
_atom_site_type_symbol
_atom_site_fract_x
_atom_site_fract_y
_atom_site_fract_z
Co11	Co1	0.500000	0.000000	0.000000
Co21	Co2	0.500000	0.500000	0.500000
Co31	Co3	0.248100	0.750000	0.750000
Co41	Co4	0.751900	0.250000	0.250000
H11	H1	0.554500	0.960900	0.834800
H21	H2	0.658200	0.669800	0.841700
H31	H3	0.455900	0.667400	0.836900
H41	H4	0.567500	0.056200	0.731800
H51	H5	0.215100	0.561600	0.857900
H61	H6	0.488000	0.356900	0.859700
H71	H7	0.195900	0.363000	0.859400
H81	H8	0.479900	0.253800	0.959700
H91	H9	0.233300	0.316800	0.640200
H101	H10	0.836100	0.818800	0.856500
H111	H11	0.253900	0.515800	0.644100
H121	H12	0.037900	0.818800	0.853500
H131	H13	0.714000	0.976000	0.981000
H141	H14	0.695000	0.867000	0.975000
H151	H15	0.554500	0.539100	0.665200
H161	H16	0.658200	0.830200	0.658300
H171	H17	0.455900	0.832600	0.663100
H181	H18	0.567500	0.443800	0.768200
H191	H19	0.215100	0.938400	0.642100
H201	H20	0.488000	0.143100	0.640300
H211	H21	0.195900	0.137000	0.640600
H221	H22	0.479900	0.246200	0.540300
H231	H23	0.233300	0.183200	0.859800
H241	H24	0.836100	0.681200	0.643500
H251	H25	0.253900	0.984200	0.855900
H261	H26	0.037900	0.681200	0.646500
H271	H27	0.714000	0.524000	0.519000
H281	H28	0.695000	0.633000	0.525000
H291	H29	0.445500	0.039100	0.165200
H301	H30	0.341800	0.330200	0.158300
H311	H31	0.544100	0.332600	0.163100
H321	H32	0.432500	0.943800	0.268200
H331	H33	0.784900	0.438400	0.142100
H341	H34	0.512000	0.643100	0.140300
H351	H35	0.804100	0.637000	0.140600
H361	H36	0.520100	0.746200	0.040300
H371	H37	0.766700	0.683200	0.359800
H381	H38	0.163900	0.181200	0.143500
H391	H39	0.746100	0.484200	0.355900
H401	H40	0.962100	0.181200	0.146500
H411	H41	0.286000	0.024000	0.019000
H421	H42	0.305000	0.133000	0.025000
H431	H43	0.445500	0.460900	0.334800
H441	H44	0.341800	0.169800	0.341700
H451	H45	0.544100	0.167400	0.336900
H461	H46	0.432500	0.556200	0.231800
H471	H47	0.784900	0.061600	0.357900
H481	H48	0.512000	0.856900	0.359700
H491	H49	0.804100	0.863000	0.359400
H501	H50	0.520100	0.753800	0.459700
H511	H51	0.766700	0.816800	0.140200
H521	H52	0.163900	0.318800	0.356500
H531	H53	0.746100	0.015800	0.144100
H541	H54	0.962100	0.318800	0.353500
H551	H55	0.286000	0.476000	0.481000
H561	H56	0.305000	0.367000	0.475000
C11	C1	0.540600	0.041450	0.839850
C21	C2	0.619110	0.701840	0.804140
C31	C3	0.527000	0.218560	0.782960
C41	C4	0.215300	0.314640	0.750040
C51	C5	0.497330	0.702100	0.801400
C61	C6	0.548200	0.098380	0.777380
C71	C7	0.219700	0.511960	0.813360
C81	C8	0.501600	0.276250	0.853050
C91	C9	0.208400	0.391790	0.814590
C101	C10	0.496500	0.213410	0.913210
C111	C11	0.230700	0.364490	0.685590
C121	C12	0.875400	0.790890	0.812890
C131	C13	0.242100	0.485030	0.688330
C141	C14	0.996900	0.790100	0.810700
C151	C15	0.540600	0.458550	0.660150
C161	C16	0.619110	0.798160	0.695860
C171	C17	0.527000	0.281440	0.717040
C181	C18	0.215300	0.185360	0.749960
C191	C19	0.497330	0.797900	0.698600
C201	C20	0.548200	0.401620	0.722620
C211	C21	0.219700	0.988040	0.686640
C221	C22	0.501600	0.223750	0.646950
C231	C23	0.208400	0.108210	0.685410
C241	C24	0.496500	0.286590	0.586790
C251	C25	0.230700	0.135510	0.814410
C261	C26	0.875400	0.709110	0.687110
C271	C27	0.242100	0.014970	0.811670
C281	C28	0.996900	0.709900	0.689300
C291	C29	0.459400	0.958550	0.160150
C301	C30	0.380890	0.298160	0.195860
C311	C31	0.473000	0.781440	0.217040
C321	C32	0.784700	0.685360	0.249960
C331	C33	0.502670	0.297900	0.198600
C341	C34	0.451800	0.901620	0.222620
C351	C35	0.780300	0.488040	0.186640
C361	C36	0.498400	0.723750	0.146950
C371	C37	0.791600	0.608210	0.185410
C381	C38	0.503500	0.786590	0.086790
C391	C39	0.769300	0.635510	0.314410
C401	C40	0.124600	0.209110	0.187110
C411	C41	0.757900	0.514970	0.311670
C421	C42	0.003100	0.209900	0.189300
C431	C43	0.459400	0.541450	0.339850
C441	C44	0.380890	0.201840	0.304140
C451	C45	0.473000	0.718560	0.282960
C461	C46	0.784700	0.814640	0.250040
C471	C47	0.502670	0.202100	0.301400
C481	C48	0.451800	0.598380	0.277380
C491	C49	0.780300	0.011960	0.313360
C501	C50	0.498400	0.776250	0.353050
C511	C51	0.791600	0.891790	0.314590
C521	C52	0.503500	0.713410	0.413210
C531	C53	0.769300	0.864490	0.185590
C541	C54	0.124600	0.290890	0.312890
C551	C55	0.757900	0.985030	0.188330
C561	C56	0.003100	0.290100	0.310700
C571	C57	0.812500	0.750000	0.750000
C581	C58	0.682300	0.750000	0.750000
C591	C59	0.187500	0.250000	0.250000
C601	C60	0.317700	0.250000	0.250000
S11	S1	0.298100	0.800750	0.939750
S21	S2	0.298100	0.699250	0.560250
S31	S3	0.701900	0.199250	0.060250
S41	S4	0.701900	0.300750	0.439750
N11	N1	0.236970	0.559470	0.751080
N21	N2	0.514290	0.096970	0.907150
N31	N3	0.236970	0.940530	0.748920
N41	N4	0.514290	0.403030	0.592850
N51	N5	0.763030	0.440530	0.248920
N61	N6	0.485710	0.903030	0.092850
N71	N7	0.763030	0.059470	0.251080
N81	N8	0.485710	0.596970	0.407150
N91	N9	0.436400	0.750000	0.750000
N101	N10	0.058500	0.750000	0.750000
N111	N11	0.563600	0.250000	0.250000
N121	N12	0.941500	0.250000	0.250000
O11	O1	0.665120	0.926810	0.964610
O21	O2	0.409670	0.866220	0.933310
O31	O3	0.245550	0.774440	0.865280
O41	O4	0.321700	0.690710	0.967910
O51	O5	0.216100	0.875670	0.986670
O61	O6	0.665120	0.573190	0.535390
O71	O7	0.409670	0.633780	0.566690
O81	O8	0.245550	0.725560	0.634720
O91	O9	0.321700	0.809290	0.532090
O101	O10	0.216100	0.624330	0.513330
O111	O11	0.334880	0.073190	0.035390
O121	O12	0.590330	0.133780	0.066690
O131	O13	0.754450	0.225560	0.134720
O141	O14	0.678300	0.309290	0.032090
O151	O15	0.783900	0.124330	0.013330
O161	O16	0.334880	0.426810	0.464610
O171	O17	0.590330	0.366220	0.433310
O181	O18	0.754450	0.274440	0.365280
O191	O19	0.678300	0.190710	0.467910
O201	O20	0.783900	0.375670	0.486670
