data_REZXIE01_freeONLY_PM
_symmetry_space_group_name_H-M	'P1'
_cell_length_a	13.871000
_cell_length_b	13.871000
_cell_length_c	12.663000
_cell_angle_alpha	90.000000
_cell_angle_beta	90.000000
_cell_angle_gamma	120.000000
_symmetry_Int_Tables_number 1

loop_
_symmetry_equiv_pos_as_xyz
'x,y,z'

loop_
_atom_site_label
_atom_site_type_symbol
_atom_site_fract_x
_atom_site_fract_y
_atom_site_fract_z
O11	O1	0.808100	0.378600	0.106500
O21	O2	0.852200	0.545400	0.135600
C11	C1	0.882000	0.475400	0.111300
C21	C2	0.991200	0.507200	0.058200
O31	O3	0.621400	0.429500	0.106500
O41	O4	0.454600	0.306800	0.135600
C31	C3	0.524600	0.406600	0.111300
C41	C4	0.492800	0.484000	0.058200
O51	O5	0.570500	0.191900	0.106500
O61	O6	0.693200	0.147800	0.135600
C51	C5	0.593400	0.118000	0.111300
C61	C6	0.516000	0.008800	0.058200
O71	O7	0.808100	0.378600	0.393500
O81	O8	0.852200	0.545400	0.364400
C71	C7	0.882000	0.475400	0.388700
C81	C8	0.991200	0.507200	0.441800
O91	O9	0.621400	0.429500	0.393500
O101	O10	0.454600	0.306800	0.364400
C91	C9	0.524600	0.406600	0.388700
C101	C10	0.492800	0.484000	0.441800
O111	O11	0.570500	0.191900	0.393500
O121	O12	0.693200	0.147800	0.364400
C111	C11	0.593400	0.118000	0.388700
C121	C12	0.516000	0.008800	0.441800
O131	O13	0.378600	0.808100	0.893500
O141	O14	0.545400	0.852200	0.864400
C131	C13	0.475400	0.882000	0.888700
C141	C14	0.507200	0.991200	0.941800
O151	O15	0.429500	0.621400	0.893500
O161	O16	0.306800	0.454600	0.864400
C151	C15	0.406600	0.524600	0.888700
C161	C16	0.484000	0.492800	0.941800
O171	O17	0.191900	0.570500	0.893500
O181	O18	0.147800	0.693200	0.864400
C171	C17	0.118000	0.593400	0.888700
C181	C18	0.008800	0.516000	0.941800
O191	O19	0.378600	0.808100	0.606500
O201	O20	0.545400	0.852200	0.635600
C191	C19	0.475400	0.882000	0.611300
C201	C20	0.507200	0.991200	0.558200
O211	O21	0.429500	0.621400	0.606500
O221	O22	0.306800	0.454600	0.635600
C211	C21	0.406600	0.524600	0.611300
C221	C22	0.484000	0.492800	0.558200
O231	O23	0.191900	0.570500	0.606500
O241	O24	0.147800	0.693200	0.635600
C231	C23	0.118000	0.593400	0.611300
C241	C24	0.008800	0.516000	0.558200
Fe11	Fe1	0.770600	0.286600	0.250000
O251	O25	0.919200	0.304600	0.250000
Fe21	Fe2	0.713400	0.484000	0.250000
O261	O26	0.695400	0.614600	0.250000
Fe31	Fe3	0.516000	0.229400	0.250000
O271	O27	0.385400	0.080800	0.250000
Fe41	Fe4	0.286600	0.770600	0.750000
O281	O28	0.304600	0.919200	0.750000
Fe51	Fe5	0.484000	0.713400	0.750000
O291	O29	0.614600	0.695400	0.750000
Fe61	Fe6	0.229400	0.516000	0.750000
O301	O30	0.080800	0.385400	0.750000
O311	O31	0.666670	0.333330	0.250000
O321	O32	0.333330	0.666670	0.750000
