data_RICBEM_freeONLY_PM
_symmetry_space_group_name_H-M	'P1'
_cell_length_a	13.781000
_cell_length_b	25.036900
_cell_length_c	25.036900
_cell_angle_alpha	73.233300
_cell_angle_beta	74.025200
_cell_angle_gamma	74.025100
_symmetry_Int_Tables_number 1

loop_
_symmetry_equiv_pos_as_xyz
'x,y,z'

loop_
_atom_site_label
_atom_site_type_symbol
_atom_site_fract_x
_atom_site_fract_y
_atom_site_fract_z
Cu11	Cu1	0.558620	0.121180	0.918140
Cu21	Cu2	0.441380	0.081860	0.878820
Cu31	Cu3	0.902060	0.621180	0.418140
Cu41	Cu4	0.097940	0.581860	0.378820
H11	H1	0.600700	0.103500	0.700300
H21	H2	0.086800	0.407700	0.396500
H31	H3	0.840500	0.217000	0.667600
H41	H4	0.764300	0.178800	0.760600
H51	H5	0.969200	0.247100	0.417500
H61	H6	0.703800	0.133400	0.613400
H71	H7	0.778100	0.367100	0.511900
H81	H8	0.073200	0.309900	0.425900
H91	H9	0.662800	0.164900	0.410300
H101	H10	0.819000	0.215200	0.397400
H111	H11	0.835200	0.274700	0.575900
H121	H12	0.853100	0.126200	0.542600
H131	H13	0.806200	0.460100	0.491900
H141	H14	0.077900	0.099700	0.522700
H151	H15	0.218300	0.034700	0.527900
H161	H16	0.399300	0.299700	0.896500
H171	H17	0.913200	0.603500	0.592300
H181	H18	0.159500	0.332400	0.783000
H191	H19	0.235700	0.239400	0.821200
H201	H20	0.030800	0.582500	0.752900
H211	H21	0.296200	0.386600	0.866600
H221	H22	0.221900	0.488100	0.632900
H231	H23	0.926800	0.574100	0.690100
H241	H24	0.337200	0.589700	0.835100
H251	H25	0.181000	0.602600	0.784800
H261	H26	0.164800	0.424100	0.725300
H271	H27	0.146900	0.457400	0.873800
H281	H28	0.193800	0.508100	0.539900
H291	H29	0.922100	0.477300	0.900300
H301	H30	0.781700	0.472100	0.965300
H311	H31	0.095500	0.603500	0.200300
H321	H32	0.609000	0.907700	0.896500
H331	H33	0.774900	0.717000	0.167600
H341	H34	0.796300	0.678800	0.260600
H351	H35	0.866200	0.747100	0.917500
H361	H36	0.049400	0.633400	0.113400
H371	H37	0.842900	0.867100	0.011900
H381	H38	0.691000	0.809900	0.925900
H391	H39	0.262000	0.664900	0.910300
H401	H40	0.068400	0.715200	0.897400
H411	H41	0.814200	0.774700	0.075900
H421	H42	0.978100	0.626200	0.042600
H431	H43	0.741800	0.960100	0.991900
H441	H44	0.799700	0.599700	0.022700
H451	H45	0.719100	0.534700	0.027900
H461	H46	0.904500	0.799700	0.396500
H471	H47	0.391000	0.103500	0.092300
H481	H48	0.225100	0.832400	0.283000
H491	H49	0.203700	0.739400	0.321200
H501	H50	0.133800	0.082500	0.252900
H511	H51	0.950600	0.886600	0.366600
H521	H52	0.157100	0.988100	0.132900
H531	H53	0.309000	0.074100	0.190100
H541	H54	0.738000	0.089700	0.335100
H551	H55	0.931600	0.102600	0.284800
H561	H56	0.185800	0.924100	0.225300
H571	H57	0.021900	0.957400	0.373800
H581	H58	0.258200	0.008100	0.039900
H591	H59	0.200300	0.977300	0.400300
H601	H60	0.280900	0.972100	0.465300
C11	C1	0.972100	0.500300	0.421100
C21	C2	0.650900	0.123700	0.695700
C31	C3	0.671000	0.140600	0.739800
C41	C4	0.950100	0.442300	0.439300
C51	C5	0.027000	0.398200	0.421400
C61	C6	0.802000	0.189800	0.674000
C71	C7	0.748600	0.171100	0.730100
C81	C8	0.938900	0.233400	0.455400
C91	C9	0.717900	0.141900	0.643900
C101	C10	0.968030	0.136670	0.437870
C111	C11	0.842000	0.375400	0.492200
C121	C12	0.021600	0.339300	0.438300
C131	C13	0.731000	0.154900	0.391300
C141	C14	0.841000	0.194400	0.570400
C151	C15	0.919200	0.266900	0.496300
C161	C16	0.921400	0.143200	0.395600
C171	C17	0.068400	0.096200	0.451200
C181	C18	0.612000	0.126700	0.804300
C191	C19	0.828500	0.177500	0.395300
C201	C20	0.860640	0.249560	0.551760
C211	C21	0.801700	0.170000	0.626600
C221	C22	0.866800	0.162600	0.530600
C231	C23	0.925700	0.331900	0.476900
C241	C24	0.856100	0.431200	0.477400
C251	C25	0.913120	0.180980	0.471980
C261	C26	0.107100	0.080700	0.493300
C271	C27	0.184900	0.040000	0.498600
C281	C28	0.027900	0.578900	0.499700
C291	C29	0.349100	0.304300	0.876300
C301	C30	0.329000	0.260200	0.859400
C311	C31	0.049900	0.560700	0.557700
C321	C32	0.973000	0.578600	0.601800
C331	C33	0.198000	0.326000	0.810200
C341	C34	0.251400	0.269900	0.828900
C351	C35	0.061100	0.544600	0.766600
C361	C36	0.282100	0.356100	0.858100
C371	C37	0.031970	0.562130	0.863330
C381	C38	0.158000	0.507800	0.624600
C391	C39	0.978400	0.561700	0.660700
C401	C40	0.269000	0.608700	0.845100
C411	C41	0.159000	0.429600	0.805600
C421	C42	0.080800	0.503700	0.733100
C431	C43	0.078600	0.604400	0.856800
C441	C44	0.931600	0.548800	0.903800
C451	C45	0.388000	0.195700	0.873300
C461	C46	0.171500	0.604700	0.822500
C471	C47	0.139360	0.448240	0.750440
C481	C48	0.198300	0.373400	0.830000
C491	C49	0.133200	0.469400	0.837400
C501	C50	0.074300	0.523100	0.668100
C511	C51	0.143900	0.522600	0.568800
C521	C52	0.086880	0.528020	0.819020
C531	C53	0.892900	0.506700	0.919300
C541	C54	0.815100	0.501400	0.960000
C551	C55	0.606500	0.000300	0.921100
C561	C56	0.029700	0.623700	0.195700
C571	C57	0.948600	0.640600	0.239800
C581	C58	0.668300	0.942300	0.939300
C591	C59	0.653400	0.898200	0.921400
C601	C60	0.834200	0.689800	0.174000
C611	C61	0.850200	0.671100	0.230100
C621	C62	0.872300	0.733400	0.955400
C631	C63	0.996300	0.641900	0.143900
C641	C64	0.957430	0.636670	0.937870
C651	C65	0.790400	0.875400	0.992200
C661	C66	0.700800	0.839300	0.938300
C671	C67	0.222800	0.654900	0.891300
C681	C68	0.894200	0.694400	0.070400
C691	C69	0.817600	0.766900	0.996300
C701	C70	0.039800	0.643200	0.895600
C711	C71	0.884200	0.596200	0.951200
C721	C72	0.957000	0.626700	0.304300
C731	C73	0.098700	0.677500	0.895300
C741	C74	0.838040	0.749560	0.051760
C751	C75	0.901700	0.670000	0.126600
C761	C76	0.940000	0.662600	0.030600
C771	C77	0.765500	0.831900	0.976900
C781	C78	0.735300	0.931200	0.977400
C791	C79	0.933920	0.680980	0.971980
C801	C80	0.818900	0.580700	0.993300
C811	C81	0.776500	0.540000	0.998600
C821	C82	0.393500	0.078900	0.999700
C831	C83	0.970300	0.804300	0.376300
C841	C84	0.051400	0.760200	0.359400
C851	C85	0.331700	0.060700	0.057700
C861	C86	0.346600	0.078600	0.101800
C871	C87	0.165800	0.826000	0.310200
C881	C88	0.149800	0.769900	0.328900
C891	C89	0.127700	0.044600	0.266600
C901	C90	0.003700	0.856100	0.358100
C911	C91	0.042570	0.062130	0.363330
C921	C92	0.209600	0.007800	0.124600
C931	C93	0.299200	0.061700	0.160700
C941	C94	0.777200	0.108700	0.345100
C951	C95	0.105800	0.929600	0.305600
C961	C96	0.182400	0.003700	0.233100
C971	C97	0.960200	0.104400	0.356800
C981	C98	0.115800	0.048800	0.403800
C991	C99	0.043000	0.695700	0.373300
C1001	C100	0.901300	0.104700	0.322500
C1011	C101	0.161960	0.948240	0.250440
C1021	C102	0.098300	0.873400	0.330000
C1031	C103	0.060000	0.969400	0.337400
C1041	C104	0.234500	0.023100	0.168100
C1051	C105	0.264700	0.022600	0.068800
C1061	C106	0.066080	0.028020	0.319020
C1071	C107	0.181100	0.006700	0.419300
C1081	C108	0.223500	0.001400	0.460000
O11	O1	0.056630	0.506240	0.397700
O21	O2	0.533320	0.101380	0.807980
O31	O3	0.650340	0.158260	0.949860
O41	O4	0.642840	0.134990	0.840730
O51	O5	0.895180	0.540270	0.431570
O61	O6	0.943370	0.602300	0.493760
O71	O7	0.466680	0.192020	0.898620
O81	O8	0.349660	0.050140	0.841740
O91	O9	0.357160	0.159270	0.865010
O101	O10	0.104820	0.568430	0.459730
O111	O11	0.539430	0.006240	0.897700
O121	O12	0.057320	0.601380	0.307980
O131	O13	0.741540	0.658260	0.449860
O141	O14	0.881440	0.634990	0.340730
O151	O15	0.632980	0.040270	0.931570
O161	O16	0.460570	0.102300	0.993760
O171	O17	0.942680	0.692020	0.398620
O181	O18	0.258460	0.550140	0.341740
O191	O19	0.118560	0.659270	0.365010
O201	O20	0.367020	0.068430	0.959730
