data_RIFQEC_freeONLY_PM
_symmetry_space_group_name_H-M	'P1'
_cell_length_a	6.329000
_cell_length_b	8.743000
_cell_length_c	13.000000
_cell_angle_alpha	105.610000
_cell_angle_beta	90.550000
_cell_angle_gamma	105.100000
_symmetry_Int_Tables_number 1

loop_
_symmetry_equiv_pos_as_xyz
'x,y,z'

loop_
_atom_site_label
_atom_site_type_symbol
_atom_site_fract_x
_atom_site_fract_y
_atom_site_fract_z
Ce11	Ce1	0.939740	0.969870	0.742750
Ce21	Ce2	0.690370	0.333010	0.924720
Ce31	Ce3	0.060260	0.030130	0.257250
Ce41	Ce4	0.309630	0.666990	0.075280
C11	C1	0.767400	0.603900	0.780900
C21	C2	0.955700	0.694300	0.870500
C31	C3	0.554000	0.948800	0.954500
C41	C4	0.906300	0.919500	0.478400
C51	C5	0.214600	0.292000	0.869000
C61	C6	0.232600	0.396100	0.219100
C71	C7	0.044300	0.305700	0.129500
C81	C8	0.446000	0.051200	0.045500
C91	C9	0.093700	0.080500	0.521600
C101	C10	0.785400	0.708000	0.131000
O11	O1	0.735100	0.681700	0.716300
O21	O2	0.664200	0.458800	0.776000
O31	O3	0.055100	0.838400	0.873900
O41	O4	0.992700	0.613500	0.932500
O51	O5	0.519400	0.798500	0.944500
O61	O6	0.671000	0.028300	0.897000
O71	O7	0.814300	0.852100	0.545800
O81	O8	0.858200	0.871800	0.379100
O91	O9	0.338100	0.430700	0.923900
O101	O10	0.013000	0.269000	0.839900
O111	O11	0.296900	0.169300	0.839800
O121	O12	0.639300	0.102900	0.706400
O131	O13	0.232200	0.829000	0.662100
O141	O14	0.264900	0.318300	0.283700
O151	O15	0.335800	0.541200	0.224000
O161	O16	0.944900	0.161600	0.126100
O171	O17	0.007300	0.386500	0.067500
O181	O18	0.480600	0.201500	0.055500
O191	O19	0.329000	0.971700	0.103000
O201	O20	0.185700	0.147900	0.454200
O211	O21	0.141800	0.128200	0.620900
O221	O22	0.661900	0.569300	0.076100
O231	O23	0.987000	0.731000	0.160100
O241	O24	0.703100	0.830700	0.160200
O251	O25	0.360700	0.897100	0.293600
O261	O26	0.767800	0.171000	0.337900
