data_RIFSOQ_freeONLY_PM
_symmetry_space_group_name_H-M	'P1'
_cell_length_a	45.306700
_cell_length_b	45.306700
_cell_length_c	45.306700
_cell_angle_alpha	60.000000
_cell_angle_beta	60.000000
_cell_angle_gamma	60.000000
_symmetry_Int_Tables_number 1

loop_
_symmetry_equiv_pos_as_xyz
'x,y,z'

loop_
_atom_site_label
_atom_site_type_symbol
_atom_site_fract_x
_atom_site_fract_y
_atom_site_fract_z
Co11	Co1	0.006440	0.750000	0.993560
Co21	Co2	0.250000	0.506440	0.250000
Co31	Co3	0.493560	0.250000	0.506440
Co41	Co4	0.750000	0.993560	0.750000
Co51	Co5	0.006440	0.993560	0.250000
Co61	Co6	0.250000	0.250000	0.993560
Co71	Co7	0.493560	0.506440	0.750000
Co81	Co8	0.750000	0.750000	0.506440
Co91	Co9	0.006440	0.250000	0.750000
Co101	Co10	0.250000	0.993560	0.506440
Co111	Co11	0.493560	0.750000	0.250000
Co121	Co12	0.750000	0.506440	0.993560
Co131	Co13	0.993560	0.250000	0.006440
Co141	Co14	0.750000	0.493560	0.750000
Co151	Co15	0.506440	0.750000	0.493560
Co161	Co16	0.250000	0.006440	0.250000
Co171	Co17	0.993560	0.006440	0.750000
Co181	Co18	0.750000	0.750000	0.006440
Co191	Co19	0.506440	0.493560	0.250000
Co201	Co20	0.250000	0.250000	0.493560
Co211	Co21	0.993560	0.750000	0.250000
Co221	Co22	0.750000	0.006440	0.493560
Co231	Co23	0.506440	0.250000	0.750000
Co241	Co24	0.250000	0.493560	0.006440
Co251	Co25	0.002120	0.502120	0.247880
Co261	Co26	0.747880	0.247880	0.502120
Co271	Co27	0.002120	0.247880	0.247880
Co281	Co28	0.747880	0.502120	0.502120
Co291	Co29	0.002120	0.247880	0.502120
Co301	Co30	0.747880	0.502120	0.247880
Co311	Co31	0.497880	0.997880	0.252120
Co321	Co32	0.752120	0.252120	0.997880
Co331	Co33	0.752120	0.997880	0.252120
Co341	Co34	0.497880	0.252120	0.997880
Co351	Co35	0.752120	0.997880	0.997880
Co361	Co36	0.497880	0.252120	0.252120
Co371	Co37	0.997880	0.497880	0.752120
Co381	Co38	0.252120	0.752120	0.497880
Co391	Co39	0.997880	0.752120	0.752120
Co401	Co40	0.252120	0.497880	0.497880
Co411	Co41	0.997880	0.752120	0.497880
Co421	Co42	0.252120	0.497880	0.752120
Co431	Co43	0.502120	0.002120	0.747880
Co441	Co44	0.247880	0.747880	0.002120
Co451	Co45	0.247880	0.002120	0.747880
Co461	Co46	0.502120	0.747880	0.002120
Co471	Co47	0.247880	0.002120	0.002120
Co481	Co48	0.502120	0.747880	0.747880
H11	H1	0.958300	0.687700	0.314300
H21	H2	0.940200	0.644600	0.321600
H31	H3	0.943900	0.639500	0.270100
H41	H4	0.980800	0.724600	0.209200
H51	H5	0.987200	0.712400	0.075200
H61	H6	0.969200	0.773800	0.127600
H71	H7	0.973500	0.821900	0.072300
H81	H8	0.985700	0.812900	0.020700
H91	H9	0.996700	0.627900	0.113100
H101	H10	0.012200	0.570000	0.113600
H111	H11	0.016400	0.520600	0.166600
H121	H12	0.990800	0.583000	0.218000
H131	H13	0.927800	0.558000	0.240200
H141	H14	0.880400	0.567200	0.227400
H151	H15	0.877600	0.519000	0.222400
H161	H16	0.971100	0.456100	0.244300
H171	H17	0.187700	0.458300	0.039700
H181	H18	0.144600	0.440200	0.093600
H191	H19	0.139500	0.443900	0.146500
H201	H20	0.224600	0.480800	0.085400
H211	H21	0.212400	0.487200	0.225200
H221	H22	0.273800	0.469200	0.129400
H231	H23	0.321900	0.473500	0.132300
H241	H24	0.312900	0.485700	0.180700
H251	H25	0.127900	0.496700	0.262300
H261	H26	0.070000	0.512200	0.304200
H271	H27	0.020600	0.516400	0.296400
H281	H28	0.083000	0.490800	0.208200
H291	H29	0.058000	0.427800	0.274000
H301	H30	0.067200	0.380400	0.325000
H311	H31	0.019000	0.377600	0.381000
H321	H32	0.956100	0.471100	0.328500
H331	H33	0.814300	0.039700	0.458300
H341	H34	0.821600	0.093600	0.440200
H351	H35	0.770100	0.146500	0.443900
H361	H36	0.709200	0.085400	0.480800
H371	H37	0.575200	0.225200	0.487200
H381	H38	0.627600	0.129400	0.469200
H391	H39	0.572300	0.132300	0.473500
H401	H40	0.520700	0.180700	0.485700
H411	H41	0.613100	0.262300	0.496700
H421	H42	0.613600	0.304200	0.512200
H431	H43	0.666600	0.296400	0.516400
H441	H44	0.718000	0.208200	0.490800
H451	H45	0.740200	0.274000	0.427800
H461	H46	0.727400	0.325000	0.380400
H471	H47	0.722400	0.381000	0.377600
H481	H48	0.744300	0.328500	0.471100
H491	H49	0.539700	0.314300	0.687700
H501	H50	0.593600	0.321600	0.644600
H511	H51	0.646500	0.270100	0.639500
H521	H52	0.585400	0.209200	0.724600
H531	H53	0.725200	0.075200	0.712400
H541	H54	0.629400	0.127600	0.773800
H551	H55	0.632300	0.072300	0.821900
H561	H56	0.680700	0.020700	0.812900
H571	H57	0.762300	0.113100	0.627900
H581	H58	0.804200	0.113600	0.570000
H591	H59	0.796400	0.166600	0.520600
H601	H60	0.708200	0.218000	0.583000
H611	H61	0.774000	0.240200	0.558000
H621	H62	0.825000	0.227400	0.567200
H631	H63	0.881000	0.222400	0.519000
H641	H64	0.828500	0.244300	0.456100
H651	H65	0.958300	0.314300	0.039700
H661	H66	0.940200	0.321600	0.093600
H671	H67	0.943900	0.270100	0.146500
H681	H68	0.980800	0.209200	0.085400
H691	H69	0.987200	0.075200	0.225200
H701	H70	0.969200	0.127600	0.129400
H711	H71	0.973500	0.072300	0.132300
H721	H72	0.985700	0.020700	0.180700
H731	H73	0.996700	0.113100	0.262300
H741	H74	0.012200	0.113600	0.304200
H751	H75	0.016400	0.166600	0.296400
H761	H76	0.990800	0.218000	0.208200
H771	H77	0.927800	0.240200	0.274000
H781	H78	0.880400	0.227400	0.325000
H791	H79	0.877600	0.222400	0.381000
H801	H80	0.971100	0.244300	0.328500
H811	H81	0.187700	0.039700	0.314300
H821	H82	0.144600	0.093600	0.321600
H831	H83	0.139500	0.146500	0.270100
H841	H84	0.224600	0.085400	0.209200
H851	H85	0.212400	0.225200	0.075200
H861	H86	0.273800	0.129400	0.127600
H871	H87	0.321900	0.132300	0.072300
H881	H88	0.312900	0.180700	0.020700
H891	H89	0.127900	0.262300	0.113100
H901	H90	0.070000	0.304200	0.113600
H911	H91	0.020600	0.296400	0.166600
H921	H92	0.083000	0.208200	0.218000
H931	H93	0.058000	0.274000	0.240200
H941	H94	0.067200	0.325000	0.227400
H951	H95	0.019000	0.381000	0.222400
H961	H96	0.956100	0.328500	0.244300
H971	H97	0.814300	0.458300	0.687700
H981	H98	0.821600	0.440200	0.644600
H991	H99	0.770100	0.443900	0.639500
H1001	H100	0.709200	0.480800	0.724600
H1011	H101	0.575200	0.487200	0.712400
H1021	H102	0.627600	0.469200	0.773800
H1031	H103	0.572300	0.473500	0.821900
H1041	H104	0.520700	0.485700	0.812900
H1051	H105	0.613100	0.496700	0.627900
H1061	H106	0.613600	0.512200	0.570000
H1071	H107	0.666600	0.516400	0.520600
H1081	H108	0.718000	0.490800	0.583000
H1091	H109	0.740200	0.427800	0.558000
H1101	H110	0.727400	0.380400	0.567200
H1111	H111	0.722400	0.377600	0.519000
H1121	H112	0.744300	0.471100	0.456100
H1131	H113	0.539700	0.687700	0.458300
H1141	H114	0.593600	0.644600	0.440200
H1151	H115	0.646500	0.639500	0.443900
H1161	H116	0.585400	0.724600	0.480800
H1171	H117	0.725200	0.712400	0.487200
H1181	H118	0.629400	0.773800	0.469200
H1191	H119	0.632300	0.821900	0.473500
H1201	H120	0.680700	0.812900	0.485700
H1211	H121	0.762300	0.627900	0.496700
H1221	H122	0.804200	0.570000	0.512200
H1231	H123	0.796400	0.520600	0.516400
H1241	H124	0.708200	0.583000	0.490800
H1251	H125	0.774000	0.558000	0.427800
H1261	H126	0.825000	0.567200	0.380400
H1271	H127	0.881000	0.519000	0.377600
H1281	H128	0.828500	0.456100	0.471100
H1291	H129	0.958300	0.039700	0.687700
H1301	H130	0.940200	0.093600	0.644600
H1311	H131	0.943900	0.146500	0.639500
H1321	H132	0.980800	0.085400	0.724600
H1331	H133	0.987200	0.225200	0.712400
H1341	H134	0.969200	0.129400	0.773800
H1351	H135	0.973500	0.132300	0.821900
H1361	H136	0.985700	0.180700	0.812900
H1371	H137	0.996700	0.262300	0.627900
H1381	H138	0.012200	0.304200	0.570000
H1391	H139	0.016400	0.296400	0.520600
H1401	H140	0.990800	0.208200	0.583000
H1411	H141	0.927800	0.274000	0.558000
H1421	H142	0.880400	0.325000	0.567200
H1431	H143	0.877600	0.381000	0.519000
H1441	H144	0.971100	0.328500	0.456100
H1451	H145	0.187700	0.314300	0.458300
H1461	H146	0.144600	0.321600	0.440200
H1471	H147	0.139500	0.270100	0.443900
H1481	H148	0.224600	0.209200	0.480800
H1491	H149	0.212400	0.075200	0.487200
H1501	H150	0.273800	0.127600	0.469200
H1511	H151	0.321900	0.072300	0.473500
H1521	H152	0.312900	0.020700	0.485700
H1531	H153	0.127900	0.113100	0.496700
H1541	H154	0.070000	0.113600	0.512200
H1551	H155	0.020600	0.166600	0.516400
H1561	H156	0.083000	0.218000	0.490800
H1571	H157	0.058000	0.240200	0.427800
H1581	H158	0.067200	0.227400	0.380400
H1591	H159	0.019000	0.222400	0.377600
H1601	H160	0.956100	0.244300	0.471100
H1611	H161	0.814300	0.687700	0.039700
H1621	H162	0.821600	0.644600	0.093600
H1631	H163	0.770100	0.639500	0.146500
H1641	H164	0.709200	0.724600	0.085400
H1651	H165	0.575200	0.712400	0.225200
H1661	H166	0.627600	0.773800	0.129400
H1671	H167	0.572300	0.821900	0.132300
H1681	H168	0.520700	0.812900	0.180700
H1691	H169	0.613100	0.627900	0.262300
H1701	H170	0.613600	0.570000	0.304200
H1711	H171	0.666600	0.520600	0.296400
H1721	H172	0.718000	0.583000	0.208200
H1731	H173	0.740200	0.558000	0.274000
H1741	H174	0.727400	0.567200	0.325000
H1751	H175	0.722400	0.519000	0.381000
H1761	H176	0.744300	0.456100	0.328500
H1771	H177	0.539700	0.458300	0.314300
H1781	H178	0.593600	0.440200	0.321600
H1791	H179	0.646500	0.443900	0.270100
H1801	H180	0.585400	0.480800	0.209200
H1811	H181	0.725200	0.487200	0.075200
H1821	H182	0.629400	0.469200	0.127600
H1831	H183	0.632300	0.473500	0.072300
H1841	H184	0.680700	0.485700	0.020700
H1851	H185	0.762300	0.496700	0.113100
H1861	H186	0.804200	0.512200	0.113600
H1871	H187	0.796400	0.516400	0.166600
H1881	H188	0.708200	0.490800	0.218000
H1891	H189	0.774000	0.427800	0.240200
H1901	H190	0.825000	0.380400	0.227400
H1911	H191	0.881000	0.377600	0.222400
H1921	H192	0.828500	0.471100	0.244300
H1931	H193	0.312300	0.041700	0.185700
H1941	H194	0.355400	0.059800	0.178400
H1951	H195	0.360500	0.056100	0.229900
H1961	H196	0.275400	0.019200	0.290800
H1971	H197	0.287600	0.012800	0.424800
H1981	H198	0.226200	0.030800	0.372400
H1991	H199	0.178100	0.026500	0.427700
H2001	H200	0.187100	0.014300	0.479300
H2011	H201	0.372100	0.003300	0.386900
H2021	H202	0.430000	0.987800	0.386400
H2031	H203	0.479400	0.983600	0.333400
H2041	H204	0.417000	0.009200	0.282000
H2051	H205	0.442000	0.072200	0.259800
H2061	H206	0.432800	0.119600	0.272600
H2071	H207	0.481000	0.122400	0.277600
H2081	H208	0.543900	0.028900	0.255700
H2091	H209	0.541700	0.812300	0.460300
H2101	H210	0.559800	0.855400	0.406400
H2111	H211	0.556100	0.860500	0.353500
H2121	H212	0.519200	0.775400	0.414600
H2131	H213	0.512800	0.787600	0.274800
H2141	H214	0.530800	0.726200	0.370600
H2151	H215	0.526500	0.678100	0.367700
H2161	H216	0.514300	0.687100	0.319300
H2171	H217	0.503300	0.872100	0.237700
H2181	H218	0.487800	0.930000	0.195800
H2191	H219	0.483600	0.979400	0.203600
H2201	H220	0.509200	0.917000	0.291800
H2211	H221	0.572200	0.942000	0.226000
H2221	H222	0.619600	0.932800	0.175000
H2231	H223	0.622400	0.981000	0.119000
H2241	H224	0.528900	0.043900	0.171500
H2251	H225	0.960300	0.185700	0.041700
H2261	H226	0.906400	0.178400	0.059800
H2271	H227	0.853500	0.229900	0.056100
H2281	H228	0.914600	0.290800	0.019200
H2291	H229	0.774800	0.424800	0.012800
H2301	H230	0.870600	0.372400	0.030800
H2311	H231	0.867700	0.427700	0.026500
H2321	H232	0.819300	0.479300	0.014300
H2331	H233	0.737700	0.386900	0.003300
H2341	H234	0.695800	0.386400	0.987800
H2351	H235	0.703600	0.333400	0.983600
H2361	H236	0.791800	0.282000	0.009200
H2371	H237	0.726000	0.259800	0.072200
H2381	H238	0.675000	0.272600	0.119600
H2391	H239	0.619000	0.277600	0.122400
H2401	H240	0.671500	0.255700	0.028900
H2411	H241	0.685700	0.460300	0.812300
H2421	H242	0.678400	0.406400	0.855400
H2431	H243	0.729900	0.353500	0.860500
H2441	H244	0.790800	0.414600	0.775400
H2451	H245	0.924800	0.274800	0.787600
H2461	H246	0.872400	0.370600	0.726200
H2471	H247	0.927700	0.367700	0.678100
H2481	H248	0.979300	0.319300	0.687100
H2491	H249	0.886900	0.237700	0.872100
H2501	H250	0.886400	0.195800	0.930000
H2511	H251	0.833400	0.203600	0.979400
H2521	H252	0.782000	0.291800	0.917000
H2531	H253	0.759800	0.226000	0.942000
H2541	H254	0.772600	0.175000	0.932800
H2551	H255	0.777600	0.119000	0.981000
H2561	H256	0.755700	0.171500	0.043900
H2571	H257	0.685700	0.041700	0.460300
H2581	H258	0.678400	0.059800	0.406400
H2591	H259	0.729900	0.056100	0.353500
H2601	H260	0.790800	0.019200	0.414600
H2611	H261	0.924800	0.012800	0.274800
H2621	H262	0.872400	0.030800	0.370600
H2631	H263	0.927700	0.026500	0.367700
H2641	H264	0.979300	0.014300	0.319300
H2651	H265	0.886900	0.003300	0.237700
H2661	H266	0.886400	0.987800	0.195800
H2671	H267	0.833400	0.983600	0.203600
H2681	H268	0.782000	0.009200	0.291800
H2691	H269	0.759800	0.072200	0.226000
H2701	H270	0.772600	0.119600	0.175000
H2711	H271	0.777600	0.122400	0.119000
H2721	H272	0.755700	0.028900	0.171500
H2731	H273	0.960300	0.812300	0.185700
H2741	H274	0.906400	0.855400	0.178400
H2751	H275	0.853500	0.860500	0.229900
H2761	H276	0.914600	0.775400	0.290800
H2771	H277	0.774800	0.787600	0.424800
H2781	H278	0.870600	0.726200	0.372400
H2791	H279	0.867700	0.678100	0.427700
H2801	H280	0.819300	0.687100	0.479300
H2811	H281	0.737700	0.872100	0.386900
H2821	H282	0.695800	0.930000	0.386400
H2831	H283	0.703600	0.979400	0.333400
H2841	H284	0.791800	0.917000	0.282000
H2851	H285	0.726000	0.942000	0.259800
H2861	H286	0.675000	0.932800	0.272600
H2871	H287	0.619000	0.981000	0.277600
H2881	H288	0.671500	0.043900	0.255700
H2891	H289	0.541700	0.185700	0.812300
H2901	H290	0.559800	0.178400	0.855400
H2911	H291	0.556100	0.229900	0.860500
H2921	H292	0.519200	0.290800	0.775400
H2931	H293	0.512800	0.424800	0.787600
H2941	H294	0.530800	0.372400	0.726200
H2951	H295	0.526500	0.427700	0.678100
H2961	H296	0.514300	0.479300	0.687100
H2971	H297	0.503300	0.386900	0.872100
H2981	H298	0.487800	0.386400	0.930000
H2991	H299	0.483600	0.333400	0.979400
H3001	H300	0.509200	0.282000	0.917000
H3011	H301	0.572200	0.259800	0.942000
H3021	H302	0.619600	0.272600	0.932800
H3031	H303	0.622400	0.277600	0.981000
H3041	H304	0.528900	0.255700	0.043900
H3051	H305	0.312300	0.460300	0.041700
H3061	H306	0.355400	0.406400	0.059800
H3071	H307	0.360500	0.353500	0.056100
H3081	H308	0.275400	0.414600	0.019200
H3091	H309	0.287600	0.274800	0.012800
H3101	H310	0.226200	0.370600	0.030800
H3111	H311	0.178100	0.367700	0.026500
H3121	H312	0.187100	0.319300	0.014300
H3131	H313	0.372100	0.237700	0.003300
H3141	H314	0.430000	0.195800	0.987800
H3151	H315	0.479400	0.203600	0.983600
H3161	H316	0.417000	0.291800	0.009200
H3171	H317	0.442000	0.226000	0.072200
H3181	H318	0.432800	0.175000	0.119600
H3191	H319	0.481000	0.119000	0.122400
H3201	H320	0.543900	0.171500	0.028900
H3211	H321	0.960300	0.041700	0.812300
H3221	H322	0.906400	0.059800	0.855400
H3231	H323	0.853500	0.056100	0.860500
H3241	H324	0.914600	0.019200	0.775400
H3251	H325	0.774800	0.012800	0.787600
H3261	H326	0.870600	0.030800	0.726200
H3271	H327	0.867700	0.026500	0.678100
H3281	H328	0.819300	0.014300	0.687100
H3291	H329	0.737700	0.003300	0.872100
H3301	H330	0.695800	0.987800	0.930000
H3311	H331	0.703600	0.983600	0.979400
H3321	H332	0.791800	0.009200	0.917000
H3331	H333	0.726000	0.072200	0.942000
H3341	H334	0.675000	0.119600	0.932800
H3351	H335	0.619000	0.122400	0.981000
H3361	H336	0.671500	0.028900	0.043900
H3371	H337	0.685700	0.812300	0.041700
H3381	H338	0.678400	0.855400	0.059800
H3391	H339	0.729900	0.860500	0.056100
H3401	H340	0.790800	0.775400	0.019200
H3411	H341	0.924800	0.787600	0.012800
H3421	H342	0.872400	0.726200	0.030800
H3431	H343	0.927700	0.678100	0.026500
H3441	H344	0.979300	0.687100	0.014300
H3451	H345	0.886900	0.872100	0.003300
H3461	H346	0.886400	0.930000	0.987800
H3471	H347	0.833400	0.979400	0.983600
H3481	H348	0.782000	0.917000	0.009200
H3491	H349	0.759800	0.942000	0.072200
H3501	H350	0.772600	0.932800	0.119600
H3511	H351	0.777600	0.981000	0.122400
H3521	H352	0.755700	0.043900	0.028900
H3531	H353	0.312300	0.185700	0.460300
H3541	H354	0.355400	0.178400	0.406400
H3551	H355	0.360500	0.229900	0.353500
H3561	H356	0.275400	0.290800	0.414600
H3571	H357	0.287600	0.424800	0.274800
H3581	H358	0.226200	0.372400	0.370600
H3591	H359	0.178100	0.427700	0.367700
H3601	H360	0.187100	0.479300	0.319300
H3611	H361	0.372100	0.386900	0.237700
H3621	H362	0.430000	0.386400	0.195800
H3631	H363	0.479400	0.333400	0.203600
H3641	H364	0.417000	0.282000	0.291800
H3651	H365	0.442000	0.259800	0.226000
H3661	H366	0.432800	0.272600	0.175000
H3671	H367	0.481000	0.277600	0.119000
H3681	H368	0.543900	0.255700	0.171500
H3691	H369	0.541700	0.460300	0.185700
H3701	H370	0.559800	0.406400	0.178400
H3711	H371	0.556100	0.353500	0.229900
H3721	H372	0.519200	0.414600	0.290800
H3731	H373	0.512800	0.274800	0.424800
H3741	H374	0.530800	0.370600	0.372400
H3751	H375	0.526500	0.367700	0.427700
H3761	H376	0.514300	0.319300	0.479300
H3771	H377	0.503300	0.237700	0.386900
H3781	H378	0.487800	0.195800	0.386400
H3791	H379	0.483600	0.203600	0.333400
H3801	H380	0.509200	0.291800	0.282000
H3811	H381	0.572200	0.226000	0.259800
H3821	H382	0.619600	0.175000	0.272600
H3831	H383	0.622400	0.119000	0.277600
H3841	H384	0.528900	0.171500	0.255700
H3851	H385	0.041700	0.312300	0.685700
H3861	H386	0.059800	0.355400	0.678400
H3871	H387	0.056100	0.360500	0.729900
H3881	H388	0.019200	0.275400	0.790800
H3891	H389	0.012800	0.287600	0.924800
H3901	H390	0.030800	0.226200	0.872400
H3911	H391	0.026500	0.178100	0.927700
H3921	H392	0.014300	0.187100	0.979300
H3931	H393	0.003300	0.372100	0.886900
H3941	H394	0.987800	0.430000	0.886400
H3951	H395	0.983600	0.479400	0.833400
H3961	H396	0.009200	0.417000	0.782000
H3971	H397	0.072200	0.442000	0.759800
H3981	H398	0.119600	0.432800	0.772600
H3991	H399	0.122400	0.481000	0.777600
H4001	H400	0.028900	0.543900	0.755700
H4011	H401	0.812300	0.541700	0.960300
H4021	H402	0.855400	0.559800	0.906400
H4031	H403	0.860500	0.556100	0.853500
H4041	H404	0.775400	0.519200	0.914600
H4051	H405	0.787600	0.512800	0.774800
H4061	H406	0.726200	0.530800	0.870600
H4071	H407	0.678100	0.526500	0.867700
H4081	H408	0.687100	0.514300	0.819300
H4091	H409	0.872100	0.503300	0.737700
H4101	H410	0.930000	0.487800	0.695800
H4111	H411	0.979400	0.483600	0.703600
H4121	H412	0.917000	0.509200	0.791800
H4131	H413	0.942000	0.572200	0.726000
H4141	H414	0.932800	0.619600	0.675000
H4151	H415	0.981000	0.622400	0.619000
H4161	H416	0.043900	0.528900	0.671500
H4171	H417	0.185700	0.960300	0.541700
H4181	H418	0.178400	0.906400	0.559800
H4191	H419	0.229900	0.853500	0.556100
H4201	H420	0.290800	0.914600	0.519200
H4211	H421	0.424800	0.774800	0.512800
H4221	H422	0.372400	0.870600	0.530800
H4231	H423	0.427700	0.867700	0.526500
H4241	H424	0.479300	0.819300	0.514300
H4251	H425	0.386900	0.737700	0.503300
H4261	H426	0.386400	0.695800	0.487800
H4271	H427	0.333400	0.703600	0.483600
H4281	H428	0.282000	0.791800	0.509200
H4291	H429	0.259800	0.726000	0.572200
H4301	H430	0.272600	0.675000	0.619600
H4311	H431	0.277600	0.619000	0.622400
H4321	H432	0.255700	0.671500	0.528900
H4331	H433	0.460300	0.685700	0.312300
H4341	H434	0.406400	0.678400	0.355400
H4351	H435	0.353500	0.729900	0.360500
H4361	H436	0.414600	0.790800	0.275400
H4371	H437	0.274800	0.924800	0.287600
H4381	H438	0.370600	0.872400	0.226200
H4391	H439	0.367700	0.927700	0.178100
H4401	H440	0.319300	0.979300	0.187100
H4411	H441	0.237700	0.886900	0.372100
H4421	H442	0.195800	0.886400	0.430000
H4431	H443	0.203600	0.833400	0.479400
H4441	H444	0.291800	0.782000	0.417000
H4451	H445	0.226000	0.759800	0.442000
H4461	H446	0.175000	0.772600	0.432800
H4471	H447	0.119000	0.777600	0.481000
H4481	H448	0.171500	0.755700	0.543900
H4491	H449	0.041700	0.685700	0.960300
H4501	H450	0.059800	0.678400	0.906400
H4511	H451	0.056100	0.729900	0.853500
H4521	H452	0.019200	0.790800	0.914600
H4531	H453	0.012800	0.924800	0.774800
H4541	H454	0.030800	0.872400	0.870600
H4551	H455	0.026500	0.927700	0.867700
H4561	H456	0.014300	0.979300	0.819300
H4571	H457	0.003300	0.886900	0.737700
H4581	H458	0.987800	0.886400	0.695800
H4591	H459	0.983600	0.833400	0.703600
H4601	H460	0.009200	0.782000	0.791800
H4611	H461	0.072200	0.759800	0.726000
H4621	H462	0.119600	0.772600	0.675000
H4631	H463	0.122400	0.777600	0.619000
H4641	H464	0.028900	0.755700	0.671500
H4651	H465	0.812300	0.960300	0.685700
H4661	H466	0.855400	0.906400	0.678400
H4671	H467	0.860500	0.853500	0.729900
H4681	H468	0.775400	0.914600	0.790800
H4691	H469	0.787600	0.774800	0.924800
H4701	H470	0.726200	0.870600	0.872400
H4711	H471	0.678100	0.867700	0.927700
H4721	H472	0.687100	0.819300	0.979300
H4731	H473	0.872100	0.737700	0.886900
H4741	H474	0.930000	0.695800	0.886400
H4751	H475	0.979400	0.703600	0.833400
H4761	H476	0.917000	0.791800	0.782000
H4771	H477	0.942000	0.726000	0.759800
H4781	H478	0.932800	0.675000	0.772600
H4791	H479	0.981000	0.619000	0.777600
H4801	H480	0.043900	0.671500	0.755700
H4811	H481	0.185700	0.541700	0.312300
H4821	H482	0.178400	0.559800	0.355400
H4831	H483	0.229900	0.556100	0.360500
H4841	H484	0.290800	0.519200	0.275400
H4851	H485	0.424800	0.512800	0.287600
H4861	H486	0.372400	0.530800	0.226200
H4871	H487	0.427700	0.526500	0.178100
H4881	H488	0.479300	0.514300	0.187100
H4891	H489	0.386900	0.503300	0.372100
H4901	H490	0.386400	0.487800	0.430000
H4911	H491	0.333400	0.483600	0.479400
H4921	H492	0.282000	0.509200	0.417000
H4931	H493	0.259800	0.572200	0.442000
H4941	H494	0.272600	0.619600	0.432800
H4951	H495	0.277600	0.622400	0.481000
H4961	H496	0.255700	0.528900	0.543900
H4971	H497	0.460300	0.312300	0.541700
H4981	H498	0.406400	0.355400	0.559800
H4991	H499	0.353500	0.360500	0.556100
H5001	H500	0.414600	0.275400	0.519200
H5011	H501	0.274800	0.287600	0.512800
H5021	H502	0.370600	0.226200	0.530800
H5031	H503	0.367700	0.178100	0.526500
H5041	H504	0.319300	0.187100	0.514300
H5051	H505	0.237700	0.372100	0.503300
H5061	H506	0.195800	0.430000	0.487800
H5071	H507	0.203600	0.479400	0.483600
H5081	H508	0.291800	0.417000	0.509200
H5091	H509	0.226000	0.442000	0.572200
H5101	H510	0.175000	0.432800	0.619600
H5111	H511	0.119000	0.481000	0.622400
H5121	H512	0.171500	0.543900	0.528900
H5131	H513	0.041700	0.960300	0.312300
H5141	H514	0.059800	0.906400	0.355400
H5151	H515	0.056100	0.853500	0.360500
H5161	H516	0.019200	0.914600	0.275400
H5171	H517	0.012800	0.774800	0.287600
H5181	H518	0.030800	0.870600	0.226200
H5191	H519	0.026500	0.867700	0.178100
H5201	H520	0.014300	0.819300	0.187100
H5211	H521	0.003300	0.737700	0.372100
H5221	H522	0.987800	0.695800	0.430000
H5231	H523	0.983600	0.703600	0.479400
H5241	H524	0.009200	0.791800	0.417000
H5251	H525	0.072200	0.726000	0.442000
H5261	H526	0.119600	0.675000	0.432800
H5271	H527	0.122400	0.619000	0.481000
H5281	H528	0.028900	0.671500	0.543900
H5291	H529	0.812300	0.685700	0.541700
H5301	H530	0.855400	0.678400	0.559800
H5311	H531	0.860500	0.729900	0.556100
H5321	H532	0.775400	0.790800	0.519200
H5331	H533	0.787600	0.924800	0.512800
H5341	H534	0.726200	0.872400	0.530800
H5351	H535	0.678100	0.927700	0.526500
H5361	H536	0.687100	0.979300	0.514300
H5371	H537	0.872100	0.886900	0.503300
H5381	H538	0.930000	0.886400	0.487800
H5391	H539	0.979400	0.833400	0.483600
H5401	H540	0.917000	0.782000	0.509200
H5411	H541	0.942000	0.759800	0.572200
H5421	H542	0.932800	0.772600	0.619600
H5431	H543	0.981000	0.777600	0.622400
H5441	H544	0.043900	0.755700	0.528900
H5451	H545	0.185700	0.312300	0.960300
H5461	H546	0.178400	0.355400	0.906400
H5471	H547	0.229900	0.360500	0.853500
H5481	H548	0.290800	0.275400	0.914600
H5491	H549	0.424800	0.287600	0.774800
H5501	H550	0.372400	0.226200	0.870600
H5511	H551	0.427700	0.178100	0.867700
H5521	H552	0.479300	0.187100	0.819300
H5531	H553	0.386900	0.372100	0.737700
H5541	H554	0.386400	0.430000	0.695800
H5551	H555	0.333400	0.479400	0.703600
H5561	H556	0.282000	0.417000	0.791800
H5571	H557	0.259800	0.442000	0.726000
H5581	H558	0.272600	0.432800	0.675000
H5591	H559	0.277600	0.481000	0.619000
H5601	H560	0.255700	0.543900	0.671500
H5611	H561	0.460300	0.541700	0.685700
H5621	H562	0.406400	0.559800	0.678400
H5631	H563	0.353500	0.556100	0.729900
H5641	H564	0.414600	0.519200	0.790800
H5651	H565	0.274800	0.512800	0.924800
H5661	H566	0.370600	0.530800	0.872400
H5671	H567	0.367700	0.526500	0.927700
H5681	H568	0.319300	0.514300	0.979300
H5691	H569	0.237700	0.503300	0.886900
H5701	H570	0.195800	0.487800	0.886400
H5711	H571	0.203600	0.483600	0.833400
H5721	H572	0.291800	0.509200	0.782000
H5731	H573	0.226000	0.572200	0.759800
H5741	H574	0.175000	0.619600	0.772600
H5751	H575	0.119000	0.622400	0.777600
H5761	H576	0.171500	0.528900	0.755700
H5771	H577	0.687700	0.958300	0.814300
H5781	H578	0.644600	0.940200	0.821600
H5791	H579	0.639500	0.943900	0.770100
H5801	H580	0.724600	0.980800	0.709200
H5811	H581	0.712400	0.987200	0.575200
H5821	H582	0.773800	0.969200	0.627600
H5831	H583	0.821900	0.973500	0.572300
H5841	H584	0.812900	0.985700	0.520700
H5851	H585	0.627900	0.996700	0.613100
H5861	H586	0.570000	0.012200	0.613600
H5871	H587	0.520600	0.016400	0.666600
H5881	H588	0.583000	0.990800	0.718000
H5891	H589	0.558000	0.927800	0.740200
H5901	H590	0.567200	0.880400	0.727400
H5911	H591	0.519000	0.877600	0.722400
H5921	H592	0.456100	0.971100	0.744300
H5931	H593	0.458300	0.187700	0.539700
H5941	H594	0.440200	0.144600	0.593600
H5951	H595	0.443900	0.139500	0.646500
H5961	H596	0.480800	0.224600	0.585400
H5971	H597	0.487200	0.212400	0.725200
H5981	H598	0.469200	0.273800	0.629400
H5991	H599	0.473500	0.321900	0.632300
H6001	H600	0.485700	0.312900	0.680700
H6011	H601	0.496700	0.127900	0.762300
H6021	H602	0.512200	0.070000	0.804200
H6031	H603	0.516400	0.020600	0.796400
H6041	H604	0.490800	0.083000	0.708200
H6051	H605	0.427800	0.058000	0.774000
H6061	H606	0.380400	0.067200	0.825000
H6071	H607	0.377600	0.019000	0.881000
H6081	H608	0.471100	0.956100	0.828500
H6091	H609	0.039700	0.814300	0.958300
H6101	H610	0.093600	0.821600	0.940200
H6111	H611	0.146500	0.770100	0.943900
H6121	H612	0.085400	0.709200	0.980800
H6131	H613	0.225200	0.575200	0.987200
H6141	H614	0.129400	0.627600	0.969200
H6151	H615	0.132300	0.572300	0.973500
H6161	H616	0.180700	0.520700	0.985700
H6171	H617	0.262300	0.613100	0.996700
H6181	H618	0.304200	0.613600	0.012200
H6191	H619	0.296400	0.666600	0.016400
H6201	H620	0.208200	0.718000	0.990800
H6211	H621	0.274000	0.740200	0.927800
H6221	H622	0.325000	0.727400	0.880400
H6231	H623	0.381000	0.722400	0.877600
H6241	H624	0.328500	0.744300	0.971100
H6251	H625	0.314300	0.539700	0.187700
H6261	H626	0.321600	0.593600	0.144600
H6271	H627	0.270100	0.646500	0.139500
H6281	H628	0.209200	0.585400	0.224600
H6291	H629	0.075200	0.725200	0.212400
H6301	H630	0.127600	0.629400	0.273800
H6311	H631	0.072300	0.632300	0.321900
H6321	H632	0.020700	0.680700	0.312900
H6331	H633	0.113100	0.762300	0.127900
H6341	H634	0.113600	0.804200	0.070000
H6351	H635	0.166600	0.796400	0.020600
H6361	H636	0.218000	0.708200	0.083000
H6371	H637	0.240200	0.774000	0.058000
H6381	H638	0.227400	0.825000	0.067200
H6391	H639	0.222400	0.881000	0.019000
H6401	H640	0.244300	0.828500	0.956100
H6411	H641	0.314300	0.958300	0.539700
H6421	H642	0.321600	0.940200	0.593600
H6431	H643	0.270100	0.943900	0.646500
H6441	H644	0.209200	0.980800	0.585400
H6451	H645	0.075200	0.987200	0.725200
H6461	H646	0.127600	0.969200	0.629400
H6471	H647	0.072300	0.973500	0.632300
H6481	H648	0.020700	0.985700	0.680700
H6491	H649	0.113100	0.996700	0.762300
H6501	H650	0.113600	0.012200	0.804200
H6511	H651	0.166600	0.016400	0.796400
H6521	H652	0.218000	0.990800	0.708200
H6531	H653	0.240200	0.927800	0.774000
H6541	H654	0.227400	0.880400	0.825000
H6551	H655	0.222400	0.877600	0.881000
H6561	H656	0.244300	0.971100	0.828500
H6571	H657	0.039700	0.187700	0.814300
H6581	H658	0.093600	0.144600	0.821600
H6591	H659	0.146500	0.139500	0.770100
H6601	H660	0.085400	0.224600	0.709200
H6611	H661	0.225200	0.212400	0.575200
H6621	H662	0.129400	0.273800	0.627600
H6631	H663	0.132300	0.321900	0.572300
H6641	H664	0.180700	0.312900	0.520700
H6651	H665	0.262300	0.127900	0.613100
H6661	H666	0.304200	0.070000	0.613600
H6671	H667	0.296400	0.020600	0.666600
H6681	H668	0.208200	0.083000	0.718000
H6691	H669	0.274000	0.058000	0.740200
H6701	H670	0.325000	0.067200	0.727400
H6711	H671	0.381000	0.019000	0.722400
H6721	H672	0.328500	0.956100	0.744300
H6731	H673	0.458300	0.814300	0.187700
H6741	H674	0.440200	0.821600	0.144600
H6751	H675	0.443900	0.770100	0.139500
H6761	H676	0.480800	0.709200	0.224600
H6771	H677	0.487200	0.575200	0.212400
H6781	H678	0.469200	0.627600	0.273800
H6791	H679	0.473500	0.572300	0.321900
H6801	H680	0.485700	0.520700	0.312900
H6811	H681	0.496700	0.613100	0.127900
H6821	H682	0.512200	0.613600	0.070000
H6831	H683	0.516400	0.666600	0.020600
H6841	H684	0.490800	0.718000	0.083000
H6851	H685	0.427800	0.740200	0.058000
H6861	H686	0.380400	0.727400	0.067200
H6871	H687	0.377600	0.722400	0.019000
H6881	H688	0.471100	0.744300	0.956100
H6891	H689	0.687700	0.539700	0.958300
H6901	H690	0.644600	0.593600	0.940200
H6911	H691	0.639500	0.646500	0.943900
H6921	H692	0.724600	0.585400	0.980800
H6931	H693	0.712400	0.725200	0.987200
H6941	H694	0.773800	0.629400	0.969200
H6951	H695	0.821900	0.632300	0.973500
H6961	H696	0.812900	0.680700	0.985700
H6971	H697	0.627900	0.762300	0.996700
H6981	H698	0.570000	0.804200	0.012200
H6991	H699	0.520600	0.796400	0.016400
H7001	H700	0.583000	0.708200	0.990800
H7011	H701	0.558000	0.774000	0.927800
H7021	H702	0.567200	0.825000	0.880400
H7031	H703	0.519000	0.881000	0.877600
H7041	H704	0.456100	0.828500	0.971100
H7051	H705	0.039700	0.958300	0.187700
H7061	H706	0.093600	0.940200	0.144600
H7071	H707	0.146500	0.943900	0.139500
H7081	H708	0.085400	0.980800	0.224600
H7091	H709	0.225200	0.987200	0.212400
H7101	H710	0.129400	0.969200	0.273800
H7111	H711	0.132300	0.973500	0.321900
H7121	H712	0.180700	0.985700	0.312900
H7131	H713	0.262300	0.996700	0.127900
H7141	H714	0.304200	0.012200	0.070000
H7151	H715	0.296400	0.016400	0.020600
H7161	H716	0.208200	0.990800	0.083000
H7171	H717	0.274000	0.927800	0.058000
H7181	H718	0.325000	0.880400	0.067200
H7191	H719	0.381000	0.877600	0.019000
H7201	H720	0.328500	0.971100	0.956100
H7211	H721	0.314300	0.187700	0.958300
H7221	H722	0.321600	0.144600	0.940200
H7231	H723	0.270100	0.139500	0.943900
H7241	H724	0.209200	0.224600	0.980800
H7251	H725	0.075200	0.212400	0.987200
H7261	H726	0.127600	0.273800	0.969200
H7271	H727	0.072300	0.321900	0.973500
H7281	H728	0.020700	0.312900	0.985700
H7291	H729	0.113100	0.127900	0.996700
H7301	H730	0.113600	0.070000	0.012200
H7311	H731	0.166600	0.020600	0.016400
H7321	H732	0.218000	0.083000	0.990800
H7331	H733	0.240200	0.058000	0.927800
H7341	H734	0.227400	0.067200	0.880400
H7351	H735	0.222400	0.019000	0.877600
H7361	H736	0.244300	0.956100	0.971100
H7371	H737	0.687700	0.814300	0.539700
H7381	H738	0.644600	0.821600	0.593600
H7391	H739	0.639500	0.770100	0.646500
H7401	H740	0.724600	0.709200	0.585400
H7411	H741	0.712400	0.575200	0.725200
H7421	H742	0.773800	0.627600	0.629400
H7431	H743	0.821900	0.572300	0.632300
H7441	H744	0.812900	0.520700	0.680700
H7451	H745	0.627900	0.613100	0.762300
H7461	H746	0.570000	0.613600	0.804200
H7471	H747	0.520600	0.666600	0.796400
H7481	H748	0.583000	0.718000	0.708200
H7491	H749	0.558000	0.740200	0.774000
H7501	H750	0.567200	0.727400	0.825000
H7511	H751	0.519000	0.722400	0.881000
H7521	H752	0.456100	0.744300	0.828500
H7531	H753	0.458300	0.539700	0.814300
H7541	H754	0.440200	0.593600	0.821600
H7551	H755	0.443900	0.646500	0.770100
H7561	H756	0.480800	0.585400	0.709200
H7571	H757	0.487200	0.725200	0.575200
H7581	H758	0.469200	0.629400	0.627600
H7591	H759	0.473500	0.632300	0.572300
H7601	H760	0.485700	0.680700	0.520700
H7611	H761	0.496700	0.762300	0.613100
H7621	H762	0.512200	0.804200	0.613600
H7631	H763	0.516400	0.796400	0.666600
H7641	H764	0.490800	0.708200	0.718000
H7651	H765	0.427800	0.774000	0.740200
H7661	H766	0.380400	0.825000	0.727400
H7671	H767	0.377600	0.881000	0.722400
H7681	H768	0.471100	0.828500	0.744300
C11	C1	0.959680	0.686300	0.293440
C21	C2	0.948900	0.660440	0.298060
C31	C3	0.950700	0.657520	0.267740
C41	C4	0.962780	0.682260	0.234100
C51	C5	0.972870	0.707730	0.232210
C61	C6	0.973580	0.835980	0.961660
C71	C7	0.984600	0.734660	0.074760
C81	C8	0.977350	0.737850	0.106850
C91	C9	0.973610	0.770930	0.106150
C101	C10	0.976430	0.799010	0.073710
C111	C11	0.983720	0.793360	0.042860
C121	C12	0.976110	0.706090	0.140290
C131	C13	0.982490	0.646710	0.168150
C141	C14	0.968460	0.680240	0.200000
C151	C15	0.991820	0.611420	0.166200
C161	C16	0.998480	0.607520	0.134420
C171	C17	0.007630	0.573510	0.134690
C181	C18	0.010090	0.543950	0.166690
C191	C19	0.995120	0.580360	0.196600
C201	C20	0.945880	0.552840	0.297540
C211	C21	0.927000	0.538480	0.238340
C221	C22	0.898730	0.544230	0.230730
C231	C23	0.896880	0.515740	0.227900
C241	C24	0.924340	0.482400	0.233560
C251	C25	0.952380	0.478800	0.240940
C261	C26	0.923190	0.450830	0.232490
C271	C27	0.186300	0.459680	0.060580
C281	C28	0.160440	0.448900	0.092600
C291	C29	0.157520	0.450700	0.124040
C301	C30	0.182260	0.462780	0.120860
C311	C31	0.207730	0.472870	0.087190
C321	C32	0.335980	0.473580	0.228780
C331	C33	0.234660	0.484600	0.205980
C341	C34	0.237850	0.477350	0.177950
C351	C35	0.270930	0.473610	0.149310
C361	C36	0.299010	0.476430	0.150850
C371	C37	0.293360	0.483720	0.180060
C381	C38	0.206090	0.476110	0.177510
C391	C39	0.146710	0.482490	0.202650
C401	C40	0.180240	0.468460	0.151300
C411	C41	0.111420	0.491820	0.230560
C421	C42	0.107520	0.498480	0.259580
C431	C43	0.073510	0.507630	0.284170
C441	C44	0.043950	0.510090	0.279270
C451	C45	0.080360	0.495120	0.227920
C461	C46	0.052840	0.445880	0.203740
C471	C47	0.038480	0.427000	0.296180
C481	C48	0.044230	0.398730	0.326310
C491	C49	0.015740	0.396880	0.359480
C501	C50	0.982400	0.424340	0.359700
C511	C51	0.978800	0.452380	0.327880
C521	C52	0.950830	0.423190	0.393490
C531	C53	0.793440	0.060580	0.459680
C541	C54	0.798060	0.092600	0.448900
C551	C55	0.767740	0.124040	0.450700
C561	C56	0.734100	0.120860	0.462780
C571	C57	0.732210	0.087190	0.472870
C581	C58	0.461660	0.228780	0.473580
C591	C59	0.574760	0.205980	0.484600
C601	C60	0.606850	0.177950	0.477350
C611	C61	0.606150	0.149310	0.473610
C621	C62	0.573710	0.150850	0.476430
C631	C63	0.542860	0.180060	0.483720
C641	C64	0.640290	0.177510	0.476110
C651	C65	0.668150	0.202650	0.482490
C661	C66	0.700000	0.151300	0.468460
C671	C67	0.666200	0.230560	0.491820
C681	C68	0.634420	0.259580	0.498480
C691	C69	0.634690	0.284170	0.507630
C701	C70	0.666690	0.279270	0.510090
C711	C71	0.696600	0.227920	0.495120
C721	C72	0.797540	0.203740	0.445880
C731	C73	0.738340	0.296180	0.427000
C741	C74	0.730730	0.326310	0.398730
C751	C75	0.727900	0.359480	0.396880
C761	C76	0.733560	0.359700	0.424340
C771	C77	0.740940	0.327880	0.452380
C781	C78	0.732490	0.393490	0.423190
C791	C79	0.560580	0.293440	0.686300
C801	C80	0.592600	0.298060	0.660440
C811	C81	0.624040	0.267740	0.657520
C821	C82	0.620860	0.234100	0.682260
C831	C83	0.587190	0.232210	0.707730
C841	C84	0.728780	0.961660	0.835980
C851	C85	0.705980	0.074760	0.734660
C861	C86	0.677950	0.106850	0.737850
C871	C87	0.649310	0.106150	0.770930
C881	C88	0.650850	0.073710	0.799010
C891	C89	0.680060	0.042860	0.793360
C901	C90	0.677510	0.140290	0.706090
C911	C91	0.702650	0.168150	0.646710
C921	C92	0.651300	0.200000	0.680240
C931	C93	0.730560	0.166200	0.611420
C941	C94	0.759580	0.134420	0.607520
C951	C95	0.784170	0.134690	0.573510
C961	C96	0.779270	0.166690	0.543950
C971	C97	0.727920	0.196600	0.580360
C981	C98	0.703740	0.297540	0.552840
C991	C99	0.796180	0.238340	0.538480
C1001	C100	0.826310	0.230730	0.544230
C1011	C101	0.859480	0.227900	0.515740
C1021	C102	0.859700	0.233560	0.482400
C1031	C103	0.827880	0.240940	0.478800
C1041	C104	0.893490	0.232490	0.450830
C1051	C105	0.959680	0.293440	0.060580
C1061	C106	0.948900	0.298060	0.092600
C1071	C107	0.950700	0.267740	0.124040
C1081	C108	0.962780	0.234100	0.120860
C1091	C109	0.972870	0.232210	0.087190
C1101	C110	0.973580	0.961660	0.228780
C1111	C111	0.984600	0.074760	0.205980
C1121	C112	0.977350	0.106850	0.177950
C1131	C113	0.973610	0.106150	0.149310
C1141	C114	0.976430	0.073710	0.150850
C1151	C115	0.983720	0.042860	0.180060
C1161	C116	0.976110	0.140290	0.177510
C1171	C117	0.982490	0.168150	0.202650
C1181	C118	0.968460	0.200000	0.151300
C1191	C119	0.991820	0.166200	0.230560
C1201	C120	0.998480	0.134420	0.259580
C1211	C121	0.007630	0.134690	0.284170
C1221	C122	0.010090	0.166690	0.279270
C1231	C123	0.995120	0.196600	0.227920
C1241	C124	0.945880	0.297540	0.203740
C1251	C125	0.927000	0.238340	0.296180
C1261	C126	0.898730	0.230730	0.326310
C1271	C127	0.896880	0.227900	0.359480
C1281	C128	0.924340	0.233560	0.359700
C1291	C129	0.952380	0.240940	0.327880
C1301	C130	0.923190	0.232490	0.393490
C1311	C131	0.186300	0.060580	0.293440
C1321	C132	0.160440	0.092600	0.298060
C1331	C133	0.157520	0.124040	0.267740
C1341	C134	0.182260	0.120860	0.234100
C1351	C135	0.207730	0.087190	0.232210
C1361	C136	0.335980	0.228780	0.961660
C1371	C137	0.234660	0.205980	0.074760
C1381	C138	0.237850	0.177950	0.106850
C1391	C139	0.270930	0.149310	0.106150
C1401	C140	0.299010	0.150850	0.073710
C1411	C141	0.293360	0.180060	0.042860
C1421	C142	0.206090	0.177510	0.140290
C1431	C143	0.146710	0.202650	0.168150
C1441	C144	0.180240	0.151300	0.200000
C1451	C145	0.111420	0.230560	0.166200
C1461	C146	0.107520	0.259580	0.134420
C1471	C147	0.073510	0.284170	0.134690
C1481	C148	0.043950	0.279270	0.166690
C1491	C149	0.080360	0.227920	0.196600
C1501	C150	0.052840	0.203740	0.297540
C1511	C151	0.038480	0.296180	0.238340
C1521	C152	0.044230	0.326310	0.230730
C1531	C153	0.015740	0.359480	0.227900
C1541	C154	0.982400	0.359700	0.233560
C1551	C155	0.978800	0.327880	0.240940
C1561	C156	0.950830	0.393490	0.232490
C1571	C157	0.793440	0.459680	0.686300
C1581	C158	0.798060	0.448900	0.660440
C1591	C159	0.767740	0.450700	0.657520
C1601	C160	0.734100	0.462780	0.682260
C1611	C161	0.732210	0.472870	0.707730
C1621	C162	0.461660	0.473580	0.835980
C1631	C163	0.574760	0.484600	0.734660
C1641	C164	0.606850	0.477350	0.737850
C1651	C165	0.606150	0.473610	0.770930
C1661	C166	0.573710	0.476430	0.799010
C1671	C167	0.542860	0.483720	0.793360
C1681	C168	0.640290	0.476110	0.706090
C1691	C169	0.668150	0.482490	0.646710
C1701	C170	0.700000	0.468460	0.680240
C1711	C171	0.666200	0.491820	0.611420
C1721	C172	0.634420	0.498480	0.607520
C1731	C173	0.634690	0.507630	0.573510
C1741	C174	0.666690	0.510090	0.543950
C1751	C175	0.696600	0.495120	0.580360
C1761	C176	0.797540	0.445880	0.552840
C1771	C177	0.738340	0.427000	0.538480
C1781	C178	0.730730	0.398730	0.544230
C1791	C179	0.727900	0.396880	0.515740
C1801	C180	0.733560	0.424340	0.482400
C1811	C181	0.740940	0.452380	0.478800
C1821	C182	0.732490	0.423190	0.450830
C1831	C183	0.560580	0.686300	0.459680
C1841	C184	0.592600	0.660440	0.448900
C1851	C185	0.624040	0.657520	0.450700
C1861	C186	0.620860	0.682260	0.462780
C1871	C187	0.587190	0.707730	0.472870
C1881	C188	0.728780	0.835980	0.473580
C1891	C189	0.705980	0.734660	0.484600
C1901	C190	0.677950	0.737850	0.477350
C1911	C191	0.649310	0.770930	0.473610
C1921	C192	0.650850	0.799010	0.476430
C1931	C193	0.680060	0.793360	0.483720
C1941	C194	0.677510	0.706090	0.476110
C1951	C195	0.702650	0.646710	0.482490
C1961	C196	0.651300	0.680240	0.468460
C1971	C197	0.730560	0.611420	0.491820
C1981	C198	0.759580	0.607520	0.498480
C1991	C199	0.784170	0.573510	0.507630
C2001	C200	0.779270	0.543950	0.510090
C2011	C201	0.727920	0.580360	0.495120
C2021	C202	0.703740	0.552840	0.445880
C2031	C203	0.796180	0.538480	0.427000
C2041	C204	0.826310	0.544230	0.398730
C2051	C205	0.859480	0.515740	0.396880
C2061	C206	0.859700	0.482400	0.424340
C2071	C207	0.827880	0.478800	0.452380
C2081	C208	0.893490	0.450830	0.423190
C2091	C209	0.959680	0.060580	0.686300
C2101	C210	0.948900	0.092600	0.660440
C2111	C211	0.950700	0.124040	0.657520
C2121	C212	0.962780	0.120860	0.682260
C2131	C213	0.972870	0.087190	0.707730
C2141	C214	0.973580	0.228780	0.835980
C2151	C215	0.984600	0.205980	0.734660
C2161	C216	0.977350	0.177950	0.737850
C2171	C217	0.973610	0.149310	0.770930
C2181	C218	0.976430	0.150850	0.799010
C2191	C219	0.983720	0.180060	0.793360
C2201	C220	0.976110	0.177510	0.706090
C2211	C221	0.982490	0.202650	0.646710
C2221	C222	0.968460	0.151300	0.680240
C2231	C223	0.991820	0.230560	0.611420
C2241	C224	0.998480	0.259580	0.607520
C2251	C225	0.007630	0.284170	0.573510
C2261	C226	0.010090	0.279270	0.543950
C2271	C227	0.995120	0.227920	0.580360
C2281	C228	0.945880	0.203740	0.552840
C2291	C229	0.927000	0.296180	0.538480
C2301	C230	0.898730	0.326310	0.544230
C2311	C231	0.896880	0.359480	0.515740
C2321	C232	0.924340	0.359700	0.482400
C2331	C233	0.952380	0.327880	0.478800
C2341	C234	0.923190	0.393490	0.450830
C2351	C235	0.186300	0.293440	0.459680
C2361	C236	0.160440	0.298060	0.448900
C2371	C237	0.157520	0.267740	0.450700
C2381	C238	0.182260	0.234100	0.462780
C2391	C239	0.207730	0.232210	0.472870
C2401	C240	0.335980	0.961660	0.473580
C2411	C241	0.234660	0.074760	0.484600
C2421	C242	0.237850	0.106850	0.477350
C2431	C243	0.270930	0.106150	0.473610
C2441	C244	0.299010	0.073710	0.476430
C2451	C245	0.293360	0.042860	0.483720
C2461	C246	0.206090	0.140290	0.476110
C2471	C247	0.146710	0.168150	0.482490
C2481	C248	0.180240	0.200000	0.468460
C2491	C249	0.111420	0.166200	0.491820
C2501	C250	0.107520	0.134420	0.498480
C2511	C251	0.073510	0.134690	0.507630
C2521	C252	0.043950	0.166690	0.510090
C2531	C253	0.080360	0.196600	0.495120
C2541	C254	0.052840	0.297540	0.445880
C2551	C255	0.038480	0.238340	0.427000
C2561	C256	0.044230	0.230730	0.398730
C2571	C257	0.015740	0.227900	0.396880
C2581	C258	0.982400	0.233560	0.424340
C2591	C259	0.978800	0.240940	0.452380
C2601	C260	0.950830	0.232490	0.423190
C2611	C261	0.793440	0.686300	0.060580
C2621	C262	0.798060	0.660440	0.092600
C2631	C263	0.767740	0.657520	0.124040
C2641	C264	0.734100	0.682260	0.120860
C2651	C265	0.732210	0.707730	0.087190
C2661	C266	0.461660	0.835980	0.228780
C2671	C267	0.574760	0.734660	0.205980
C2681	C268	0.606850	0.737850	0.177950
C2691	C269	0.606150	0.770930	0.149310
C2701	C270	0.573710	0.799010	0.150850
C2711	C271	0.542860	0.793360	0.180060
C2721	C272	0.640290	0.706090	0.177510
C2731	C273	0.668150	0.646710	0.202650
C2741	C274	0.700000	0.680240	0.151300
C2751	C275	0.666200	0.611420	0.230560
C2761	C276	0.634420	0.607520	0.259580
C2771	C277	0.634690	0.573510	0.284170
C2781	C278	0.666690	0.543950	0.279270
C2791	C279	0.696600	0.580360	0.227920
C2801	C280	0.797540	0.552840	0.203740
C2811	C281	0.738340	0.538480	0.296180
C2821	C282	0.730730	0.544230	0.326310
C2831	C283	0.727900	0.515740	0.359480
C2841	C284	0.733560	0.482400	0.359700
C2851	C285	0.740940	0.478800	0.327880
C2861	C286	0.732490	0.450830	0.393490
C2871	C287	0.560580	0.459680	0.293440
C2881	C288	0.592600	0.448900	0.298060
C2891	C289	0.624040	0.450700	0.267740
C2901	C290	0.620860	0.462780	0.234100
C2911	C291	0.587190	0.472870	0.232210
C2921	C292	0.728780	0.473580	0.961660
C2931	C293	0.705980	0.484600	0.074760
C2941	C294	0.677950	0.477350	0.106850
C2951	C295	0.649310	0.473610	0.106150
C2961	C296	0.650850	0.476430	0.073710
C2971	C297	0.680060	0.483720	0.042860
C2981	C298	0.677510	0.476110	0.140290
C2991	C299	0.702650	0.482490	0.168150
C3001	C300	0.651300	0.468460	0.200000
C3011	C301	0.730560	0.491820	0.166200
C3021	C302	0.759580	0.498480	0.134420
C3031	C303	0.784170	0.507630	0.134690
C3041	C304	0.779270	0.510090	0.166690
C3051	C305	0.727920	0.495120	0.196600
C3061	C306	0.703740	0.445880	0.297540
C3071	C307	0.796180	0.427000	0.238340
C3081	C308	0.826310	0.398730	0.230730
C3091	C309	0.859480	0.396880	0.227900
C3101	C310	0.859700	0.424340	0.233560
C3111	C311	0.827880	0.452380	0.240940
C3121	C312	0.893490	0.423190	0.232490
C3131	C313	0.313700	0.040320	0.206560
C3141	C314	0.339560	0.051100	0.201940
C3151	C315	0.342480	0.049300	0.232260
C3161	C316	0.317740	0.037220	0.265900
C3171	C317	0.292270	0.027130	0.267790
C3181	C318	0.164020	0.026420	0.538340
C3191	C319	0.265340	0.015400	0.425240
C3201	C320	0.262150	0.022650	0.393150
C3211	C321	0.229070	0.026390	0.393850
C3221	C322	0.200990	0.023570	0.426290
C3231	C323	0.206640	0.016280	0.457140
C3241	C324	0.293910	0.023890	0.359710
C3251	C325	0.353290	0.017510	0.331850
C3261	C326	0.319760	0.031540	0.300000
C3271	C327	0.388580	0.008180	0.333800
C3281	C328	0.392480	0.001520	0.365580
C3291	C329	0.426490	0.992370	0.365310
C3301	C330	0.456050	0.989910	0.333310
C3311	C331	0.419640	0.004880	0.303400
C3321	C332	0.447160	0.054120	0.202460
C3331	C333	0.461520	0.073000	0.261660
C3341	C334	0.455770	0.101270	0.269270
C3351	C335	0.484260	0.103120	0.272100
C3361	C336	0.517600	0.075660	0.266440
C3371	C337	0.521200	0.047620	0.259060
C3381	C338	0.549170	0.076810	0.267510
C3391	C339	0.540320	0.813700	0.439420
C3401	C340	0.551100	0.839560	0.407400
C3411	C341	0.549300	0.842480	0.375960
C3421	C342	0.537220	0.817740	0.379140
C3431	C343	0.527130	0.792270	0.412810
C3441	C344	0.526420	0.664020	0.271220
C3451	C345	0.515400	0.765340	0.294020
C3461	C346	0.522650	0.762150	0.322050
C3471	C347	0.526390	0.729070	0.350690
C3481	C348	0.523570	0.700990	0.349150
C3491	C349	0.516280	0.706640	0.319940
C3501	C350	0.523890	0.793910	0.322490
C3511	C351	0.517510	0.853290	0.297350
C3521	C352	0.531540	0.819760	0.348700
C3531	C353	0.508180	0.888580	0.269440
C3541	C354	0.501520	0.892480	0.240420
C3551	C355	0.492370	0.926490	0.215830
C3561	C356	0.489910	0.956050	0.220730
C3571	C357	0.504880	0.919640	0.272080
C3581	C358	0.554120	0.947160	0.296260
C3591	C359	0.573000	0.961520	0.203820
C3601	C360	0.601270	0.955770	0.173690
C3611	C361	0.603120	0.984260	0.140520
C3621	C362	0.575660	0.017600	0.140300
C3631	C363	0.547620	0.021200	0.172120
C3641	C364	0.576810	0.049170	0.106510
C3651	C365	0.939420	0.206560	0.040320
C3661	C366	0.907400	0.201940	0.051100
C3671	C367	0.875960	0.232260	0.049300
C3681	C368	0.879140	0.265900	0.037220
C3691	C369	0.912810	0.267790	0.027130
C3701	C370	0.771220	0.538340	0.026420
C3711	C371	0.794020	0.425240	0.015400
C3721	C372	0.822050	0.393150	0.022650
C3731	C373	0.850690	0.393850	0.026390
C3741	C374	0.849150	0.426290	0.023570
C3751	C375	0.819940	0.457140	0.016280
C3761	C376	0.822490	0.359710	0.023890
C3771	C377	0.797350	0.331850	0.017510
C3781	C378	0.848700	0.300000	0.031540
C3791	C379	0.769440	0.333800	0.008180
C3801	C380	0.740420	0.365580	0.001520
C3811	C381	0.715830	0.365310	0.992370
C3821	C382	0.720730	0.333310	0.989910
C3831	C383	0.772080	0.303400	0.004880
C3841	C384	0.796260	0.202460	0.054120
C3851	C385	0.703820	0.261660	0.073000
C3861	C386	0.673690	0.269270	0.101270
C3871	C387	0.640520	0.272100	0.103120
C3881	C388	0.640300	0.266440	0.075660
C3891	C389	0.672120	0.259060	0.047620
C3901	C390	0.606510	0.267510	0.076810
C3911	C391	0.706560	0.439420	0.813700
C3921	C392	0.701940	0.407400	0.839560
C3931	C393	0.732260	0.375960	0.842480
C3941	C394	0.765900	0.379140	0.817740
C3951	C395	0.767790	0.412810	0.792270
C3961	C396	0.038340	0.271220	0.664020
C3971	C397	0.925240	0.294020	0.765340
C3981	C398	0.893150	0.322050	0.762150
C3991	C399	0.893850	0.350690	0.729070
C4001	C400	0.926290	0.349150	0.700990
C4011	C401	0.957140	0.319940	0.706640
C4021	C402	0.859710	0.322490	0.793910
C4031	C403	0.831850	0.297350	0.853290
C4041	C404	0.800000	0.348700	0.819760
C4051	C405	0.833800	0.269440	0.888580
C4061	C406	0.865580	0.240420	0.892480
C4071	C407	0.865310	0.215830	0.926490
C4081	C408	0.833310	0.220730	0.956050
C4091	C409	0.803400	0.272080	0.919640
C4101	C410	0.702460	0.296260	0.947160
C4111	C411	0.761660	0.203820	0.961520
C4121	C412	0.769270	0.173690	0.955770
C4131	C413	0.772100	0.140520	0.984260
C4141	C414	0.766440	0.140300	0.017600
C4151	C415	0.759060	0.172120	0.021200
C4161	C416	0.767510	0.106510	0.049170
C4171	C417	0.706560	0.040320	0.439420
C4181	C418	0.701940	0.051100	0.407400
C4191	C419	0.732260	0.049300	0.375960
C4201	C420	0.765900	0.037220	0.379140
C4211	C421	0.767790	0.027130	0.412810
C4221	C422	0.038340	0.026420	0.271220
C4231	C423	0.925240	0.015400	0.294020
C4241	C424	0.893150	0.022650	0.322050
C4251	C425	0.893850	0.026390	0.350690
C4261	C426	0.926290	0.023570	0.349150
C4271	C427	0.957140	0.016280	0.319940
C4281	C428	0.859710	0.023890	0.322490
C4291	C429	0.831850	0.017510	0.297350
C4301	C430	0.800000	0.031540	0.348700
C4311	C431	0.833800	0.008180	0.269440
C4321	C432	0.865580	0.001520	0.240420
C4331	C433	0.865310	0.992370	0.215830
C4341	C434	0.833310	0.989910	0.220730
C4351	C435	0.803400	0.004880	0.272080
C4361	C436	0.702460	0.054120	0.296260
C4371	C437	0.761660	0.073000	0.203820
C4381	C438	0.769270	0.101270	0.173690
C4391	C439	0.772100	0.103120	0.140520
C4401	C440	0.766440	0.075660	0.140300
C4411	C441	0.759060	0.047620	0.172120
C4421	C442	0.767510	0.076810	0.106510
C4431	C443	0.939420	0.813700	0.206560
C4441	C444	0.907400	0.839560	0.201940
C4451	C445	0.875960	0.842480	0.232260
C4461	C446	0.879140	0.817740	0.265900
C4471	C447	0.912810	0.792270	0.267790
C4481	C448	0.771220	0.664020	0.538340
C4491	C449	0.794020	0.765340	0.425240
C4501	C450	0.822050	0.762150	0.393150
C4511	C451	0.850690	0.729070	0.393850
C4521	C452	0.849150	0.700990	0.426290
C4531	C453	0.819940	0.706640	0.457140
C4541	C454	0.822490	0.793910	0.359710
C4551	C455	0.797350	0.853290	0.331850
C4561	C456	0.848700	0.819760	0.300000
C4571	C457	0.769440	0.888580	0.333800
C4581	C458	0.740420	0.892480	0.365580
C4591	C459	0.715830	0.926490	0.365310
C4601	C460	0.720730	0.956050	0.333310
C4611	C461	0.772080	0.919640	0.303400
C4621	C462	0.796260	0.947160	0.202460
C4631	C463	0.703820	0.961520	0.261660
C4641	C464	0.673690	0.955770	0.269270
C4651	C465	0.640520	0.984260	0.272100
C4661	C466	0.640300	0.017600	0.266440
C4671	C467	0.672120	0.021200	0.259060
C4681	C468	0.606510	0.049170	0.267510
C4691	C469	0.540320	0.206560	0.813700
C4701	C470	0.551100	0.201940	0.839560
C4711	C471	0.549300	0.232260	0.842480
C4721	C472	0.537220	0.265900	0.817740
C4731	C473	0.527130	0.267790	0.792270
C4741	C474	0.526420	0.538340	0.664020
C4751	C475	0.515400	0.425240	0.765340
C4761	C476	0.522650	0.393150	0.762150
C4771	C477	0.526390	0.393850	0.729070
C4781	C478	0.523570	0.426290	0.700990
C4791	C479	0.516280	0.457140	0.706640
C4801	C480	0.523890	0.359710	0.793910
C4811	C481	0.517510	0.331850	0.853290
C4821	C482	0.531540	0.300000	0.819760
C4831	C483	0.508180	0.333800	0.888580
C4841	C484	0.501520	0.365580	0.892480
C4851	C485	0.492370	0.365310	0.926490
C4861	C486	0.489910	0.333310	0.956050
C4871	C487	0.504880	0.303400	0.919640
C4881	C488	0.554120	0.202460	0.947160
C4891	C489	0.573000	0.261660	0.961520
C4901	C490	0.601270	0.269270	0.955770
C4911	C491	0.603120	0.272100	0.984260
C4921	C492	0.575660	0.266440	0.017600
C4931	C493	0.547620	0.259060	0.021200
C4941	C494	0.576810	0.267510	0.049170
C4951	C495	0.313700	0.439420	0.040320
C4961	C496	0.339560	0.407400	0.051100
C4971	C497	0.342480	0.375960	0.049300
C4981	C498	0.317740	0.379140	0.037220
C4991	C499	0.292270	0.412810	0.027130
C5001	C500	0.164020	0.271220	0.026420
C5011	C501	0.265340	0.294020	0.015400
C5021	C502	0.262150	0.322050	0.022650
C5031	C503	0.229070	0.350690	0.026390
C5041	C504	0.200990	0.349150	0.023570
C5051	C505	0.206640	0.319940	0.016280
C5061	C506	0.293910	0.322490	0.023890
C5071	C507	0.353290	0.297350	0.017510
C5081	C508	0.319760	0.348700	0.031540
C5091	C509	0.388580	0.269440	0.008180
C5101	C510	0.392480	0.240420	0.001520
C5111	C511	0.426490	0.215830	0.992370
C5121	C512	0.456050	0.220730	0.989910
C5131	C513	0.419640	0.272080	0.004880
C5141	C514	0.447160	0.296260	0.054120
C5151	C515	0.461520	0.203820	0.073000
C5161	C516	0.455770	0.173690	0.101270
C5171	C517	0.484260	0.140520	0.103120
C5181	C518	0.517600	0.140300	0.075660
C5191	C519	0.521200	0.172120	0.047620
C5201	C520	0.549170	0.106510	0.076810
C5211	C521	0.939420	0.040320	0.813700
C5221	C522	0.907400	0.051100	0.839560
C5231	C523	0.875960	0.049300	0.842480
C5241	C524	0.879140	0.037220	0.817740
C5251	C525	0.912810	0.027130	0.792270
C5261	C526	0.771220	0.026420	0.664020
C5271	C527	0.794020	0.015400	0.765340
C5281	C528	0.822050	0.022650	0.762150
C5291	C529	0.850690	0.026390	0.729070
C5301	C530	0.849150	0.023570	0.700990
C5311	C531	0.819940	0.016280	0.706640
C5321	C532	0.822490	0.023890	0.793910
C5331	C533	0.797350	0.017510	0.853290
C5341	C534	0.848700	0.031540	0.819760
C5351	C535	0.769440	0.008180	0.888580
C5361	C536	0.740420	0.001520	0.892480
C5371	C537	0.715830	0.992370	0.926490
C5381	C538	0.720730	0.989910	0.956050
C5391	C539	0.772080	0.004880	0.919640
C5401	C540	0.796260	0.054120	0.947160
C5411	C541	0.703820	0.073000	0.961520
C5421	C542	0.673690	0.101270	0.955770
C5431	C543	0.640520	0.103120	0.984260
C5441	C544	0.640300	0.075660	0.017600
C5451	C545	0.672120	0.047620	0.021200
C5461	C546	0.606510	0.076810	0.049170
C5471	C547	0.706560	0.813700	0.040320
C5481	C548	0.701940	0.839560	0.051100
C5491	C549	0.732260	0.842480	0.049300
C5501	C550	0.765900	0.817740	0.037220
C5511	C551	0.767790	0.792270	0.027130
C5521	C552	0.038340	0.664020	0.026420
C5531	C553	0.925240	0.765340	0.015400
C5541	C554	0.893150	0.762150	0.022650
C5551	C555	0.893850	0.729070	0.026390
C5561	C556	0.926290	0.700990	0.023570
C5571	C557	0.957140	0.706640	0.016280
C5581	C558	0.859710	0.793910	0.023890
C5591	C559	0.831850	0.853290	0.017510
C5601	C560	0.800000	0.819760	0.031540
C5611	C561	0.833800	0.888580	0.008180
C5621	C562	0.865580	0.892480	0.001520
C5631	C563	0.865310	0.926490	0.992370
C5641	C564	0.833310	0.956050	0.989910
C5651	C565	0.803400	0.919640	0.004880
C5661	C566	0.702460	0.947160	0.054120
C5671	C567	0.761660	0.961520	0.073000
C5681	C568	0.769270	0.955770	0.101270
C5691	C569	0.772100	0.984260	0.103120
C5701	C570	0.766440	0.017600	0.075660
C5711	C571	0.759060	0.021200	0.047620
C5721	C572	0.767510	0.049170	0.076810
C5731	C573	0.313700	0.206560	0.439420
C5741	C574	0.339560	0.201940	0.407400
C5751	C575	0.342480	0.232260	0.375960
C5761	C576	0.317740	0.265900	0.379140
C5771	C577	0.292270	0.267790	0.412810
C5781	C578	0.164020	0.538340	0.271220
C5791	C579	0.265340	0.425240	0.294020
C5801	C580	0.262150	0.393150	0.322050
C5811	C581	0.229070	0.393850	0.350690
C5821	C582	0.200990	0.426290	0.349150
C5831	C583	0.206640	0.457140	0.319940
C5841	C584	0.293910	0.359710	0.322490
C5851	C585	0.353290	0.331850	0.297350
C5861	C586	0.319760	0.300000	0.348700
C5871	C587	0.388580	0.333800	0.269440
C5881	C588	0.392480	0.365580	0.240420
C5891	C589	0.426490	0.365310	0.215830
C5901	C590	0.456050	0.333310	0.220730
C5911	C591	0.419640	0.303400	0.272080
C5921	C592	0.447160	0.202460	0.296260
C5931	C593	0.461520	0.261660	0.203820
C5941	C594	0.455770	0.269270	0.173690
C5951	C595	0.484260	0.272100	0.140520
C5961	C596	0.517600	0.266440	0.140300
C5971	C597	0.521200	0.259060	0.172120
C5981	C598	0.549170	0.267510	0.106510
C5991	C599	0.540320	0.439420	0.206560
C6001	C600	0.551100	0.407400	0.201940
C6011	C601	0.549300	0.375960	0.232260
C6021	C602	0.537220	0.379140	0.265900
C6031	C603	0.527130	0.412810	0.267790
C6041	C604	0.526420	0.271220	0.538340
C6051	C605	0.515400	0.294020	0.425240
C6061	C606	0.522650	0.322050	0.393150
C6071	C607	0.526390	0.350690	0.393850
C6081	C608	0.523570	0.349150	0.426290
C6091	C609	0.516280	0.319940	0.457140
C6101	C610	0.523890	0.322490	0.359710
C6111	C611	0.517510	0.297350	0.331850
C6121	C612	0.531540	0.348700	0.300000
C6131	C613	0.508180	0.269440	0.333800
C6141	C614	0.501520	0.240420	0.365580
C6151	C615	0.492370	0.215830	0.365310
C6161	C616	0.489910	0.220730	0.333310
C6171	C617	0.504880	0.272080	0.303400
C6181	C618	0.554120	0.296260	0.202460
C6191	C619	0.573000	0.203820	0.261660
C6201	C620	0.601270	0.173690	0.269270
C6211	C621	0.603120	0.140520	0.272100
C6221	C622	0.575660	0.140300	0.266440
C6231	C623	0.547620	0.172120	0.259060
C6241	C624	0.576810	0.106510	0.267510
C6251	C625	0.040320	0.313700	0.706560
C6261	C626	0.051100	0.339560	0.701940
C6271	C627	0.049300	0.342480	0.732260
C6281	C628	0.037220	0.317740	0.765900
C6291	C629	0.027130	0.292270	0.767790
C6301	C630	0.026420	0.164020	0.038340
C6311	C631	0.015400	0.265340	0.925240
C6321	C632	0.022650	0.262150	0.893150
C6331	C633	0.026390	0.229070	0.893850
C6341	C634	0.023570	0.200990	0.926290
C6351	C635	0.016280	0.206640	0.957140
C6361	C636	0.023890	0.293910	0.859710
C6371	C637	0.017510	0.353290	0.831850
C6381	C638	0.031540	0.319760	0.800000
C6391	C639	0.008180	0.388580	0.833800
C6401	C640	0.001520	0.392480	0.865580
C6411	C641	0.992370	0.426490	0.865310
C6421	C642	0.989910	0.456050	0.833310
C6431	C643	0.004880	0.419640	0.803400
C6441	C644	0.054120	0.447160	0.702460
C6451	C645	0.073000	0.461520	0.761660
C6461	C646	0.101270	0.455770	0.769270
C6471	C647	0.103120	0.484260	0.772100
C6481	C648	0.075660	0.517600	0.766440
C6491	C649	0.047620	0.521200	0.759060
C6501	C650	0.076810	0.549170	0.767510
C6511	C651	0.813700	0.540320	0.939420
C6521	C652	0.839560	0.551100	0.907400
C6531	C653	0.842480	0.549300	0.875960
C6541	C654	0.817740	0.537220	0.879140
C6551	C655	0.792270	0.527130	0.912810
C6561	C656	0.664020	0.526420	0.771220
C6571	C657	0.765340	0.515400	0.794020
C6581	C658	0.762150	0.522650	0.822050
C6591	C659	0.729070	0.526390	0.850690
C6601	C660	0.700990	0.523570	0.849150
C6611	C661	0.706640	0.516280	0.819940
C6621	C662	0.793910	0.523890	0.822490
C6631	C663	0.853290	0.517510	0.797350
C6641	C664	0.819760	0.531540	0.848700
C6651	C665	0.888580	0.508180	0.769440
C6661	C666	0.892480	0.501520	0.740420
C6671	C667	0.926490	0.492370	0.715830
C6681	C668	0.956050	0.489910	0.720730
C6691	C669	0.919640	0.504880	0.772080
C6701	C670	0.947160	0.554120	0.796260
C6711	C671	0.961520	0.573000	0.703820
C6721	C672	0.955770	0.601270	0.673690
C6731	C673	0.984260	0.603120	0.640520
C6741	C674	0.017600	0.575660	0.640300
C6751	C675	0.021200	0.547620	0.672120
C6761	C676	0.049170	0.576810	0.606510
C6771	C677	0.206560	0.939420	0.540320
C6781	C678	0.201940	0.907400	0.551100
C6791	C679	0.232260	0.875960	0.549300
C6801	C680	0.265900	0.879140	0.537220
C6811	C681	0.267790	0.912810	0.527130
C6821	C682	0.538340	0.771220	0.526420
C6831	C683	0.425240	0.794020	0.515400
C6841	C684	0.393150	0.822050	0.522650
C6851	C685	0.393850	0.850690	0.526390
C6861	C686	0.426290	0.849150	0.523570
C6871	C687	0.457140	0.819940	0.516280
C6881	C688	0.359710	0.822490	0.523890
C6891	C689	0.331850	0.797350	0.517510
C6901	C690	0.300000	0.848700	0.531540
C6911	C691	0.333800	0.769440	0.508180
C6921	C692	0.365580	0.740420	0.501520
C6931	C693	0.365310	0.715830	0.492370
C6941	C694	0.333310	0.720730	0.489910
C6951	C695	0.303400	0.772080	0.504880
C6961	C696	0.202460	0.796260	0.554120
C6971	C697	0.261660	0.703820	0.573000
C6981	C698	0.269270	0.673690	0.601270
C6991	C699	0.272100	0.640520	0.603120
C7001	C700	0.266440	0.640300	0.575660
C7011	C701	0.259060	0.672120	0.547620
C7021	C702	0.267510	0.606510	0.576810
C7031	C703	0.439420	0.706560	0.313700
C7041	C704	0.407400	0.701940	0.339560
C7051	C705	0.375960	0.732260	0.342480
C7061	C706	0.379140	0.765900	0.317740
C7071	C707	0.412810	0.767790	0.292270
C7081	C708	0.271220	0.038340	0.164020
C7091	C709	0.294020	0.925240	0.265340
C7101	C710	0.322050	0.893150	0.262150
C7111	C711	0.350690	0.893850	0.229070
C7121	C712	0.349150	0.926290	0.200990
C7131	C713	0.319940	0.957140	0.206640
C7141	C714	0.322490	0.859710	0.293910
C7151	C715	0.297350	0.831850	0.353290
C7161	C716	0.348700	0.800000	0.319760
C7171	C717	0.269440	0.833800	0.388580
C7181	C718	0.240420	0.865580	0.392480
C7191	C719	0.215830	0.865310	0.426490
C7201	C720	0.220730	0.833310	0.456050
C7211	C721	0.272080	0.803400	0.419640
C7221	C722	0.296260	0.702460	0.447160
C7231	C723	0.203820	0.761660	0.461520
C7241	C724	0.173690	0.769270	0.455770
C7251	C725	0.140520	0.772100	0.484260
C7261	C726	0.140300	0.766440	0.517600
C7271	C727	0.172120	0.759060	0.521200
C7281	C728	0.106510	0.767510	0.549170
C7291	C729	0.040320	0.706560	0.939420
C7301	C730	0.051100	0.701940	0.907400
C7311	C731	0.049300	0.732260	0.875960
C7321	C732	0.037220	0.765900	0.879140
C7331	C733	0.027130	0.767790	0.912810
C7341	C734	0.026420	0.038340	0.771220
C7351	C735	0.015400	0.925240	0.794020
C7361	C736	0.022650	0.893150	0.822050
C7371	C737	0.026390	0.893850	0.850690
C7381	C738	0.023570	0.926290	0.849150
C7391	C739	0.016280	0.957140	0.819940
C7401	C740	0.023890	0.859710	0.822490
C7411	C741	0.017510	0.831850	0.797350
C7421	C742	0.031540	0.800000	0.848700
C7431	C743	0.008180	0.833800	0.769440
C7441	C744	0.001520	0.865580	0.740420
C7451	C745	0.992370	0.865310	0.715830
C7461	C746	0.989910	0.833310	0.720730
C7471	C747	0.004880	0.803400	0.772080
C7481	C748	0.054120	0.702460	0.796260
C7491	C749	0.073000	0.761660	0.703820
C7501	C750	0.101270	0.769270	0.673690
C7511	C751	0.103120	0.772100	0.640520
C7521	C752	0.075660	0.766440	0.640300
C7531	C753	0.047620	0.759060	0.672120
C7541	C754	0.076810	0.767510	0.606510
C7551	C755	0.813700	0.939420	0.706560
C7561	C756	0.839560	0.907400	0.701940
C7571	C757	0.842480	0.875960	0.732260
C7581	C758	0.817740	0.879140	0.765900
C7591	C759	0.792270	0.912810	0.767790
C7601	C760	0.664020	0.771220	0.038340
C7611	C761	0.765340	0.794020	0.925240
C7621	C762	0.762150	0.822050	0.893150
C7631	C763	0.729070	0.850690	0.893850
C7641	C764	0.700990	0.849150	0.926290
C7651	C765	0.706640	0.819940	0.957140
C7661	C766	0.793910	0.822490	0.859710
C7671	C767	0.853290	0.797350	0.831850
C7681	C768	0.819760	0.848700	0.800000
C7691	C769	0.888580	0.769440	0.833800
C7701	C770	0.892480	0.740420	0.865580
C7711	C771	0.926490	0.715830	0.865310
C7721	C772	0.956050	0.720730	0.833310
C7731	C773	0.919640	0.772080	0.803400
C7741	C774	0.947160	0.796260	0.702460
C7751	C775	0.961520	0.703820	0.761660
C7761	C776	0.955770	0.673690	0.769270
C7771	C777	0.984260	0.640520	0.772100
C7781	C778	0.017600	0.640300	0.766440
C7791	C779	0.021200	0.672120	0.759060
C7801	C780	0.049170	0.606510	0.767510
C7811	C781	0.206560	0.540320	0.313700
C7821	C782	0.201940	0.551100	0.339560
C7831	C783	0.232260	0.549300	0.342480
C7841	C784	0.265900	0.537220	0.317740
C7851	C785	0.267790	0.527130	0.292270
C7861	C786	0.538340	0.526420	0.164020
C7871	C787	0.425240	0.515400	0.265340
C7881	C788	0.393150	0.522650	0.262150
C7891	C789	0.393850	0.526390	0.229070
C7901	C790	0.426290	0.523570	0.200990
C7911	C791	0.457140	0.516280	0.206640
C7921	C792	0.359710	0.523890	0.293910
C7931	C793	0.331850	0.517510	0.353290
C7941	C794	0.300000	0.531540	0.319760
C7951	C795	0.333800	0.508180	0.388580
C7961	C796	0.365580	0.501520	0.392480
C7971	C797	0.365310	0.492370	0.426490
C7981	C798	0.333310	0.489910	0.456050
C7991	C799	0.303400	0.504880	0.419640
C8001	C800	0.202460	0.554120	0.447160
C8011	C801	0.261660	0.573000	0.461520
C8021	C802	0.269270	0.601270	0.455770
C8031	C803	0.272100	0.603120	0.484260
C8041	C804	0.266440	0.575660	0.517600
C8051	C805	0.259060	0.547620	0.521200
C8061	C806	0.267510	0.576810	0.549170
C8071	C807	0.439420	0.313700	0.540320
C8081	C808	0.407400	0.339560	0.551100
C8091	C809	0.375960	0.342480	0.549300
C8101	C810	0.379140	0.317740	0.537220
C8111	C811	0.412810	0.292270	0.527130
C8121	C812	0.271220	0.164020	0.526420
C8131	C813	0.294020	0.265340	0.515400
C8141	C814	0.322050	0.262150	0.522650
C8151	C815	0.350690	0.229070	0.526390
C8161	C816	0.349150	0.200990	0.523570
C8171	C817	0.319940	0.206640	0.516280
C8181	C818	0.322490	0.293910	0.523890
C8191	C819	0.297350	0.353290	0.517510
C8201	C820	0.348700	0.319760	0.531540
C8211	C821	0.269440	0.388580	0.508180
C8221	C822	0.240420	0.392480	0.501520
C8231	C823	0.215830	0.426490	0.492370
C8241	C824	0.220730	0.456050	0.489910
C8251	C825	0.272080	0.419640	0.504880
C8261	C826	0.296260	0.447160	0.554120
C8271	C827	0.203820	0.461520	0.573000
C8281	C828	0.173690	0.455770	0.601270
C8291	C829	0.140520	0.484260	0.603120
C8301	C830	0.140300	0.517600	0.575660
C8311	C831	0.172120	0.521200	0.547620
C8321	C832	0.106510	0.549170	0.576810
C8331	C833	0.040320	0.939420	0.313700
C8341	C834	0.051100	0.907400	0.339560
C8351	C835	0.049300	0.875960	0.342480
C8361	C836	0.037220	0.879140	0.317740
C8371	C837	0.027130	0.912810	0.292270
C8381	C838	0.026420	0.771220	0.164020
C8391	C839	0.015400	0.794020	0.265340
C8401	C840	0.022650	0.822050	0.262150
C8411	C841	0.026390	0.850690	0.229070
C8421	C842	0.023570	0.849150	0.200990
C8431	C843	0.016280	0.819940	0.206640
C8441	C844	0.023890	0.822490	0.293910
C8451	C845	0.017510	0.797350	0.353290
C8461	C846	0.031540	0.848700	0.319760
C8471	C847	0.008180	0.769440	0.388580
C8481	C848	0.001520	0.740420	0.392480
C8491	C849	0.992370	0.715830	0.426490
C8501	C850	0.989910	0.720730	0.456050
C8511	C851	0.004880	0.772080	0.419640
C8521	C852	0.054120	0.796260	0.447160
C8531	C853	0.073000	0.703820	0.461520
C8541	C854	0.101270	0.673690	0.455770
C8551	C855	0.103120	0.640520	0.484260
C8561	C856	0.075660	0.640300	0.517600
C8571	C857	0.047620	0.672120	0.521200
C8581	C858	0.076810	0.606510	0.549170
C8591	C859	0.813700	0.706560	0.540320
C8601	C860	0.839560	0.701940	0.551100
C8611	C861	0.842480	0.732260	0.549300
C8621	C862	0.817740	0.765900	0.537220
C8631	C863	0.792270	0.767790	0.527130
C8641	C864	0.664020	0.038340	0.526420
C8651	C865	0.765340	0.925240	0.515400
C8661	C866	0.762150	0.893150	0.522650
C8671	C867	0.729070	0.893850	0.526390
C8681	C868	0.700990	0.926290	0.523570
C8691	C869	0.706640	0.957140	0.516280
C8701	C870	0.793910	0.859710	0.523890
C8711	C871	0.853290	0.831850	0.517510
C8721	C872	0.819760	0.800000	0.531540
C8731	C873	0.888580	0.833800	0.508180
C8741	C874	0.892480	0.865580	0.501520
C8751	C875	0.926490	0.865310	0.492370
C8761	C876	0.956050	0.833310	0.489910
C8771	C877	0.919640	0.803400	0.504880
C8781	C878	0.947160	0.702460	0.554120
C8791	C879	0.961520	0.761660	0.573000
C8801	C880	0.955770	0.769270	0.601270
C8811	C881	0.984260	0.772100	0.603120
C8821	C882	0.017600	0.766440	0.575660
C8831	C883	0.021200	0.759060	0.547620
C8841	C884	0.049170	0.767510	0.576810
C8851	C885	0.206560	0.313700	0.939420
C8861	C886	0.201940	0.339560	0.907400
C8871	C887	0.232260	0.342480	0.875960
C8881	C888	0.265900	0.317740	0.879140
C8891	C889	0.267790	0.292270	0.912810
C8901	C890	0.538340	0.164020	0.771220
C8911	C891	0.425240	0.265340	0.794020
C8921	C892	0.393150	0.262150	0.822050
C8931	C893	0.393850	0.229070	0.850690
C8941	C894	0.426290	0.200990	0.849150
C8951	C895	0.457140	0.206640	0.819940
C8961	C896	0.359710	0.293910	0.822490
C8971	C897	0.331850	0.353290	0.797350
C8981	C898	0.300000	0.319760	0.848700
C8991	C899	0.333800	0.388580	0.769440
C9001	C900	0.365580	0.392480	0.740420
C9011	C901	0.365310	0.426490	0.715830
C9021	C902	0.333310	0.456050	0.720730
C9031	C903	0.303400	0.419640	0.772080
C9041	C904	0.202460	0.447160	0.796260
C9051	C905	0.261660	0.461520	0.703820
C9061	C906	0.269270	0.455770	0.673690
C9071	C907	0.272100	0.484260	0.640520
C9081	C908	0.266440	0.517600	0.640300
C9091	C909	0.259060	0.521200	0.672120
C9101	C910	0.267510	0.549170	0.606510
C9111	C911	0.439420	0.540320	0.706560
C9121	C912	0.407400	0.551100	0.701940
C9131	C913	0.375960	0.549300	0.732260
C9141	C914	0.379140	0.537220	0.765900
C9151	C915	0.412810	0.527130	0.767790
C9161	C916	0.271220	0.526420	0.038340
C9171	C917	0.294020	0.515400	0.925240
C9181	C918	0.322050	0.522650	0.893150
C9191	C919	0.350690	0.526390	0.893850
C9201	C920	0.349150	0.523570	0.926290
C9211	C921	0.319940	0.516280	0.957140
C9221	C922	0.322490	0.523890	0.859710
C9231	C923	0.297350	0.517510	0.831850
C9241	C924	0.348700	0.531540	0.800000
C9251	C925	0.269440	0.508180	0.833800
C9261	C926	0.240420	0.501520	0.865580
C9271	C927	0.215830	0.492370	0.865310
C9281	C928	0.220730	0.489910	0.833310
C9291	C929	0.272080	0.504880	0.803400
C9301	C930	0.296260	0.554120	0.702460
C9311	C931	0.203820	0.573000	0.761660
C9321	C932	0.173690	0.601270	0.769270
C9331	C933	0.140520	0.603120	0.772100
C9341	C934	0.140300	0.575660	0.766440
C9351	C935	0.172120	0.547620	0.759060
C9361	C936	0.106510	0.576810	0.767510
C9371	C937	0.686300	0.959680	0.793440
C9381	C938	0.660440	0.948900	0.798060
C9391	C939	0.657520	0.950700	0.767740
C9401	C940	0.682260	0.962780	0.734100
C9411	C941	0.707730	0.972870	0.732210
C9421	C942	0.835980	0.973580	0.461660
C9431	C943	0.734660	0.984600	0.574760
C9441	C944	0.737850	0.977350	0.606850
C9451	C945	0.770930	0.973610	0.606150
C9461	C946	0.799010	0.976430	0.573710
C9471	C947	0.793360	0.983720	0.542860
C9481	C948	0.706090	0.976110	0.640290
C9491	C949	0.646710	0.982490	0.668150
C9501	C950	0.680240	0.968460	0.700000
C9511	C951	0.611420	0.991820	0.666200
C9521	C952	0.607520	0.998480	0.634420
C9531	C953	0.573510	0.007630	0.634690
C9541	C954	0.543950	0.010090	0.666690
C9551	C955	0.580360	0.995120	0.696600
C9561	C956	0.552840	0.945880	0.797540
C9571	C957	0.538480	0.927000	0.738340
C9581	C958	0.544230	0.898730	0.730730
C9591	C959	0.515740	0.896880	0.727900
C9601	C960	0.482400	0.924340	0.733560
C9611	C961	0.478800	0.952380	0.740940
C9621	C962	0.450830	0.923190	0.732490
C9631	C963	0.459680	0.186300	0.560580
C9641	C964	0.448900	0.160440	0.592600
C9651	C965	0.450700	0.157520	0.624040
C9661	C966	0.462780	0.182260	0.620860
C9671	C967	0.472870	0.207730	0.587190
C9681	C968	0.473580	0.335980	0.728780
C9691	C969	0.484600	0.234660	0.705980
C9701	C970	0.477350	0.237850	0.677950
C9711	C971	0.473610	0.270930	0.649310
C9721	C972	0.476430	0.299010	0.650850
C9731	C973	0.483720	0.293360	0.680060
C9741	C974	0.476110	0.206090	0.677510
C9751	C975	0.482490	0.146710	0.702650
C9761	C976	0.468460	0.180240	0.651300
C9771	C977	0.491820	0.111420	0.730560
C9781	C978	0.498480	0.107520	0.759580
C9791	C979	0.507630	0.073510	0.784170
C9801	C980	0.510090	0.043950	0.779270
C9811	C981	0.495120	0.080360	0.727920
C9821	C982	0.445880	0.052840	0.703740
C9831	C983	0.427000	0.038480	0.796180
C9841	C984	0.398730	0.044230	0.826310
C9851	C985	0.396880	0.015740	0.859480
C9861	C986	0.424340	0.982400	0.859700
C9871	C987	0.452380	0.978800	0.827880
C9881	C988	0.423190	0.950830	0.893490
C9891	C989	0.060580	0.793440	0.959680
C9901	C990	0.092600	0.798060	0.948900
C9911	C991	0.124040	0.767740	0.950700
C9921	C992	0.120860	0.734100	0.962780
C9931	C993	0.087190	0.732210	0.972870
C9941	C994	0.228780	0.461660	0.973580
C9951	C995	0.205980	0.574760	0.984600
C9961	C996	0.177950	0.606850	0.977350
C9971	C997	0.149310	0.606150	0.973610
C9981	C998	0.150850	0.573710	0.976430
C9991	C999	0.180060	0.542860	0.983720
C10001	C1000	0.177510	0.640290	0.976110
C10011	C1001	0.202650	0.668150	0.982490
C10021	C1002	0.151300	0.700000	0.968460
C10031	C1003	0.230560	0.666200	0.991820
C10041	C1004	0.259580	0.634420	0.998480
C10051	C1005	0.284170	0.634690	0.007630
C10061	C1006	0.279270	0.666690	0.010090
C10071	C1007	0.227920	0.696600	0.995120
C10081	C1008	0.203740	0.797540	0.945880
C10091	C1009	0.296180	0.738340	0.927000
C10101	C1010	0.326310	0.730730	0.898730
C10111	C1011	0.359480	0.727900	0.896880
C10121	C1012	0.359700	0.733560	0.924340
C10131	C1013	0.327880	0.740940	0.952380
C10141	C1014	0.393490	0.732490	0.923190
C10151	C1015	0.293440	0.560580	0.186300
C10161	C1016	0.298060	0.592600	0.160440
C10171	C1017	0.267740	0.624040	0.157520
C10181	C1018	0.234100	0.620860	0.182260
C10191	C1019	0.232210	0.587190	0.207730
C10201	C1020	0.961660	0.728780	0.335980
C10211	C1021	0.074760	0.705980	0.234660
C10221	C1022	0.106850	0.677950	0.237850
C10231	C1023	0.106150	0.649310	0.270930
C10241	C1024	0.073710	0.650850	0.299010
C10251	C1025	0.042860	0.680060	0.293360
C10261	C1026	0.140290	0.677510	0.206090
C10271	C1027	0.168150	0.702650	0.146710
C10281	C1028	0.200000	0.651300	0.180240
C10291	C1029	0.166200	0.730560	0.111420
C10301	C1030	0.134420	0.759580	0.107520
C10311	C1031	0.134690	0.784170	0.073510
C10321	C1032	0.166690	0.779270	0.043950
C10331	C1033	0.196600	0.727920	0.080360
C10341	C1034	0.297540	0.703740	0.052840
C10351	C1035	0.238340	0.796180	0.038480
C10361	C1036	0.230730	0.826310	0.044230
C10371	C1037	0.227900	0.859480	0.015740
C10381	C1038	0.233560	0.859700	0.982400
C10391	C1039	0.240940	0.827880	0.978800
C10401	C1040	0.232490	0.893490	0.950830
C10411	C1041	0.293440	0.959680	0.560580
C10421	C1042	0.298060	0.948900	0.592600
C10431	C1043	0.267740	0.950700	0.624040
C10441	C1044	0.234100	0.962780	0.620860
C10451	C1045	0.232210	0.972870	0.587190
C10461	C1046	0.961660	0.973580	0.728780
C10471	C1047	0.074760	0.984600	0.705980
C10481	C1048	0.106850	0.977350	0.677950
C10491	C1049	0.106150	0.973610	0.649310
C10501	C1050	0.073710	0.976430	0.650850
C10511	C1051	0.042860	0.983720	0.680060
C10521	C1052	0.140290	0.976110	0.677510
C10531	C1053	0.168150	0.982490	0.702650
C10541	C1054	0.200000	0.968460	0.651300
C10551	C1055	0.166200	0.991820	0.730560
C10561	C1056	0.134420	0.998480	0.759580
C10571	C1057	0.134690	0.007630	0.784170
C10581	C1058	0.166690	0.010090	0.779270
C10591	C1059	0.196600	0.995120	0.727920
C10601	C1060	0.297540	0.945880	0.703740
C10611	C1061	0.238340	0.927000	0.796180
C10621	C1062	0.230730	0.898730	0.826310
C10631	C1063	0.227900	0.896880	0.859480
C10641	C1064	0.233560	0.924340	0.859700
C10651	C1065	0.240940	0.952380	0.827880
C10661	C1066	0.232490	0.923190	0.893490
C10671	C1067	0.060580	0.186300	0.793440
C10681	C1068	0.092600	0.160440	0.798060
C10691	C1069	0.124040	0.157520	0.767740
C10701	C1070	0.120860	0.182260	0.734100
C10711	C1071	0.087190	0.207730	0.732210
C10721	C1072	0.228780	0.335980	0.461660
C10731	C1073	0.205980	0.234660	0.574760
C10741	C1074	0.177950	0.237850	0.606850
C10751	C1075	0.149310	0.270930	0.606150
C10761	C1076	0.150850	0.299010	0.573710
C10771	C1077	0.180060	0.293360	0.542860
C10781	C1078	0.177510	0.206090	0.640290
C10791	C1079	0.202650	0.146710	0.668150
C10801	C1080	0.151300	0.180240	0.700000
C10811	C1081	0.230560	0.111420	0.666200
C10821	C1082	0.259580	0.107520	0.634420
C10831	C1083	0.284170	0.073510	0.634690
C10841	C1084	0.279270	0.043950	0.666690
C10851	C1085	0.227920	0.080360	0.696600
C10861	C1086	0.203740	0.052840	0.797540
C10871	C1087	0.296180	0.038480	0.738340
C10881	C1088	0.326310	0.044230	0.730730
C10891	C1089	0.359480	0.015740	0.727900
C10901	C1090	0.359700	0.982400	0.733560
C10911	C1091	0.327880	0.978800	0.740940
C10921	C1092	0.393490	0.950830	0.732490
C10931	C1093	0.459680	0.793440	0.186300
C10941	C1094	0.448900	0.798060	0.160440
C10951	C1095	0.450700	0.767740	0.157520
C10961	C1096	0.462780	0.734100	0.182260
C10971	C1097	0.472870	0.732210	0.207730
C10981	C1098	0.473580	0.461660	0.335980
C10991	C1099	0.484600	0.574760	0.234660
C11001	C1100	0.477350	0.606850	0.237850
C11011	C1101	0.473610	0.606150	0.270930
C11021	C1102	0.476430	0.573710	0.299010
C11031	C1103	0.483720	0.542860	0.293360
C11041	C1104	0.476110	0.640290	0.206090
C11051	C1105	0.482490	0.668150	0.146710
C11061	C1106	0.468460	0.700000	0.180240
C11071	C1107	0.491820	0.666200	0.111420
C11081	C1108	0.498480	0.634420	0.107520
C11091	C1109	0.507630	0.634690	0.073510
C11101	C1110	0.510090	0.666690	0.043950
C11111	C1111	0.495120	0.696600	0.080360
C11121	C1112	0.445880	0.797540	0.052840
C11131	C1113	0.427000	0.738340	0.038480
C11141	C1114	0.398730	0.730730	0.044230
C11151	C1115	0.396880	0.727900	0.015740
C11161	C1116	0.424340	0.733560	0.982400
C11171	C1117	0.452380	0.740940	0.978800
C11181	C1118	0.423190	0.732490	0.950830
C11191	C1119	0.686300	0.560580	0.959680
C11201	C1120	0.660440	0.592600	0.948900
C11211	C1121	0.657520	0.624040	0.950700
C11221	C1122	0.682260	0.620860	0.962780
C11231	C1123	0.707730	0.587190	0.972870
C11241	C1124	0.835980	0.728780	0.973580
C11251	C1125	0.734660	0.705980	0.984600
C11261	C1126	0.737850	0.677950	0.977350
C11271	C1127	0.770930	0.649310	0.973610
C11281	C1128	0.799010	0.650850	0.976430
C11291	C1129	0.793360	0.680060	0.983720
C11301	C1130	0.706090	0.677510	0.976110
C11311	C1131	0.646710	0.702650	0.982490
C11321	C1132	0.680240	0.651300	0.968460
C11331	C1133	0.611420	0.730560	0.991820
C11341	C1134	0.607520	0.759580	0.998480
C11351	C1135	0.573510	0.784170	0.007630
C11361	C1136	0.543950	0.779270	0.010090
C11371	C1137	0.580360	0.727920	0.995120
C11381	C1138	0.552840	0.703740	0.945880
C11391	C1139	0.538480	0.796180	0.927000
C11401	C1140	0.544230	0.826310	0.898730
C11411	C1141	0.515740	0.859480	0.896880
C11421	C1142	0.482400	0.859700	0.924340
C11431	C1143	0.478800	0.827880	0.952380
C11441	C1144	0.450830	0.893490	0.923190
C11451	C1145	0.060580	0.959680	0.186300
C11461	C1146	0.092600	0.948900	0.160440
C11471	C1147	0.124040	0.950700	0.157520
C11481	C1148	0.120860	0.962780	0.182260
C11491	C1149	0.087190	0.972870	0.207730
C11501	C1150	0.228780	0.973580	0.335980
C11511	C1151	0.205980	0.984600	0.234660
C11521	C1152	0.177950	0.977350	0.237850
C11531	C1153	0.149310	0.973610	0.270930
C11541	C1154	0.150850	0.976430	0.299010
C11551	C1155	0.180060	0.983720	0.293360
C11561	C1156	0.177510	0.976110	0.206090
C11571	C1157	0.202650	0.982490	0.146710
C11581	C1158	0.151300	0.968460	0.180240
C11591	C1159	0.230560	0.991820	0.111420
C11601	C1160	0.259580	0.998480	0.107520
C11611	C1161	0.284170	0.007630	0.073510
C11621	C1162	0.279270	0.010090	0.043950
C11631	C1163	0.227920	0.995120	0.080360
C11641	C1164	0.203740	0.945880	0.052840
C11651	C1165	0.296180	0.927000	0.038480
C11661	C1166	0.326310	0.898730	0.044230
C11671	C1167	0.359480	0.896880	0.015740
C11681	C1168	0.359700	0.924340	0.982400
C11691	C1169	0.327880	0.952380	0.978800
C11701	C1170	0.393490	0.923190	0.950830
C11711	C1171	0.293440	0.186300	0.959680
C11721	C1172	0.298060	0.160440	0.948900
C11731	C1173	0.267740	0.157520	0.950700
C11741	C1174	0.234100	0.182260	0.962780
C11751	C1175	0.232210	0.207730	0.972870
C11761	C1176	0.961660	0.335980	0.973580
C11771	C1177	0.074760	0.234660	0.984600
C11781	C1178	0.106850	0.237850	0.977350
C11791	C1179	0.106150	0.270930	0.973610
C11801	C1180	0.073710	0.299010	0.976430
C11811	C1181	0.042860	0.293360	0.983720
C11821	C1182	0.140290	0.206090	0.976110
C11831	C1183	0.168150	0.146710	0.982490
C11841	C1184	0.200000	0.180240	0.968460
C11851	C1185	0.166200	0.111420	0.991820
C11861	C1186	0.134420	0.107520	0.998480
C11871	C1187	0.134690	0.073510	0.007630
C11881	C1188	0.166690	0.043950	0.010090
C11891	C1189	0.196600	0.080360	0.995120
C11901	C1190	0.297540	0.052840	0.945880
C11911	C1191	0.238340	0.038480	0.927000
C11921	C1192	0.230730	0.044230	0.898730
C11931	C1193	0.227900	0.015740	0.896880
C11941	C1194	0.233560	0.982400	0.924340
C11951	C1195	0.240940	0.978800	0.952380
C11961	C1196	0.232490	0.950830	0.923190
C11971	C1197	0.686300	0.793440	0.560580
C11981	C1198	0.660440	0.798060	0.592600
C11991	C1199	0.657520	0.767740	0.624040
C12001	C1200	0.682260	0.734100	0.620860
C12011	C1201	0.707730	0.732210	0.587190
C12021	C1202	0.835980	0.461660	0.728780
C12031	C1203	0.734660	0.574760	0.705980
C12041	C1204	0.737850	0.606850	0.677950
C12051	C1205	0.770930	0.606150	0.649310
C12061	C1206	0.799010	0.573710	0.650850
C12071	C1207	0.793360	0.542860	0.680060
C12081	C1208	0.706090	0.640290	0.677510
C12091	C1209	0.646710	0.668150	0.702650
C12101	C1210	0.680240	0.700000	0.651300
C12111	C1211	0.611420	0.666200	0.730560
C12121	C1212	0.607520	0.634420	0.759580
C12131	C1213	0.573510	0.634690	0.784170
C12141	C1214	0.543950	0.666690	0.779270
C12151	C1215	0.580360	0.696600	0.727920
C12161	C1216	0.552840	0.797540	0.703740
C12171	C1217	0.538480	0.738340	0.796180
C12181	C1218	0.544230	0.730730	0.826310
C12191	C1219	0.515740	0.727900	0.859480
C12201	C1220	0.482400	0.733560	0.859700
C12211	C1221	0.478800	0.740940	0.827880
C12221	C1222	0.450830	0.732490	0.893490
C12231	C1223	0.459680	0.560580	0.793440
C12241	C1224	0.448900	0.592600	0.798060
C12251	C1225	0.450700	0.624040	0.767740
C12261	C1226	0.462780	0.620860	0.734100
C12271	C1227	0.472870	0.587190	0.732210
C12281	C1228	0.473580	0.728780	0.461660
C12291	C1229	0.484600	0.705980	0.574760
C12301	C1230	0.477350	0.677950	0.606850
C12311	C1231	0.473610	0.649310	0.606150
C12321	C1232	0.476430	0.650850	0.573710
C12331	C1233	0.483720	0.680060	0.542860
C12341	C1234	0.476110	0.677510	0.640290
C12351	C1235	0.482490	0.702650	0.668150
C12361	C1236	0.468460	0.651300	0.700000
C12371	C1237	0.491820	0.730560	0.666200
C12381	C1238	0.498480	0.759580	0.634420
C12391	C1239	0.507630	0.784170	0.634690
C12401	C1240	0.510090	0.779270	0.666690
C12411	C1241	0.495120	0.727920	0.696600
C12421	C1242	0.445880	0.703740	0.797540
C12431	C1243	0.427000	0.796180	0.738340
C12441	C1244	0.398730	0.826310	0.730730
C12451	C1245	0.396880	0.859480	0.727900
C12461	C1246	0.424340	0.859700	0.733560
C12471	C1247	0.452380	0.827880	0.740940
C12481	C1248	0.423190	0.893490	0.732490
S11	S1	0.965330	0.878610	0.951000
S21	S2	0.916230	0.577230	0.323310
S31	S3	0.378600	0.465340	0.205060
S41	S4	0.077230	0.416230	0.183230
S51	S5	0.450990	0.205060	0.465340
S61	S6	0.823310	0.183230	0.416230
S71	S7	0.705050	0.951000	0.878610
S81	S8	0.683230	0.323310	0.577230
S91	S9	0.965330	0.951000	0.205060
S101	S10	0.916230	0.323310	0.183230
S111	S11	0.378600	0.205060	0.951000
S121	S12	0.077230	0.183230	0.323310
S131	S13	0.450990	0.465340	0.878610
S141	S14	0.823310	0.416230	0.577230
S151	S15	0.705050	0.878610	0.465340
S161	S16	0.683230	0.577230	0.416230
S171	S17	0.965330	0.205060	0.878610
S181	S18	0.916230	0.183230	0.577230
S191	S19	0.378600	0.951000	0.465340
S201	S20	0.077230	0.323310	0.416230
S211	S21	0.450990	0.878610	0.205060
S221	S22	0.823310	0.577230	0.183230
S231	S23	0.705050	0.465340	0.951000
S241	S24	0.683230	0.416230	0.323310
S251	S25	0.121400	0.034660	0.549000
S261	S26	0.422770	0.083770	0.176690
S271	S27	0.534670	0.621390	0.294940
S281	S28	0.583770	0.922770	0.316770
S291	S29	0.794950	0.549000	0.034660
S301	S30	0.816770	0.176690	0.083770
S311	S31	0.049010	0.294940	0.621390
S321	S32	0.676690	0.316770	0.922770
S331	S33	0.049010	0.034660	0.294940
S341	S34	0.676690	0.083770	0.316770
S351	S35	0.794950	0.621390	0.549000
S361	S36	0.816770	0.922770	0.176690
S371	S37	0.534670	0.549000	0.621390
S381	S38	0.583770	0.176690	0.922770
S391	S39	0.121400	0.294940	0.034660
S401	S40	0.422770	0.316770	0.083770
S411	S41	0.794950	0.034660	0.621390
S421	S42	0.816770	0.083770	0.922770
S431	S43	0.049010	0.621390	0.034660
S441	S44	0.676690	0.922770	0.083770
S451	S45	0.121400	0.549000	0.294940
S461	S46	0.422770	0.176690	0.316770
S471	S47	0.534670	0.294940	0.549000
S481	S48	0.583770	0.316770	0.176690
S491	S49	0.034670	0.121390	0.049000
S501	S50	0.083770	0.422770	0.676690
S511	S51	0.621400	0.534660	0.794940
S521	S52	0.922770	0.583770	0.816770
S531	S53	0.549010	0.794940	0.534660
S541	S54	0.176690	0.816770	0.583770
S551	S55	0.294950	0.049000	0.121390
S561	S56	0.316770	0.676690	0.422770
S571	S57	0.034670	0.049000	0.794940
S581	S58	0.083770	0.676690	0.816770
S591	S59	0.621400	0.794940	0.049000
S601	S60	0.922770	0.816770	0.676690
S611	S61	0.549010	0.534660	0.121390
S621	S62	0.176690	0.583770	0.422770
S631	S63	0.294950	0.121390	0.534660
S641	S64	0.316770	0.422770	0.583770
S651	S65	0.034670	0.794940	0.121390
S661	S66	0.083770	0.816770	0.422770
S671	S67	0.621400	0.049000	0.534660
S681	S68	0.922770	0.676690	0.583770
S691	S69	0.549010	0.121390	0.794940
S701	S70	0.176690	0.422770	0.816770
S711	S71	0.294950	0.534660	0.049000
S721	S72	0.316770	0.583770	0.676690
S731	S73	0.878600	0.965340	0.451000
S741	S74	0.577230	0.916230	0.823310
S751	S75	0.465330	0.378610	0.705060
S761	S76	0.416230	0.077230	0.683230
S771	S77	0.205050	0.451000	0.965340
S781	S78	0.183230	0.823310	0.916230
S791	S79	0.950990	0.705060	0.378610
S801	S80	0.323310	0.683230	0.077230
S811	S81	0.950990	0.965340	0.705060
S821	S82	0.323310	0.916230	0.683230
S831	S83	0.205050	0.378610	0.451000
S841	S84	0.183230	0.077230	0.823310
S851	S85	0.465330	0.451000	0.378610
S861	S86	0.416230	0.823310	0.077230
S871	S87	0.878600	0.705060	0.965340
S881	S88	0.577230	0.683230	0.916230
S891	S89	0.205050	0.965340	0.378610
S901	S90	0.183230	0.916230	0.077230
S911	S91	0.950990	0.378610	0.965340
S921	S92	0.323310	0.077230	0.916230
S931	S93	0.878600	0.451000	0.705060
S941	S94	0.577230	0.823310	0.683230
S951	S95	0.465330	0.705060	0.451000
S961	S96	0.416230	0.683230	0.823310
N11	N1	0.981030	0.804690	0.969850
N21	N2	0.972100	0.709600	0.261140
N31	N3	0.988040	0.762060	0.042900
N41	N4	0.969020	0.710040	0.170720
N51	N5	0.974580	0.647740	0.200380
N61	N6	0.983160	0.674980	0.137240
N71	N7	0.003920	0.547320	0.197240
N81	N8	0.966980	0.535500	0.279380
N91	N9	0.954270	0.506230	0.243550
N101	N10	0.892810	0.453570	0.232330
N111	N11	0.304690	0.481030	0.244430
N121	N12	0.209600	0.472100	0.057160
N131	N13	0.262060	0.488040	0.207000
N141	N14	0.210040	0.469020	0.150220
N151	N15	0.147740	0.474580	0.177300
N161	N16	0.174980	0.483160	0.204620
N171	N17	0.047320	0.503920	0.251520
N181	N18	0.035500	0.466980	0.218140
N191	N19	0.006230	0.454270	0.295950
N201	N20	0.953570	0.392810	0.421290
N211	N21	0.469850	0.244430	0.481030
N221	N22	0.761140	0.057160	0.472100
N231	N23	0.542900	0.207000	0.488040
N241	N24	0.670720	0.150220	0.469020
N251	N25	0.700380	0.177300	0.474580
N261	N26	0.637240	0.204620	0.483160
N271	N27	0.697240	0.251520	0.503920
N281	N28	0.779380	0.218140	0.466980
N291	N29	0.743550	0.295950	0.454270
N301	N30	0.732330	0.421290	0.392810
N311	N31	0.744430	0.969850	0.804690
N321	N32	0.557160	0.261140	0.709600
N331	N33	0.707000	0.042900	0.762060
N341	N34	0.650220	0.170720	0.710040
N351	N35	0.677300	0.200380	0.647740
N361	N36	0.704620	0.137240	0.674980
N371	N37	0.751520	0.197240	0.547320
N381	N38	0.718140	0.279380	0.535500
N391	N39	0.795950	0.243550	0.506230
N401	N40	0.921290	0.232330	0.453570
N411	N41	0.981030	0.969850	0.244430
N421	N42	0.972100	0.261140	0.057160
N431	N43	0.988040	0.042900	0.207000
N441	N44	0.969020	0.170720	0.150220
N451	N45	0.974580	0.200380	0.177300
N461	N46	0.983160	0.137240	0.204620
N471	N47	0.003920	0.197240	0.251520
N481	N48	0.966980	0.279380	0.218140
N491	N49	0.954270	0.243550	0.295950
N501	N50	0.892810	0.232330	0.421290
N511	N51	0.304690	0.244430	0.969850
N521	N52	0.209600	0.057160	0.261140
N531	N53	0.262060	0.207000	0.042900
N541	N54	0.210040	0.150220	0.170720
N551	N55	0.147740	0.177300	0.200380
N561	N56	0.174980	0.204620	0.137240
N571	N57	0.047320	0.251520	0.197240
N581	N58	0.035500	0.218140	0.279380
N591	N59	0.006230	0.295950	0.243550
N601	N60	0.953570	0.421290	0.232330
N611	N61	0.469850	0.481030	0.804690
N621	N62	0.761140	0.472100	0.709600
N631	N63	0.542900	0.488040	0.762060
N641	N64	0.670720	0.469020	0.710040
N651	N65	0.700380	0.474580	0.647740
N661	N66	0.637240	0.483160	0.674980
N671	N67	0.697240	0.503920	0.547320
N681	N68	0.779380	0.466980	0.535500
N691	N69	0.743550	0.454270	0.506230
N701	N70	0.732330	0.392810	0.453570
N711	N71	0.744430	0.804690	0.481030
N721	N72	0.557160	0.709600	0.472100
N731	N73	0.707000	0.762060	0.488040
N741	N74	0.650220	0.710040	0.469020
N751	N75	0.677300	0.647740	0.474580
N761	N76	0.704620	0.674980	0.483160
N771	N77	0.751520	0.547320	0.503920
N781	N78	0.718140	0.535500	0.466980
N791	N79	0.795950	0.506230	0.454270
N801	N80	0.921290	0.453570	0.392810
N811	N81	0.981030	0.244430	0.804690
N821	N82	0.972100	0.057160	0.709600
N831	N83	0.988040	0.207000	0.762060
N841	N84	0.969020	0.150220	0.710040
N851	N85	0.974580	0.177300	0.647740
N861	N86	0.983160	0.204620	0.674980
N871	N87	0.003920	0.251520	0.547320
N881	N88	0.966980	0.218140	0.535500
N891	N89	0.954270	0.295950	0.506230
N901	N90	0.892810	0.421290	0.453570
N911	N91	0.304690	0.969850	0.481030
N921	N92	0.209600	0.261140	0.472100
N931	N93	0.262060	0.042900	0.488040
N941	N94	0.210040	0.170720	0.469020
N951	N95	0.147740	0.200380	0.474580
N961	N96	0.174980	0.137240	0.483160
N971	N97	0.047320	0.197240	0.503920
N981	N98	0.035500	0.279380	0.466980
N991	N99	0.006230	0.243550	0.454270
N1001	N100	0.953570	0.232330	0.392810
N1011	N101	0.469850	0.804690	0.244430
N1021	N102	0.761140	0.709600	0.057160
N1031	N103	0.542900	0.762060	0.207000
N1041	N104	0.670720	0.710040	0.150220
N1051	N105	0.700380	0.647740	0.177300
N1061	N106	0.637240	0.674980	0.204620
N1071	N107	0.697240	0.547320	0.251520
N1081	N108	0.779380	0.535500	0.218140
N1091	N109	0.743550	0.506230	0.295950
N1101	N110	0.732330	0.453570	0.421290
N1111	N111	0.744430	0.481030	0.969850
N1121	N112	0.557160	0.472100	0.261140
N1131	N113	0.707000	0.488040	0.042900
N1141	N114	0.650220	0.469020	0.170720
N1151	N115	0.677300	0.474580	0.200380
N1161	N116	0.704620	0.483160	0.137240
N1171	N117	0.751520	0.503920	0.197240
N1181	N118	0.718140	0.466980	0.279380
N1191	N119	0.795950	0.454270	0.243550
N1201	N120	0.921290	0.392810	0.232330
N1211	N121	0.195310	0.018970	0.530150
N1221	N122	0.290400	0.027900	0.238860
N1231	N123	0.237940	0.011960	0.457100
N1241	N124	0.289960	0.030980	0.329280
N1251	N125	0.352260	0.025420	0.299620
N1261	N126	0.325020	0.016840	0.362760
N1271	N127	0.452680	0.996080	0.302760
N1281	N128	0.464500	0.033020	0.220620
N1291	N129	0.493770	0.045730	0.256450
N1301	N130	0.546430	0.107190	0.267670
N1311	N131	0.518970	0.695310	0.255570
N1321	N132	0.527900	0.790400	0.442840
N1331	N133	0.511960	0.737940	0.293000
N1341	N134	0.530980	0.789960	0.349780
N1351	N135	0.525420	0.852260	0.322700
N1361	N136	0.516840	0.825020	0.295380
N1371	N137	0.496080	0.952680	0.248480
N1381	N138	0.533020	0.964500	0.281860
N1391	N139	0.545730	0.993770	0.204050
N1401	N140	0.607190	0.046430	0.078710
N1411	N141	0.755570	0.530150	0.018970
N1421	N142	0.942840	0.238860	0.027900
N1431	N143	0.793000	0.457100	0.011960
N1441	N144	0.849780	0.329280	0.030980
N1451	N145	0.822700	0.299620	0.025420
N1461	N146	0.795380	0.362760	0.016840
N1471	N147	0.748480	0.302760	0.996080
N1481	N148	0.781860	0.220620	0.033020
N1491	N149	0.704050	0.256450	0.045730
N1501	N150	0.578710	0.267670	0.107190
N1511	N151	0.030150	0.255570	0.695310
N1521	N152	0.738860	0.442840	0.790400
N1531	N153	0.957100	0.293000	0.737940
N1541	N154	0.829280	0.349780	0.789960
N1551	N155	0.799620	0.322700	0.852260
N1561	N156	0.862760	0.295380	0.825020
N1571	N157	0.802760	0.248480	0.952680
N1581	N158	0.720620	0.281860	0.964500
N1591	N159	0.756450	0.204050	0.993770
N1601	N160	0.767670	0.078710	0.046430
N1611	N161	0.030150	0.018970	0.255570
N1621	N162	0.738860	0.027900	0.442840
N1631	N163	0.957100	0.011960	0.293000
N1641	N164	0.829280	0.030980	0.349780
N1651	N165	0.799620	0.025420	0.322700
N1661	N166	0.862760	0.016840	0.295380
N1671	N167	0.802760	0.996080	0.248480
N1681	N168	0.720620	0.033020	0.281860
N1691	N169	0.756450	0.045730	0.204050
N1701	N170	0.767670	0.107190	0.078710
N1711	N171	0.755570	0.695310	0.530150
N1721	N172	0.942840	0.790400	0.238860
N1731	N173	0.793000	0.737940	0.457100
N1741	N174	0.849780	0.789960	0.329280
N1751	N175	0.822700	0.852260	0.299620
N1761	N176	0.795380	0.825020	0.362760
N1771	N177	0.748480	0.952680	0.302760
N1781	N178	0.781860	0.964500	0.220620
N1791	N179	0.704050	0.993770	0.256450
N1801	N180	0.578710	0.046430	0.267670
N1811	N181	0.518970	0.530150	0.695310
N1821	N182	0.527900	0.238860	0.790400
N1831	N183	0.511960	0.457100	0.737940
N1841	N184	0.530980	0.329280	0.789960
N1851	N185	0.525420	0.299620	0.852260
N1861	N186	0.516840	0.362760	0.825020
N1871	N187	0.496080	0.302760	0.952680
N1881	N188	0.533020	0.220620	0.964500
N1891	N189	0.545730	0.256450	0.993770
N1901	N190	0.607190	0.267670	0.046430
N1911	N191	0.195310	0.255570	0.018970
N1921	N192	0.290400	0.442840	0.027900
N1931	N193	0.237940	0.293000	0.011960
N1941	N194	0.289960	0.349780	0.030980
N1951	N195	0.352260	0.322700	0.025420
N1961	N196	0.325020	0.295380	0.016840
N1971	N197	0.452680	0.248480	0.996080
N1981	N198	0.464500	0.281860	0.033020
N1991	N199	0.493770	0.204050	0.045730
N2001	N200	0.546430	0.078710	0.107190
N2011	N201	0.755570	0.018970	0.695310
N2021	N202	0.942840	0.027900	0.790400
N2031	N203	0.793000	0.011960	0.737940
N2041	N204	0.849780	0.030980	0.789960
N2051	N205	0.822700	0.025420	0.852260
N2061	N206	0.795380	0.016840	0.825020
N2071	N207	0.748480	0.996080	0.952680
N2081	N208	0.781860	0.033020	0.964500
N2091	N209	0.704050	0.045730	0.993770
N2101	N210	0.578710	0.107190	0.046430
N2111	N211	0.030150	0.695310	0.018970
N2121	N212	0.738860	0.790400	0.027900
N2131	N213	0.957100	0.737940	0.011960
N2141	N214	0.829280	0.789960	0.030980
N2151	N215	0.799620	0.852260	0.025420
N2161	N216	0.862760	0.825020	0.016840
N2171	N217	0.802760	0.952680	0.996080
N2181	N218	0.720620	0.964500	0.033020
N2191	N219	0.756450	0.993770	0.045730
N2201	N220	0.767670	0.046430	0.107190
N2211	N221	0.195310	0.530150	0.255570
N2221	N222	0.290400	0.238860	0.442840
N2231	N223	0.237940	0.457100	0.293000
N2241	N224	0.289960	0.329280	0.349780
N2251	N225	0.352260	0.299620	0.322700
N2261	N226	0.325020	0.362760	0.295380
N2271	N227	0.452680	0.302760	0.248480
N2281	N228	0.464500	0.220620	0.281860
N2291	N229	0.493770	0.256450	0.204050
N2301	N230	0.546430	0.267670	0.078710
N2311	N231	0.518970	0.255570	0.530150
N2321	N232	0.527900	0.442840	0.238860
N2331	N233	0.511960	0.293000	0.457100
N2341	N234	0.530980	0.349780	0.329280
N2351	N235	0.525420	0.322700	0.299620
N2361	N236	0.516840	0.295380	0.362760
N2371	N237	0.496080	0.248480	0.302760
N2381	N238	0.533020	0.281860	0.220620
N2391	N239	0.545730	0.204050	0.256450
N2401	N240	0.607190	0.078710	0.267670
N2411	N241	0.018970	0.195310	0.030150
N2421	N242	0.027900	0.290400	0.738860
N2431	N243	0.011960	0.237940	0.957100
N2441	N244	0.030980	0.289960	0.829280
N2451	N245	0.025420	0.352260	0.799620
N2461	N246	0.016840	0.325020	0.862760
N2471	N247	0.996080	0.452680	0.802760
N2481	N248	0.033020	0.464500	0.720620
N2491	N249	0.045730	0.493770	0.756450
N2501	N250	0.107190	0.546430	0.767670
N2511	N251	0.695310	0.518970	0.755570
N2521	N252	0.790400	0.527900	0.942840
N2531	N253	0.737940	0.511960	0.793000
N2541	N254	0.789960	0.530980	0.849780
N2551	N255	0.852260	0.525420	0.822700
N2561	N256	0.825020	0.516840	0.795380
N2571	N257	0.952680	0.496080	0.748480
N2581	N258	0.964500	0.533020	0.781860
N2591	N259	0.993770	0.545730	0.704050
N2601	N260	0.046430	0.607190	0.578710
N2611	N261	0.530150	0.755570	0.518970
N2621	N262	0.238860	0.942840	0.527900
N2631	N263	0.457100	0.793000	0.511960
N2641	N264	0.329280	0.849780	0.530980
N2651	N265	0.299620	0.822700	0.525420
N2661	N266	0.362760	0.795380	0.516840
N2671	N267	0.302760	0.748480	0.496080
N2681	N268	0.220620	0.781860	0.533020
N2691	N269	0.256450	0.704050	0.545730
N2701	N270	0.267670	0.578710	0.607190
N2711	N271	0.255570	0.030150	0.195310
N2721	N272	0.442840	0.738860	0.290400
N2731	N273	0.293000	0.957100	0.237940
N2741	N274	0.349780	0.829280	0.289960
N2751	N275	0.322700	0.799620	0.352260
N2761	N276	0.295380	0.862760	0.325020
N2771	N277	0.248480	0.802760	0.452680
N2781	N278	0.281860	0.720620	0.464500
N2791	N279	0.204050	0.756450	0.493770
N2801	N280	0.078710	0.767670	0.546430
N2811	N281	0.018970	0.030150	0.755570
N2821	N282	0.027900	0.738860	0.942840
N2831	N283	0.011960	0.957100	0.793000
N2841	N284	0.030980	0.829280	0.849780
N2851	N285	0.025420	0.799620	0.822700
N2861	N286	0.016840	0.862760	0.795380
N2871	N287	0.996080	0.802760	0.748480
N2881	N288	0.033020	0.720620	0.781860
N2891	N289	0.045730	0.756450	0.704050
N2901	N290	0.107190	0.767670	0.578710
N2911	N291	0.695310	0.755570	0.030150
N2921	N292	0.790400	0.942840	0.738860
N2931	N293	0.737940	0.793000	0.957100
N2941	N294	0.789960	0.849780	0.829280
N2951	N295	0.852260	0.822700	0.799620
N2961	N296	0.825020	0.795380	0.862760
N2971	N297	0.952680	0.748480	0.802760
N2981	N298	0.964500	0.781860	0.720620
N2991	N299	0.993770	0.704050	0.756450
N3001	N300	0.046430	0.578710	0.767670
N3011	N301	0.530150	0.518970	0.195310
N3021	N302	0.238860	0.527900	0.290400
N3031	N303	0.457100	0.511960	0.237940
N3041	N304	0.329280	0.530980	0.289960
N3051	N305	0.299620	0.525420	0.352260
N3061	N306	0.362760	0.516840	0.325020
N3071	N307	0.302760	0.496080	0.452680
N3081	N308	0.220620	0.533020	0.464500
N3091	N309	0.256450	0.545730	0.493770
N3101	N310	0.267670	0.607190	0.546430
N3111	N311	0.255570	0.195310	0.518970
N3121	N312	0.442840	0.290400	0.527900
N3131	N313	0.293000	0.237940	0.511960
N3141	N314	0.349780	0.289960	0.530980
N3151	N315	0.322700	0.352260	0.525420
N3161	N316	0.295380	0.325020	0.516840
N3171	N317	0.248480	0.452680	0.496080
N3181	N318	0.281860	0.464500	0.533020
N3191	N319	0.204050	0.493770	0.545730
N3201	N320	0.078710	0.546430	0.607190
N3211	N321	0.018970	0.755570	0.195310
N3221	N322	0.027900	0.942840	0.290400
N3231	N323	0.011960	0.793000	0.237940
N3241	N324	0.030980	0.849780	0.289960
N3251	N325	0.025420	0.822700	0.352260
N3261	N326	0.016840	0.795380	0.325020
N3271	N327	0.996080	0.748480	0.452680
N3281	N328	0.033020	0.781860	0.464500
N3291	N329	0.045730	0.704050	0.493770
N3301	N330	0.107190	0.578710	0.546430
N3311	N331	0.695310	0.030150	0.518970
N3321	N332	0.790400	0.738860	0.527900
N3331	N333	0.737940	0.957100	0.511960
N3341	N334	0.789960	0.829280	0.530980
N3351	N335	0.852260	0.799620	0.525420
N3361	N336	0.825020	0.862760	0.516840
N3371	N337	0.952680	0.802760	0.496080
N3381	N338	0.964500	0.720620	0.533020
N3391	N339	0.993770	0.756450	0.545730
N3401	N340	0.046430	0.767670	0.607190
N3411	N341	0.530150	0.195310	0.755570
N3421	N342	0.238860	0.290400	0.942840
N3431	N343	0.457100	0.237940	0.793000
N3441	N344	0.329280	0.289960	0.849780
N3451	N345	0.299620	0.352260	0.822700
N3461	N346	0.362760	0.325020	0.795380
N3471	N347	0.302760	0.452680	0.748480
N3481	N348	0.220620	0.464500	0.781860
N3491	N349	0.256450	0.493770	0.704050
N3501	N350	0.267670	0.546430	0.578710
N3511	N351	0.255570	0.518970	0.030150
N3521	N352	0.442840	0.527900	0.738860
N3531	N353	0.293000	0.511960	0.957100
N3541	N354	0.349780	0.530980	0.829280
N3551	N355	0.322700	0.525420	0.799620
N3561	N356	0.295380	0.516840	0.862760
N3571	N357	0.248480	0.496080	0.802760
N3581	N358	0.281860	0.533020	0.720620
N3591	N359	0.204050	0.545730	0.756450
N3601	N360	0.078710	0.607190	0.767670
N3611	N361	0.804690	0.981030	0.469850
N3621	N362	0.709600	0.972100	0.761140
N3631	N363	0.762060	0.988040	0.542900
N3641	N364	0.710040	0.969020	0.670720
N3651	N365	0.647740	0.974580	0.700380
N3661	N366	0.674980	0.983160	0.637240
N3671	N367	0.547320	0.003920	0.697240
N3681	N368	0.535500	0.966980	0.779380
N3691	N369	0.506230	0.954270	0.743550
N3701	N370	0.453570	0.892810	0.732330
N3711	N371	0.481030	0.304690	0.744430
N3721	N372	0.472100	0.209600	0.557160
N3731	N373	0.488040	0.262060	0.707000
N3741	N374	0.469020	0.210040	0.650220
N3751	N375	0.474580	0.147740	0.677300
N3761	N376	0.483160	0.174980	0.704620
N3771	N377	0.503920	0.047320	0.751520
N3781	N378	0.466980	0.035500	0.718140
N3791	N379	0.454270	0.006230	0.795950
N3801	N380	0.392810	0.953570	0.921290
N3811	N381	0.244430	0.469850	0.981030
N3821	N382	0.057160	0.761140	0.972100
N3831	N383	0.207000	0.542900	0.988040
N3841	N384	0.150220	0.670720	0.969020
N3851	N385	0.177300	0.700380	0.974580
N3861	N386	0.204620	0.637240	0.983160
N3871	N387	0.251520	0.697240	0.003920
N3881	N388	0.218140	0.779380	0.966980
N3891	N389	0.295950	0.743550	0.954270
N3901	N390	0.421290	0.732330	0.892810
N3911	N391	0.969850	0.744430	0.304690
N3921	N392	0.261140	0.557160	0.209600
N3931	N393	0.042900	0.707000	0.262060
N3941	N394	0.170720	0.650220	0.210040
N3951	N395	0.200380	0.677300	0.147740
N3961	N396	0.137240	0.704620	0.174980
N3971	N397	0.197240	0.751520	0.047320
N3981	N398	0.279380	0.718140	0.035500
N3991	N399	0.243550	0.795950	0.006230
N4001	N400	0.232330	0.921290	0.953570
N4011	N401	0.969850	0.981030	0.744430
N4021	N402	0.261140	0.972100	0.557160
N4031	N403	0.042900	0.988040	0.707000
N4041	N404	0.170720	0.969020	0.650220
N4051	N405	0.200380	0.974580	0.677300
N4061	N406	0.137240	0.983160	0.704620
N4071	N407	0.197240	0.003920	0.751520
N4081	N408	0.279380	0.966980	0.718140
N4091	N409	0.243550	0.954270	0.795950
N4101	N410	0.232330	0.892810	0.921290
N4111	N411	0.244430	0.304690	0.469850
N4121	N412	0.057160	0.209600	0.761140
N4131	N413	0.207000	0.262060	0.542900
N4141	N414	0.150220	0.210040	0.670720
N4151	N415	0.177300	0.147740	0.700380
N4161	N416	0.204620	0.174980	0.637240
N4171	N417	0.251520	0.047320	0.697240
N4181	N418	0.218140	0.035500	0.779380
N4191	N419	0.295950	0.006230	0.743550
N4201	N420	0.421290	0.953570	0.732330
N4211	N421	0.481030	0.469850	0.304690
N4221	N422	0.472100	0.761140	0.209600
N4231	N423	0.488040	0.542900	0.262060
N4241	N424	0.469020	0.670720	0.210040
N4251	N425	0.474580	0.700380	0.147740
N4261	N426	0.483160	0.637240	0.174980
N4271	N427	0.503920	0.697240	0.047320
N4281	N428	0.466980	0.779380	0.035500
N4291	N429	0.454270	0.743550	0.006230
N4301	N430	0.392810	0.732330	0.953570
N4311	N431	0.804690	0.744430	0.981030
N4321	N432	0.709600	0.557160	0.972100
N4331	N433	0.762060	0.707000	0.988040
N4341	N434	0.710040	0.650220	0.969020
N4351	N435	0.647740	0.677300	0.974580
N4361	N436	0.674980	0.704620	0.983160
N4371	N437	0.547320	0.751520	0.003920
N4381	N438	0.535500	0.718140	0.966980
N4391	N439	0.506230	0.795950	0.954270
N4401	N440	0.453570	0.921290	0.892810
N4411	N441	0.244430	0.981030	0.304690
N4421	N442	0.057160	0.972100	0.209600
N4431	N443	0.207000	0.988040	0.262060
N4441	N444	0.150220	0.969020	0.210040
N4451	N445	0.177300	0.974580	0.147740
N4461	N446	0.204620	0.983160	0.174980
N4471	N447	0.251520	0.003920	0.047320
N4481	N448	0.218140	0.966980	0.035500
N4491	N449	0.295950	0.954270	0.006230
N4501	N450	0.421290	0.892810	0.953570
N4511	N451	0.969850	0.304690	0.981030
N4521	N452	0.261140	0.209600	0.972100
N4531	N453	0.042900	0.262060	0.988040
N4541	N454	0.170720	0.210040	0.969020
N4551	N455	0.200380	0.147740	0.974580
N4561	N456	0.137240	0.174980	0.983160
N4571	N457	0.197240	0.047320	0.003920
N4581	N458	0.279380	0.035500	0.966980
N4591	N459	0.243550	0.006230	0.954270
N4601	N460	0.232330	0.953570	0.892810
N4611	N461	0.804690	0.469850	0.744430
N4621	N462	0.709600	0.761140	0.557160
N4631	N463	0.762060	0.542900	0.707000
N4641	N464	0.710040	0.670720	0.650220
N4651	N465	0.647740	0.700380	0.677300
N4661	N466	0.674980	0.637240	0.704620
N4671	N467	0.547320	0.697240	0.751520
N4681	N468	0.535500	0.779380	0.718140
N4691	N469	0.506230	0.743550	0.795950
N4701	N470	0.453570	0.732330	0.921290
N4711	N471	0.481030	0.744430	0.469850
N4721	N472	0.472100	0.557160	0.761140
N4731	N473	0.488040	0.707000	0.542900
N4741	N474	0.469020	0.650220	0.670720
N4751	N475	0.474580	0.677300	0.700380
N4761	N476	0.483160	0.704620	0.637240
N4771	N477	0.503920	0.751520	0.697240
N4781	N478	0.466980	0.718140	0.779380
N4791	N479	0.454270	0.795950	0.743550
N4801	N480	0.392810	0.921290	0.732330
