data_RIGPII_freeONLY_PM
_symmetry_space_group_name_H-M	'P1'
_cell_length_a	9.399000
_cell_length_b	9.848000
_cell_length_c	21.834000
_cell_angle_alpha	90.000000
_cell_angle_beta	102.090000
_cell_angle_gamma	90.000000
_symmetry_Int_Tables_number 1

loop_
_symmetry_equiv_pos_as_xyz
'x,y,z'

loop_
_atom_site_label
_atom_site_type_symbol
_atom_site_fract_x
_atom_site_fract_y
_atom_site_fract_z
Cu11	Cu1	0.210730	0.139880	0.337780
N11	N1	0.362800	0.268600	0.377400
N21	N2	0.101700	0.018100	0.391100
N31	N3	0.118300	0.408900	0.749300
N41	N4	0.782400	0.483300	0.535000
C11	C1	0.432200	0.243200	0.437400
H11	H1	0.403700	0.168000	0.457600
C21	C2	0.543700	0.324100	0.469800
H21	H2	0.585500	0.304200	0.511300
C31	C3	0.593700	0.435600	0.440500
C41	C4	0.521800	0.460600	0.378500
H31	H3	0.549000	0.534000	0.356800
C51	C5	0.409400	0.375300	0.349600
H41	H4	0.364100	0.393900	0.308300
C61	C6	0.719700	0.520900	0.474700
C71	C7	0.899700	0.557700	0.566800
C81	C8	0.954000	0.666400	0.540600
H51	H5	0.032700	0.714000	0.563700
C91	C9	0.892900	0.706500	0.480000
C101	C10	0.771200	0.634300	0.447000
H61	H6	0.725200	0.661700	0.407000
C111	C11	0.959100	0.819300	0.450800
C121	C12	0.105800	0.852300	0.471900
H71	H7	0.160500	0.808300	0.506600
C131	C13	0.170600	0.951100	0.440800
H81	H8	0.268400	0.970900	0.456100
C141	C14	0.960600	0.991900	0.371600
H91	H9	0.908600	0.041600	0.338000
C151	C15	0.886600	0.893600	0.398800
H101	H10	0.788600	0.877200	0.382300
C161	C16	0.973400	0.508200	0.630800
C171	C17	0.916600	0.402300	0.660400
H111	H11	0.829100	0.362000	0.641300
C181	C18	0.990900	0.356700	0.718700
H121	H12	0.950200	0.286100	0.737500
C191	C19	0.172300	0.514100	0.721000
H131	H13	0.259700	0.553200	0.741200
C201	C20	0.103300	0.565600	0.663700
H141	H14	0.143500	0.639300	0.646800
Cu21	Cu2	0.210730	0.360120	0.837780
N51	N5	0.362800	0.231400	0.877400
N61	N6	0.101700	0.481900	0.891100
N71	N7	0.118300	0.091100	0.249300
N81	N8	0.782400	0.016700	0.035000
C211	C21	0.432200	0.256800	0.937400
H151	H15	0.403700	0.332000	0.957600
C221	C22	0.543700	0.175900	0.969800
H161	H16	0.585500	0.195800	0.011300
C231	C23	0.593700	0.064400	0.940500
C241	C24	0.521800	0.039400	0.878500
H171	H17	0.549000	0.966000	0.856800
C251	C25	0.409400	0.124700	0.849600
H181	H18	0.364100	0.106100	0.808300
C261	C26	0.719700	0.979100	0.974700
C271	C27	0.899700	0.942300	0.066800
C281	C28	0.954000	0.833600	0.040600
H191	H19	0.032700	0.786000	0.063700
C291	C29	0.892900	0.793500	0.980000
C301	C30	0.771200	0.865700	0.947000
H201	H20	0.725200	0.838300	0.907000
C311	C31	0.959100	0.680700	0.950800
C321	C32	0.105800	0.647700	0.971900
H211	H21	0.160500	0.691700	0.006600
C331	C33	0.170600	0.548900	0.940800
H221	H22	0.268400	0.529100	0.956100
C341	C34	0.960600	0.508100	0.871600
H231	H23	0.908600	0.458400	0.838000
C351	C35	0.886600	0.606400	0.898800
H241	H24	0.788600	0.622800	0.882300
C361	C36	0.973400	0.991800	0.130800
C371	C37	0.916600	0.097700	0.160400
H251	H25	0.829100	0.138000	0.141300
C381	C38	0.990900	0.143300	0.218700
H261	H26	0.950200	0.213900	0.237500
C391	C39	0.172300	0.985900	0.221000
H271	H27	0.259700	0.946800	0.241200
C401	C40	0.103300	0.934400	0.163700
H281	H28	0.143500	0.860700	0.146800
Cu31	Cu3	0.789270	0.639880	0.162220
N91	N9	0.637200	0.768600	0.122600
N101	N10	0.898300	0.518100	0.108900
N111	N11	0.881700	0.908900	0.750700
N121	N12	0.217600	0.983300	0.965000
C411	C41	0.567800	0.743200	0.062600
H291	H29	0.596300	0.668000	0.042400
C421	C42	0.456300	0.824100	0.030200
H301	H30	0.414500	0.804200	0.988700
C431	C43	0.406300	0.935600	0.059500
C441	C44	0.478200	0.960600	0.121500
H311	H31	0.451000	0.034000	0.143200
C451	C45	0.590600	0.875300	0.150400
H321	H32	0.635900	0.893900	0.191700
C461	C46	0.280300	0.020900	0.025300
C471	C47	0.100300	0.057700	0.933200
C481	C48	0.046000	0.166400	0.959400
H331	H33	0.967300	0.214000	0.936300
C491	C49	0.107100	0.206500	0.020000
C501	C50	0.228800	0.134300	0.053000
H341	H34	0.274800	0.161700	0.093000
C511	C51	0.040900	0.319300	0.049200
C521	C52	0.894200	0.352300	0.028100
H351	H35	0.839500	0.308300	0.993400
C531	C53	0.829400	0.451100	0.059200
H361	H36	0.731600	0.470900	0.043900
C541	C54	0.039400	0.491900	0.128400
H371	H37	0.091400	0.541600	0.162000
C551	C55	0.113400	0.393600	0.101200
H381	H38	0.211400	0.377200	0.117700
C561	C56	0.026600	0.008200	0.869200
C571	C57	0.083400	0.902300	0.839600
H391	H39	0.170900	0.862000	0.858700
C581	C58	0.009100	0.856700	0.781300
H401	H40	0.049800	0.786100	0.762500
C591	C59	0.827700	0.014100	0.779000
H411	H41	0.740300	0.053200	0.758800
C601	C60	0.896700	0.065600	0.836300
H421	H42	0.856500	0.139300	0.853200
Cu41	Cu4	0.789270	0.860120	0.662220
N131	N13	0.637200	0.731400	0.622600
N141	N14	0.898300	0.981900	0.608900
N151	N15	0.881700	0.591100	0.250700
N161	N16	0.217600	0.516700	0.465000
C611	C61	0.567800	0.756800	0.562600
H431	H43	0.596300	0.832000	0.542400
C621	C62	0.456300	0.675900	0.530200
H441	H44	0.414500	0.695800	0.488700
C631	C63	0.406300	0.564400	0.559500
C641	C64	0.478200	0.539400	0.621500
H451	H45	0.451000	0.466000	0.643200
C651	C65	0.590600	0.624700	0.650400
H461	H46	0.635900	0.606100	0.691700
C661	C66	0.280300	0.479100	0.525300
C671	C67	0.100300	0.442300	0.433200
C681	C68	0.046000	0.333600	0.459400
H471	H47	0.967300	0.286000	0.436300
C691	C69	0.107100	0.293500	0.520000
C701	C70	0.228800	0.365700	0.553000
H481	H48	0.274800	0.338300	0.593000
C711	C71	0.040900	0.180700	0.549200
C721	C72	0.894200	0.147700	0.528100
H491	H49	0.839500	0.191700	0.493400
C731	C73	0.829400	0.048900	0.559200
H501	H50	0.731600	0.029100	0.543900
C741	C74	0.039400	0.008100	0.628400
H511	H51	0.091400	0.958400	0.662000
C751	C75	0.113400	0.106400	0.601200
H521	H52	0.211400	0.122800	0.617700
C761	C76	0.026600	0.491800	0.369200
C771	C77	0.083400	0.597700	0.339600
H531	H53	0.170900	0.638000	0.358700
C781	C78	0.009100	0.643300	0.281300
H541	H54	0.049800	0.713900	0.262500
C791	C79	0.827700	0.485900	0.279000
H551	H55	0.740300	0.446800	0.258800
C801	C80	0.896700	0.434400	0.336300
H561	H56	0.856500	0.360700	0.353200
