data_RIHXIR_charged_PM
_symmetry_space_group_name_H-M	'P1'
_cell_length_a	18.805800
_cell_length_b	18.805800
_cell_length_c	18.805800
_cell_angle_alpha	60.000000
_cell_angle_beta	60.000000
_cell_angle_gamma	60.000000
_symmetry_Int_Tables_number 1

loop_
_symmetry_equiv_pos_as_xyz
'x,y,z'

loop_
_atom_site_label
_atom_site_type_symbol
_atom_site_fract_x
_atom_site_fract_y
_atom_site_fract_z
Ca11	Ca1	0.000000	0.000000	0.000000
Ca21	Ca2	0.500000	0.500000	0.000000
Ca31	Ca3	0.500000	0.000000	0.500000
Ca41	Ca4	0.500000	0.000000	0.000000
Ca51	Ca5	0.000000	0.000000	0.500000
Ca61	Ca6	0.500000	0.500000	0.500000
Ca71	Ca7	0.000000	0.500000	0.000000
Ca81	Ca8	0.000000	0.500000	0.500000
Gd11	Gd1	0.750000	0.250000	0.250000
Gd21	Gd2	0.750000	0.250000	0.750000
Gd31	Gd3	0.750000	0.750000	0.250000
Gd41	Gd4	0.250000	0.250000	0.250000
Gd51	Gd5	0.250000	0.750000	0.750000
Gd61	Gd6	0.250000	0.750000	0.250000
Gd71	Gd7	0.250000	0.250000	0.750000
Gd81	Gd8	0.750000	0.750000	0.750000
H11	H1	0.983700	0.156900	0.080500
H21	H2	0.922300	0.208100	0.024300
H31	H3	0.656900	0.483700	0.778900
H41	H4	0.708100	0.422300	0.845300
H51	H5	0.580500	0.778900	0.483700
H61	H6	0.524300	0.845300	0.422300
H71	H7	0.278900	0.080500	0.156900
H81	H8	0.345300	0.024300	0.208100
H91	H9	0.983700	0.080500	0.778900
H101	H10	0.922300	0.024300	0.845300
H111	H11	0.656900	0.778900	0.080500
H121	H12	0.708100	0.845300	0.024300
H131	H13	0.580500	0.483700	0.156900
H141	H14	0.524300	0.422300	0.208100
H151	H15	0.278900	0.156900	0.483700
H161	H16	0.345300	0.208100	0.422300
H171	H17	0.983700	0.778900	0.156900
H181	H18	0.922300	0.845300	0.208100
H191	H19	0.656900	0.080500	0.483700
H201	H20	0.708100	0.024300	0.422300
H211	H21	0.580500	0.156900	0.778900
H221	H22	0.524300	0.208100	0.845300
H231	H23	0.278900	0.483700	0.080500
H241	H24	0.345300	0.422300	0.024300
H251	H25	0.843100	0.016300	0.419500
H261	H26	0.791900	0.077700	0.475700
H271	H27	0.516300	0.343100	0.721100
H281	H28	0.577700	0.291900	0.654700
H291	H29	0.221100	0.419500	0.016300
H301	H30	0.154700	0.475700	0.077700
H311	H31	0.919500	0.721100	0.343100
H321	H32	0.975700	0.654700	0.291900
H331	H33	0.919500	0.016300	0.721100
H341	H34	0.975700	0.077700	0.654700
H351	H35	0.221100	0.343100	0.419500
H361	H36	0.154700	0.291900	0.475700
H371	H37	0.516300	0.419500	0.343100
H381	H38	0.577700	0.475700	0.291900
H391	H39	0.843100	0.721100	0.016300
H401	H40	0.791900	0.654700	0.077700
H411	H41	0.221100	0.016300	0.343100
H421	H42	0.154700	0.077700	0.291900
H431	H43	0.919500	0.343100	0.016300
H441	H44	0.975700	0.291900	0.077700
H451	H45	0.843100	0.419500	0.721100
H461	H46	0.791900	0.475700	0.654700
H471	H47	0.516300	0.721100	0.419500
H481	H48	0.577700	0.654700	0.475700
H491	H49	0.016300	0.843100	0.919500
H501	H50	0.077700	0.791900	0.975700
H511	H51	0.343100	0.516300	0.221100
H521	H52	0.291900	0.577700	0.154700
H531	H53	0.419500	0.221100	0.516300
H541	H54	0.475700	0.154700	0.577700
H551	H55	0.721100	0.919500	0.843100
H561	H56	0.654700	0.975700	0.791900
H571	H57	0.016300	0.919500	0.221100
H581	H58	0.077700	0.975700	0.154700
H591	H59	0.343100	0.221100	0.919500
H601	H60	0.291900	0.154700	0.975700
H611	H61	0.419500	0.516300	0.843100
H621	H62	0.475700	0.577700	0.791900
H631	H63	0.721100	0.843100	0.516300
H641	H64	0.654700	0.791900	0.577700
H651	H65	0.016300	0.221100	0.843100
H661	H66	0.077700	0.154700	0.791900
H671	H67	0.343100	0.919500	0.516300
H681	H68	0.291900	0.975700	0.577700
H691	H69	0.419500	0.843100	0.221100
H701	H70	0.475700	0.791900	0.154700
H711	H71	0.721100	0.516300	0.919500
H721	H72	0.654700	0.577700	0.975700
H731	H73	0.156900	0.983700	0.580500
H741	H74	0.208100	0.922300	0.524300
H751	H75	0.483700	0.656900	0.278900
H761	H76	0.422300	0.708100	0.345300
H771	H77	0.778900	0.580500	0.983700
H781	H78	0.845300	0.524300	0.922300
H791	H79	0.080500	0.278900	0.656900
H801	H80	0.024300	0.345300	0.708100
H811	H81	0.080500	0.983700	0.278900
H821	H82	0.024300	0.922300	0.345300
H831	H83	0.778900	0.656900	0.580500
H841	H84	0.845300	0.708100	0.524300
H851	H85	0.483700	0.580500	0.656900
H861	H86	0.422300	0.524300	0.708100
H871	H87	0.156900	0.278900	0.983700
H881	H88	0.208100	0.345300	0.922300
H891	H89	0.778900	0.983700	0.656900
H901	H90	0.845300	0.922300	0.708100
H911	H91	0.080500	0.656900	0.983700
H921	H92	0.024300	0.708100	0.922300
H931	H93	0.156900	0.580500	0.278900
H941	H94	0.208100	0.524300	0.345300
H951	H95	0.483700	0.278900	0.580500
H961	H96	0.422300	0.345300	0.524300
C11	C1	0.879700	0.117900	0.136900
C21	C2	0.923500	0.183700	0.083100
C31	C3	0.617900	0.379700	0.865500
C41	C4	0.683700	0.423500	0.809700
C51	C5	0.636900	0.865500	0.379700
C61	C6	0.583100	0.809700	0.423500
C71	C7	0.365500	0.136900	0.117900
C81	C8	0.309700	0.083100	0.183700
C91	C9	0.879700	0.136900	0.865500
C101	C10	0.923500	0.083100	0.809700
C111	C11	0.617900	0.865500	0.136900
C121	C12	0.683700	0.809700	0.083100
C131	C13	0.636900	0.379700	0.117900
C141	C14	0.583100	0.423500	0.183700
C151	C15	0.365500	0.117900	0.379700
C161	C16	0.309700	0.183700	0.423500
C171	C17	0.879700	0.865500	0.117900
C181	C18	0.923500	0.809700	0.183700
C191	C19	0.617900	0.136900	0.379700
C201	C20	0.683700	0.083100	0.423500
C211	C21	0.636900	0.117900	0.865500
C221	C22	0.583100	0.183700	0.809700
C231	C23	0.365500	0.379700	0.136900
C241	C24	0.309700	0.423500	0.083100
C251	C25	0.882100	0.120300	0.363100
C261	C26	0.816300	0.076500	0.416900
C271	C27	0.620300	0.382100	0.634500
C281	C28	0.576500	0.316300	0.690300
C291	C29	0.134500	0.363100	0.120300
C301	C30	0.190300	0.416900	0.076500
C311	C31	0.863100	0.634500	0.382100
C321	C32	0.916900	0.690300	0.316300
C331	C33	0.863100	0.120300	0.634500
C341	C34	0.916900	0.076500	0.690300
C351	C35	0.134500	0.382100	0.363100
C361	C36	0.190300	0.316300	0.416900
C371	C37	0.620300	0.363100	0.382100
C381	C38	0.576500	0.416900	0.316300
C391	C39	0.882100	0.634500	0.120300
C401	C40	0.816300	0.690300	0.076500
C411	C41	0.134500	0.120300	0.382100
C421	C42	0.190300	0.076500	0.316300
C431	C43	0.863100	0.382100	0.120300
C441	C44	0.916900	0.316300	0.076500
C451	C45	0.882100	0.363100	0.634500
C461	C46	0.816300	0.416900	0.690300
C471	C47	0.620300	0.634500	0.363100
C481	C48	0.576500	0.690300	0.416900
C491	C49	0.120300	0.882100	0.863100
C501	C50	0.076500	0.816300	0.916900
C511	C51	0.382100	0.620300	0.134500
C521	C52	0.316300	0.576500	0.190300
C531	C53	0.363100	0.134500	0.620300
C541	C54	0.416900	0.190300	0.576500
C551	C55	0.634500	0.863100	0.882100
C561	C56	0.690300	0.916900	0.816300
C571	C57	0.120300	0.863100	0.134500
C581	C58	0.076500	0.916900	0.190300
C591	C59	0.382100	0.134500	0.863100
C601	C60	0.316300	0.190300	0.916900
C611	C61	0.363100	0.620300	0.882100
C621	C62	0.416900	0.576500	0.816300
C631	C63	0.634500	0.882100	0.620300
C641	C64	0.690300	0.816300	0.576500
C651	C65	0.120300	0.134500	0.882100
C661	C66	0.076500	0.190300	0.816300
C671	C67	0.382100	0.863100	0.620300
C681	C68	0.316300	0.916900	0.576500
C691	C69	0.363100	0.882100	0.134500
C701	C70	0.416900	0.816300	0.190300
C711	C71	0.634500	0.620300	0.863100
C721	C72	0.690300	0.576500	0.916900
C731	C73	0.117900	0.879700	0.636900
C741	C74	0.183700	0.923500	0.583100
C751	C75	0.379700	0.617900	0.365500
C761	C76	0.423500	0.683700	0.309700
C771	C77	0.865500	0.636900	0.879700
C781	C78	0.809700	0.583100	0.923500
C791	C79	0.136900	0.365500	0.617900
C801	C80	0.083100	0.309700	0.683700
C811	C81	0.136900	0.879700	0.365500
C821	C82	0.083100	0.923500	0.309700
C831	C83	0.865500	0.617900	0.636900
C841	C84	0.809700	0.683700	0.583100
C851	C85	0.379700	0.636900	0.617900
C861	C86	0.423500	0.583100	0.683700
C871	C87	0.117900	0.365500	0.879700
C881	C88	0.183700	0.309700	0.923500
C891	C89	0.865500	0.879700	0.617900
C901	C90	0.809700	0.923500	0.683700
C911	C91	0.136900	0.617900	0.879700
C921	C92	0.083100	0.683700	0.923500
C931	C93	0.117900	0.636900	0.365500
C941	C94	0.183700	0.583100	0.309700
C951	C95	0.379700	0.365500	0.636900
C961	C96	0.423500	0.309700	0.583100
O11	O1	0.813600	0.128200	0.202800
O21	O2	0.911400	0.049800	0.118000
O31	O3	0.628200	0.313600	0.855400
O41	O4	0.549800	0.411400	0.920800
O51	O5	0.702800	0.855400	0.313600
O61	O6	0.618000	0.920800	0.411400
O71	O7	0.355400	0.202800	0.128200
O81	O8	0.420800	0.118000	0.049800
O91	O9	0.813600	0.202800	0.855400
O101	O10	0.911400	0.118000	0.920800
O111	O11	0.628200	0.855400	0.202800
O121	O12	0.549800	0.920800	0.118000
O131	O13	0.702800	0.313600	0.128200
O141	O14	0.618000	0.411400	0.049800
O151	O15	0.355400	0.128200	0.313600
O161	O16	0.420800	0.049800	0.411400
O171	O17	0.813600	0.855400	0.128200
O181	O18	0.911400	0.920800	0.049800
O191	O19	0.628200	0.202800	0.313600
O201	O20	0.549800	0.118000	0.411400
O211	O21	0.702800	0.128200	0.855400
O221	O22	0.618000	0.049800	0.920800
O231	O23	0.355400	0.313600	0.202800
O241	O24	0.420800	0.411400	0.118000
O251	O25	0.871800	0.186400	0.297200
O261	O26	0.950200	0.088600	0.382000
O271	O27	0.686400	0.371800	0.644600
O281	O28	0.588600	0.450200	0.579200
O291	O29	0.144600	0.297200	0.186400
O301	O30	0.079200	0.382000	0.088600
O311	O31	0.797200	0.644600	0.371800
O321	O32	0.882000	0.579200	0.450200
O331	O33	0.797200	0.186400	0.644600
O341	O34	0.882000	0.088600	0.579200
O351	O35	0.144600	0.371800	0.297200
O361	O36	0.079200	0.450200	0.382000
O371	O37	0.686400	0.297200	0.371800
O381	O38	0.588600	0.382000	0.450200
O391	O39	0.871800	0.644600	0.186400
O401	O40	0.950200	0.579200	0.088600
O411	O41	0.144600	0.186400	0.371800
O421	O42	0.079200	0.088600	0.450200
O431	O43	0.797200	0.371800	0.186400
O441	O44	0.882000	0.450200	0.088600
O451	O45	0.871800	0.297200	0.644600
O461	O46	0.950200	0.382000	0.579200
O471	O47	0.686400	0.644600	0.297200
O481	O48	0.588600	0.579200	0.382000
O491	O49	0.186400	0.871800	0.797200
O501	O50	0.088600	0.950200	0.882000
O511	O51	0.371800	0.686400	0.144600
O521	O52	0.450200	0.588600	0.079200
O531	O53	0.297200	0.144600	0.686400
O541	O54	0.382000	0.079200	0.588600
O551	O55	0.644600	0.797200	0.871800
O561	O56	0.579200	0.882000	0.950200
O571	O57	0.186400	0.797200	0.144600
O581	O58	0.088600	0.882000	0.079200
O591	O59	0.371800	0.144600	0.797200
O601	O60	0.450200	0.079200	0.882000
O611	O61	0.297200	0.686400	0.871800
O621	O62	0.382000	0.588600	0.950200
O631	O63	0.644600	0.871800	0.686400
O641	O64	0.579200	0.950200	0.588600
O651	O65	0.186400	0.144600	0.871800
O661	O66	0.088600	0.079200	0.950200
O671	O67	0.371800	0.797200	0.686400
O681	O68	0.450200	0.882000	0.588600
O691	O69	0.297200	0.871800	0.144600
O701	O70	0.382000	0.950200	0.079200
O711	O71	0.644600	0.686400	0.797200
O721	O72	0.579200	0.588600	0.882000
O731	O73	0.128200	0.813600	0.702800
O741	O74	0.049800	0.911400	0.618000
O751	O75	0.313600	0.628200	0.355400
O761	O76	0.411400	0.549800	0.420800
O771	O77	0.855400	0.702800	0.813600
O781	O78	0.920800	0.618000	0.911400
O791	O79	0.202800	0.355400	0.628200
O801	O80	0.118000	0.420800	0.549800
O811	O81	0.202800	0.813600	0.355400
O821	O82	0.118000	0.911400	0.420800
O831	O83	0.855400	0.628200	0.702800
O841	O84	0.920800	0.549800	0.618000
O851	O85	0.313600	0.702800	0.628200
O861	O86	0.411400	0.618000	0.549800
O871	O87	0.128200	0.355400	0.813600
O881	O88	0.049800	0.420800	0.911400
O891	O89	0.855400	0.813600	0.628200
O901	O90	0.920800	0.911400	0.549800
O911	O91	0.202800	0.628200	0.813600
O921	O92	0.118000	0.549800	0.911400
O931	O93	0.128200	0.702800	0.355400
O941	O94	0.049800	0.618000	0.420800
O951	O95	0.313600	0.355400	0.702800
O961	O96	0.411400	0.420800	0.618000
O971	O97	0.880600	0.250000	0.119400
O981	O98	0.750000	0.380600	0.750000
O991	O99	0.619400	0.750000	0.380600
O1001	O100	0.250000	0.119400	0.250000
O1011	O101	0.880600	0.119400	0.750000
O1021	O102	0.750000	0.750000	0.119400
O1031	O103	0.619400	0.380600	0.250000
O1041	O104	0.250000	0.250000	0.380600
O1051	O105	0.880600	0.750000	0.250000
O1061	O106	0.750000	0.119400	0.380600
O1071	O107	0.619400	0.250000	0.750000
O1081	O108	0.250000	0.380600	0.119400
O1091	O109	0.119400	0.750000	0.880600
O1101	O110	0.250000	0.619400	0.250000
O1111	O111	0.380600	0.250000	0.619400
O1121	O112	0.750000	0.880600	0.750000
O1131	O113	0.119400	0.880600	0.250000
O1141	O114	0.250000	0.250000	0.880600
O1151	O115	0.380600	0.619400	0.750000
O1161	O116	0.750000	0.750000	0.619400
O1171	O117	0.119400	0.250000	0.750000
O1181	O118	0.250000	0.880600	0.619400
O1191	O119	0.380600	0.750000	0.250000
O1201	O120	0.750000	0.619400	0.880600
