data_RIPKIM_freeONLY_PM
_symmetry_space_group_name_H-M	'P1'
_cell_length_a	28.642000
_cell_length_b	13.186200
_cell_length_c	8.539500
_cell_angle_alpha	90.000000
_cell_angle_beta	91.660000
_cell_angle_gamma	90.000000
_symmetry_Int_Tables_number 1

loop_
_symmetry_equiv_pos_as_xyz
'x,y,z'

loop_
_atom_site_label
_atom_site_type_symbol
_atom_site_fract_x
_atom_site_fract_y
_atom_site_fract_z
C11	C1	0.346060	0.973800	0.339300
H11	H1	0.323300	0.009900	0.391400
C21	C2	0.380130	0.027200	0.263000
H21	H2	0.380000	0.097700	0.263900
C31	C3	0.414420	0.975300	0.185200
C41	C4	0.411830	0.870800	0.184100
H31	H3	0.433900	0.832800	0.131800
C51	C5	0.376450	0.823100	0.261000
H41	H4	0.374800	0.752700	0.256900
C61	C6	0.452440	0.030400	0.103200
C71	C7	0.452070	0.142500	0.108000
H51	H5	0.478100	0.168200	0.051800
H61	H6	0.454400	0.164900	0.214900
H71	H7	0.423500	0.167100	0.060500
C81	C8	0.210160	0.765400	0.231800
C91	C9	0.187210	0.788900	0.074400
H81	H8	0.153600	0.791100	0.085300
H91	H9	0.194200	0.734900	0.001500
C101	C10	0.203740	0.890100	0.007600
H101	H10	0.236900	0.886000	0.988200
H111	H11	0.187500	0.902700	0.908300
C111	C11	0.194840	0.978300	0.119600
H121	H12	0.161400	0.985000	0.131200
H131	H13	0.208400	0.961400	0.221600
C121	C12	0.214140	0.080300	0.069600
N11	N1	0.344330	0.873100	0.341600
N21	N2	0.482030	0.973500	0.036900
O11	O1	0.185590	0.721900	0.332900
O21	O2	0.189050	0.156200	0.090200
O31	O3	0.252000	0.791600	0.252700
O41	O4	0.254190	0.081200	0.013900
Cu11	Cu1	0.288090	0.794650	0.452520
C131	C13	0.846060	0.473800	0.339300
H141	H14	0.823300	0.509900	0.391400
C141	C14	0.880130	0.527200	0.263000
H151	H15	0.880000	0.597700	0.263900
C151	C15	0.914420	0.475300	0.185200
C161	C16	0.911830	0.370800	0.184100
H161	H16	0.933900	0.332800	0.131800
C171	C17	0.876450	0.323100	0.261000
H171	H17	0.874800	0.252700	0.256900
C181	C18	0.952440	0.530400	0.103200
C191	C19	0.952070	0.642500	0.108000
H181	H18	0.978100	0.668200	0.051800
H191	H19	0.954400	0.664900	0.214900
H201	H20	0.923500	0.667100	0.060500
C201	C20	0.710160	0.265400	0.231800
C211	C21	0.687210	0.288900	0.074400
H211	H21	0.653600	0.291100	0.085300
H221	H22	0.694200	0.234900	0.001500
C221	C22	0.703740	0.390100	0.007600
H231	H23	0.736900	0.386000	0.988200
H241	H24	0.687500	0.402700	0.908300
C231	C23	0.694840	0.478300	0.119600
H251	H25	0.661400	0.485000	0.131200
H261	H26	0.708400	0.461400	0.221600
C241	C24	0.714140	0.580300	0.069600
N31	N3	0.844330	0.373100	0.341600
N41	N4	0.982030	0.473500	0.036900
O51	O5	0.685590	0.221900	0.332900
O61	O6	0.689050	0.656200	0.090200
O71	O7	0.752000	0.291600	0.252700
O81	O8	0.754190	0.581200	0.013900
Cu21	Cu2	0.788090	0.294650	0.452520
C251	C25	0.653940	0.973800	0.160700
H271	H27	0.676700	0.009900	0.108600
C261	C26	0.619870	0.027200	0.237000
H281	H28	0.620000	0.097700	0.236100
C271	C27	0.585580	0.975300	0.314800
C281	C28	0.588170	0.870800	0.315900
H291	H29	0.566100	0.832800	0.368200
C291	C29	0.623550	0.823100	0.239000
H301	H30	0.625200	0.752700	0.243100
C301	C30	0.547560	0.030400	0.396800
C311	C31	0.547930	0.142500	0.392000
H311	H31	0.521900	0.168200	0.448200
H321	H32	0.545600	0.164900	0.285100
H331	H33	0.576500	0.167100	0.439500
C321	C32	0.789840	0.765400	0.268200
C331	C33	0.812790	0.788900	0.425600
H341	H34	0.846400	0.791100	0.414700
H351	H35	0.805800	0.734900	0.498500
C341	C34	0.796260	0.890100	0.492400
H361	H36	0.763100	0.886000	0.511800
H371	H37	0.812500	0.902700	0.591700
C351	C35	0.805160	0.978300	0.380400
H381	H38	0.838600	0.985000	0.368800
H391	H39	0.791600	0.961400	0.278400
C361	C36	0.785860	0.080300	0.430400
N51	N5	0.655670	0.873100	0.158400
N61	N6	0.517970	0.973500	0.463100
O91	O9	0.814410	0.721900	0.167100
O101	O10	0.810950	0.156200	0.409800
O111	O11	0.748000	0.791600	0.247300
O121	O12	0.745810	0.081200	0.486100
Cu31	Cu3	0.711910	0.794650	0.047480
C371	C37	0.153940	0.473800	0.160700
H401	H40	0.176700	0.509900	0.108600
C381	C38	0.119870	0.527200	0.237000
H411	H41	0.120000	0.597700	0.236100
C391	C39	0.085580	0.475300	0.314800
C401	C40	0.088170	0.370800	0.315900
H421	H42	0.066100	0.332800	0.368200
C411	C41	0.123550	0.323100	0.239000
H431	H43	0.125200	0.252700	0.243100
C421	C42	0.047560	0.530400	0.396800
C431	C43	0.047930	0.642500	0.392000
H441	H44	0.021900	0.668200	0.448200
H451	H45	0.045600	0.664900	0.285100
H461	H46	0.076500	0.667100	0.439500
C441	C44	0.289840	0.265400	0.268200
C451	C45	0.312790	0.288900	0.425600
H471	H47	0.346400	0.291100	0.414700
H481	H48	0.305800	0.234900	0.498500
C461	C46	0.296260	0.390100	0.492400
H491	H49	0.263100	0.386000	0.511800
H501	H50	0.312500	0.402700	0.591700
C471	C47	0.305160	0.478300	0.380400
H511	H51	0.338600	0.485000	0.368800
H521	H52	0.291600	0.461400	0.278400
C481	C48	0.285860	0.580300	0.430400
N71	N7	0.155670	0.373100	0.158400
N81	N8	0.017970	0.473500	0.463100
O131	O13	0.314410	0.221900	0.167100
O141	O14	0.310950	0.656200	0.409800
O151	O15	0.248000	0.291600	0.247300
O161	O16	0.245810	0.581200	0.486100
Cu41	Cu4	0.211910	0.294650	0.047480
C491	C49	0.653940	0.026200	0.660700
H531	H53	0.676700	0.990100	0.608600
C501	C50	0.619870	0.972800	0.737000
H541	H54	0.620000	0.902300	0.736100
C511	C51	0.585580	0.024700	0.814800
C521	C52	0.588170	0.129200	0.815900
H551	H55	0.566100	0.167200	0.868200
C531	C53	0.623550	0.176900	0.739000
H561	H56	0.625200	0.247300	0.743100
C541	C54	0.547560	0.969600	0.896800
C551	C55	0.547930	0.857500	0.892000
H571	H57	0.521900	0.831800	0.948200
H581	H58	0.545600	0.835100	0.785100
H591	H59	0.576500	0.832900	0.939500
C561	C56	0.789840	0.234600	0.768200
C571	C57	0.812790	0.211100	0.925600
H601	H60	0.846400	0.208900	0.914700
H611	H61	0.805800	0.265100	0.998500
C581	C58	0.796260	0.109900	0.992400
H621	H62	0.763100	0.114000	0.011800
H631	H63	0.812500	0.097300	0.091700
C591	C59	0.805160	0.021700	0.880400
H641	H64	0.838600	0.015000	0.868800
H651	H65	0.791600	0.038600	0.778400
C601	C60	0.785860	0.919700	0.930400
N91	N9	0.655670	0.126900	0.658400
N101	N10	0.517970	0.026500	0.963100
O171	O17	0.814410	0.278100	0.667100
O181	O18	0.810950	0.843800	0.909800
O191	O19	0.748000	0.208400	0.747300
O201	O20	0.745810	0.918800	0.986100
Cu51	Cu5	0.711910	0.205350	0.547480
C611	C61	0.153940	0.526200	0.660700
H661	H66	0.176700	0.490100	0.608600
C621	C62	0.119870	0.472800	0.737000
H671	H67	0.120000	0.402300	0.736100
C631	C63	0.085580	0.524700	0.814800
C641	C64	0.088170	0.629200	0.815900
H681	H68	0.066100	0.667200	0.868200
C651	C65	0.123550	0.676900	0.739000
H691	H69	0.125200	0.747300	0.743100
C661	C66	0.047560	0.469600	0.896800
C671	C67	0.047930	0.357500	0.892000
H701	H70	0.021900	0.331800	0.948200
H711	H71	0.045600	0.335100	0.785100
H721	H72	0.076500	0.332900	0.939500
C681	C68	0.289840	0.734600	0.768200
C691	C69	0.312790	0.711100	0.925600
H731	H73	0.346400	0.708900	0.914700
H741	H74	0.305800	0.765100	0.998500
C701	C70	0.296260	0.609900	0.992400
H751	H75	0.263100	0.614000	0.011800
H761	H76	0.312500	0.597300	0.091700
C711	C71	0.305160	0.521700	0.880400
H771	H77	0.338600	0.515000	0.868800
H781	H78	0.291600	0.538600	0.778400
C721	C72	0.285860	0.419700	0.930400
N111	N11	0.155670	0.626900	0.658400
N121	N12	0.017970	0.526500	0.963100
O211	O21	0.314410	0.778100	0.667100
O221	O22	0.310950	0.343800	0.909800
O231	O23	0.248000	0.708400	0.747300
O241	O24	0.245810	0.418800	0.986100
Cu61	Cu6	0.211910	0.705350	0.547480
C731	C73	0.346060	0.026200	0.839300
H791	H79	0.323300	0.990100	0.891400
C741	C74	0.380130	0.972800	0.763000
H801	H80	0.380000	0.902300	0.763900
C751	C75	0.414420	0.024700	0.685200
C761	C76	0.411830	0.129200	0.684100
H811	H81	0.433900	0.167200	0.631800
C771	C77	0.376450	0.176900	0.761000
H821	H82	0.374800	0.247300	0.756900
C781	C78	0.452440	0.969600	0.603200
C791	C79	0.452070	0.857500	0.608000
H831	H83	0.478100	0.831800	0.551800
H841	H84	0.454400	0.835100	0.714900
H851	H85	0.423500	0.832900	0.560500
C801	C80	0.210160	0.234600	0.731800
C811	C81	0.187210	0.211100	0.574400
H861	H86	0.153600	0.208900	0.585300
H871	H87	0.194200	0.265100	0.501500
C821	C82	0.203740	0.109900	0.507600
H881	H88	0.236900	0.114000	0.488200
H891	H89	0.187500	0.097300	0.408300
C831	C83	0.194840	0.021700	0.619600
H901	H90	0.161400	0.015000	0.631200
H911	H91	0.208400	0.038600	0.721600
C841	C84	0.214140	0.919700	0.569600
N131	N13	0.344330	0.126900	0.841600
N141	N14	0.482030	0.026500	0.536900
O251	O25	0.185590	0.278100	0.832900
O261	O26	0.189050	0.843800	0.590200
O271	O27	0.252000	0.208400	0.752700
O281	O28	0.254190	0.918800	0.513900
Cu71	Cu7	0.288090	0.205350	0.952520
C851	C85	0.846060	0.526200	0.839300
H921	H92	0.823300	0.490100	0.891400
C861	C86	0.880130	0.472800	0.763000
H931	H93	0.880000	0.402300	0.763900
C871	C87	0.914420	0.524700	0.685200
C881	C88	0.911830	0.629200	0.684100
H941	H94	0.933900	0.667200	0.631800
C891	C89	0.876450	0.676900	0.761000
H951	H95	0.874800	0.747300	0.756900
C901	C90	0.952440	0.469600	0.603200
C911	C91	0.952070	0.357500	0.608000
H961	H96	0.978100	0.331800	0.551800
H971	H97	0.954400	0.335100	0.714900
H981	H98	0.923500	0.332900	0.560500
C921	C92	0.710160	0.734600	0.731800
C931	C93	0.687210	0.711100	0.574400
H991	H99	0.653600	0.708900	0.585300
H1001	H100	0.694200	0.765100	0.501500
C941	C94	0.703740	0.609900	0.507600
H1011	H101	0.736900	0.614000	0.488200
H1021	H102	0.687500	0.597300	0.408300
C951	C95	0.694840	0.521700	0.619600
H1031	H103	0.661400	0.515000	0.631200
H1041	H104	0.708400	0.538600	0.721600
C961	C96	0.714140	0.419700	0.569600
N151	N15	0.844330	0.626900	0.841600
N161	N16	0.982030	0.526500	0.536900
O291	O29	0.685590	0.778100	0.832900
O301	O30	0.689050	0.343800	0.590200
O311	O31	0.752000	0.708400	0.752700
O321	O32	0.754190	0.418800	0.513900
Cu81	Cu8	0.788090	0.705350	0.952520
