data_RIPPEN_freeONLY_PM
_symmetry_space_group_name_H-M	'P1'
_cell_length_a	22.946300
_cell_length_b	22.946300
_cell_length_c	15.712700
_cell_angle_alpha	90.000000
_cell_angle_beta	90.000000
_cell_angle_gamma	120.000000
_symmetry_Int_Tables_number 1

loop_
_symmetry_equiv_pos_as_xyz
'x,y,z'

loop_
_atom_site_label
_atom_site_type_symbol
_atom_site_fract_x
_atom_site_fract_y
_atom_site_fract_z
N11	N1	0.968400	0.316140	0.426360
C11	C1	0.993620	0.359060	0.491220
H11	H1	0.987450	0.396000	0.496240
N21	N2	0.028580	0.345810	0.549060
C21	C2	0.990280	0.270020	0.441030
C31	C3	0.979420	0.214040	0.395990
H21	H2	0.955000	0.201750	0.345570
C41	C4	0.006520	0.177410	0.428550
H31	H3	0.000500	0.139600	0.399240
C51	C5	0.043310	0.195390	0.505970
H41	H4	0.061060	0.169320	0.526030
C61	C6	0.026820	0.287970	0.517870
C71	C7	0.053240	0.250340	0.551510
H51	H5	0.076630	0.261900	0.602830
N31	N3	0.920840	0.415970	0.350530
C81	C8	0.938230	0.476540	0.322640
H61	H6	0.964410	0.494110	0.274100
N41	N4	0.916880	0.511200	0.366400
C91	C9	0.880270	0.468410	0.431320
C101	C10	0.845370	0.476800	0.501290
H71	H7	0.844880	0.516680	0.508540
C111	C11	0.882110	0.410050	0.423020
C121	C12	0.848480	0.354860	0.482050
H81	H8	0.850110	0.315380	0.476040
C131	C13	0.812870	0.425160	0.556960
H91	H9	0.789460	0.430220	0.601980
C141	C14	0.813560	0.363900	0.548760
H101	H10	0.790570	0.329540	0.587970
Zn11	Zn1	0.933350	0.332510	0.327100
N51	N5	0.635070	0.649470	0.759690
C151	C15	0.660290	0.692390	0.824550
H111	H11	0.654120	0.729330	0.829570
N61	N6	0.695250	0.679140	0.882390
C161	C16	0.656950	0.603350	0.774360
C171	C17	0.646090	0.547370	0.729320
H121	H12	0.621670	0.535080	0.678900
C181	C18	0.673190	0.510740	0.761880
H131	H13	0.667170	0.472930	0.732570
C191	C19	0.709980	0.528720	0.839300
H141	H14	0.727730	0.502650	0.859360
C201	C20	0.693490	0.621300	0.851200
C211	C21	0.719910	0.583670	0.884840
H151	H15	0.743300	0.595230	0.936160
N71	N7	0.587510	0.749300	0.683860
C221	C22	0.604900	0.809870	0.655970
H161	H16	0.631080	0.827440	0.607430
N81	N8	0.583550	0.844530	0.699730
C231	C23	0.546940	0.801740	0.764650
C241	C24	0.512040	0.810130	0.834620
H171	H17	0.511550	0.850010	0.841870
C251	C25	0.548780	0.743380	0.756350
C261	C26	0.515150	0.688190	0.815380
H181	H18	0.516780	0.648710	0.809370
C271	C27	0.479540	0.758490	0.890290
H191	H19	0.456130	0.763550	0.935310
C281	C28	0.480230	0.697230	0.882090
H201	H20	0.457240	0.662870	0.921300
Zn21	Zn2	0.600020	0.665840	0.660430
N91	N9	0.301730	0.982810	0.093030
C291	C29	0.326950	0.025730	0.157890
H211	H21	0.320780	0.062670	0.162910
N101	N10	0.361910	0.012480	0.215730
C301	C30	0.323610	0.936690	0.107700
C311	C31	0.312750	0.880710	0.062660
H221	H22	0.288330	0.868420	0.012240
C321	C32	0.339850	0.844080	0.095220
H231	H23	0.333830	0.806270	0.065910
C331	C33	0.376640	0.862060	0.172640
H241	H24	0.394390	0.835990	0.192700
C341	C34	0.360150	0.954640	0.184540
C351	C35	0.386570	0.917010	0.218180
H251	H25	0.409960	0.928570	0.269500
N111	N11	0.254170	0.082640	0.017200
C361	C36	0.271560	0.143210	0.989310
H261	H26	0.297740	0.160780	0.940770
N121	N12	0.250210	0.177870	0.033070
C371	C37	0.213600	0.135080	0.097990
C381	C38	0.178700	0.143470	0.167960
H271	H27	0.178210	0.183350	0.175210
C391	C39	0.215440	0.076720	0.089690
C401	C40	0.181810	0.021530	0.148720
H281	H28	0.183440	0.982050	0.142710
C411	C41	0.146200	0.091830	0.223630
H291	H29	0.122790	0.096890	0.268650
C421	C42	0.146890	0.030570	0.215430
H301	H30	0.123900	0.996210	0.254640
Zn31	Zn3	0.266680	0.999180	0.993770
N131	N13	0.683860	0.652260	0.426360
C431	C43	0.640940	0.634560	0.491220
H311	H31	0.604000	0.591450	0.496240
N141	N14	0.654190	0.682770	0.549060
C441	C44	0.729980	0.720260	0.441030
C451	C45	0.785960	0.765380	0.395990
H321	H32	0.798250	0.753250	0.345570
C461	C46	0.822590	0.829110	0.428550
H331	H33	0.860400	0.860900	0.399240
C471	C47	0.804610	0.847920	0.505970
H341	H34	0.830680	0.891740	0.526030
C481	C48	0.712030	0.738850	0.517870
C491	C49	0.749660	0.802900	0.551510
H351	H35	0.738100	0.814730	0.602830
N151	N15	0.584030	0.504870	0.350530
C501	C50	0.523460	0.461690	0.322640
H361	H36	0.505890	0.470300	0.274100
N161	N16	0.488800	0.405680	0.366400
C511	C51	0.531590	0.411860	0.431320
C521	C52	0.523200	0.368570	0.501290
H371	H37	0.483320	0.328200	0.508540
C531	C53	0.589950	0.472060	0.423020
C541	C54	0.645140	0.493620	0.482050
H381	H38	0.684620	0.534730	0.476040
C551	C55	0.574840	0.387710	0.556960
H391	H39	0.569780	0.359240	0.601980
C561	C56	0.636100	0.449660	0.548760
H401	H40	0.670460	0.461030	0.587970
Zn41	Zn4	0.667490	0.600840	0.327100
N171	N17	0.350530	0.985590	0.759690
C571	C57	0.307610	0.967890	0.824550
H411	H41	0.270670	0.924780	0.829570
N181	N18	0.320860	0.016100	0.882390
C581	C58	0.396650	0.053590	0.774360
C591	C59	0.452630	0.098710	0.729320
H421	H42	0.464920	0.086580	0.678900
C601	C60	0.489260	0.162440	0.761880
H431	H43	0.527070	0.194230	0.732570
C611	C61	0.471280	0.181250	0.839300
H441	H44	0.497350	0.225070	0.859360
C621	C62	0.378700	0.072180	0.851200
C631	C63	0.416330	0.136230	0.884840
H451	H45	0.404770	0.148060	0.936160
N191	N19	0.250700	0.838200	0.683860
C641	C64	0.190130	0.795020	0.655970
H461	H46	0.172560	0.803630	0.607430
N201	N20	0.155470	0.739010	0.699730
C651	C65	0.198260	0.745190	0.764650
C661	C66	0.189870	0.701900	0.834620
H471	H47	0.149990	0.661530	0.841870
C671	C67	0.256620	0.805390	0.756350
C681	C68	0.311810	0.826950	0.815380
H481	H48	0.351290	0.868060	0.809370
C691	C69	0.241510	0.721040	0.890290
H491	H49	0.236450	0.692570	0.935310
C701	C70	0.302770	0.782990	0.882090
H501	H50	0.337130	0.794360	0.921300
Zn51	Zn5	0.334160	0.934170	0.660430
N211	N21	0.017190	0.318930	0.093030
C711	C71	0.974270	0.301230	0.157890
H511	H51	0.937330	0.258120	0.162910
N221	N22	0.987520	0.349440	0.215730
C721	C72	0.063310	0.386930	0.107700
C731	C73	0.119290	0.432050	0.062660
H521	H52	0.131580	0.419920	0.012240
C741	C74	0.155920	0.495780	0.095220
H531	H53	0.193730	0.527570	0.065910
C751	C75	0.137940	0.514590	0.172640
H541	H54	0.164010	0.558410	0.192700
C761	C76	0.045360	0.405520	0.184540
C771	C77	0.082990	0.469570	0.218180
H551	H55	0.071430	0.481400	0.269500
N231	N23	0.917360	0.171540	0.017200
C781	C78	0.856790	0.128360	0.989310
H561	H56	0.839220	0.136970	0.940770
N241	N24	0.822130	0.072350	0.033070
C791	C79	0.864920	0.078530	0.097990
C801	C80	0.856530	0.035240	0.167960
H571	H57	0.816650	0.994870	0.175210
C811	C81	0.923280	0.138730	0.089690
C821	C82	0.978470	0.160290	0.148720
H581	H58	0.017950	0.201400	0.142710
C831	C83	0.908170	0.054380	0.223630
H591	H59	0.903110	0.025910	0.268650
C841	C84	0.969430	0.116330	0.215430
H601	H60	0.003790	0.127700	0.254640
Zn61	Zn6	0.000820	0.267510	0.993770
N251	N25	0.347740	0.031600	0.426360
C851	C85	0.365440	0.006380	0.491220
H611	H61	0.408550	0.012550	0.496240
N261	N26	0.317230	0.971420	0.549060
C861	C86	0.279740	0.009720	0.441030
C871	C87	0.234620	0.020580	0.395990
H621	H62	0.246750	0.045000	0.345570
C881	C88	0.170890	0.993480	0.428550
H631	H63	0.139100	0.999500	0.399240
C891	C89	0.152080	0.956690	0.505970
H641	H64	0.108260	0.938940	0.526030
C901	C90	0.261150	0.973180	0.517870
C911	C91	0.197100	0.946760	0.551510
H651	H65	0.185270	0.923370	0.602830
N271	N27	0.495130	0.079160	0.350530
C921	C92	0.538310	0.061770	0.322640
H661	H66	0.529700	0.035590	0.274100
N281	N28	0.594320	0.083120	0.366400
C931	C93	0.588140	0.119730	0.431320
C941	C94	0.631430	0.154630	0.501290
H671	H67	0.671800	0.155120	0.508540
C951	C95	0.527940	0.117890	0.423020
C961	C96	0.506380	0.151520	0.482050
H681	H68	0.465270	0.149890	0.476040
C971	C97	0.612290	0.187130	0.556960
H691	H69	0.640760	0.210540	0.601980
C981	C98	0.550340	0.186440	0.548760
H701	H70	0.538970	0.209430	0.587970
Zn71	Zn7	0.399160	0.066650	0.327100
N291	N29	0.014410	0.364930	0.759690
C991	C99	0.032110	0.339710	0.824550
H711	H71	0.075220	0.345880	0.829570
N301	N30	0.983900	0.304750	0.882390
C1001	C100	0.946410	0.343050	0.774360
C1011	C101	0.901290	0.353910	0.729320
H721	H72	0.913420	0.378330	0.678900
C1021	C102	0.837560	0.326810	0.761880
H731	H73	0.805770	0.332830	0.732570
C1031	C103	0.818750	0.290020	0.839300
H741	H74	0.774930	0.272270	0.859360
C1041	C104	0.927820	0.306510	0.851200
C1051	C105	0.863770	0.280090	0.884840
H751	H75	0.851940	0.256700	0.936160
N311	N31	0.161800	0.412490	0.683860
C1061	C106	0.204980	0.395100	0.655970
H761	H76	0.196370	0.368920	0.607430
N321	N32	0.260990	0.416450	0.699730
C1071	C107	0.254810	0.453060	0.764650
C1081	C108	0.298100	0.487960	0.834620
H771	H77	0.338470	0.488450	0.841870
C1091	C109	0.194610	0.451220	0.756350
C1101	C110	0.173050	0.484850	0.815380
H781	H78	0.131940	0.483220	0.809370
C1111	C111	0.278960	0.520460	0.890290
H791	H79	0.307430	0.543870	0.935310
C1121	C112	0.217010	0.519770	0.882090
H801	H80	0.205640	0.542760	0.921300
Zn81	Zn8	0.065830	0.399980	0.660430
N331	N33	0.681070	0.698270	0.093030
C1131	C113	0.698770	0.673050	0.157890
H811	H81	0.741880	0.679220	0.162910
N341	N34	0.650560	0.638090	0.215730
C1141	C114	0.613070	0.676390	0.107700
C1151	C115	0.567950	0.687250	0.062660
H821	H82	0.580080	0.711670	0.012240
C1161	C116	0.504220	0.660150	0.095220
H831	H83	0.472430	0.666170	0.065910
C1171	C117	0.485410	0.623360	0.172640
H841	H84	0.441590	0.605610	0.192700
C1181	C118	0.594480	0.639850	0.184540
C1191	C119	0.530430	0.613430	0.218180
H851	H85	0.518600	0.590040	0.269500
N351	N35	0.828460	0.745830	0.017200
C1201	C120	0.871640	0.728440	0.989310
H861	H86	0.863030	0.702260	0.940770
N361	N36	0.927650	0.749790	0.033070
C1211	C121	0.921470	0.786400	0.097990
C1221	C122	0.964760	0.821300	0.167960
H871	H87	0.005130	0.821790	0.175210
C1231	C123	0.861270	0.784560	0.089690
C1241	C124	0.839710	0.818190	0.148720
H881	H88	0.798600	0.816560	0.142710
C1251	C125	0.945620	0.853800	0.223630
H891	H89	0.974090	0.877210	0.268650
C1261	C126	0.883670	0.853110	0.215430
H901	H90	0.872300	0.876100	0.254640
Zn91	Zn9	0.732490	0.733320	0.993770
N371	N37	0.031600	0.683860	0.573640
C1271	C127	0.006380	0.640940	0.508780
H911	H91	0.012550	0.604000	0.503760
N381	N38	0.971420	0.654190	0.450940
C1281	C128	0.009720	0.729980	0.558970
C1291	C129	0.020580	0.785960	0.604010
H921	H92	0.045000	0.798250	0.654430
C1301	C130	0.993480	0.822590	0.571450
H931	H93	0.999500	0.860400	0.600760
C1311	C131	0.956690	0.804610	0.494030
H941	H94	0.938940	0.830680	0.473970
C1321	C132	0.973180	0.712030	0.482130
C1331	C133	0.946760	0.749660	0.448490
H951	H95	0.923370	0.738100	0.397170
N391	N39	0.079160	0.584030	0.649470
C1341	C134	0.061770	0.523460	0.677360
H961	H96	0.035590	0.505890	0.725900
N401	N40	0.083120	0.488800	0.633600
C1351	C135	0.119730	0.531590	0.568680
C1361	C136	0.154630	0.523200	0.498710
H971	H97	0.155120	0.483320	0.491460
C1371	C137	0.117890	0.589950	0.576980
C1381	C138	0.151520	0.645140	0.517950
H981	H98	0.149890	0.684620	0.523960
C1391	C139	0.187130	0.574840	0.443040
H991	H99	0.210540	0.569780	0.398020
C1401	C140	0.186440	0.636100	0.451240
H1001	H100	0.209430	0.670460	0.412030
Zn101	Zn10	0.066650	0.667490	0.672900
N411	N41	0.698270	0.017190	0.906970
C1411	C141	0.673050	0.974270	0.842110
H1011	H101	0.679220	0.937330	0.837090
N421	N42	0.638090	0.987520	0.784270
C1421	C142	0.676390	0.063310	0.892300
C1431	C143	0.687250	0.119290	0.937340
H1021	H102	0.711670	0.131580	0.987760
C1441	C144	0.660150	0.155920	0.904780
H1031	H103	0.666170	0.193730	0.934090
C1451	C145	0.623360	0.137940	0.827360
H1041	H104	0.605610	0.164010	0.807300
C1461	C146	0.639850	0.045360	0.815460
C1471	C147	0.613430	0.082990	0.781820
H1051	H105	0.590040	0.071430	0.730500
N431	N43	0.745830	0.917360	0.982800
C1481	C148	0.728440	0.856790	0.010690
H1061	H106	0.702260	0.839220	0.059230
N441	N44	0.749790	0.822130	0.966930
C1491	C149	0.786400	0.864920	0.902010
C1501	C150	0.821300	0.856530	0.832040
H1071	H107	0.821790	0.816650	0.824790
C1511	C151	0.784560	0.923280	0.910310
C1521	C152	0.818190	0.978470	0.851280
H1081	H108	0.816560	0.017950	0.857290
C1531	C153	0.853800	0.908170	0.776370
H1091	H109	0.877210	0.903110	0.731350
C1541	C154	0.853110	0.969430	0.784570
H1101	H110	0.876100	0.003790	0.745360
Zn111	Zn11	0.733320	0.000820	0.006230
N451	N45	0.364930	0.350530	0.240310
C1551	C155	0.339710	0.307610	0.175450
H1111	H111	0.345880	0.270670	0.170430
N461	N46	0.304750	0.320860	0.117610
C1561	C156	0.343050	0.396650	0.225640
C1571	C157	0.353910	0.452630	0.270680
H1121	H112	0.378330	0.464920	0.321100
C1581	C158	0.326810	0.489260	0.238120
H1131	H113	0.332830	0.527070	0.267430
C1591	C159	0.290020	0.471280	0.160700
H1141	H114	0.272270	0.497350	0.140640
C1601	C160	0.306510	0.378700	0.148800
C1611	C161	0.280090	0.416330	0.115160
H1151	H115	0.256700	0.404770	0.063840
N471	N47	0.412490	0.250700	0.316140
C1621	C162	0.395100	0.190130	0.344030
H1161	H116	0.368920	0.172560	0.392570
N481	N48	0.416450	0.155470	0.300270
C1631	C163	0.453060	0.198260	0.235350
C1641	C164	0.487960	0.189870	0.165380
H1171	H117	0.488450	0.149990	0.158130
C1651	C165	0.451220	0.256620	0.243650
C1661	C166	0.484850	0.311810	0.184620
H1181	H118	0.483220	0.351290	0.190630
C1671	C167	0.520460	0.241510	0.109710
H1191	H119	0.543870	0.236450	0.064690
C1681	C168	0.519770	0.302770	0.117910
H1201	H120	0.542760	0.337130	0.078700
Zn121	Zn12	0.399980	0.334160	0.339570
N491	N49	0.316140	0.347740	0.573640
C1691	C169	0.359060	0.365440	0.508780
H1211	H121	0.396000	0.408550	0.503760
N501	N50	0.345810	0.317230	0.450940
C1701	C170	0.270020	0.279740	0.558970
C1711	C171	0.214040	0.234620	0.604010
H1221	H122	0.201750	0.246750	0.654430
C1721	C172	0.177410	0.170890	0.571450
H1231	H123	0.139600	0.139100	0.600760
C1731	C173	0.195390	0.152080	0.494030
H1241	H124	0.169320	0.108260	0.473970
C1741	C174	0.287970	0.261150	0.482130
C1751	C175	0.250340	0.197100	0.448490
H1251	H125	0.261900	0.185270	0.397170
N511	N51	0.415970	0.495130	0.649470
C1761	C176	0.476540	0.538310	0.677360
H1261	H126	0.494110	0.529700	0.725900
N521	N52	0.511200	0.594320	0.633600
C1771	C177	0.468410	0.588140	0.568680
C1781	C178	0.476800	0.631430	0.498710
H1271	H127	0.516680	0.671800	0.491460
C1791	C179	0.410050	0.527940	0.576980
C1801	C180	0.354860	0.506380	0.517950
H1281	H128	0.315380	0.465270	0.523960
C1811	C181	0.425160	0.612290	0.443040
H1291	H129	0.430220	0.640760	0.398020
C1821	C182	0.363900	0.550340	0.451240
H1301	H130	0.329540	0.538970	0.412030
Zn131	Zn13	0.332510	0.399160	0.672900
N531	N53	0.982810	0.681070	0.906970
C1831	C183	0.025730	0.698770	0.842110
H1311	H131	0.062670	0.741880	0.837090
N541	N54	0.012480	0.650560	0.784270
C1841	C184	0.936690	0.613070	0.892300
C1851	C185	0.880710	0.567950	0.937340
H1321	H132	0.868420	0.580080	0.987760
C1861	C186	0.844080	0.504220	0.904780
H1331	H133	0.806270	0.472430	0.934090
C1871	C187	0.862060	0.485410	0.827360
H1341	H134	0.835990	0.441590	0.807300
C1881	C188	0.954640	0.594480	0.815460
C1891	C189	0.917010	0.530430	0.781820
H1351	H135	0.928570	0.518600	0.730500
N551	N55	0.082640	0.828460	0.982800
C1901	C190	0.143210	0.871640	0.010690
H1361	H136	0.160780	0.863030	0.059230
N561	N56	0.177870	0.927650	0.966930
C1911	C191	0.135080	0.921470	0.902010
C1921	C192	0.143470	0.964760	0.832040
H1371	H137	0.183350	0.005130	0.824790
C1931	C193	0.076720	0.861270	0.910310
C1941	C194	0.021530	0.839710	0.851280
H1381	H138	0.982050	0.798600	0.857290
C1951	C195	0.091830	0.945620	0.776370
H1391	H139	0.096890	0.974090	0.731350
C1961	C196	0.030570	0.883670	0.784570
H1401	H140	0.996210	0.872300	0.745360
Zn141	Zn14	0.999180	0.732490	0.006230
N571	N57	0.649470	0.014410	0.240310
C1971	C197	0.692390	0.032110	0.175450
H1411	H141	0.729330	0.075220	0.170430
N581	N58	0.679140	0.983900	0.117610
C1981	C198	0.603350	0.946410	0.225640
C1991	C199	0.547370	0.901290	0.270680
H1421	H142	0.535080	0.913420	0.321100
C2001	C200	0.510740	0.837560	0.238120
H1431	H143	0.472930	0.805770	0.267430
C2011	C201	0.528720	0.818750	0.160700
H1441	H144	0.502650	0.774930	0.140640
C2021	C202	0.621300	0.927820	0.148800
C2031	C203	0.583670	0.863770	0.115160
H1451	H145	0.595230	0.851940	0.063840
N591	N59	0.749300	0.161800	0.316140
C2041	C204	0.809870	0.204980	0.344030
H1461	H146	0.827440	0.196370	0.392570
N601	N60	0.844530	0.260990	0.300270
C2051	C205	0.801740	0.254810	0.235350
C2061	C206	0.810130	0.298100	0.165380
H1471	H147	0.850010	0.338470	0.158130
C2071	C207	0.743380	0.194610	0.243650
C2081	C208	0.688190	0.173050	0.184620
H1481	H148	0.648710	0.131940	0.190630
C2091	C209	0.758490	0.278960	0.109710
H1491	H149	0.763550	0.307430	0.064690
C2101	C210	0.697230	0.217010	0.117910
H1501	H150	0.662870	0.205640	0.078700
Zn151	Zn15	0.665840	0.065830	0.339570
N611	N61	0.652260	0.968400	0.573640
C2111	C211	0.634560	0.993620	0.508780
H1511	H151	0.591450	0.987450	0.503760
N621	N62	0.682770	0.028580	0.450940
C2121	C212	0.720260	0.990280	0.558970
C2131	C213	0.765380	0.979420	0.604010
H1521	H152	0.753250	0.955000	0.654430
C2141	C214	0.829110	0.006520	0.571450
H1531	H153	0.860900	0.000500	0.600760
C2151	C215	0.847920	0.043310	0.494030
H1541	H154	0.891740	0.061060	0.473970
C2161	C216	0.738850	0.026820	0.482130
C2171	C217	0.802900	0.053240	0.448490
H1551	H155	0.814730	0.076630	0.397170
N631	N63	0.504870	0.920840	0.649470
C2181	C218	0.461690	0.938230	0.677360
H1561	H156	0.470300	0.964410	0.725900
N641	N64	0.405680	0.916880	0.633600
C2191	C219	0.411860	0.880270	0.568680
C2201	C220	0.368570	0.845370	0.498710
H1571	H157	0.328200	0.844880	0.491460
C2211	C221	0.472060	0.882110	0.576980
C2221	C222	0.493620	0.848480	0.517950
H1581	H158	0.534730	0.850110	0.523960
C2231	C223	0.387710	0.812870	0.443040
H1591	H159	0.359240	0.789460	0.398020
C2241	C224	0.449660	0.813560	0.451240
H1601	H160	0.461030	0.790570	0.412030
Zn161	Zn16	0.600840	0.933350	0.672900
N651	N65	0.318930	0.301730	0.906970
C2251	C225	0.301230	0.326950	0.842110
H1611	H161	0.258120	0.320780	0.837090
N661	N66	0.349440	0.361910	0.784270
C2261	C226	0.386930	0.323610	0.892300
C2271	C227	0.432050	0.312750	0.937340
H1621	H162	0.419920	0.288330	0.987760
C2281	C228	0.495780	0.339850	0.904780
H1631	H163	0.527570	0.333830	0.934090
C2291	C229	0.514590	0.376640	0.827360
H1641	H164	0.558410	0.394390	0.807300
C2301	C230	0.405520	0.360150	0.815460
C2311	C231	0.469570	0.386570	0.781820
H1651	H165	0.481400	0.409960	0.730500
N671	N67	0.171540	0.254170	0.982800
C2321	C232	0.128360	0.271560	0.010690
H1661	H166	0.136970	0.297740	0.059230
N681	N68	0.072350	0.250210	0.966930
C2331	C233	0.078530	0.213600	0.902010
C2341	C234	0.035240	0.178700	0.832040
H1671	H167	0.994870	0.178210	0.824790
C2351	C235	0.138730	0.215440	0.910310
C2361	C236	0.160290	0.181810	0.851280
H1681	H168	0.201400	0.183440	0.857290
C2371	C237	0.054380	0.146200	0.776370
H1691	H169	0.025910	0.122790	0.731350
C2381	C238	0.116330	0.146890	0.784570
H1701	H170	0.127700	0.123900	0.745360
Zn171	Zn17	0.267510	0.266680	0.006230
N691	N69	0.985590	0.635070	0.240310
C2391	C239	0.967890	0.660290	0.175450
H1711	H171	0.924780	0.654120	0.170430
N701	N70	0.016100	0.695250	0.117610
C2401	C240	0.053590	0.656950	0.225640
C2411	C241	0.098710	0.646090	0.270680
H1721	H172	0.086580	0.621670	0.321100
C2421	C242	0.162440	0.673190	0.238120
H1731	H173	0.194230	0.667170	0.267430
C2431	C243	0.181250	0.709980	0.160700
H1741	H174	0.225070	0.727730	0.140640
C2441	C244	0.072180	0.693490	0.148800
C2451	C245	0.136230	0.719910	0.115160
H1751	H175	0.148060	0.743300	0.063840
N711	N71	0.838200	0.587510	0.316140
C2461	C246	0.795020	0.604900	0.344030
H1761	H176	0.803630	0.631080	0.392570
N721	N72	0.739010	0.583550	0.300270
C2471	C247	0.745190	0.546940	0.235350
C2481	C248	0.701900	0.512040	0.165380
H1771	H177	0.661530	0.511550	0.158130
C2491	C249	0.805390	0.548780	0.243650
C2501	C250	0.826950	0.515150	0.184620
H1781	H178	0.868060	0.516780	0.190630
C2511	C251	0.721040	0.479540	0.109710
H1791	H179	0.692570	0.456130	0.064690
C2521	C252	0.782990	0.480230	0.117910
H1801	H180	0.794360	0.457240	0.078700
Zn181	Zn18	0.934170	0.600020	0.339570
