data_RIPTEQ_freeONLY_PM
_symmetry_space_group_name_H-M	'P1'
_cell_length_a	12.420000
_cell_length_b	13.666000
_cell_length_c	14.234000
_cell_angle_alpha	96.943000
_cell_angle_beta	114.715000
_cell_angle_gamma	110.568000
_symmetry_Int_Tables_number 1

loop_
_symmetry_equiv_pos_as_xyz
'x,y,z'

loop_
_atom_site_label
_atom_site_type_symbol
_atom_site_fract_x
_atom_site_fract_y
_atom_site_fract_z
Mo11	Mo1	0.315040	0.465330	0.159660
Mo21	Mo2	0.319020	0.715350	0.268530
Mo31	Mo3	0.112320	0.714000	0.272570
Mo41	Mo4	0.824310	0.458280	0.171900
Mo51	Mo5	0.824190	0.274400	0.100630
Mo61	Mo6	0.108510	0.279850	0.090430
Zn11	Zn1	0.157520	0.321030	0.428370
P11	P1	0.137560	0.473210	0.288540
P21	P2	0.576950	0.664620	0.380330
P31	P3	0.923310	0.664450	0.382960
P41	P4	0.970640	0.119980	0.207180
O11	O1	0.493900	0.547000	0.302500
O21	O2	0.250800	0.537300	0.268000
O31	O3	0.280400	0.345800	0.220900
O41	O4	0.343200	0.625500	0.152700
O51	O5	0.131000	0.413900	0.050800
O61	O6	0.380200	0.438800	0.082500
O71	O7	0.490500	0.717800	0.387400
O81	O8	0.281400	0.735700	0.386600
O91	O9	0.136300	0.658400	0.153300
O101	O10	0.392800	0.841300	0.262100
O111	O11	0.062000	0.717700	0.394300
O121	O12	0.051800	0.534400	0.275700
O131	O13	0.907500	0.618100	0.161700
O141	O14	0.126500	0.839200	0.266000
O151	O15	0.854100	0.540800	0.319800
O161	O16	0.834900	0.341200	0.234400
O171	O17	0.858800	0.407500	0.058500
O181	O18	0.663400	0.429400	0.101000
O191	O19	0.901900	0.232400	0.002400
O201	O20	0.860000	0.156400	0.167900
O211	O21	0.052100	0.357500	0.204100
O221	O22	0.663300	0.192400	0.012900
O231	O23	0.046600	0.148700	0.144000
O241	O24	0.119800	0.202600	0.996600
O251	O25	0.664300	0.739800	0.342400
O261	O26	0.844700	0.724500	0.325100
O271	O27	0.067100	0.177700	0.328500
O281	O28	0.909200	0.996500	0.186300
O291	O29	0.941200	0.676300	0.496400
O301	O30	0.661500	0.659900	0.490900
O311	O31	0.195100	0.464700	0.403500
O321	O32	0.796900	0.003300	0.891000
Mo71	Mo7	0.684960	0.534670	0.840340
Mo81	Mo8	0.680980	0.284650	0.731470
Mo91	Mo9	0.887680	0.286000	0.727430
Mo101	Mo10	0.175690	0.541720	0.828100
Mo111	Mo11	0.175810	0.725600	0.899370
Mo121	Mo12	0.891490	0.720150	0.909570
Zn21	Zn2	0.842480	0.678970	0.571630
P51	P5	0.862440	0.526790	0.711460
P61	P6	0.423050	0.335380	0.619670
P71	P7	0.076690	0.335550	0.617040
P81	P8	0.029360	0.880020	0.792820
O331	O33	0.506100	0.453000	0.697500
O341	O34	0.749200	0.462700	0.732000
O351	O35	0.719600	0.654200	0.779100
O361	O36	0.656800	0.374500	0.847300
O371	O37	0.869000	0.586100	0.949200
O381	O38	0.619800	0.561200	0.917500
O391	O39	0.509500	0.282200	0.612600
O401	O40	0.718600	0.264300	0.613400
O411	O41	0.863700	0.341600	0.846700
O421	O42	0.607200	0.158700	0.737900
O431	O43	0.938000	0.282300	0.605700
O441	O44	0.948200	0.465600	0.724300
O451	O45	0.092500	0.381900	0.838300
O461	O46	0.873500	0.160800	0.734000
O471	O47	0.145900	0.459200	0.680200
O481	O48	0.165100	0.658800	0.765600
O491	O49	0.141200	0.592500	0.941500
O501	O50	0.336600	0.570600	0.899000
O511	O51	0.098100	0.767600	0.997600
O521	O52	0.140000	0.843600	0.832100
O531	O53	0.947900	0.642500	0.795900
O541	O54	0.336700	0.807600	0.987100
O551	O55	0.953400	0.851300	0.856000
O561	O56	0.880200	0.797400	0.003400
O571	O57	0.335700	0.260200	0.657600
O581	O58	0.155300	0.275500	0.674900
O591	O59	0.932900	0.822300	0.671500
O601	O60	0.090800	0.003500	0.813700
O611	O61	0.058800	0.323700	0.503600
O621	O62	0.338500	0.340100	0.509100
O631	O63	0.804900	0.535300	0.596500
O641	O64	0.203100	0.996700	0.109000
Na11	Na1	0.000000	0.500000	0.000000
Na21	Na2	0.000000	0.000000	0.000000
