data_RIVDEF_freeONLY_PM
_symmetry_space_group_name_H-M	'P1'
_cell_length_a	11.477000
_cell_length_b	11.477000
_cell_length_c	22.585000
_cell_angle_alpha	90.000000
_cell_angle_beta	90.000000
_cell_angle_gamma	120.000000
_symmetry_Int_Tables_number 1

loop_
_symmetry_equiv_pos_as_xyz
'x,y,z'

loop_
_atom_site_label
_atom_site_type_symbol
_atom_site_fract_x
_atom_site_fract_y
_atom_site_fract_z
Cd11	Cd1	0.530100	0.765050	0.916670
Cd21	Cd2	0.234950	0.469900	0.583330
Cd31	Cd3	0.234950	0.765050	0.250000
Cd41	Cd4	0.469900	0.234950	0.416670
Cd51	Cd5	0.765050	0.530100	0.083330
Cd61	Cd6	0.765050	0.234950	0.750000
B11	B1	0.647700	0.647700	0.000000
B21	B2	0.000000	0.352300	0.666670
B31	B3	0.352300	0.000000	0.333330
B41	B4	0.352300	0.352300	0.500000
B51	B5	0.000000	0.647700	0.166670
B61	B6	0.647700	0.000000	0.833330
H11	H1	0.857800	0.814600	0.890000
H21	H2	0.824000	0.658900	0.920100
H31	H3	0.900700	0.805400	0.964100
H41	H4	0.333700	0.582300	0.035100
H51	H5	0.465500	0.626100	0.086200
H61	H6	0.396700	0.472300	0.047400
H71	H7	0.956800	0.142200	0.556670
H81	H8	0.834900	0.176000	0.586770
H91	H9	0.904700	0.099300	0.630770
H101	H10	0.248600	0.666300	0.701770
H111	H11	0.160600	0.534500	0.752870
H121	H12	0.075600	0.603300	0.714070
H131	H13	0.185400	0.043200	0.223330
H141	H14	0.341100	0.165100	0.253430
H151	H15	0.194600	0.095300	0.297430
H161	H16	0.417700	0.751400	0.368430
H171	H17	0.373900	0.839400	0.419530
H181	H18	0.527700	0.924400	0.380730
H191	H19	0.142200	0.185400	0.390000
H201	H20	0.176000	0.341100	0.420100
H211	H21	0.099300	0.194600	0.464100
H221	H22	0.666300	0.417700	0.535100
H231	H23	0.534500	0.373900	0.586200
H241	H24	0.603300	0.527700	0.547400
H251	H25	0.043200	0.857800	0.056670
H261	H26	0.165100	0.824000	0.086770
H271	H27	0.095300	0.900700	0.130770
H281	H28	0.751400	0.333700	0.201770
H291	H29	0.839400	0.465500	0.252870
H301	H30	0.924400	0.396700	0.214070
H311	H31	0.814600	0.956800	0.723330
H321	H32	0.658900	0.834900	0.753430
H331	H33	0.805400	0.904700	0.797430
H341	H34	0.582300	0.248600	0.868430
H351	H35	0.626100	0.160600	0.919530
H361	H36	0.472300	0.075600	0.880730
H371	H37	0.043200	0.185400	0.776670
H381	H38	0.165100	0.341100	0.746570
H391	H39	0.095300	0.194600	0.702570
H401	H40	0.751400	0.417700	0.631570
H411	H41	0.839400	0.373900	0.580470
H421	H42	0.924400	0.527700	0.619270
H431	H43	0.814600	0.857800	0.110000
H441	H44	0.658900	0.824000	0.079900
H451	H45	0.805400	0.900700	0.035900
H461	H46	0.582300	0.333700	0.964900
H471	H47	0.626100	0.465500	0.913800
H481	H48	0.472300	0.396700	0.952600
H491	H49	0.142200	0.956800	0.443330
H501	H50	0.176000	0.834900	0.413230
H511	H51	0.099300	0.904700	0.369230
H521	H52	0.666300	0.248600	0.298230
H531	H53	0.534500	0.160600	0.247130
H541	H54	0.603300	0.075600	0.285930
H551	H55	0.956800	0.814600	0.276670
H561	H56	0.834900	0.658900	0.246570
H571	H57	0.904700	0.805400	0.202570
H581	H58	0.248600	0.582300	0.131570
H591	H59	0.160600	0.626100	0.080470
H601	H60	0.075600	0.472300	0.119270
H611	H61	0.185400	0.142200	0.610000
H621	H62	0.341100	0.176000	0.579900
H631	H63	0.194600	0.099300	0.535900
H641	H64	0.417700	0.666300	0.464900
H651	H65	0.373900	0.534500	0.413800
H661	H66	0.527700	0.603300	0.452600
H671	H67	0.857800	0.043200	0.943330
H681	H68	0.824000	0.165100	0.913230
H691	H69	0.900700	0.095300	0.869230
H701	H70	0.333700	0.751400	0.798230
H711	H71	0.465500	0.839400	0.747130
H721	H72	0.396700	0.924400	0.785930
C11	C1	0.961900	0.512200	0.968200
C21	C2	0.828200	0.753300	0.929500
C31	C3	0.422900	0.576500	0.044600
C41	C4	0.550300	0.038100	0.634870
C51	C5	0.925100	0.171800	0.596170
C61	C6	0.153600	0.577100	0.711270
C71	C7	0.487800	0.449700	0.301530
C81	C8	0.246700	0.074900	0.262830
C91	C9	0.423500	0.846400	0.377930
C101	C10	0.038100	0.487800	0.468200
C111	C11	0.171800	0.246700	0.429500
C121	C12	0.577100	0.423500	0.544600
C131	C13	0.449700	0.961900	0.134870
C141	C14	0.074900	0.828200	0.096170
C151	C15	0.846400	0.422900	0.211270
C161	C16	0.512200	0.550300	0.801530
C171	C17	0.753300	0.925100	0.762830
C181	C18	0.576500	0.153600	0.877930
C191	C19	0.449700	0.487800	0.698470
C201	C20	0.074900	0.246700	0.737170
C211	C21	0.846400	0.423500	0.622070
C221	C22	0.512200	0.961900	0.031800
C231	C23	0.753300	0.828200	0.070500
C241	C24	0.576500	0.422900	0.955400
C251	C25	0.038100	0.550300	0.365130
C261	C26	0.171800	0.925100	0.403830
C271	C27	0.577100	0.153600	0.288730
C281	C28	0.550300	0.512200	0.198470
C291	C29	0.925100	0.753300	0.237170
C301	C30	0.153600	0.576500	0.122070
C311	C31	0.487800	0.038100	0.531800
C321	C32	0.246700	0.171800	0.570500
C331	C33	0.423500	0.577100	0.455400
C341	C34	0.961900	0.449700	0.865130
C351	C35	0.828200	0.074900	0.903830
C361	C36	0.422900	0.846400	0.788730
C371	C37	0.033500	0.516750	0.916670
C381	C38	0.174900	0.587450	0.916670
C391	C39	0.483250	0.966500	0.583330
C401	C40	0.412550	0.825100	0.583330
C411	C41	0.483250	0.516750	0.250000
C421	C42	0.412550	0.587450	0.250000
C431	C43	0.966500	0.483250	0.416670
C441	C44	0.825100	0.412550	0.416670
C451	C45	0.516750	0.033500	0.083330
C461	C46	0.587450	0.174900	0.083330
C471	C47	0.516750	0.483250	0.750000
C481	C48	0.587450	0.412550	0.750000
N11	N1	0.901100	0.508700	0.008400
N21	N2	0.607600	0.098900	0.675070
N31	N3	0.491300	0.392400	0.341730
N41	N4	0.098900	0.491300	0.508400
N51	N5	0.392400	0.901100	0.175070
N61	N6	0.508700	0.607600	0.841730
N71	N7	0.392400	0.491300	0.658270
N81	N8	0.508700	0.901100	0.991600
N91	N9	0.098900	0.607600	0.324930
N101	N10	0.607600	0.508700	0.158270
N111	N11	0.491300	0.098900	0.491600
N121	N12	0.901100	0.392400	0.824930
N131	N13	0.288600	0.644300	0.916670
N141	N14	0.355700	0.711400	0.583330
N151	N15	0.355700	0.644300	0.250000
N161	N16	0.711400	0.355700	0.416670
N171	N17	0.644300	0.288600	0.083330
N181	N18	0.644300	0.355700	0.750000
O11	O1	0.706200	0.729300	0.947100
O21	O2	0.518300	0.640500	0.998700
O31	O3	0.023100	0.293800	0.613770
O41	O4	0.122200	0.481700	0.665370
O51	O5	0.270700	0.976900	0.280430
O61	O6	0.359500	0.877800	0.332030
O71	O7	0.293800	0.270700	0.447100
O81	O8	0.481700	0.359500	0.498700
O91	O9	0.976900	0.706200	0.113770
O101	O10	0.877800	0.518300	0.165370
O111	O11	0.729300	0.023100	0.780430
O121	O12	0.640500	0.122200	0.832030
O131	O13	0.976900	0.270700	0.719570
O141	O14	0.877800	0.359500	0.667970
O151	O15	0.729300	0.706200	0.052900
O161	O16	0.640500	0.518300	0.001300
O171	O17	0.293800	0.023100	0.386230
O181	O18	0.481700	0.122200	0.334630
O191	O19	0.023100	0.729300	0.219570
O201	O20	0.122200	0.640500	0.167970
O211	O21	0.270700	0.293800	0.552900
O221	O22	0.359500	0.481700	0.501300
O231	O23	0.706200	0.976900	0.886230
O241	O24	0.518300	0.877800	0.834630
