data_RIVDEH_freeONLY_PM
_symmetry_space_group_name_H-M	'P1'
_cell_length_a	63.897000
_cell_length_b	63.897000
_cell_length_c	63.897000
_cell_angle_alpha	90.000000
_cell_angle_beta	90.000000
_cell_angle_gamma	90.000000
_symmetry_Int_Tables_number 1

loop_
_symmetry_equiv_pos_as_xyz
'x,y,z'

loop_
_atom_site_label
_atom_site_type_symbol
_atom_site_fract_x
_atom_site_fract_y
_atom_site_fract_z
C11	C1	0.411050	0.218780	0.100840
H11	H1	0.398300	0.215400	0.094000
C21	C2	0.428450	0.206840	0.096330
C31	C3	0.447330	0.211940	0.106000
H21	H2	0.459600	0.204000	0.103400
C41	C4	0.447600	0.228840	0.119440
H31	H3	0.460200	0.232900	0.126100
C51	C5	0.429240	0.239850	0.123100
H41	H4	0.429600	0.251500	0.132300
C61	C6	0.343020	0.148280	0.968790
C71	C7	0.358630	0.164820	0.015340
H51	H5	0.347700	0.163600	0.005300
C81	C8	0.359440	0.182640	0.027950
H61	H6	0.348900	0.193000	0.026900
C91	C9	0.375510	0.185010	0.041770
H71	H7	0.376500	0.197200	0.050200
C101	C10	0.390570	0.169060	0.043330
C111	C11	0.388260	0.151690	0.030650
H81	H8	0.398300	0.140800	0.031800
C121	C12	0.407910	0.170380	0.058470
C131	C13	0.426190	0.188230	0.082700
C141	C14	0.435530	0.155700	0.074220
C151	C15	0.462420	0.137250	0.095650
H91	H9	0.462800	0.149300	0.104400
C161	C16	0.448780	0.137290	0.078360
C171	C17	0.447900	0.119280	0.066010
H101	H10	0.438800	0.118500	0.054300
C181	C18	0.460630	0.102560	0.071410
H111	H11	0.460300	0.090000	0.063400
C191	C19	0.473770	0.104150	0.088420
H121	H12	0.482500	0.092600	0.091800
C201	C20	0.501260	0.074960	0.130090
C211	C21	0.517600	0.111360	0.167070
H131	H13	0.507300	0.100700	0.165900
C221	C22	0.529250	0.112140	0.184730
H141	H14	0.526600	0.102700	0.195900
C231	C23	0.545190	0.127020	0.186450
H151	H15	0.553700	0.127800	0.198600
C241	C24	0.548220	0.140670	0.169890
C251	C25	0.534960	0.139230	0.152590
H161	H16	0.536700	0.148900	0.141400
C261	C26	0.564330	0.156960	0.170610
N11	N1	0.410930	0.234730	0.114130
N21	N2	0.354310	0.136230	0.976460
N31	N3	0.372730	0.149330	0.016810
N41	N4	0.420300	0.153640	0.060520
N51	N5	0.409900	0.188070	0.069610
N61	N6	0.439700	0.172850	0.085230
N71	N7	0.474660	0.121390	0.100400
N81	N8	0.498740	0.092500	0.127220
N91	N9	0.520010	0.124940	0.151140
N101	N10	0.563970	0.171370	0.155600
S11	S1	0.326890	0.165250	0.958880
S21	S2	0.504910	0.050160	0.134300
C271	C27	0.411050	0.718780	0.600840
H171	H17	0.398300	0.715400	0.594000
C281	C28	0.428450	0.706840	0.596330
C291	C29	0.447330	0.711940	0.606000
H181	H18	0.459600	0.704000	0.603400
C301	C30	0.447600	0.728840	0.619440
H191	H19	0.460200	0.732900	0.626100
C311	C31	0.429240	0.739850	0.623100
H201	H20	0.429600	0.751500	0.632300
C321	C32	0.343020	0.648280	0.468790
C331	C33	0.358630	0.664820	0.515340
H211	H21	0.347700	0.663600	0.505300
C341	C34	0.359440	0.682640	0.527950
H221	H22	0.348900	0.693000	0.526900
C351	C35	0.375510	0.685010	0.541770
H231	H23	0.376500	0.697200	0.550200
C361	C36	0.390570	0.669060	0.543330
C371	C37	0.388260	0.651690	0.530650
H241	H24	0.398300	0.640800	0.531800
C381	C38	0.407910	0.670380	0.558470
C391	C39	0.426190	0.688230	0.582700
C401	C40	0.435530	0.655700	0.574220
C411	C41	0.462420	0.637250	0.595650
H251	H25	0.462800	0.649300	0.604400
C421	C42	0.448780	0.637290	0.578360
C431	C43	0.447900	0.619280	0.566010
H261	H26	0.438800	0.618500	0.554300
C441	C44	0.460630	0.602560	0.571410
H271	H27	0.460300	0.590000	0.563400
C451	C45	0.473770	0.604150	0.588420
H281	H28	0.482500	0.592600	0.591800
C461	C46	0.501260	0.574960	0.630090
C471	C47	0.517600	0.611360	0.667070
H291	H29	0.507300	0.600700	0.665900
C481	C48	0.529250	0.612140	0.684730
H301	H30	0.526600	0.602700	0.695900
C491	C49	0.545190	0.627020	0.686450
H311	H31	0.553700	0.627800	0.698600
C501	C50	0.548220	0.640670	0.669890
C511	C51	0.534960	0.639230	0.652590
H321	H32	0.536700	0.648900	0.641400
C521	C52	0.564330	0.656960	0.670610
N111	N11	0.410930	0.734730	0.614130
N121	N12	0.354310	0.636230	0.476460
N131	N13	0.372730	0.649330	0.516810
N141	N14	0.420300	0.653640	0.560520
N151	N15	0.409900	0.688070	0.569610
N161	N16	0.439700	0.672850	0.585230
N171	N17	0.474660	0.621390	0.600400
N181	N18	0.498740	0.592500	0.627220
N191	N19	0.520010	0.624940	0.651140
N201	N20	0.563970	0.671370	0.655600
S31	S3	0.326890	0.665250	0.458880
S41	S4	0.504910	0.550160	0.634300
C531	C53	0.911050	0.218780	0.600840
H331	H33	0.898300	0.215400	0.594000
C541	C54	0.928450	0.206840	0.596330
C551	C55	0.947330	0.211940	0.606000
H341	H34	0.959600	0.204000	0.603400
C561	C56	0.947600	0.228840	0.619440
H351	H35	0.960200	0.232900	0.626100
C571	C57	0.929240	0.239850	0.623100
H361	H36	0.929600	0.251500	0.632300
C581	C58	0.843020	0.148280	0.468790
C591	C59	0.858630	0.164820	0.515340
H371	H37	0.847700	0.163600	0.505300
C601	C60	0.859440	0.182640	0.527950
H381	H38	0.848900	0.193000	0.526900
C611	C61	0.875510	0.185010	0.541770
H391	H39	0.876500	0.197200	0.550200
C621	C62	0.890570	0.169060	0.543330
C631	C63	0.888260	0.151690	0.530650
H401	H40	0.898300	0.140800	0.531800
C641	C64	0.907910	0.170380	0.558470
C651	C65	0.926190	0.188230	0.582700
C661	C66	0.935530	0.155700	0.574220
C671	C67	0.962420	0.137250	0.595650
H411	H41	0.962800	0.149300	0.604400
C681	C68	0.948780	0.137290	0.578360
C691	C69	0.947900	0.119280	0.566010
H421	H42	0.938800	0.118500	0.554300
C701	C70	0.960630	0.102560	0.571410
H431	H43	0.960300	0.090000	0.563400
C711	C71	0.973770	0.104150	0.588420
H441	H44	0.982500	0.092600	0.591800
C721	C72	0.001260	0.074960	0.630090
C731	C73	0.017600	0.111360	0.667070
H451	H45	0.007300	0.100700	0.665900
C741	C74	0.029250	0.112140	0.684730
H461	H46	0.026600	0.102700	0.695900
C751	C75	0.045190	0.127020	0.686450
H471	H47	0.053700	0.127800	0.698600
C761	C76	0.048220	0.140670	0.669890
C771	C77	0.034960	0.139230	0.652590
H481	H48	0.036700	0.148900	0.641400
C781	C78	0.064330	0.156960	0.670610
N211	N21	0.910930	0.234730	0.614130
N221	N22	0.854310	0.136230	0.476460
N231	N23	0.872730	0.149330	0.516810
N241	N24	0.920300	0.153640	0.560520
N251	N25	0.909900	0.188070	0.569610
N261	N26	0.939700	0.172850	0.585230
N271	N27	0.974660	0.121390	0.600400
N281	N28	0.998740	0.092500	0.627220
N291	N29	0.020010	0.124940	0.651140
N301	N30	0.063970	0.171370	0.655600
S51	S5	0.826890	0.165250	0.458880
S61	S6	0.004910	0.050160	0.634300
C791	C79	0.911050	0.718780	0.100840
H491	H49	0.898300	0.715400	0.094000
C801	C80	0.928450	0.706840	0.096330
C811	C81	0.947330	0.711940	0.106000
H501	H50	0.959600	0.704000	0.103400
C821	C82	0.947600	0.728840	0.119440
H511	H51	0.960200	0.732900	0.126100
C831	C83	0.929240	0.739850	0.123100
H521	H52	0.929600	0.751500	0.132300
C841	C84	0.843020	0.648280	0.968790
C851	C85	0.858630	0.664820	0.015340
H531	H53	0.847700	0.663600	0.005300
C861	C86	0.859440	0.682640	0.027950
H541	H54	0.848900	0.693000	0.026900
C871	C87	0.875510	0.685010	0.041770
H551	H55	0.876500	0.697200	0.050200
C881	C88	0.890570	0.669060	0.043330
C891	C89	0.888260	0.651690	0.030650
H561	H56	0.898300	0.640800	0.031800
C901	C90	0.907910	0.670380	0.058470
C911	C91	0.926190	0.688230	0.082700
C921	C92	0.935530	0.655700	0.074220
C931	C93	0.962420	0.637250	0.095650
H571	H57	0.962800	0.649300	0.104400
C941	C94	0.948780	0.637290	0.078360
C951	C95	0.947900	0.619280	0.066010
H581	H58	0.938800	0.618500	0.054300
C961	C96	0.960630	0.602560	0.071410
H591	H59	0.960300	0.590000	0.063400
C971	C97	0.973770	0.604150	0.088420
H601	H60	0.982500	0.592600	0.091800
C981	C98	0.001260	0.574960	0.130090
C991	C99	0.017600	0.611360	0.167070
H611	H61	0.007300	0.600700	0.165900
C1001	C100	0.029250	0.612140	0.184730
H621	H62	0.026600	0.602700	0.195900
C1011	C101	0.045190	0.627020	0.186450
H631	H63	0.053700	0.627800	0.198600
C1021	C102	0.048220	0.640670	0.169890
C1031	C103	0.034960	0.639230	0.152590
H641	H64	0.036700	0.648900	0.141400
C1041	C104	0.064330	0.656960	0.170610
N311	N31	0.910930	0.734730	0.114130
N321	N32	0.854310	0.636230	0.976460
N331	N33	0.872730	0.649330	0.016810
N341	N34	0.920300	0.653640	0.060520
N351	N35	0.909900	0.688070	0.069610
N361	N36	0.939700	0.672850	0.085230
N371	N37	0.974660	0.621390	0.100400
N381	N38	0.998740	0.592500	0.127220
N391	N39	0.020010	0.624940	0.151140
N401	N40	0.063970	0.671370	0.155600
S71	S7	0.826890	0.665250	0.958880
S81	S8	0.004910	0.550160	0.134300
C1051	C105	0.838950	0.531220	0.600840
H651	H65	0.851700	0.534600	0.594000
C1061	C106	0.821550	0.543160	0.596330
C1071	C107	0.802670	0.538060	0.606000
H661	H66	0.790400	0.546000	0.603400
C1081	C108	0.802400	0.521160	0.619440
H671	H67	0.789800	0.517100	0.626100
C1091	C109	0.820760	0.510150	0.623100
H681	H68	0.820400	0.498500	0.632300
C1101	C110	0.906980	0.601720	0.468790
C1111	C111	0.891370	0.585180	0.515340
H691	H69	0.902300	0.586400	0.505300
C1121	C112	0.890560	0.567360	0.527950
H701	H70	0.901100	0.557000	0.526900
C1131	C113	0.874490	0.564990	0.541770
H711	H71	0.873500	0.552800	0.550200
C1141	C114	0.859430	0.580940	0.543330
C1151	C115	0.861740	0.598310	0.530650
H721	H72	0.851700	0.609200	0.531800
C1161	C116	0.842090	0.579620	0.558470
C1171	C117	0.823810	0.561770	0.582700
C1181	C118	0.814470	0.594300	0.574220
C1191	C119	0.787580	0.612750	0.595650
H731	H73	0.787200	0.600700	0.604400
C1201	C120	0.801220	0.612710	0.578360
C1211	C121	0.802100	0.630720	0.566010
H741	H74	0.811200	0.631500	0.554300
C1221	C122	0.789370	0.647440	0.571410
H751	H75	0.789700	0.660000	0.563400
C1231	C123	0.776230	0.645850	0.588420
H761	H76	0.767500	0.657400	0.591800
C1241	C124	0.748740	0.675040	0.630090
C1251	C125	0.732400	0.638640	0.667070
H771	H77	0.742700	0.649300	0.665900
C1261	C126	0.720750	0.637860	0.684730
H781	H78	0.723400	0.647300	0.695900
C1271	C127	0.704810	0.622980	0.686450
H791	H79	0.696300	0.622200	0.698600
C1281	C128	0.701780	0.609330	0.669890
C1291	C129	0.715040	0.610770	0.652590
H801	H80	0.713300	0.601100	0.641400
C1301	C130	0.685670	0.593040	0.670610
N411	N41	0.839070	0.515270	0.614130
N421	N42	0.895690	0.613770	0.476460
N431	N43	0.877270	0.600670	0.516810
N441	N44	0.829700	0.596360	0.560520
N451	N45	0.840100	0.561930	0.569610
N461	N46	0.810300	0.577150	0.585230
N471	N47	0.775340	0.628610	0.600400
N481	N48	0.751260	0.657500	0.627220
N491	N49	0.729990	0.625060	0.651140
N501	N50	0.686030	0.578630	0.655600
S91	S9	0.923110	0.584750	0.458880
S101	S10	0.745090	0.699840	0.634300
C1311	C131	0.838950	0.031220	0.100840
H811	H81	0.851700	0.034600	0.094000
C1321	C132	0.821550	0.043160	0.096330
C1331	C133	0.802670	0.038060	0.106000
H821	H82	0.790400	0.046000	0.103400
C1341	C134	0.802400	0.021160	0.119440
H831	H83	0.789800	0.017100	0.126100
C1351	C135	0.820760	0.010150	0.123100
H841	H84	0.820400	0.998500	0.132300
C1361	C136	0.906980	0.101720	0.968790
C1371	C137	0.891370	0.085180	0.015340
H851	H85	0.902300	0.086400	0.005300
C1381	C138	0.890560	0.067360	0.027950
H861	H86	0.901100	0.057000	0.026900
C1391	C139	0.874490	0.064990	0.041770
H871	H87	0.873500	0.052800	0.050200
C1401	C140	0.859430	0.080940	0.043330
C1411	C141	0.861740	0.098310	0.030650
H881	H88	0.851700	0.109200	0.031800
C1421	C142	0.842090	0.079620	0.058470
C1431	C143	0.823810	0.061770	0.082700
C1441	C144	0.814470	0.094300	0.074220
C1451	C145	0.787580	0.112750	0.095650
H891	H89	0.787200	0.100700	0.104400
C1461	C146	0.801220	0.112710	0.078360
C1471	C147	0.802100	0.130720	0.066010
H901	H90	0.811200	0.131500	0.054300
C1481	C148	0.789370	0.147440	0.071410
H911	H91	0.789700	0.160000	0.063400
C1491	C149	0.776230	0.145850	0.088420
H921	H92	0.767500	0.157400	0.091800
C1501	C150	0.748740	0.175040	0.130090
C1511	C151	0.732400	0.138640	0.167070
H931	H93	0.742700	0.149300	0.165900
C1521	C152	0.720750	0.137860	0.184730
H941	H94	0.723400	0.147300	0.195900
C1531	C153	0.704810	0.122980	0.186450
H951	H95	0.696300	0.122200	0.198600
C1541	C154	0.701780	0.109330	0.169890
C1551	C155	0.715040	0.110770	0.152590
H961	H96	0.713300	0.101100	0.141400
C1561	C156	0.685670	0.093040	0.170610
N511	N51	0.839070	0.015270	0.114130
N521	N52	0.895690	0.113770	0.976460
N531	N53	0.877270	0.100670	0.016810
N541	N54	0.829700	0.096360	0.060520
N551	N55	0.840100	0.061930	0.069610
N561	N56	0.810300	0.077150	0.085230
N571	N57	0.775340	0.128610	0.100400
N581	N58	0.751260	0.157500	0.127220
N591	N59	0.729990	0.125060	0.151140
N601	N60	0.686030	0.078630	0.155600
S111	S11	0.923110	0.084750	0.958880
S121	S12	0.745090	0.199840	0.134300
C1571	C157	0.338950	0.531220	0.100840
H971	H97	0.351700	0.534600	0.094000
C1581	C158	0.321550	0.543160	0.096330
C1591	C159	0.302670	0.538060	0.106000
H981	H98	0.290400	0.546000	0.103400
C1601	C160	0.302400	0.521160	0.119440
H991	H99	0.289800	0.517100	0.126100
C1611	C161	0.320760	0.510150	0.123100
H1001	H100	0.320400	0.498500	0.132300
C1621	C162	0.406980	0.601720	0.968790
C1631	C163	0.391370	0.585180	0.015340
H1011	H101	0.402300	0.586400	0.005300
C1641	C164	0.390560	0.567360	0.027950
H1021	H102	0.401100	0.557000	0.026900
C1651	C165	0.374490	0.564990	0.041770
H1031	H103	0.373500	0.552800	0.050200
C1661	C166	0.359430	0.580940	0.043330
C1671	C167	0.361740	0.598310	0.030650
H1041	H104	0.351700	0.609200	0.031800
C1681	C168	0.342090	0.579620	0.058470
C1691	C169	0.323810	0.561770	0.082700
C1701	C170	0.314470	0.594300	0.074220
C1711	C171	0.287580	0.612750	0.095650
H1051	H105	0.287200	0.600700	0.104400
C1721	C172	0.301220	0.612710	0.078360
C1731	C173	0.302100	0.630720	0.066010
H1061	H106	0.311200	0.631500	0.054300
C1741	C174	0.289370	0.647440	0.071410
H1071	H107	0.289700	0.660000	0.063400
C1751	C175	0.276230	0.645850	0.088420
H1081	H108	0.267500	0.657400	0.091800
C1761	C176	0.248740	0.675040	0.130090
C1771	C177	0.232400	0.638640	0.167070
H1091	H109	0.242700	0.649300	0.165900
C1781	C178	0.220750	0.637860	0.184730
H1101	H110	0.223400	0.647300	0.195900
C1791	C179	0.204810	0.622980	0.186450
H1111	H111	0.196300	0.622200	0.198600
C1801	C180	0.201780	0.609330	0.169890
C1811	C181	0.215040	0.610770	0.152590
H1121	H112	0.213300	0.601100	0.141400
C1821	C182	0.185670	0.593040	0.170610
N611	N61	0.339070	0.515270	0.114130
N621	N62	0.395690	0.613770	0.976460
N631	N63	0.377270	0.600670	0.016810
N641	N64	0.329700	0.596360	0.060520
N651	N65	0.340100	0.561930	0.069610
N661	N66	0.310300	0.577150	0.085230
N671	N67	0.275340	0.628610	0.100400
N681	N68	0.251260	0.657500	0.127220
N691	N69	0.229990	0.625060	0.151140
N701	N70	0.186030	0.578630	0.155600
S131	S13	0.423110	0.584750	0.958880
S141	S14	0.245090	0.699840	0.134300
C1831	C183	0.338950	0.031220	0.600840
H1131	H113	0.351700	0.034600	0.594000
C1841	C184	0.321550	0.043160	0.596330
C1851	C185	0.302670	0.038060	0.606000
H1141	H114	0.290400	0.046000	0.603400
C1861	C186	0.302400	0.021160	0.619440
H1151	H115	0.289800	0.017100	0.626100
C1871	C187	0.320760	0.010150	0.623100
H1161	H116	0.320400	0.998500	0.632300
C1881	C188	0.406980	0.101720	0.468790
C1891	C189	0.391370	0.085180	0.515340
H1171	H117	0.402300	0.086400	0.505300
C1901	C190	0.390560	0.067360	0.527950
H1181	H118	0.401100	0.057000	0.526900
C1911	C191	0.374490	0.064990	0.541770
H1191	H119	0.373500	0.052800	0.550200
C1921	C192	0.359430	0.080940	0.543330
C1931	C193	0.361740	0.098310	0.530650
H1201	H120	0.351700	0.109200	0.531800
C1941	C194	0.342090	0.079620	0.558470
C1951	C195	0.323810	0.061770	0.582700
C1961	C196	0.314470	0.094300	0.574220
C1971	C197	0.287580	0.112750	0.595650
H1211	H121	0.287200	0.100700	0.604400
C1981	C198	0.301220	0.112710	0.578360
C1991	C199	0.302100	0.130720	0.566010
H1221	H122	0.311200	0.131500	0.554300
C2001	C200	0.289370	0.147440	0.571410
H1231	H123	0.289700	0.160000	0.563400
C2011	C201	0.276230	0.145850	0.588420
H1241	H124	0.267500	0.157400	0.591800
C2021	C202	0.248740	0.175040	0.630090
C2031	C203	0.232400	0.138640	0.667070
H1251	H125	0.242700	0.149300	0.665900
C2041	C204	0.220750	0.137860	0.684730
H1261	H126	0.223400	0.147300	0.695900
C2051	C205	0.204810	0.122980	0.686450
H1271	H127	0.196300	0.122200	0.698600
C2061	C206	0.201780	0.109330	0.669890
C2071	C207	0.215040	0.110770	0.652590
H1281	H128	0.213300	0.101100	0.641400
C2081	C208	0.185670	0.093040	0.670610
N711	N71	0.339070	0.015270	0.614130
N721	N72	0.395690	0.113770	0.476460
N731	N73	0.377270	0.100670	0.516810
N741	N74	0.329700	0.096360	0.560520
N751	N75	0.340100	0.061930	0.569610
N761	N76	0.310300	0.077150	0.585230
N771	N77	0.275340	0.128610	0.600400
N781	N78	0.251260	0.157500	0.627220
N791	N79	0.229990	0.125060	0.651140
N801	N80	0.186030	0.078630	0.655600
S151	S15	0.423110	0.084750	0.458880
S161	S16	0.245090	0.199840	0.634300
C2091	C209	0.338950	0.718780	0.149160
H1291	H129	0.351700	0.715400	0.156000
C2101	C210	0.321550	0.706840	0.153670
C2111	C211	0.302670	0.711940	0.144000
H1301	H130	0.290400	0.704000	0.146600
C2121	C212	0.302400	0.728840	0.130560
H1311	H131	0.289800	0.732900	0.123900
C2131	C213	0.320760	0.739850	0.126900
H1321	H132	0.320400	0.751500	0.117700
C2141	C214	0.406980	0.648280	0.281210
C2151	C215	0.391370	0.664820	0.234660
H1331	H133	0.402300	0.663600	0.244700
C2161	C216	0.390560	0.682640	0.222050
H1341	H134	0.401100	0.693000	0.223100
C2171	C217	0.374490	0.685010	0.208230
H1351	H135	0.373500	0.697200	0.199800
C2181	C218	0.359430	0.669060	0.206670
C2191	C219	0.361740	0.651690	0.219350
H1361	H136	0.351700	0.640800	0.218200
C2201	C220	0.342090	0.670380	0.191530
C2211	C221	0.323810	0.688230	0.167300
C2221	C222	0.314470	0.655700	0.175780
C2231	C223	0.287580	0.637250	0.154350
H1371	H137	0.287200	0.649300	0.145600
C2241	C224	0.301220	0.637290	0.171640
C2251	C225	0.302100	0.619280	0.183990
H1381	H138	0.311200	0.618500	0.195700
C2261	C226	0.289370	0.602560	0.178590
H1391	H139	0.289700	0.590000	0.186600
C2271	C227	0.276230	0.604150	0.161580
H1401	H140	0.267500	0.592600	0.158200
C2281	C228	0.248740	0.574960	0.119910
C2291	C229	0.232400	0.611360	0.082930
H1411	H141	0.242700	0.600700	0.084100
C2301	C230	0.220750	0.612140	0.065270
H1421	H142	0.223400	0.602700	0.054100
C2311	C231	0.204810	0.627020	0.063550
H1431	H143	0.196300	0.627800	0.051400
C2321	C232	0.201780	0.640670	0.080110
C2331	C233	0.215040	0.639230	0.097410
H1441	H144	0.213300	0.648900	0.108600
C2341	C234	0.185670	0.656960	0.079390
N811	N81	0.339070	0.734730	0.135870
N821	N82	0.395690	0.636230	0.273540
N831	N83	0.377270	0.649330	0.233190
N841	N84	0.329700	0.653640	0.189480
N851	N85	0.340100	0.688070	0.180390
N861	N86	0.310300	0.672850	0.164770
N871	N87	0.275340	0.621390	0.149600
N881	N88	0.251260	0.592500	0.122780
N891	N89	0.229990	0.624940	0.098860
N901	N90	0.186030	0.671370	0.094400
S171	S17	0.423110	0.665250	0.291120
S181	S18	0.245090	0.550160	0.115700
C2351	C235	0.338950	0.218780	0.649160
H1451	H145	0.351700	0.215400	0.656000
C2361	C236	0.321550	0.206840	0.653670
C2371	C237	0.302670	0.211940	0.644000
H1461	H146	0.290400	0.204000	0.646600
C2381	C238	0.302400	0.228840	0.630560
H1471	H147	0.289800	0.232900	0.623900
C2391	C239	0.320760	0.239850	0.626900
H1481	H148	0.320400	0.251500	0.617700
C2401	C240	0.406980	0.148280	0.781210
C2411	C241	0.391370	0.164820	0.734660
H1491	H149	0.402300	0.163600	0.744700
C2421	C242	0.390560	0.182640	0.722050
H1501	H150	0.401100	0.193000	0.723100
C2431	C243	0.374490	0.185010	0.708230
H1511	H151	0.373500	0.197200	0.699800
C2441	C244	0.359430	0.169060	0.706670
C2451	C245	0.361740	0.151690	0.719350
H1521	H152	0.351700	0.140800	0.718200
C2461	C246	0.342090	0.170380	0.691530
C2471	C247	0.323810	0.188230	0.667300
C2481	C248	0.314470	0.155700	0.675780
C2491	C249	0.287580	0.137250	0.654350
H1531	H153	0.287200	0.149300	0.645600
C2501	C250	0.301220	0.137290	0.671640
C2511	C251	0.302100	0.119280	0.683990
H1541	H154	0.311200	0.118500	0.695700
C2521	C252	0.289370	0.102560	0.678590
H1551	H155	0.289700	0.090000	0.686600
C2531	C253	0.276230	0.104150	0.661580
H1561	H156	0.267500	0.092600	0.658200
C2541	C254	0.248740	0.074960	0.619910
C2551	C255	0.232400	0.111360	0.582930
H1571	H157	0.242700	0.100700	0.584100
C2561	C256	0.220750	0.112140	0.565270
H1581	H158	0.223400	0.102700	0.554100
C2571	C257	0.204810	0.127020	0.563550
H1591	H159	0.196300	0.127800	0.551400
C2581	C258	0.201780	0.140670	0.580110
C2591	C259	0.215040	0.139230	0.597410
H1601	H160	0.213300	0.148900	0.608600
C2601	C260	0.185670	0.156960	0.579390
N911	N91	0.339070	0.234730	0.635870
N921	N92	0.395690	0.136230	0.773540
N931	N93	0.377270	0.149330	0.733190
N941	N94	0.329700	0.153640	0.689480
N951	N95	0.340100	0.188070	0.680390
N961	N96	0.310300	0.172850	0.664770
N971	N97	0.275340	0.121390	0.649600
N981	N98	0.251260	0.092500	0.622780
N991	N99	0.229990	0.124940	0.598860
N1001	N100	0.186030	0.171370	0.594400
S191	S19	0.423110	0.165250	0.791120
S201	S20	0.245090	0.050160	0.615700
C2611	C261	0.838950	0.718780	0.649160
H1611	H161	0.851700	0.715400	0.656000
C2621	C262	0.821550	0.706840	0.653670
C2631	C263	0.802670	0.711940	0.644000
H1621	H162	0.790400	0.704000	0.646600
C2641	C264	0.802400	0.728840	0.630560
H1631	H163	0.789800	0.732900	0.623900
C2651	C265	0.820760	0.739850	0.626900
H1641	H164	0.820400	0.751500	0.617700
C2661	C266	0.906980	0.648280	0.781210
C2671	C267	0.891370	0.664820	0.734660
H1651	H165	0.902300	0.663600	0.744700
C2681	C268	0.890560	0.682640	0.722050
H1661	H166	0.901100	0.693000	0.723100
C2691	C269	0.874490	0.685010	0.708230
H1671	H167	0.873500	0.697200	0.699800
C2701	C270	0.859430	0.669060	0.706670
C2711	C271	0.861740	0.651690	0.719350
H1681	H168	0.851700	0.640800	0.718200
C2721	C272	0.842090	0.670380	0.691530
C2731	C273	0.823810	0.688230	0.667300
C2741	C274	0.814470	0.655700	0.675780
C2751	C275	0.787580	0.637250	0.654350
H1691	H169	0.787200	0.649300	0.645600
C2761	C276	0.801220	0.637290	0.671640
C2771	C277	0.802100	0.619280	0.683990
H1701	H170	0.811200	0.618500	0.695700
C2781	C278	0.789370	0.602560	0.678590
H1711	H171	0.789700	0.590000	0.686600
C2791	C279	0.776230	0.604150	0.661580
H1721	H172	0.767500	0.592600	0.658200
C2801	C280	0.748740	0.574960	0.619910
C2811	C281	0.732400	0.611360	0.582930
H1731	H173	0.742700	0.600700	0.584100
C2821	C282	0.720750	0.612140	0.565270
H1741	H174	0.723400	0.602700	0.554100
C2831	C283	0.704810	0.627020	0.563550
H1751	H175	0.696300	0.627800	0.551400
C2841	C284	0.701780	0.640670	0.580110
C2851	C285	0.715040	0.639230	0.597410
H1761	H176	0.713300	0.648900	0.608600
C2861	C286	0.685670	0.656960	0.579390
N1011	N101	0.839070	0.734730	0.635870
N1021	N102	0.895690	0.636230	0.773540
N1031	N103	0.877270	0.649330	0.733190
N1041	N104	0.829700	0.653640	0.689480
N1051	N105	0.840100	0.688070	0.680390
N1061	N106	0.810300	0.672850	0.664770
N1071	N107	0.775340	0.621390	0.649600
N1081	N108	0.751260	0.592500	0.622780
N1091	N109	0.729990	0.624940	0.598860
N1101	N110	0.686030	0.671370	0.594400
S211	S21	0.923110	0.665250	0.791120
S221	S22	0.745090	0.550160	0.615700
C2871	C287	0.838950	0.218780	0.149160
H1771	H177	0.851700	0.215400	0.156000
C2881	C288	0.821550	0.206840	0.153670
C2891	C289	0.802670	0.211940	0.144000
H1781	H178	0.790400	0.204000	0.146600
C2901	C290	0.802400	0.228840	0.130560
H1791	H179	0.789800	0.232900	0.123900
C2911	C291	0.820760	0.239850	0.126900
H1801	H180	0.820400	0.251500	0.117700
C2921	C292	0.906980	0.148280	0.281210
C2931	C293	0.891370	0.164820	0.234660
H1811	H181	0.902300	0.163600	0.244700
C2941	C294	0.890560	0.182640	0.222050
H1821	H182	0.901100	0.193000	0.223100
C2951	C295	0.874490	0.185010	0.208230
H1831	H183	0.873500	0.197200	0.199800
C2961	C296	0.859430	0.169060	0.206670
C2971	C297	0.861740	0.151690	0.219350
H1841	H184	0.851700	0.140800	0.218200
C2981	C298	0.842090	0.170380	0.191530
C2991	C299	0.823810	0.188230	0.167300
C3001	C300	0.814470	0.155700	0.175780
C3011	C301	0.787580	0.137250	0.154350
H1851	H185	0.787200	0.149300	0.145600
C3021	C302	0.801220	0.137290	0.171640
C3031	C303	0.802100	0.119280	0.183990
H1861	H186	0.811200	0.118500	0.195700
C3041	C304	0.789370	0.102560	0.178590
H1871	H187	0.789700	0.090000	0.186600
C3051	C305	0.776230	0.104150	0.161580
H1881	H188	0.767500	0.092600	0.158200
C3061	C306	0.748740	0.074960	0.119910
C3071	C307	0.732400	0.111360	0.082930
H1891	H189	0.742700	0.100700	0.084100
C3081	C308	0.720750	0.112140	0.065270
H1901	H190	0.723400	0.102700	0.054100
C3091	C309	0.704810	0.127020	0.063550
H1911	H191	0.696300	0.127800	0.051400
C3101	C310	0.701780	0.140670	0.080110
C3111	C311	0.715040	0.139230	0.097410
H1921	H192	0.713300	0.148900	0.108600
C3121	C312	0.685670	0.156960	0.079390
N1111	N111	0.839070	0.234730	0.135870
N1121	N112	0.895690	0.136230	0.273540
N1131	N113	0.877270	0.149330	0.233190
N1141	N114	0.829700	0.153640	0.189480
N1151	N115	0.840100	0.188070	0.180390
N1161	N116	0.810300	0.172850	0.164770
N1171	N117	0.775340	0.121390	0.149600
N1181	N118	0.751260	0.092500	0.122780
N1191	N119	0.729990	0.124940	0.098860
N1201	N120	0.686030	0.171370	0.094400
S231	S23	0.923110	0.165250	0.291120
S241	S24	0.745090	0.050160	0.115700
C3131	C313	0.911050	0.031220	0.649160
H1931	H193	0.898300	0.034600	0.656000
C3141	C314	0.928450	0.043160	0.653670
C3151	C315	0.947330	0.038060	0.644000
H1941	H194	0.959600	0.046000	0.646600
C3161	C316	0.947600	0.021160	0.630560
H1951	H195	0.960200	0.017100	0.623900
C3171	C317	0.929240	0.010150	0.626900
H1961	H196	0.929600	0.998500	0.617700
C3181	C318	0.843020	0.101720	0.781210
C3191	C319	0.858630	0.085180	0.734660
H1971	H197	0.847700	0.086400	0.744700
C3201	C320	0.859440	0.067360	0.722050
H1981	H198	0.848900	0.057000	0.723100
C3211	C321	0.875510	0.064990	0.708230
H1991	H199	0.876500	0.052800	0.699800
C3221	C322	0.890570	0.080940	0.706670
C3231	C323	0.888260	0.098310	0.719350
H2001	H200	0.898300	0.109200	0.718200
C3241	C324	0.907910	0.079620	0.691530
C3251	C325	0.926190	0.061770	0.667300
C3261	C326	0.935530	0.094300	0.675780
C3271	C327	0.962420	0.112750	0.654350
H2011	H201	0.962800	0.100700	0.645600
C3281	C328	0.948780	0.112710	0.671640
C3291	C329	0.947900	0.130720	0.683990
H2021	H202	0.938800	0.131500	0.695700
C3301	C330	0.960630	0.147440	0.678590
H2031	H203	0.960300	0.160000	0.686600
C3311	C331	0.973770	0.145850	0.661580
H2041	H204	0.982500	0.157400	0.658200
C3321	C332	0.001260	0.175040	0.619910
C3331	C333	0.017600	0.138640	0.582930
H2051	H205	0.007300	0.149300	0.584100
C3341	C334	0.029250	0.137860	0.565270
H2061	H206	0.026600	0.147300	0.554100
C3351	C335	0.045190	0.122980	0.563550
H2071	H207	0.053700	0.122200	0.551400
C3361	C336	0.048220	0.109330	0.580110
C3371	C337	0.034960	0.110770	0.597410
H2081	H208	0.036700	0.101100	0.608600
C3381	C338	0.064330	0.093040	0.579390
N1211	N121	0.910930	0.015270	0.635870
N1221	N122	0.854310	0.113770	0.773540
N1231	N123	0.872730	0.100670	0.733190
N1241	N124	0.920300	0.096360	0.689480
N1251	N125	0.909900	0.061930	0.680390
N1261	N126	0.939700	0.077150	0.664770
N1271	N127	0.974660	0.128610	0.649600
N1281	N128	0.998740	0.157500	0.622780
N1291	N129	0.020010	0.125060	0.598860
N1301	N130	0.063970	0.078630	0.594400
S251	S25	0.826890	0.084750	0.791120
S261	S26	0.004910	0.199840	0.615700
C3391	C339	0.911050	0.531220	0.149160
H2091	H209	0.898300	0.534600	0.156000
C3401	C340	0.928450	0.543160	0.153670
C3411	C341	0.947330	0.538060	0.144000
H2101	H210	0.959600	0.546000	0.146600
C3421	C342	0.947600	0.521160	0.130560
H2111	H211	0.960200	0.517100	0.123900
C3431	C343	0.929240	0.510150	0.126900
H2121	H212	0.929600	0.498500	0.117700
C3441	C344	0.843020	0.601720	0.281210
C3451	C345	0.858630	0.585180	0.234660
H2131	H213	0.847700	0.586400	0.244700
C3461	C346	0.859440	0.567360	0.222050
H2141	H214	0.848900	0.557000	0.223100
C3471	C347	0.875510	0.564990	0.208230
H2151	H215	0.876500	0.552800	0.199800
C3481	C348	0.890570	0.580940	0.206670
C3491	C349	0.888260	0.598310	0.219350
H2161	H216	0.898300	0.609200	0.218200
C3501	C350	0.907910	0.579620	0.191530
C3511	C351	0.926190	0.561770	0.167300
C3521	C352	0.935530	0.594300	0.175780
C3531	C353	0.962420	0.612750	0.154350
H2171	H217	0.962800	0.600700	0.145600
C3541	C354	0.948780	0.612710	0.171640
C3551	C355	0.947900	0.630720	0.183990
H2181	H218	0.938800	0.631500	0.195700
C3561	C356	0.960630	0.647440	0.178590
H2191	H219	0.960300	0.660000	0.186600
C3571	C357	0.973770	0.645850	0.161580
H2201	H220	0.982500	0.657400	0.158200
C3581	C358	0.001260	0.675040	0.119910
C3591	C359	0.017600	0.638640	0.082930
H2211	H221	0.007300	0.649300	0.084100
C3601	C360	0.029250	0.637860	0.065270
H2221	H222	0.026600	0.647300	0.054100
C3611	C361	0.045190	0.622980	0.063550
H2231	H223	0.053700	0.622200	0.051400
C3621	C362	0.048220	0.609330	0.080110
C3631	C363	0.034960	0.610770	0.097410
H2241	H224	0.036700	0.601100	0.108600
C3641	C364	0.064330	0.593040	0.079390
N1311	N131	0.910930	0.515270	0.135870
N1321	N132	0.854310	0.613770	0.273540
N1331	N133	0.872730	0.600670	0.233190
N1341	N134	0.920300	0.596360	0.189480
N1351	N135	0.909900	0.561930	0.180390
N1361	N136	0.939700	0.577150	0.164770
N1371	N137	0.974660	0.628610	0.149600
N1381	N138	0.998740	0.657500	0.122780
N1391	N139	0.020010	0.625060	0.098860
N1401	N140	0.063970	0.578630	0.094400
S271	S27	0.826890	0.584750	0.291120
S281	S28	0.004910	0.699840	0.115700
C3651	C365	0.411050	0.031220	0.149160
H2251	H225	0.398300	0.034600	0.156000
C3661	C366	0.428450	0.043160	0.153670
C3671	C367	0.447330	0.038060	0.144000
H2261	H226	0.459600	0.046000	0.146600
C3681	C368	0.447600	0.021160	0.130560
H2271	H227	0.460200	0.017100	0.123900
C3691	C369	0.429240	0.010150	0.126900
H2281	H228	0.429600	0.998500	0.117700
C3701	C370	0.343020	0.101720	0.281210
C3711	C371	0.358630	0.085180	0.234660
H2291	H229	0.347700	0.086400	0.244700
C3721	C372	0.359440	0.067360	0.222050
H2301	H230	0.348900	0.057000	0.223100
C3731	C373	0.375510	0.064990	0.208230
H2311	H231	0.376500	0.052800	0.199800
C3741	C374	0.390570	0.080940	0.206670
C3751	C375	0.388260	0.098310	0.219350
H2321	H232	0.398300	0.109200	0.218200
C3761	C376	0.407910	0.079620	0.191530
C3771	C377	0.426190	0.061770	0.167300
C3781	C378	0.435530	0.094300	0.175780
C3791	C379	0.462420	0.112750	0.154350
H2331	H233	0.462800	0.100700	0.145600
C3801	C380	0.448780	0.112710	0.171640
C3811	C381	0.447900	0.130720	0.183990
H2341	H234	0.438800	0.131500	0.195700
C3821	C382	0.460630	0.147440	0.178590
H2351	H235	0.460300	0.160000	0.186600
C3831	C383	0.473770	0.145850	0.161580
H2361	H236	0.482500	0.157400	0.158200
C3841	C384	0.501260	0.175040	0.119910
C3851	C385	0.517600	0.138640	0.082930
H2371	H237	0.507300	0.149300	0.084100
C3861	C386	0.529250	0.137860	0.065270
H2381	H238	0.526600	0.147300	0.054100
C3871	C387	0.545190	0.122980	0.063550
H2391	H239	0.553700	0.122200	0.051400
C3881	C388	0.548220	0.109330	0.080110
C3891	C389	0.534960	0.110770	0.097410
H2401	H240	0.536700	0.101100	0.108600
C3901	C390	0.564330	0.093040	0.079390
N1411	N141	0.410930	0.015270	0.135870
N1421	N142	0.354310	0.113770	0.273540
N1431	N143	0.372730	0.100670	0.233190
N1441	N144	0.420300	0.096360	0.189480
N1451	N145	0.409900	0.061930	0.180390
N1461	N146	0.439700	0.077150	0.164770
N1471	N147	0.474660	0.128610	0.149600
N1481	N148	0.498740	0.157500	0.122780
N1491	N149	0.520010	0.125060	0.098860
N1501	N150	0.563970	0.078630	0.094400
S291	S29	0.326890	0.084750	0.291120
S301	S30	0.504910	0.199840	0.115700
C3911	C391	0.411050	0.531220	0.649160
H2411	H241	0.398300	0.534600	0.656000
C3921	C392	0.428450	0.543160	0.653670
C3931	C393	0.447330	0.538060	0.644000
H2421	H242	0.459600	0.546000	0.646600
C3941	C394	0.447600	0.521160	0.630560
H2431	H243	0.460200	0.517100	0.623900
C3951	C395	0.429240	0.510150	0.626900
H2441	H244	0.429600	0.498500	0.617700
C3961	C396	0.343020	0.601720	0.781210
C3971	C397	0.358630	0.585180	0.734660
H2451	H245	0.347700	0.586400	0.744700
C3981	C398	0.359440	0.567360	0.722050
H2461	H246	0.348900	0.557000	0.723100
C3991	C399	0.375510	0.564990	0.708230
H2471	H247	0.376500	0.552800	0.699800
C4001	C400	0.390570	0.580940	0.706670
C4011	C401	0.388260	0.598310	0.719350
H2481	H248	0.398300	0.609200	0.718200
C4021	C402	0.407910	0.579620	0.691530
C4031	C403	0.426190	0.561770	0.667300
C4041	C404	0.435530	0.594300	0.675780
C4051	C405	0.462420	0.612750	0.654350
H2491	H249	0.462800	0.600700	0.645600
C4061	C406	0.448780	0.612710	0.671640
C4071	C407	0.447900	0.630720	0.683990
H2501	H250	0.438800	0.631500	0.695700
C4081	C408	0.460630	0.647440	0.678590
H2511	H251	0.460300	0.660000	0.686600
C4091	C409	0.473770	0.645850	0.661580
H2521	H252	0.482500	0.657400	0.658200
C4101	C410	0.501260	0.675040	0.619910
C4111	C411	0.517600	0.638640	0.582930
H2531	H253	0.507300	0.649300	0.584100
C4121	C412	0.529250	0.637860	0.565270
H2541	H254	0.526600	0.647300	0.554100
C4131	C413	0.545190	0.622980	0.563550
H2551	H255	0.553700	0.622200	0.551400
C4141	C414	0.548220	0.609330	0.580110
C4151	C415	0.534960	0.610770	0.597410
H2561	H256	0.536700	0.601100	0.608600
C4161	C416	0.564330	0.593040	0.579390
N1511	N151	0.410930	0.515270	0.635870
N1521	N152	0.354310	0.613770	0.773540
N1531	N153	0.372730	0.600670	0.733190
N1541	N154	0.420300	0.596360	0.689480
N1551	N155	0.409900	0.561930	0.680390
N1561	N156	0.439700	0.577150	0.664770
N1571	N157	0.474660	0.628610	0.649600
N1581	N158	0.498740	0.657500	0.622780
N1591	N159	0.520010	0.625060	0.598860
N1601	N160	0.563970	0.578630	0.594400
S311	S31	0.326890	0.584750	0.791120
S321	S32	0.504910	0.699840	0.615700
C4171	C417	0.100840	0.411050	0.218780
H2571	H257	0.094000	0.398300	0.215400
C4181	C418	0.096330	0.428450	0.206840
C4191	C419	0.106000	0.447330	0.211940
H2581	H258	0.103400	0.459600	0.204000
C4201	C420	0.119440	0.447600	0.228840
H2591	H259	0.126100	0.460200	0.232900
C4211	C421	0.123100	0.429240	0.239850
H2601	H260	0.132300	0.429600	0.251500
C4221	C422	0.968790	0.343020	0.148280
C4231	C423	0.015340	0.358630	0.164820
H2611	H261	0.005300	0.347700	0.163600
C4241	C424	0.027950	0.359440	0.182640
H2621	H262	0.026900	0.348900	0.193000
C4251	C425	0.041770	0.375510	0.185010
H2631	H263	0.050200	0.376500	0.197200
C4261	C426	0.043330	0.390570	0.169060
C4271	C427	0.030650	0.388260	0.151690
H2641	H264	0.031800	0.398300	0.140800
C4281	C428	0.058470	0.407910	0.170380
C4291	C429	0.082700	0.426190	0.188230
C4301	C430	0.074220	0.435530	0.155700
C4311	C431	0.095650	0.462420	0.137250
H2651	H265	0.104400	0.462800	0.149300
C4321	C432	0.078360	0.448780	0.137290
C4331	C433	0.066010	0.447900	0.119280
H2661	H266	0.054300	0.438800	0.118500
C4341	C434	0.071410	0.460630	0.102560
H2671	H267	0.063400	0.460300	0.090000
C4351	C435	0.088420	0.473770	0.104150
H2681	H268	0.091800	0.482500	0.092600
C4361	C436	0.130090	0.501260	0.074960
C4371	C437	0.167070	0.517600	0.111360
H2691	H269	0.165900	0.507300	0.100700
C4381	C438	0.184730	0.529250	0.112140
H2701	H270	0.195900	0.526600	0.102700
C4391	C439	0.186450	0.545190	0.127020
H2711	H271	0.198600	0.553700	0.127800
C4401	C440	0.169890	0.548220	0.140670
C4411	C441	0.152590	0.534960	0.139230
H2721	H272	0.141400	0.536700	0.148900
C4421	C442	0.170610	0.564330	0.156960
N1611	N161	0.114130	0.410930	0.234730
N1621	N162	0.976460	0.354310	0.136230
N1631	N163	0.016810	0.372730	0.149330
N1641	N164	0.060520	0.420300	0.153640
N1651	N165	0.069610	0.409900	0.188070
N1661	N166	0.085230	0.439700	0.172850
N1671	N167	0.100400	0.474660	0.121390
N1681	N168	0.127220	0.498740	0.092500
N1691	N169	0.151140	0.520010	0.124940
N1701	N170	0.155600	0.563970	0.171370
S331	S33	0.958880	0.326890	0.165250
S341	S34	0.134300	0.504910	0.050160
C4431	C443	0.100840	0.911050	0.718780
H2731	H273	0.094000	0.898300	0.715400
C4441	C444	0.096330	0.928450	0.706840
C4451	C445	0.106000	0.947330	0.711940
H2741	H274	0.103400	0.959600	0.704000
C4461	C446	0.119440	0.947600	0.728840
H2751	H275	0.126100	0.960200	0.732900
C4471	C447	0.123100	0.929240	0.739850
H2761	H276	0.132300	0.929600	0.751500
C4481	C448	0.968790	0.843020	0.648280
C4491	C449	0.015340	0.858630	0.664820
H2771	H277	0.005300	0.847700	0.663600
C4501	C450	0.027950	0.859440	0.682640
H2781	H278	0.026900	0.848900	0.693000
C4511	C451	0.041770	0.875510	0.685010
H2791	H279	0.050200	0.876500	0.697200
C4521	C452	0.043330	0.890570	0.669060
C4531	C453	0.030650	0.888260	0.651690
H2801	H280	0.031800	0.898300	0.640800
C4541	C454	0.058470	0.907910	0.670380
C4551	C455	0.082700	0.926190	0.688230
C4561	C456	0.074220	0.935530	0.655700
C4571	C457	0.095650	0.962420	0.637250
H2811	H281	0.104400	0.962800	0.649300
C4581	C458	0.078360	0.948780	0.637290
C4591	C459	0.066010	0.947900	0.619280
H2821	H282	0.054300	0.938800	0.618500
C4601	C460	0.071410	0.960630	0.602560
H2831	H283	0.063400	0.960300	0.590000
C4611	C461	0.088420	0.973770	0.604150
H2841	H284	0.091800	0.982500	0.592600
C4621	C462	0.130090	0.001260	0.574960
C4631	C463	0.167070	0.017600	0.611360
H2851	H285	0.165900	0.007300	0.600700
C4641	C464	0.184730	0.029250	0.612140
H2861	H286	0.195900	0.026600	0.602700
C4651	C465	0.186450	0.045190	0.627020
H2871	H287	0.198600	0.053700	0.627800
C4661	C466	0.169890	0.048220	0.640670
C4671	C467	0.152590	0.034960	0.639230
H2881	H288	0.141400	0.036700	0.648900
C4681	C468	0.170610	0.064330	0.656960
N1711	N171	0.114130	0.910930	0.734730
N1721	N172	0.976460	0.854310	0.636230
N1731	N173	0.016810	0.872730	0.649330
N1741	N174	0.060520	0.920300	0.653640
N1751	N175	0.069610	0.909900	0.688070
N1761	N176	0.085230	0.939700	0.672850
N1771	N177	0.100400	0.974660	0.621390
N1781	N178	0.127220	0.998740	0.592500
N1791	N179	0.151140	0.020010	0.624940
N1801	N180	0.155600	0.063970	0.671370
S351	S35	0.958880	0.826890	0.665250
S361	S36	0.134300	0.004910	0.550160
C4691	C469	0.600840	0.411050	0.718780
H2891	H289	0.594000	0.398300	0.715400
C4701	C470	0.596330	0.428450	0.706840
C4711	C471	0.606000	0.447330	0.711940
H2901	H290	0.603400	0.459600	0.704000
C4721	C472	0.619440	0.447600	0.728840
H2911	H291	0.626100	0.460200	0.732900
C4731	C473	0.623100	0.429240	0.739850
H2921	H292	0.632300	0.429600	0.751500
C4741	C474	0.468790	0.343020	0.648280
C4751	C475	0.515340	0.358630	0.664820
H2931	H293	0.505300	0.347700	0.663600
C4761	C476	0.527950	0.359440	0.682640
H2941	H294	0.526900	0.348900	0.693000
C4771	C477	0.541770	0.375510	0.685010
H2951	H295	0.550200	0.376500	0.697200
C4781	C478	0.543330	0.390570	0.669060
C4791	C479	0.530650	0.388260	0.651690
H2961	H296	0.531800	0.398300	0.640800
C4801	C480	0.558470	0.407910	0.670380
C4811	C481	0.582700	0.426190	0.688230
C4821	C482	0.574220	0.435530	0.655700
C4831	C483	0.595650	0.462420	0.637250
H2971	H297	0.604400	0.462800	0.649300
C4841	C484	0.578360	0.448780	0.637290
C4851	C485	0.566010	0.447900	0.619280
H2981	H298	0.554300	0.438800	0.618500
C4861	C486	0.571410	0.460630	0.602560
H2991	H299	0.563400	0.460300	0.590000
C4871	C487	0.588420	0.473770	0.604150
H3001	H300	0.591800	0.482500	0.592600
C4881	C488	0.630090	0.501260	0.574960
C4891	C489	0.667070	0.517600	0.611360
H3011	H301	0.665900	0.507300	0.600700
C4901	C490	0.684730	0.529250	0.612140
H3021	H302	0.695900	0.526600	0.602700
C4911	C491	0.686450	0.545190	0.627020
H3031	H303	0.698600	0.553700	0.627800
C4921	C492	0.669890	0.548220	0.640670
C4931	C493	0.652590	0.534960	0.639230
H3041	H304	0.641400	0.536700	0.648900
C4941	C494	0.670610	0.564330	0.656960
N1811	N181	0.614130	0.410930	0.734730
N1821	N182	0.476460	0.354310	0.636230
N1831	N183	0.516810	0.372730	0.649330
N1841	N184	0.560520	0.420300	0.653640
N1851	N185	0.569610	0.409900	0.688070
N1861	N186	0.585230	0.439700	0.672850
N1871	N187	0.600400	0.474660	0.621390
N1881	N188	0.627220	0.498740	0.592500
N1891	N189	0.651140	0.520010	0.624940
N1901	N190	0.655600	0.563970	0.671370
S371	S37	0.458880	0.326890	0.665250
S381	S38	0.634300	0.504910	0.550160
C4951	C495	0.600840	0.911050	0.218780
H3051	H305	0.594000	0.898300	0.215400
C4961	C496	0.596330	0.928450	0.206840
C4971	C497	0.606000	0.947330	0.211940
H3061	H306	0.603400	0.959600	0.204000
C4981	C498	0.619440	0.947600	0.228840
H3071	H307	0.626100	0.960200	0.232900
C4991	C499	0.623100	0.929240	0.239850
H3081	H308	0.632300	0.929600	0.251500
C5001	C500	0.468790	0.843020	0.148280
C5011	C501	0.515340	0.858630	0.164820
H3091	H309	0.505300	0.847700	0.163600
C5021	C502	0.527950	0.859440	0.182640
H3101	H310	0.526900	0.848900	0.193000
C5031	C503	0.541770	0.875510	0.185010
H3111	H311	0.550200	0.876500	0.197200
C5041	C504	0.543330	0.890570	0.169060
C5051	C505	0.530650	0.888260	0.151690
H3121	H312	0.531800	0.898300	0.140800
C5061	C506	0.558470	0.907910	0.170380
C5071	C507	0.582700	0.926190	0.188230
C5081	C508	0.574220	0.935530	0.155700
C5091	C509	0.595650	0.962420	0.137250
H3131	H313	0.604400	0.962800	0.149300
C5101	C510	0.578360	0.948780	0.137290
C5111	C511	0.566010	0.947900	0.119280
H3141	H314	0.554300	0.938800	0.118500
C5121	C512	0.571410	0.960630	0.102560
H3151	H315	0.563400	0.960300	0.090000
C5131	C513	0.588420	0.973770	0.104150
H3161	H316	0.591800	0.982500	0.092600
C5141	C514	0.630090	0.001260	0.074960
C5151	C515	0.667070	0.017600	0.111360
H3171	H317	0.665900	0.007300	0.100700
C5161	C516	0.684730	0.029250	0.112140
H3181	H318	0.695900	0.026600	0.102700
C5171	C517	0.686450	0.045190	0.127020
H3191	H319	0.698600	0.053700	0.127800
C5181	C518	0.669890	0.048220	0.140670
C5191	C519	0.652590	0.034960	0.139230
H3201	H320	0.641400	0.036700	0.148900
C5201	C520	0.670610	0.064330	0.156960
N1911	N191	0.614130	0.910930	0.234730
N1921	N192	0.476460	0.854310	0.136230
N1931	N193	0.516810	0.872730	0.149330
N1941	N194	0.560520	0.920300	0.153640
N1951	N195	0.569610	0.909900	0.188070
N1961	N196	0.585230	0.939700	0.172850
N1971	N197	0.600400	0.974660	0.121390
N1981	N198	0.627220	0.998740	0.092500
N1991	N199	0.651140	0.020010	0.124940
N2001	N200	0.655600	0.063970	0.171370
S391	S39	0.458880	0.826890	0.165250
S401	S40	0.634300	0.004910	0.050160
C5211	C521	0.600840	0.838950	0.531220
H3211	H321	0.594000	0.851700	0.534600
C5221	C522	0.596330	0.821550	0.543160
C5231	C523	0.606000	0.802670	0.538060
H3221	H322	0.603400	0.790400	0.546000
C5241	C524	0.619440	0.802400	0.521160
H3231	H323	0.626100	0.789800	0.517100
C5251	C525	0.623100	0.820760	0.510150
H3241	H324	0.632300	0.820400	0.498500
C5261	C526	0.468790	0.906980	0.601720
C5271	C527	0.515340	0.891370	0.585180
H3251	H325	0.505300	0.902300	0.586400
C5281	C528	0.527950	0.890560	0.567360
H3261	H326	0.526900	0.901100	0.557000
C5291	C529	0.541770	0.874490	0.564990
H3271	H327	0.550200	0.873500	0.552800
C5301	C530	0.543330	0.859430	0.580940
C5311	C531	0.530650	0.861740	0.598310
H3281	H328	0.531800	0.851700	0.609200
C5321	C532	0.558470	0.842090	0.579620
C5331	C533	0.582700	0.823810	0.561770
C5341	C534	0.574220	0.814470	0.594300
C5351	C535	0.595650	0.787580	0.612750
H3291	H329	0.604400	0.787200	0.600700
C5361	C536	0.578360	0.801220	0.612710
C5371	C537	0.566010	0.802100	0.630720
H3301	H330	0.554300	0.811200	0.631500
C5381	C538	0.571410	0.789370	0.647440
H3311	H331	0.563400	0.789700	0.660000
C5391	C539	0.588420	0.776230	0.645850
H3321	H332	0.591800	0.767500	0.657400
C5401	C540	0.630090	0.748740	0.675040
C5411	C541	0.667070	0.732400	0.638640
H3331	H333	0.665900	0.742700	0.649300
C5421	C542	0.684730	0.720750	0.637860
H3341	H334	0.695900	0.723400	0.647300
C5431	C543	0.686450	0.704810	0.622980
H3351	H335	0.698600	0.696300	0.622200
C5441	C544	0.669890	0.701780	0.609330
C5451	C545	0.652590	0.715040	0.610770
H3361	H336	0.641400	0.713300	0.601100
C5461	C546	0.670610	0.685670	0.593040
N2011	N201	0.614130	0.839070	0.515270
N2021	N202	0.476460	0.895690	0.613770
N2031	N203	0.516810	0.877270	0.600670
N2041	N204	0.560520	0.829700	0.596360
N2051	N205	0.569610	0.840100	0.561930
N2061	N206	0.585230	0.810300	0.577150
N2071	N207	0.600400	0.775340	0.628610
N2081	N208	0.627220	0.751260	0.657500
N2091	N209	0.651140	0.729990	0.625060
N2101	N210	0.655600	0.686030	0.578630
S411	S41	0.458880	0.923110	0.584750
S421	S42	0.634300	0.745090	0.699840
C5471	C547	0.600840	0.338950	0.031220
H3371	H337	0.594000	0.351700	0.034600
C5481	C548	0.596330	0.321550	0.043160
C5491	C549	0.606000	0.302670	0.038060
H3381	H338	0.603400	0.290400	0.046000
C5501	C550	0.619440	0.302400	0.021160
H3391	H339	0.626100	0.289800	0.017100
C5511	C551	0.623100	0.320760	0.010150
H3401	H340	0.632300	0.320400	0.998500
C5521	C552	0.468790	0.406980	0.101720
C5531	C553	0.515340	0.391370	0.085180
H3411	H341	0.505300	0.402300	0.086400
C5541	C554	0.527950	0.390560	0.067360
H3421	H342	0.526900	0.401100	0.057000
C5551	C555	0.541770	0.374490	0.064990
H3431	H343	0.550200	0.373500	0.052800
C5561	C556	0.543330	0.359430	0.080940
C5571	C557	0.530650	0.361740	0.098310
H3441	H344	0.531800	0.351700	0.109200
C5581	C558	0.558470	0.342090	0.079620
C5591	C559	0.582700	0.323810	0.061770
C5601	C560	0.574220	0.314470	0.094300
C5611	C561	0.595650	0.287580	0.112750
H3451	H345	0.604400	0.287200	0.100700
C5621	C562	0.578360	0.301220	0.112710
C5631	C563	0.566010	0.302100	0.130720
H3461	H346	0.554300	0.311200	0.131500
C5641	C564	0.571410	0.289370	0.147440
H3471	H347	0.563400	0.289700	0.160000
C5651	C565	0.588420	0.276230	0.145850
H3481	H348	0.591800	0.267500	0.157400
C5661	C566	0.630090	0.248740	0.175040
C5671	C567	0.667070	0.232400	0.138640
H3491	H349	0.665900	0.242700	0.149300
C5681	C568	0.684730	0.220750	0.137860
H3501	H350	0.695900	0.223400	0.147300
C5691	C569	0.686450	0.204810	0.122980
H3511	H351	0.698600	0.196300	0.122200
C5701	C570	0.669890	0.201780	0.109330
C5711	C571	0.652590	0.215040	0.110770
H3521	H352	0.641400	0.213300	0.101100
C5721	C572	0.670610	0.185670	0.093040
N2111	N211	0.614130	0.339070	0.015270
N2121	N212	0.476460	0.395690	0.113770
N2131	N213	0.516810	0.377270	0.100670
N2141	N214	0.560520	0.329700	0.096360
N2151	N215	0.569610	0.340100	0.061930
N2161	N216	0.585230	0.310300	0.077150
N2171	N217	0.600400	0.275340	0.128610
N2181	N218	0.627220	0.251260	0.157500
N2191	N219	0.651140	0.229990	0.125060
N2201	N220	0.655600	0.186030	0.078630
S431	S43	0.458880	0.423110	0.084750
S441	S44	0.634300	0.245090	0.199840
C5731	C573	0.100840	0.838950	0.031220
H3531	H353	0.094000	0.851700	0.034600
C5741	C574	0.096330	0.821550	0.043160
C5751	C575	0.106000	0.802670	0.038060
H3541	H354	0.103400	0.790400	0.046000
C5761	C576	0.119440	0.802400	0.021160
H3551	H355	0.126100	0.789800	0.017100
C5771	C577	0.123100	0.820760	0.010150
H3561	H356	0.132300	0.820400	0.998500
C5781	C578	0.968790	0.906980	0.101720
C5791	C579	0.015340	0.891370	0.085180
H3571	H357	0.005300	0.902300	0.086400
C5801	C580	0.027950	0.890560	0.067360
H3581	H358	0.026900	0.901100	0.057000
C5811	C581	0.041770	0.874490	0.064990
H3591	H359	0.050200	0.873500	0.052800
C5821	C582	0.043330	0.859430	0.080940
C5831	C583	0.030650	0.861740	0.098310
H3601	H360	0.031800	0.851700	0.109200
C5841	C584	0.058470	0.842090	0.079620
C5851	C585	0.082700	0.823810	0.061770
C5861	C586	0.074220	0.814470	0.094300
C5871	C587	0.095650	0.787580	0.112750
H3611	H361	0.104400	0.787200	0.100700
C5881	C588	0.078360	0.801220	0.112710
C5891	C589	0.066010	0.802100	0.130720
H3621	H362	0.054300	0.811200	0.131500
C5901	C590	0.071410	0.789370	0.147440
H3631	H363	0.063400	0.789700	0.160000
C5911	C591	0.088420	0.776230	0.145850
H3641	H364	0.091800	0.767500	0.157400
C5921	C592	0.130090	0.748740	0.175040
C5931	C593	0.167070	0.732400	0.138640
H3651	H365	0.165900	0.742700	0.149300
C5941	C594	0.184730	0.720750	0.137860
H3661	H366	0.195900	0.723400	0.147300
C5951	C595	0.186450	0.704810	0.122980
H3671	H367	0.198600	0.696300	0.122200
C5961	C596	0.169890	0.701780	0.109330
C5971	C597	0.152590	0.715040	0.110770
H3681	H368	0.141400	0.713300	0.101100
C5981	C598	0.170610	0.685670	0.093040
N2211	N221	0.114130	0.839070	0.015270
N2221	N222	0.976460	0.895690	0.113770
N2231	N223	0.016810	0.877270	0.100670
N2241	N224	0.060520	0.829700	0.096360
N2251	N225	0.069610	0.840100	0.061930
N2261	N226	0.085230	0.810300	0.077150
N2271	N227	0.100400	0.775340	0.128610
N2281	N228	0.127220	0.751260	0.157500
N2291	N229	0.151140	0.729990	0.125060
N2301	N230	0.155600	0.686030	0.078630
S451	S45	0.958880	0.923110	0.084750
S461	S46	0.134300	0.745090	0.199840
C5991	C599	0.100840	0.338950	0.531220
H3691	H369	0.094000	0.351700	0.534600
C6001	C600	0.096330	0.321550	0.543160
C6011	C601	0.106000	0.302670	0.538060
H3701	H370	0.103400	0.290400	0.546000
C6021	C602	0.119440	0.302400	0.521160
H3711	H371	0.126100	0.289800	0.517100
C6031	C603	0.123100	0.320760	0.510150
H3721	H372	0.132300	0.320400	0.498500
C6041	C604	0.968790	0.406980	0.601720
C6051	C605	0.015340	0.391370	0.585180
H3731	H373	0.005300	0.402300	0.586400
C6061	C606	0.027950	0.390560	0.567360
H3741	H374	0.026900	0.401100	0.557000
C6071	C607	0.041770	0.374490	0.564990
H3751	H375	0.050200	0.373500	0.552800
C6081	C608	0.043330	0.359430	0.580940
C6091	C609	0.030650	0.361740	0.598310
H3761	H376	0.031800	0.351700	0.609200
C6101	C610	0.058470	0.342090	0.579620
C6111	C611	0.082700	0.323810	0.561770
C6121	C612	0.074220	0.314470	0.594300
C6131	C613	0.095650	0.287580	0.612750
H3771	H377	0.104400	0.287200	0.600700
C6141	C614	0.078360	0.301220	0.612710
C6151	C615	0.066010	0.302100	0.630720
H3781	H378	0.054300	0.311200	0.631500
C6161	C616	0.071410	0.289370	0.647440
H3791	H379	0.063400	0.289700	0.660000
C6171	C617	0.088420	0.276230	0.645850
H3801	H380	0.091800	0.267500	0.657400
C6181	C618	0.130090	0.248740	0.675040
C6191	C619	0.167070	0.232400	0.638640
H3811	H381	0.165900	0.242700	0.649300
C6201	C620	0.184730	0.220750	0.637860
H3821	H382	0.195900	0.223400	0.647300
C6211	C621	0.186450	0.204810	0.622980
H3831	H383	0.198600	0.196300	0.622200
C6221	C622	0.169890	0.201780	0.609330
C6231	C623	0.152590	0.215040	0.610770
H3841	H384	0.141400	0.213300	0.601100
C6241	C624	0.170610	0.185670	0.593040
N2311	N231	0.114130	0.339070	0.515270
N2321	N232	0.976460	0.395690	0.613770
N2331	N233	0.016810	0.377270	0.600670
N2341	N234	0.060520	0.329700	0.596360
N2351	N235	0.069610	0.340100	0.561930
N2361	N236	0.085230	0.310300	0.577150
N2371	N237	0.100400	0.275340	0.628610
N2381	N238	0.127220	0.251260	0.657500
N2391	N239	0.151140	0.229990	0.625060
N2401	N240	0.155600	0.186030	0.578630
S471	S47	0.958880	0.423110	0.584750
S481	S48	0.134300	0.245090	0.699840
C6251	C625	0.149160	0.338950	0.718780
H3851	H385	0.156000	0.351700	0.715400
C6261	C626	0.153670	0.321550	0.706840
C6271	C627	0.144000	0.302670	0.711940
H3861	H386	0.146600	0.290400	0.704000
C6281	C628	0.130560	0.302400	0.728840
H3871	H387	0.123900	0.289800	0.732900
C6291	C629	0.126900	0.320760	0.739850
H3881	H388	0.117700	0.320400	0.751500
C6301	C630	0.281210	0.406980	0.648280
C6311	C631	0.234660	0.391370	0.664820
H3891	H389	0.244700	0.402300	0.663600
C6321	C632	0.222050	0.390560	0.682640
H3901	H390	0.223100	0.401100	0.693000
C6331	C633	0.208230	0.374490	0.685010
H3911	H391	0.199800	0.373500	0.697200
C6341	C634	0.206670	0.359430	0.669060
C6351	C635	0.219350	0.361740	0.651690
H3921	H392	0.218200	0.351700	0.640800
C6361	C636	0.191530	0.342090	0.670380
C6371	C637	0.167300	0.323810	0.688230
C6381	C638	0.175780	0.314470	0.655700
C6391	C639	0.154350	0.287580	0.637250
H3931	H393	0.145600	0.287200	0.649300
C6401	C640	0.171640	0.301220	0.637290
C6411	C641	0.183990	0.302100	0.619280
H3941	H394	0.195700	0.311200	0.618500
C6421	C642	0.178590	0.289370	0.602560
H3951	H395	0.186600	0.289700	0.590000
C6431	C643	0.161580	0.276230	0.604150
H3961	H396	0.158200	0.267500	0.592600
C6441	C644	0.119910	0.248740	0.574960
C6451	C645	0.082930	0.232400	0.611360
H3971	H397	0.084100	0.242700	0.600700
C6461	C646	0.065270	0.220750	0.612140
H3981	H398	0.054100	0.223400	0.602700
C6471	C647	0.063550	0.204810	0.627020
H3991	H399	0.051400	0.196300	0.627800
C6481	C648	0.080110	0.201780	0.640670
C6491	C649	0.097410	0.215040	0.639230
H4001	H400	0.108600	0.213300	0.648900
C6501	C650	0.079390	0.185670	0.656960
N2411	N241	0.135870	0.339070	0.734730
N2421	N242	0.273540	0.395690	0.636230
N2431	N243	0.233190	0.377270	0.649330
N2441	N244	0.189480	0.329700	0.653640
N2451	N245	0.180390	0.340100	0.688070
N2461	N246	0.164770	0.310300	0.672850
N2471	N247	0.149600	0.275340	0.621390
N2481	N248	0.122780	0.251260	0.592500
N2491	N249	0.098860	0.229990	0.624940
N2501	N250	0.094400	0.186030	0.671370
S491	S49	0.291120	0.423110	0.665250
S501	S50	0.115700	0.245090	0.550160
C6511	C651	0.149160	0.838950	0.218780
H4011	H401	0.156000	0.851700	0.215400
C6521	C652	0.153670	0.821550	0.206840
C6531	C653	0.144000	0.802670	0.211940
H4021	H402	0.146600	0.790400	0.204000
C6541	C654	0.130560	0.802400	0.228840
H4031	H403	0.123900	0.789800	0.232900
C6551	C655	0.126900	0.820760	0.239850
H4041	H404	0.117700	0.820400	0.251500
C6561	C656	0.281210	0.906980	0.148280
C6571	C657	0.234660	0.891370	0.164820
H4051	H405	0.244700	0.902300	0.163600
C6581	C658	0.222050	0.890560	0.182640
H4061	H406	0.223100	0.901100	0.193000
C6591	C659	0.208230	0.874490	0.185010
H4071	H407	0.199800	0.873500	0.197200
C6601	C660	0.206670	0.859430	0.169060
C6611	C661	0.219350	0.861740	0.151690
H4081	H408	0.218200	0.851700	0.140800
C6621	C662	0.191530	0.842090	0.170380
C6631	C663	0.167300	0.823810	0.188230
C6641	C664	0.175780	0.814470	0.155700
C6651	C665	0.154350	0.787580	0.137250
H4091	H409	0.145600	0.787200	0.149300
C6661	C666	0.171640	0.801220	0.137290
C6671	C667	0.183990	0.802100	0.119280
H4101	H410	0.195700	0.811200	0.118500
C6681	C668	0.178590	0.789370	0.102560
H4111	H411	0.186600	0.789700	0.090000
C6691	C669	0.161580	0.776230	0.104150
H4121	H412	0.158200	0.767500	0.092600
C6701	C670	0.119910	0.748740	0.074960
C6711	C671	0.082930	0.732400	0.111360
H4131	H413	0.084100	0.742700	0.100700
C6721	C672	0.065270	0.720750	0.112140
H4141	H414	0.054100	0.723400	0.102700
C6731	C673	0.063550	0.704810	0.127020
H4151	H415	0.051400	0.696300	0.127800
C6741	C674	0.080110	0.701780	0.140670
C6751	C675	0.097410	0.715040	0.139230
H4161	H416	0.108600	0.713300	0.148900
C6761	C676	0.079390	0.685670	0.156960
N2511	N251	0.135870	0.839070	0.234730
N2521	N252	0.273540	0.895690	0.136230
N2531	N253	0.233190	0.877270	0.149330
N2541	N254	0.189480	0.829700	0.153640
N2551	N255	0.180390	0.840100	0.188070
N2561	N256	0.164770	0.810300	0.172850
N2571	N257	0.149600	0.775340	0.121390
N2581	N258	0.122780	0.751260	0.092500
N2591	N259	0.098860	0.729990	0.124940
N2601	N260	0.094400	0.686030	0.171370
S511	S51	0.291120	0.923110	0.165250
S521	S52	0.115700	0.745090	0.050160
C6771	C677	0.649160	0.338950	0.218780
H4171	H417	0.656000	0.351700	0.215400
C6781	C678	0.653670	0.321550	0.206840
C6791	C679	0.644000	0.302670	0.211940
H4181	H418	0.646600	0.290400	0.204000
C6801	C680	0.630560	0.302400	0.228840
H4191	H419	0.623900	0.289800	0.232900
C6811	C681	0.626900	0.320760	0.239850
H4201	H420	0.617700	0.320400	0.251500
C6821	C682	0.781210	0.406980	0.148280
C6831	C683	0.734660	0.391370	0.164820
H4211	H421	0.744700	0.402300	0.163600
C6841	C684	0.722050	0.390560	0.182640
H4221	H422	0.723100	0.401100	0.193000
C6851	C685	0.708230	0.374490	0.185010
H4231	H423	0.699800	0.373500	0.197200
C6861	C686	0.706670	0.359430	0.169060
C6871	C687	0.719350	0.361740	0.151690
H4241	H424	0.718200	0.351700	0.140800
C6881	C688	0.691530	0.342090	0.170380
C6891	C689	0.667300	0.323810	0.188230
C6901	C690	0.675780	0.314470	0.155700
C6911	C691	0.654350	0.287580	0.137250
H4251	H425	0.645600	0.287200	0.149300
C6921	C692	0.671640	0.301220	0.137290
C6931	C693	0.683990	0.302100	0.119280
H4261	H426	0.695700	0.311200	0.118500
C6941	C694	0.678590	0.289370	0.102560
H4271	H427	0.686600	0.289700	0.090000
C6951	C695	0.661580	0.276230	0.104150
H4281	H428	0.658200	0.267500	0.092600
C6961	C696	0.619910	0.248740	0.074960
C6971	C697	0.582930	0.232400	0.111360
H4291	H429	0.584100	0.242700	0.100700
C6981	C698	0.565270	0.220750	0.112140
H4301	H430	0.554100	0.223400	0.102700
C6991	C699	0.563550	0.204810	0.127020
H4311	H431	0.551400	0.196300	0.127800
C7001	C700	0.580110	0.201780	0.140670
C7011	C701	0.597410	0.215040	0.139230
H4321	H432	0.608600	0.213300	0.148900
C7021	C702	0.579390	0.185670	0.156960
N2611	N261	0.635870	0.339070	0.234730
N2621	N262	0.773540	0.395690	0.136230
N2631	N263	0.733190	0.377270	0.149330
N2641	N264	0.689480	0.329700	0.153640
N2651	N265	0.680390	0.340100	0.188070
N2661	N266	0.664770	0.310300	0.172850
N2671	N267	0.649600	0.275340	0.121390
N2681	N268	0.622780	0.251260	0.092500
N2691	N269	0.598860	0.229990	0.124940
N2701	N270	0.594400	0.186030	0.171370
S531	S53	0.791120	0.423110	0.165250
S541	S54	0.615700	0.245090	0.050160
C7031	C703	0.649160	0.838950	0.718780
H4331	H433	0.656000	0.851700	0.715400
C7041	C704	0.653670	0.821550	0.706840
C7051	C705	0.644000	0.802670	0.711940
H4341	H434	0.646600	0.790400	0.704000
C7061	C706	0.630560	0.802400	0.728840
H4351	H435	0.623900	0.789800	0.732900
C7071	C707	0.626900	0.820760	0.739850
H4361	H436	0.617700	0.820400	0.751500
C7081	C708	0.781210	0.906980	0.648280
C7091	C709	0.734660	0.891370	0.664820
H4371	H437	0.744700	0.902300	0.663600
C7101	C710	0.722050	0.890560	0.682640
H4381	H438	0.723100	0.901100	0.693000
C7111	C711	0.708230	0.874490	0.685010
H4391	H439	0.699800	0.873500	0.697200
C7121	C712	0.706670	0.859430	0.669060
C7131	C713	0.719350	0.861740	0.651690
H4401	H440	0.718200	0.851700	0.640800
C7141	C714	0.691530	0.842090	0.670380
C7151	C715	0.667300	0.823810	0.688230
C7161	C716	0.675780	0.814470	0.655700
C7171	C717	0.654350	0.787580	0.637250
H4411	H441	0.645600	0.787200	0.649300
C7181	C718	0.671640	0.801220	0.637290
C7191	C719	0.683990	0.802100	0.619280
H4421	H442	0.695700	0.811200	0.618500
C7201	C720	0.678590	0.789370	0.602560
H4431	H443	0.686600	0.789700	0.590000
C7211	C721	0.661580	0.776230	0.604150
H4441	H444	0.658200	0.767500	0.592600
C7221	C722	0.619910	0.748740	0.574960
C7231	C723	0.582930	0.732400	0.611360
H4451	H445	0.584100	0.742700	0.600700
C7241	C724	0.565270	0.720750	0.612140
H4461	H446	0.554100	0.723400	0.602700
C7251	C725	0.563550	0.704810	0.627020
H4471	H447	0.551400	0.696300	0.627800
C7261	C726	0.580110	0.701780	0.640670
C7271	C727	0.597410	0.715040	0.639230
H4481	H448	0.608600	0.713300	0.648900
C7281	C728	0.579390	0.685670	0.656960
N2711	N271	0.635870	0.839070	0.734730
N2721	N272	0.773540	0.895690	0.636230
N2731	N273	0.733190	0.877270	0.649330
N2741	N274	0.689480	0.829700	0.653640
N2751	N275	0.680390	0.840100	0.688070
N2761	N276	0.664770	0.810300	0.672850
N2771	N277	0.649600	0.775340	0.621390
N2781	N278	0.622780	0.751260	0.592500
N2791	N279	0.598860	0.729990	0.624940
N2801	N280	0.594400	0.686030	0.671370
S551	S55	0.791120	0.923110	0.665250
S561	S56	0.615700	0.745090	0.550160
C7291	C729	0.649160	0.911050	0.031220
H4491	H449	0.656000	0.898300	0.034600
C7301	C730	0.653670	0.928450	0.043160
C7311	C731	0.644000	0.947330	0.038060
H4501	H450	0.646600	0.959600	0.046000
C7321	C732	0.630560	0.947600	0.021160
H4511	H451	0.623900	0.960200	0.017100
C7331	C733	0.626900	0.929240	0.010150
H4521	H452	0.617700	0.929600	0.998500
C7341	C734	0.781210	0.843020	0.101720
C7351	C735	0.734660	0.858630	0.085180
H4531	H453	0.744700	0.847700	0.086400
C7361	C736	0.722050	0.859440	0.067360
H4541	H454	0.723100	0.848900	0.057000
C7371	C737	0.708230	0.875510	0.064990
H4551	H455	0.699800	0.876500	0.052800
C7381	C738	0.706670	0.890570	0.080940
C7391	C739	0.719350	0.888260	0.098310
H4561	H456	0.718200	0.898300	0.109200
C7401	C740	0.691530	0.907910	0.079620
C7411	C741	0.667300	0.926190	0.061770
C7421	C742	0.675780	0.935530	0.094300
C7431	C743	0.654350	0.962420	0.112750
H4571	H457	0.645600	0.962800	0.100700
C7441	C744	0.671640	0.948780	0.112710
C7451	C745	0.683990	0.947900	0.130720
H4581	H458	0.695700	0.938800	0.131500
C7461	C746	0.678590	0.960630	0.147440
H4591	H459	0.686600	0.960300	0.160000
C7471	C747	0.661580	0.973770	0.145850
H4601	H460	0.658200	0.982500	0.157400
C7481	C748	0.619910	0.001260	0.175040
C7491	C749	0.582930	0.017600	0.138640
H4611	H461	0.584100	0.007300	0.149300
C7501	C750	0.565270	0.029250	0.137860
H4621	H462	0.554100	0.026600	0.147300
C7511	C751	0.563550	0.045190	0.122980
H4631	H463	0.551400	0.053700	0.122200
C7521	C752	0.580110	0.048220	0.109330
C7531	C753	0.597410	0.034960	0.110770
H4641	H464	0.608600	0.036700	0.101100
C7541	C754	0.579390	0.064330	0.093040
N2811	N281	0.635870	0.910930	0.015270
N2821	N282	0.773540	0.854310	0.113770
N2831	N283	0.733190	0.872730	0.100670
N2841	N284	0.689480	0.920300	0.096360
N2851	N285	0.680390	0.909900	0.061930
N2861	N286	0.664770	0.939700	0.077150
N2871	N287	0.649600	0.974660	0.128610
N2881	N288	0.622780	0.998740	0.157500
N2891	N289	0.598860	0.020010	0.125060
N2901	N290	0.594400	0.063970	0.078630
S571	S57	0.791120	0.826890	0.084750
S581	S58	0.615700	0.004910	0.199840
C7551	C755	0.649160	0.411050	0.531220
H4651	H465	0.656000	0.398300	0.534600
C7561	C756	0.653670	0.428450	0.543160
C7571	C757	0.644000	0.447330	0.538060
H4661	H466	0.646600	0.459600	0.546000
C7581	C758	0.630560	0.447600	0.521160
H4671	H467	0.623900	0.460200	0.517100
C7591	C759	0.626900	0.429240	0.510150
H4681	H468	0.617700	0.429600	0.498500
C7601	C760	0.781210	0.343020	0.601720
C7611	C761	0.734660	0.358630	0.585180
H4691	H469	0.744700	0.347700	0.586400
C7621	C762	0.722050	0.359440	0.567360
H4701	H470	0.723100	0.348900	0.557000
C7631	C763	0.708230	0.375510	0.564990
H4711	H471	0.699800	0.376500	0.552800
C7641	C764	0.706670	0.390570	0.580940
C7651	C765	0.719350	0.388260	0.598310
H4721	H472	0.718200	0.398300	0.609200
C7661	C766	0.691530	0.407910	0.579620
C7671	C767	0.667300	0.426190	0.561770
C7681	C768	0.675780	0.435530	0.594300
C7691	C769	0.654350	0.462420	0.612750
H4731	H473	0.645600	0.462800	0.600700
C7701	C770	0.671640	0.448780	0.612710
C7711	C771	0.683990	0.447900	0.630720
H4741	H474	0.695700	0.438800	0.631500
C7721	C772	0.678590	0.460630	0.647440
H4751	H475	0.686600	0.460300	0.660000
C7731	C773	0.661580	0.473770	0.645850
H4761	H476	0.658200	0.482500	0.657400
C7741	C774	0.619910	0.501260	0.675040
C7751	C775	0.582930	0.517600	0.638640
H4771	H477	0.584100	0.507300	0.649300
C7761	C776	0.565270	0.529250	0.637860
H4781	H478	0.554100	0.526600	0.647300
C7771	C777	0.563550	0.545190	0.622980
H4791	H479	0.551400	0.553700	0.622200
C7781	C778	0.580110	0.548220	0.609330
C7791	C779	0.597410	0.534960	0.610770
H4801	H480	0.608600	0.536700	0.601100
C7801	C780	0.579390	0.564330	0.593040
N2911	N291	0.635870	0.410930	0.515270
N2921	N292	0.773540	0.354310	0.613770
N2931	N293	0.733190	0.372730	0.600670
N2941	N294	0.689480	0.420300	0.596360
N2951	N295	0.680390	0.409900	0.561930
N2961	N296	0.664770	0.439700	0.577150
N2971	N297	0.649600	0.474660	0.628610
N2981	N298	0.622780	0.498740	0.657500
N2991	N299	0.598860	0.520010	0.625060
N3001	N300	0.594400	0.563970	0.578630
S591	S59	0.791120	0.326890	0.584750
S601	S60	0.615700	0.504910	0.699840
C7811	C781	0.149160	0.911050	0.531220
H4811	H481	0.156000	0.898300	0.534600
C7821	C782	0.153670	0.928450	0.543160
C7831	C783	0.144000	0.947330	0.538060
H4821	H482	0.146600	0.959600	0.546000
C7841	C784	0.130560	0.947600	0.521160
H4831	H483	0.123900	0.960200	0.517100
C7851	C785	0.126900	0.929240	0.510150
H4841	H484	0.117700	0.929600	0.498500
C7861	C786	0.281210	0.843020	0.601720
C7871	C787	0.234660	0.858630	0.585180
H4851	H485	0.244700	0.847700	0.586400
C7881	C788	0.222050	0.859440	0.567360
H4861	H486	0.223100	0.848900	0.557000
C7891	C789	0.208230	0.875510	0.564990
H4871	H487	0.199800	0.876500	0.552800
C7901	C790	0.206670	0.890570	0.580940
C7911	C791	0.219350	0.888260	0.598310
H4881	H488	0.218200	0.898300	0.609200
C7921	C792	0.191530	0.907910	0.579620
C7931	C793	0.167300	0.926190	0.561770
C7941	C794	0.175780	0.935530	0.594300
C7951	C795	0.154350	0.962420	0.612750
H4891	H489	0.145600	0.962800	0.600700
C7961	C796	0.171640	0.948780	0.612710
C7971	C797	0.183990	0.947900	0.630720
H4901	H490	0.195700	0.938800	0.631500
C7981	C798	0.178590	0.960630	0.647440
H4911	H491	0.186600	0.960300	0.660000
C7991	C799	0.161580	0.973770	0.645850
H4921	H492	0.158200	0.982500	0.657400
C8001	C800	0.119910	0.001260	0.675040
C8011	C801	0.082930	0.017600	0.638640
H4931	H493	0.084100	0.007300	0.649300
C8021	C802	0.065270	0.029250	0.637860
H4941	H494	0.054100	0.026600	0.647300
C8031	C803	0.063550	0.045190	0.622980
H4951	H495	0.051400	0.053700	0.622200
C8041	C804	0.080110	0.048220	0.609330
C8051	C805	0.097410	0.034960	0.610770
H4961	H496	0.108600	0.036700	0.601100
C8061	C806	0.079390	0.064330	0.593040
N3011	N301	0.135870	0.910930	0.515270
N3021	N302	0.273540	0.854310	0.613770
N3031	N303	0.233190	0.872730	0.600670
N3041	N304	0.189480	0.920300	0.596360
N3051	N305	0.180390	0.909900	0.561930
N3061	N306	0.164770	0.939700	0.577150
N3071	N307	0.149600	0.974660	0.628610
N3081	N308	0.122780	0.998740	0.657500
N3091	N309	0.098860	0.020010	0.625060
N3101	N310	0.094400	0.063970	0.578630
S611	S61	0.291120	0.826890	0.584750
S621	S62	0.115700	0.004910	0.699840
C8071	C807	0.149160	0.411050	0.031220
H4971	H497	0.156000	0.398300	0.034600
C8081	C808	0.153670	0.428450	0.043160
C8091	C809	0.144000	0.447330	0.038060
H4981	H498	0.146600	0.459600	0.046000
C8101	C810	0.130560	0.447600	0.021160
H4991	H499	0.123900	0.460200	0.017100
C8111	C811	0.126900	0.429240	0.010150
H5001	H500	0.117700	0.429600	0.998500
C8121	C812	0.281210	0.343020	0.101720
C8131	C813	0.234660	0.358630	0.085180
H5011	H501	0.244700	0.347700	0.086400
C8141	C814	0.222050	0.359440	0.067360
H5021	H502	0.223100	0.348900	0.057000
C8151	C815	0.208230	0.375510	0.064990
H5031	H503	0.199800	0.376500	0.052800
C8161	C816	0.206670	0.390570	0.080940
C8171	C817	0.219350	0.388260	0.098310
H5041	H504	0.218200	0.398300	0.109200
C8181	C818	0.191530	0.407910	0.079620
C8191	C819	0.167300	0.426190	0.061770
C8201	C820	0.175780	0.435530	0.094300
C8211	C821	0.154350	0.462420	0.112750
H5051	H505	0.145600	0.462800	0.100700
C8221	C822	0.171640	0.448780	0.112710
C8231	C823	0.183990	0.447900	0.130720
H5061	H506	0.195700	0.438800	0.131500
C8241	C824	0.178590	0.460630	0.147440
H5071	H507	0.186600	0.460300	0.160000
C8251	C825	0.161580	0.473770	0.145850
H5081	H508	0.158200	0.482500	0.157400
C8261	C826	0.119910	0.501260	0.175040
C8271	C827	0.082930	0.517600	0.138640
H5091	H509	0.084100	0.507300	0.149300
C8281	C828	0.065270	0.529250	0.137860
H5101	H510	0.054100	0.526600	0.147300
C8291	C829	0.063550	0.545190	0.122980
H5111	H511	0.051400	0.553700	0.122200
C8301	C830	0.080110	0.548220	0.109330
C8311	C831	0.097410	0.534960	0.110770
H5121	H512	0.108600	0.536700	0.101100
C8321	C832	0.079390	0.564330	0.093040
N3111	N311	0.135870	0.410930	0.015270
N3121	N312	0.273540	0.354310	0.113770
N3131	N313	0.233190	0.372730	0.100670
N3141	N314	0.189480	0.420300	0.096360
N3151	N315	0.180390	0.409900	0.061930
N3161	N316	0.164770	0.439700	0.077150
N3171	N317	0.149600	0.474660	0.128610
N3181	N318	0.122780	0.498740	0.157500
N3191	N319	0.098860	0.520010	0.125060
N3201	N320	0.094400	0.563970	0.078630
S631	S63	0.291120	0.326890	0.084750
S641	S64	0.115700	0.504910	0.199840
C8331	C833	0.218780	0.100840	0.411050
H5131	H513	0.215400	0.094000	0.398300
C8341	C834	0.206840	0.096330	0.428450
C8351	C835	0.211940	0.106000	0.447330
H5141	H514	0.204000	0.103400	0.459600
C8361	C836	0.228840	0.119440	0.447600
H5151	H515	0.232900	0.126100	0.460200
C8371	C837	0.239850	0.123100	0.429240
H5161	H516	0.251500	0.132300	0.429600
C8381	C838	0.148280	0.968790	0.343020
C8391	C839	0.164820	0.015340	0.358630
H5171	H517	0.163600	0.005300	0.347700
C8401	C840	0.182640	0.027950	0.359440
H5181	H518	0.193000	0.026900	0.348900
C8411	C841	0.185010	0.041770	0.375510
H5191	H519	0.197200	0.050200	0.376500
C8421	C842	0.169060	0.043330	0.390570
C8431	C843	0.151690	0.030650	0.388260
H5201	H520	0.140800	0.031800	0.398300
C8441	C844	0.170380	0.058470	0.407910
C8451	C845	0.188230	0.082700	0.426190
C8461	C846	0.155700	0.074220	0.435530
C8471	C847	0.137250	0.095650	0.462420
H5211	H521	0.149300	0.104400	0.462800
C8481	C848	0.137290	0.078360	0.448780
C8491	C849	0.119280	0.066010	0.447900
H5221	H522	0.118500	0.054300	0.438800
C8501	C850	0.102560	0.071410	0.460630
H5231	H523	0.090000	0.063400	0.460300
C8511	C851	0.104150	0.088420	0.473770
H5241	H524	0.092600	0.091800	0.482500
C8521	C852	0.074960	0.130090	0.501260
C8531	C853	0.111360	0.167070	0.517600
H5251	H525	0.100700	0.165900	0.507300
C8541	C854	0.112140	0.184730	0.529250
H5261	H526	0.102700	0.195900	0.526600
C8551	C855	0.127020	0.186450	0.545190
H5271	H527	0.127800	0.198600	0.553700
C8561	C856	0.140670	0.169890	0.548220
C8571	C857	0.139230	0.152590	0.534960
H5281	H528	0.148900	0.141400	0.536700
C8581	C858	0.156960	0.170610	0.564330
N3211	N321	0.234730	0.114130	0.410930
N3221	N322	0.136230	0.976460	0.354310
N3231	N323	0.149330	0.016810	0.372730
N3241	N324	0.153640	0.060520	0.420300
N3251	N325	0.188070	0.069610	0.409900
N3261	N326	0.172850	0.085230	0.439700
N3271	N327	0.121390	0.100400	0.474660
N3281	N328	0.092500	0.127220	0.498740
N3291	N329	0.124940	0.151140	0.520010
N3301	N330	0.171370	0.155600	0.563970
S651	S65	0.165250	0.958880	0.326890
S661	S66	0.050160	0.134300	0.504910
C8591	C859	0.218780	0.600840	0.911050
H5291	H529	0.215400	0.594000	0.898300
C8601	C860	0.206840	0.596330	0.928450
C8611	C861	0.211940	0.606000	0.947330
H5301	H530	0.204000	0.603400	0.959600
C8621	C862	0.228840	0.619440	0.947600
H5311	H531	0.232900	0.626100	0.960200
C8631	C863	0.239850	0.623100	0.929240
H5321	H532	0.251500	0.632300	0.929600
C8641	C864	0.148280	0.468790	0.843020
C8651	C865	0.164820	0.515340	0.858630
H5331	H533	0.163600	0.505300	0.847700
C8661	C866	0.182640	0.527950	0.859440
H5341	H534	0.193000	0.526900	0.848900
C8671	C867	0.185010	0.541770	0.875510
H5351	H535	0.197200	0.550200	0.876500
C8681	C868	0.169060	0.543330	0.890570
C8691	C869	0.151690	0.530650	0.888260
H5361	H536	0.140800	0.531800	0.898300
C8701	C870	0.170380	0.558470	0.907910
C8711	C871	0.188230	0.582700	0.926190
C8721	C872	0.155700	0.574220	0.935530
C8731	C873	0.137250	0.595650	0.962420
H5371	H537	0.149300	0.604400	0.962800
C8741	C874	0.137290	0.578360	0.948780
C8751	C875	0.119280	0.566010	0.947900
H5381	H538	0.118500	0.554300	0.938800
C8761	C876	0.102560	0.571410	0.960630
H5391	H539	0.090000	0.563400	0.960300
C8771	C877	0.104150	0.588420	0.973770
H5401	H540	0.092600	0.591800	0.982500
C8781	C878	0.074960	0.630090	0.001260
C8791	C879	0.111360	0.667070	0.017600
H5411	H541	0.100700	0.665900	0.007300
C8801	C880	0.112140	0.684730	0.029250
H5421	H542	0.102700	0.695900	0.026600
C8811	C881	0.127020	0.686450	0.045190
H5431	H543	0.127800	0.698600	0.053700
C8821	C882	0.140670	0.669890	0.048220
C8831	C883	0.139230	0.652590	0.034960
H5441	H544	0.148900	0.641400	0.036700
C8841	C884	0.156960	0.670610	0.064330
N3311	N331	0.234730	0.614130	0.910930
N3321	N332	0.136230	0.476460	0.854310
N3331	N333	0.149330	0.516810	0.872730
N3341	N334	0.153640	0.560520	0.920300
N3351	N335	0.188070	0.569610	0.909900
N3361	N336	0.172850	0.585230	0.939700
N3371	N337	0.121390	0.600400	0.974660
N3381	N338	0.092500	0.627220	0.998740
N3391	N339	0.124940	0.651140	0.020010
N3401	N340	0.171370	0.655600	0.063970
S671	S67	0.165250	0.458880	0.826890
S681	S68	0.050160	0.634300	0.004910
C8851	C885	0.718780	0.100840	0.911050
H5451	H545	0.715400	0.094000	0.898300
C8861	C886	0.706840	0.096330	0.928450
C8871	C887	0.711940	0.106000	0.947330
H5461	H546	0.704000	0.103400	0.959600
C8881	C888	0.728840	0.119440	0.947600
H5471	H547	0.732900	0.126100	0.960200
C8891	C889	0.739850	0.123100	0.929240
H5481	H548	0.751500	0.132300	0.929600
C8901	C890	0.648280	0.968790	0.843020
C8911	C891	0.664820	0.015340	0.858630
H5491	H549	0.663600	0.005300	0.847700
C8921	C892	0.682640	0.027950	0.859440
H5501	H550	0.693000	0.026900	0.848900
C8931	C893	0.685010	0.041770	0.875510
H5511	H551	0.697200	0.050200	0.876500
C8941	C894	0.669060	0.043330	0.890570
C8951	C895	0.651690	0.030650	0.888260
H5521	H552	0.640800	0.031800	0.898300
C8961	C896	0.670380	0.058470	0.907910
C8971	C897	0.688230	0.082700	0.926190
C8981	C898	0.655700	0.074220	0.935530
C8991	C899	0.637250	0.095650	0.962420
H5531	H553	0.649300	0.104400	0.962800
C9001	C900	0.637290	0.078360	0.948780
C9011	C901	0.619280	0.066010	0.947900
H5541	H554	0.618500	0.054300	0.938800
C9021	C902	0.602560	0.071410	0.960630
H5551	H555	0.590000	0.063400	0.960300
C9031	C903	0.604150	0.088420	0.973770
H5561	H556	0.592600	0.091800	0.982500
C9041	C904	0.574960	0.130090	0.001260
C9051	C905	0.611360	0.167070	0.017600
H5571	H557	0.600700	0.165900	0.007300
C9061	C906	0.612140	0.184730	0.029250
H5581	H558	0.602700	0.195900	0.026600
C9071	C907	0.627020	0.186450	0.045190
H5591	H559	0.627800	0.198600	0.053700
C9081	C908	0.640670	0.169890	0.048220
C9091	C909	0.639230	0.152590	0.034960
H5601	H560	0.648900	0.141400	0.036700
C9101	C910	0.656960	0.170610	0.064330
N3411	N341	0.734730	0.114130	0.910930
N3421	N342	0.636230	0.976460	0.854310
N3431	N343	0.649330	0.016810	0.872730
N3441	N344	0.653640	0.060520	0.920300
N3451	N345	0.688070	0.069610	0.909900
N3461	N346	0.672850	0.085230	0.939700
N3471	N347	0.621390	0.100400	0.974660
N3481	N348	0.592500	0.127220	0.998740
N3491	N349	0.624940	0.151140	0.020010
N3501	N350	0.671370	0.155600	0.063970
S691	S69	0.665250	0.958880	0.826890
S701	S70	0.550160	0.134300	0.004910
C9111	C911	0.718780	0.600840	0.411050
H5611	H561	0.715400	0.594000	0.398300
C9121	C912	0.706840	0.596330	0.428450
C9131	C913	0.711940	0.606000	0.447330
H5621	H562	0.704000	0.603400	0.459600
C9141	C914	0.728840	0.619440	0.447600
H5631	H563	0.732900	0.626100	0.460200
C9151	C915	0.739850	0.623100	0.429240
H5641	H564	0.751500	0.632300	0.429600
C9161	C916	0.648280	0.468790	0.343020
C9171	C917	0.664820	0.515340	0.358630
H5651	H565	0.663600	0.505300	0.347700
C9181	C918	0.682640	0.527950	0.359440
H5661	H566	0.693000	0.526900	0.348900
C9191	C919	0.685010	0.541770	0.375510
H5671	H567	0.697200	0.550200	0.376500
C9201	C920	0.669060	0.543330	0.390570
C9211	C921	0.651690	0.530650	0.388260
H5681	H568	0.640800	0.531800	0.398300
C9221	C922	0.670380	0.558470	0.407910
C9231	C923	0.688230	0.582700	0.426190
C9241	C924	0.655700	0.574220	0.435530
C9251	C925	0.637250	0.595650	0.462420
H5691	H569	0.649300	0.604400	0.462800
C9261	C926	0.637290	0.578360	0.448780
C9271	C927	0.619280	0.566010	0.447900
H5701	H570	0.618500	0.554300	0.438800
C9281	C928	0.602560	0.571410	0.460630
H5711	H571	0.590000	0.563400	0.460300
C9291	C929	0.604150	0.588420	0.473770
H5721	H572	0.592600	0.591800	0.482500
C9301	C930	0.574960	0.630090	0.501260
C9311	C931	0.611360	0.667070	0.517600
H5731	H573	0.600700	0.665900	0.507300
C9321	C932	0.612140	0.684730	0.529250
H5741	H574	0.602700	0.695900	0.526600
C9331	C933	0.627020	0.686450	0.545190
H5751	H575	0.627800	0.698600	0.553700
C9341	C934	0.640670	0.669890	0.548220
C9351	C935	0.639230	0.652590	0.534960
H5761	H576	0.648900	0.641400	0.536700
C9361	C936	0.656960	0.670610	0.564330
N3511	N351	0.734730	0.614130	0.410930
N3521	N352	0.636230	0.476460	0.354310
N3531	N353	0.649330	0.516810	0.372730
N3541	N354	0.653640	0.560520	0.420300
N3551	N355	0.688070	0.569610	0.409900
N3561	N356	0.672850	0.585230	0.439700
N3571	N357	0.621390	0.600400	0.474660
N3581	N358	0.592500	0.627220	0.498740
N3591	N359	0.624940	0.651140	0.520010
N3601	N360	0.671370	0.655600	0.563970
S711	S71	0.665250	0.458880	0.326890
S721	S72	0.550160	0.634300	0.504910
C9371	C937	0.531220	0.600840	0.838950
H5771	H577	0.534600	0.594000	0.851700
C9381	C938	0.543160	0.596330	0.821550
C9391	C939	0.538060	0.606000	0.802670
H5781	H578	0.546000	0.603400	0.790400
C9401	C940	0.521160	0.619440	0.802400
H5791	H579	0.517100	0.626100	0.789800
C9411	C941	0.510150	0.623100	0.820760
H5801	H580	0.498500	0.632300	0.820400
C9421	C942	0.601720	0.468790	0.906980
C9431	C943	0.585180	0.515340	0.891370
H5811	H581	0.586400	0.505300	0.902300
C9441	C944	0.567360	0.527950	0.890560
H5821	H582	0.557000	0.526900	0.901100
C9451	C945	0.564990	0.541770	0.874490
H5831	H583	0.552800	0.550200	0.873500
C9461	C946	0.580940	0.543330	0.859430
C9471	C947	0.598310	0.530650	0.861740
H5841	H584	0.609200	0.531800	0.851700
C9481	C948	0.579620	0.558470	0.842090
C9491	C949	0.561770	0.582700	0.823810
C9501	C950	0.594300	0.574220	0.814470
C9511	C951	0.612750	0.595650	0.787580
H5851	H585	0.600700	0.604400	0.787200
C9521	C952	0.612710	0.578360	0.801220
C9531	C953	0.630720	0.566010	0.802100
H5861	H586	0.631500	0.554300	0.811200
C9541	C954	0.647440	0.571410	0.789370
H5871	H587	0.660000	0.563400	0.789700
C9551	C955	0.645850	0.588420	0.776230
H5881	H588	0.657400	0.591800	0.767500
C9561	C956	0.675040	0.630090	0.748740
C9571	C957	0.638640	0.667070	0.732400
H5891	H589	0.649300	0.665900	0.742700
C9581	C958	0.637860	0.684730	0.720750
H5901	H590	0.647300	0.695900	0.723400
C9591	C959	0.622980	0.686450	0.704810
H5911	H591	0.622200	0.698600	0.696300
C9601	C960	0.609330	0.669890	0.701780
C9611	C961	0.610770	0.652590	0.715040
H5921	H592	0.601100	0.641400	0.713300
C9621	C962	0.593040	0.670610	0.685670
N3611	N361	0.515270	0.614130	0.839070
N3621	N362	0.613770	0.476460	0.895690
N3631	N363	0.600670	0.516810	0.877270
N3641	N364	0.596360	0.560520	0.829700
N3651	N365	0.561930	0.569610	0.840100
N3661	N366	0.577150	0.585230	0.810300
N3671	N367	0.628610	0.600400	0.775340
N3681	N368	0.657500	0.627220	0.751260
N3691	N369	0.625060	0.651140	0.729990
N3701	N370	0.578630	0.655600	0.686030
S731	S73	0.584750	0.458880	0.923110
S741	S74	0.699840	0.634300	0.745090
C9631	C963	0.531220	0.100840	0.338950
H5931	H593	0.534600	0.094000	0.351700
C9641	C964	0.543160	0.096330	0.321550
C9651	C965	0.538060	0.106000	0.302670
H5941	H594	0.546000	0.103400	0.290400
C9661	C966	0.521160	0.119440	0.302400
H5951	H595	0.517100	0.126100	0.289800
C9671	C967	0.510150	0.123100	0.320760
H5961	H596	0.498500	0.132300	0.320400
C9681	C968	0.601720	0.968790	0.406980
C9691	C969	0.585180	0.015340	0.391370
H5971	H597	0.586400	0.005300	0.402300
C9701	C970	0.567360	0.027950	0.390560
H5981	H598	0.557000	0.026900	0.401100
C9711	C971	0.564990	0.041770	0.374490
H5991	H599	0.552800	0.050200	0.373500
C9721	C972	0.580940	0.043330	0.359430
C9731	C973	0.598310	0.030650	0.361740
H6001	H600	0.609200	0.031800	0.351700
C9741	C974	0.579620	0.058470	0.342090
C9751	C975	0.561770	0.082700	0.323810
C9761	C976	0.594300	0.074220	0.314470
C9771	C977	0.612750	0.095650	0.287580
H6011	H601	0.600700	0.104400	0.287200
C9781	C978	0.612710	0.078360	0.301220
C9791	C979	0.630720	0.066010	0.302100
H6021	H602	0.631500	0.054300	0.311200
C9801	C980	0.647440	0.071410	0.289370
H6031	H603	0.660000	0.063400	0.289700
C9811	C981	0.645850	0.088420	0.276230
H6041	H604	0.657400	0.091800	0.267500
C9821	C982	0.675040	0.130090	0.248740
C9831	C983	0.638640	0.167070	0.232400
H6051	H605	0.649300	0.165900	0.242700
C9841	C984	0.637860	0.184730	0.220750
H6061	H606	0.647300	0.195900	0.223400
C9851	C985	0.622980	0.186450	0.204810
H6071	H607	0.622200	0.198600	0.196300
C9861	C986	0.609330	0.169890	0.201780
C9871	C987	0.610770	0.152590	0.215040
H6081	H608	0.601100	0.141400	0.213300
C9881	C988	0.593040	0.170610	0.185670
N3711	N371	0.515270	0.114130	0.339070
N3721	N372	0.613770	0.976460	0.395690
N3731	N373	0.600670	0.016810	0.377270
N3741	N374	0.596360	0.060520	0.329700
N3751	N375	0.561930	0.069610	0.340100
N3761	N376	0.577150	0.085230	0.310300
N3771	N377	0.628610	0.100400	0.275340
N3781	N378	0.657500	0.127220	0.251260
N3791	N379	0.625060	0.151140	0.229990
N3801	N380	0.578630	0.155600	0.186030
S751	S75	0.584750	0.958880	0.423110
S761	S76	0.699840	0.134300	0.245090
C9891	C989	0.031220	0.600840	0.338950
H6091	H609	0.034600	0.594000	0.351700
C9901	C990	0.043160	0.596330	0.321550
C9911	C991	0.038060	0.606000	0.302670
H6101	H610	0.046000	0.603400	0.290400
C9921	C992	0.021160	0.619440	0.302400
H6111	H611	0.017100	0.626100	0.289800
C9931	C993	0.010150	0.623100	0.320760
H6121	H612	0.998500	0.632300	0.320400
C9941	C994	0.101720	0.468790	0.406980
C9951	C995	0.085180	0.515340	0.391370
H6131	H613	0.086400	0.505300	0.402300
C9961	C996	0.067360	0.527950	0.390560
H6141	H614	0.057000	0.526900	0.401100
C9971	C997	0.064990	0.541770	0.374490
H6151	H615	0.052800	0.550200	0.373500
C9981	C998	0.080940	0.543330	0.359430
C9991	C999	0.098310	0.530650	0.361740
H6161	H616	0.109200	0.531800	0.351700
C10001	C1000	0.079620	0.558470	0.342090
C10011	C1001	0.061770	0.582700	0.323810
C10021	C1002	0.094300	0.574220	0.314470
C10031	C1003	0.112750	0.595650	0.287580
H6171	H617	0.100700	0.604400	0.287200
C10041	C1004	0.112710	0.578360	0.301220
C10051	C1005	0.130720	0.566010	0.302100
H6181	H618	0.131500	0.554300	0.311200
C10061	C1006	0.147440	0.571410	0.289370
H6191	H619	0.160000	0.563400	0.289700
C10071	C1007	0.145850	0.588420	0.276230
H6201	H620	0.157400	0.591800	0.267500
C10081	C1008	0.175040	0.630090	0.248740
C10091	C1009	0.138640	0.667070	0.232400
H6211	H621	0.149300	0.665900	0.242700
C10101	C1010	0.137860	0.684730	0.220750
H6221	H622	0.147300	0.695900	0.223400
C10111	C1011	0.122980	0.686450	0.204810
H6231	H623	0.122200	0.698600	0.196300
C10121	C1012	0.109330	0.669890	0.201780
C10131	C1013	0.110770	0.652590	0.215040
H6241	H624	0.101100	0.641400	0.213300
C10141	C1014	0.093040	0.670610	0.185670
N3811	N381	0.015270	0.614130	0.339070
N3821	N382	0.113770	0.476460	0.395690
N3831	N383	0.100670	0.516810	0.377270
N3841	N384	0.096360	0.560520	0.329700
N3851	N385	0.061930	0.569610	0.340100
N3861	N386	0.077150	0.585230	0.310300
N3871	N387	0.128610	0.600400	0.275340
N3881	N388	0.157500	0.627220	0.251260
N3891	N389	0.125060	0.651140	0.229990
N3901	N390	0.078630	0.655600	0.186030
S771	S77	0.084750	0.458880	0.423110
S781	S78	0.199840	0.634300	0.245090
C10151	C1015	0.031220	0.100840	0.838950
H6251	H625	0.034600	0.094000	0.851700
C10161	C1016	0.043160	0.096330	0.821550
C10171	C1017	0.038060	0.106000	0.802670
H6261	H626	0.046000	0.103400	0.790400
C10181	C1018	0.021160	0.119440	0.802400
H6271	H627	0.017100	0.126100	0.789800
C10191	C1019	0.010150	0.123100	0.820760
H6281	H628	0.998500	0.132300	0.820400
C10201	C1020	0.101720	0.968790	0.906980
C10211	C1021	0.085180	0.015340	0.891370
H6291	H629	0.086400	0.005300	0.902300
C10221	C1022	0.067360	0.027950	0.890560
H6301	H630	0.057000	0.026900	0.901100
C10231	C1023	0.064990	0.041770	0.874490
H6311	H631	0.052800	0.050200	0.873500
C10241	C1024	0.080940	0.043330	0.859430
C10251	C1025	0.098310	0.030650	0.861740
H6321	H632	0.109200	0.031800	0.851700
C10261	C1026	0.079620	0.058470	0.842090
C10271	C1027	0.061770	0.082700	0.823810
C10281	C1028	0.094300	0.074220	0.814470
C10291	C1029	0.112750	0.095650	0.787580
H6331	H633	0.100700	0.104400	0.787200
C10301	C1030	0.112710	0.078360	0.801220
C10311	C1031	0.130720	0.066010	0.802100
H6341	H634	0.131500	0.054300	0.811200
C10321	C1032	0.147440	0.071410	0.789370
H6351	H635	0.160000	0.063400	0.789700
C10331	C1033	0.145850	0.088420	0.776230
H6361	H636	0.157400	0.091800	0.767500
C10341	C1034	0.175040	0.130090	0.748740
C10351	C1035	0.138640	0.167070	0.732400
H6371	H637	0.149300	0.165900	0.742700
C10361	C1036	0.137860	0.184730	0.720750
H6381	H638	0.147300	0.195900	0.723400
C10371	C1037	0.122980	0.186450	0.704810
H6391	H639	0.122200	0.198600	0.696300
C10381	C1038	0.109330	0.169890	0.701780
C10391	C1039	0.110770	0.152590	0.715040
H6401	H640	0.101100	0.141400	0.713300
C10401	C1040	0.093040	0.170610	0.685670
N3911	N391	0.015270	0.114130	0.839070
N3921	N392	0.113770	0.976460	0.895690
N3931	N393	0.100670	0.016810	0.877270
N3941	N394	0.096360	0.060520	0.829700
N3951	N395	0.061930	0.069610	0.840100
N3961	N396	0.077150	0.085230	0.810300
N3971	N397	0.128610	0.100400	0.775340
N3981	N398	0.157500	0.127220	0.751260
N3991	N399	0.125060	0.151140	0.729990
N4001	N400	0.078630	0.155600	0.686030
S791	S79	0.084750	0.958880	0.923110
S801	S80	0.199840	0.134300	0.745090
C10411	C1041	0.718780	0.149160	0.338950
H6411	H641	0.715400	0.156000	0.351700
C10421	C1042	0.706840	0.153670	0.321550
C10431	C1043	0.711940	0.144000	0.302670
H6421	H642	0.704000	0.146600	0.290400
C10441	C1044	0.728840	0.130560	0.302400
H6431	H643	0.732900	0.123900	0.289800
C10451	C1045	0.739850	0.126900	0.320760
H6441	H644	0.751500	0.117700	0.320400
C10461	C1046	0.648280	0.281210	0.406980
C10471	C1047	0.664820	0.234660	0.391370
H6451	H645	0.663600	0.244700	0.402300
C10481	C1048	0.682640	0.222050	0.390560
H6461	H646	0.693000	0.223100	0.401100
C10491	C1049	0.685010	0.208230	0.374490
H6471	H647	0.697200	0.199800	0.373500
C10501	C1050	0.669060	0.206670	0.359430
C10511	C1051	0.651690	0.219350	0.361740
H6481	H648	0.640800	0.218200	0.351700
C10521	C1052	0.670380	0.191530	0.342090
C10531	C1053	0.688230	0.167300	0.323810
C10541	C1054	0.655700	0.175780	0.314470
C10551	C1055	0.637250	0.154350	0.287580
H6491	H649	0.649300	0.145600	0.287200
C10561	C1056	0.637290	0.171640	0.301220
C10571	C1057	0.619280	0.183990	0.302100
H6501	H650	0.618500	0.195700	0.311200
C10581	C1058	0.602560	0.178590	0.289370
H6511	H651	0.590000	0.186600	0.289700
C10591	C1059	0.604150	0.161580	0.276230
H6521	H652	0.592600	0.158200	0.267500
C10601	C1060	0.574960	0.119910	0.248740
C10611	C1061	0.611360	0.082930	0.232400
H6531	H653	0.600700	0.084100	0.242700
C10621	C1062	0.612140	0.065270	0.220750
H6541	H654	0.602700	0.054100	0.223400
C10631	C1063	0.627020	0.063550	0.204810
H6551	H655	0.627800	0.051400	0.196300
C10641	C1064	0.640670	0.080110	0.201780
C10651	C1065	0.639230	0.097410	0.215040
H6561	H656	0.648900	0.108600	0.213300
C10661	C1066	0.656960	0.079390	0.185670
N4011	N401	0.734730	0.135870	0.339070
N4021	N402	0.636230	0.273540	0.395690
N4031	N403	0.649330	0.233190	0.377270
N4041	N404	0.653640	0.189480	0.329700
N4051	N405	0.688070	0.180390	0.340100
N4061	N406	0.672850	0.164770	0.310300
N4071	N407	0.621390	0.149600	0.275340
N4081	N408	0.592500	0.122780	0.251260
N4091	N409	0.624940	0.098860	0.229990
N4101	N410	0.671370	0.094400	0.186030
S811	S81	0.665250	0.291120	0.423110
S821	S82	0.550160	0.115700	0.245090
C10671	C1067	0.718780	0.649160	0.838950
H6571	H657	0.715400	0.656000	0.851700
C10681	C1068	0.706840	0.653670	0.821550
C10691	C1069	0.711940	0.644000	0.802670
H6581	H658	0.704000	0.646600	0.790400
C10701	C1070	0.728840	0.630560	0.802400
H6591	H659	0.732900	0.623900	0.789800
C10711	C1071	0.739850	0.626900	0.820760
H6601	H660	0.751500	0.617700	0.820400
C10721	C1072	0.648280	0.781210	0.906980
C10731	C1073	0.664820	0.734660	0.891370
H6611	H661	0.663600	0.744700	0.902300
C10741	C1074	0.682640	0.722050	0.890560
H6621	H662	0.693000	0.723100	0.901100
C10751	C1075	0.685010	0.708230	0.874490
H6631	H663	0.697200	0.699800	0.873500
C10761	C1076	0.669060	0.706670	0.859430
C10771	C1077	0.651690	0.719350	0.861740
H6641	H664	0.640800	0.718200	0.851700
C10781	C1078	0.670380	0.691530	0.842090
C10791	C1079	0.688230	0.667300	0.823810
C10801	C1080	0.655700	0.675780	0.814470
C10811	C1081	0.637250	0.654350	0.787580
H6651	H665	0.649300	0.645600	0.787200
C10821	C1082	0.637290	0.671640	0.801220
C10831	C1083	0.619280	0.683990	0.802100
H6661	H666	0.618500	0.695700	0.811200
C10841	C1084	0.602560	0.678590	0.789370
H6671	H667	0.590000	0.686600	0.789700
C10851	C1085	0.604150	0.661580	0.776230
H6681	H668	0.592600	0.658200	0.767500
C10861	C1086	0.574960	0.619910	0.748740
C10871	C1087	0.611360	0.582930	0.732400
H6691	H669	0.600700	0.584100	0.742700
C10881	C1088	0.612140	0.565270	0.720750
H6701	H670	0.602700	0.554100	0.723400
C10891	C1089	0.627020	0.563550	0.704810
H6711	H671	0.627800	0.551400	0.696300
C10901	C1090	0.640670	0.580110	0.701780
C10911	C1091	0.639230	0.597410	0.715040
H6721	H672	0.648900	0.608600	0.713300
C10921	C1092	0.656960	0.579390	0.685670
N4111	N411	0.734730	0.635870	0.839070
N4121	N412	0.636230	0.773540	0.895690
N4131	N413	0.649330	0.733190	0.877270
N4141	N414	0.653640	0.689480	0.829700
N4151	N415	0.688070	0.680390	0.840100
N4161	N416	0.672850	0.664770	0.810300
N4171	N417	0.621390	0.649600	0.775340
N4181	N418	0.592500	0.622780	0.751260
N4191	N419	0.624940	0.598860	0.729990
N4201	N420	0.671370	0.594400	0.686030
S831	S83	0.665250	0.791120	0.923110
S841	S84	0.550160	0.615700	0.745090
C10931	C1093	0.218780	0.149160	0.838950
H6731	H673	0.215400	0.156000	0.851700
C10941	C1094	0.206840	0.153670	0.821550
C10951	C1095	0.211940	0.144000	0.802670
H6741	H674	0.204000	0.146600	0.790400
C10961	C1096	0.228840	0.130560	0.802400
H6751	H675	0.232900	0.123900	0.789800
C10971	C1097	0.239850	0.126900	0.820760
H6761	H676	0.251500	0.117700	0.820400
C10981	C1098	0.148280	0.281210	0.906980
C10991	C1099	0.164820	0.234660	0.891370
H6771	H677	0.163600	0.244700	0.902300
C11001	C1100	0.182640	0.222050	0.890560
H6781	H678	0.193000	0.223100	0.901100
C11011	C1101	0.185010	0.208230	0.874490
H6791	H679	0.197200	0.199800	0.873500
C11021	C1102	0.169060	0.206670	0.859430
C11031	C1103	0.151690	0.219350	0.861740
H6801	H680	0.140800	0.218200	0.851700
C11041	C1104	0.170380	0.191530	0.842090
C11051	C1105	0.188230	0.167300	0.823810
C11061	C1106	0.155700	0.175780	0.814470
C11071	C1107	0.137250	0.154350	0.787580
H6811	H681	0.149300	0.145600	0.787200
C11081	C1108	0.137290	0.171640	0.801220
C11091	C1109	0.119280	0.183990	0.802100
H6821	H682	0.118500	0.195700	0.811200
C11101	C1110	0.102560	0.178590	0.789370
H6831	H683	0.090000	0.186600	0.789700
C11111	C1111	0.104150	0.161580	0.776230
H6841	H684	0.092600	0.158200	0.767500
C11121	C1112	0.074960	0.119910	0.748740
C11131	C1113	0.111360	0.082930	0.732400
H6851	H685	0.100700	0.084100	0.742700
C11141	C1114	0.112140	0.065270	0.720750
H6861	H686	0.102700	0.054100	0.723400
C11151	C1115	0.127020	0.063550	0.704810
H6871	H687	0.127800	0.051400	0.696300
C11161	C1116	0.140670	0.080110	0.701780
C11171	C1117	0.139230	0.097410	0.715040
H6881	H688	0.148900	0.108600	0.713300
C11181	C1118	0.156960	0.079390	0.685670
N4211	N421	0.234730	0.135870	0.839070
N4221	N422	0.136230	0.273540	0.895690
N4231	N423	0.149330	0.233190	0.877270
N4241	N424	0.153640	0.189480	0.829700
N4251	N425	0.188070	0.180390	0.840100
N4261	N426	0.172850	0.164770	0.810300
N4271	N427	0.121390	0.149600	0.775340
N4281	N428	0.092500	0.122780	0.751260
N4291	N429	0.124940	0.098860	0.729990
N4301	N430	0.171370	0.094400	0.686030
S851	S85	0.165250	0.291120	0.923110
S861	S86	0.050160	0.115700	0.745090
C11191	C1119	0.218780	0.649160	0.338950
H6891	H689	0.215400	0.656000	0.351700
C11201	C1120	0.206840	0.653670	0.321550
C11211	C1121	0.211940	0.644000	0.302670
H6901	H690	0.204000	0.646600	0.290400
C11221	C1122	0.228840	0.630560	0.302400
H6911	H691	0.232900	0.623900	0.289800
C11231	C1123	0.239850	0.626900	0.320760
H6921	H692	0.251500	0.617700	0.320400
C11241	C1124	0.148280	0.781210	0.406980
C11251	C1125	0.164820	0.734660	0.391370
H6931	H693	0.163600	0.744700	0.402300
C11261	C1126	0.182640	0.722050	0.390560
H6941	H694	0.193000	0.723100	0.401100
C11271	C1127	0.185010	0.708230	0.374490
H6951	H695	0.197200	0.699800	0.373500
C11281	C1128	0.169060	0.706670	0.359430
C11291	C1129	0.151690	0.719350	0.361740
H6961	H696	0.140800	0.718200	0.351700
C11301	C1130	0.170380	0.691530	0.342090
C11311	C1131	0.188230	0.667300	0.323810
C11321	C1132	0.155700	0.675780	0.314470
C11331	C1133	0.137250	0.654350	0.287580
H6971	H697	0.149300	0.645600	0.287200
C11341	C1134	0.137290	0.671640	0.301220
C11351	C1135	0.119280	0.683990	0.302100
H6981	H698	0.118500	0.695700	0.311200
C11361	C1136	0.102560	0.678590	0.289370
H6991	H699	0.090000	0.686600	0.289700
C11371	C1137	0.104150	0.661580	0.276230
H7001	H700	0.092600	0.658200	0.267500
C11381	C1138	0.074960	0.619910	0.248740
C11391	C1139	0.111360	0.582930	0.232400
H7011	H701	0.100700	0.584100	0.242700
C11401	C1140	0.112140	0.565270	0.220750
H7021	H702	0.102700	0.554100	0.223400
C11411	C1141	0.127020	0.563550	0.204810
H7031	H703	0.127800	0.551400	0.196300
C11421	C1142	0.140670	0.580110	0.201780
C11431	C1143	0.139230	0.597410	0.215040
H7041	H704	0.148900	0.608600	0.213300
C11441	C1144	0.156960	0.579390	0.185670
N4311	N431	0.234730	0.635870	0.339070
N4321	N432	0.136230	0.773540	0.395690
N4331	N433	0.149330	0.733190	0.377270
N4341	N434	0.153640	0.689480	0.329700
N4351	N435	0.188070	0.680390	0.340100
N4361	N436	0.172850	0.664770	0.310300
N4371	N437	0.121390	0.649600	0.275340
N4381	N438	0.092500	0.622780	0.251260
N4391	N439	0.124940	0.598860	0.229990
N4401	N440	0.171370	0.594400	0.186030
S871	S87	0.165250	0.791120	0.423110
S881	S88	0.050160	0.615700	0.245090
C11451	C1145	0.031220	0.649160	0.911050
H7051	H705	0.034600	0.656000	0.898300
C11461	C1146	0.043160	0.653670	0.928450
C11471	C1147	0.038060	0.644000	0.947330
H7061	H706	0.046000	0.646600	0.959600
C11481	C1148	0.021160	0.630560	0.947600
H7071	H707	0.017100	0.623900	0.960200
C11491	C1149	0.010150	0.626900	0.929240
H7081	H708	0.998500	0.617700	0.929600
C11501	C1150	0.101720	0.781210	0.843020
C11511	C1151	0.085180	0.734660	0.858630
H7091	H709	0.086400	0.744700	0.847700
C11521	C1152	0.067360	0.722050	0.859440
H7101	H710	0.057000	0.723100	0.848900
C11531	C1153	0.064990	0.708230	0.875510
H7111	H711	0.052800	0.699800	0.876500
C11541	C1154	0.080940	0.706670	0.890570
C11551	C1155	0.098310	0.719350	0.888260
H7121	H712	0.109200	0.718200	0.898300
C11561	C1156	0.079620	0.691530	0.907910
C11571	C1157	0.061770	0.667300	0.926190
C11581	C1158	0.094300	0.675780	0.935530
C11591	C1159	0.112750	0.654350	0.962420
H7131	H713	0.100700	0.645600	0.962800
C11601	C1160	0.112710	0.671640	0.948780
C11611	C1161	0.130720	0.683990	0.947900
H7141	H714	0.131500	0.695700	0.938800
C11621	C1162	0.147440	0.678590	0.960630
H7151	H715	0.160000	0.686600	0.960300
C11631	C1163	0.145850	0.661580	0.973770
H7161	H716	0.157400	0.658200	0.982500
C11641	C1164	0.175040	0.619910	0.001260
C11651	C1165	0.138640	0.582930	0.017600
H7171	H717	0.149300	0.584100	0.007300
C11661	C1166	0.137860	0.565270	0.029250
H7181	H718	0.147300	0.554100	0.026600
C11671	C1167	0.122980	0.563550	0.045190
H7191	H719	0.122200	0.551400	0.053700
C11681	C1168	0.109330	0.580110	0.048220
C11691	C1169	0.110770	0.597410	0.034960
H7201	H720	0.101100	0.608600	0.036700
C11701	C1170	0.093040	0.579390	0.064330
N4411	N441	0.015270	0.635870	0.910930
N4421	N442	0.113770	0.773540	0.854310
N4431	N443	0.100670	0.733190	0.872730
N4441	N444	0.096360	0.689480	0.920300
N4451	N445	0.061930	0.680390	0.909900
N4461	N446	0.077150	0.664770	0.939700
N4471	N447	0.128610	0.649600	0.974660
N4481	N448	0.157500	0.622780	0.998740
N4491	N449	0.125060	0.598860	0.020010
N4501	N450	0.078630	0.594400	0.063970
S891	S89	0.084750	0.791120	0.826890
S901	S90	0.199840	0.615700	0.004910
C11711	C1171	0.031220	0.149160	0.411050
H7211	H721	0.034600	0.156000	0.398300
C11721	C1172	0.043160	0.153670	0.428450
C11731	C1173	0.038060	0.144000	0.447330
H7221	H722	0.046000	0.146600	0.459600
C11741	C1174	0.021160	0.130560	0.447600
H7231	H723	0.017100	0.123900	0.460200
C11751	C1175	0.010150	0.126900	0.429240
H7241	H724	0.998500	0.117700	0.429600
C11761	C1176	0.101720	0.281210	0.343020
C11771	C1177	0.085180	0.234660	0.358630
H7251	H725	0.086400	0.244700	0.347700
C11781	C1178	0.067360	0.222050	0.359440
H7261	H726	0.057000	0.223100	0.348900
C11791	C1179	0.064990	0.208230	0.375510
H7271	H727	0.052800	0.199800	0.376500
C11801	C1180	0.080940	0.206670	0.390570
C11811	C1181	0.098310	0.219350	0.388260
H7281	H728	0.109200	0.218200	0.398300
C11821	C1182	0.079620	0.191530	0.407910
C11831	C1183	0.061770	0.167300	0.426190
C11841	C1184	0.094300	0.175780	0.435530
C11851	C1185	0.112750	0.154350	0.462420
H7291	H729	0.100700	0.145600	0.462800
C11861	C1186	0.112710	0.171640	0.448780
C11871	C1187	0.130720	0.183990	0.447900
H7301	H730	0.131500	0.195700	0.438800
C11881	C1188	0.147440	0.178590	0.460630
H7311	H731	0.160000	0.186600	0.460300
C11891	C1189	0.145850	0.161580	0.473770
H7321	H732	0.157400	0.158200	0.482500
C11901	C1190	0.175040	0.119910	0.501260
C11911	C1191	0.138640	0.082930	0.517600
H7331	H733	0.149300	0.084100	0.507300
C11921	C1192	0.137860	0.065270	0.529250
H7341	H734	0.147300	0.054100	0.526600
C11931	C1193	0.122980	0.063550	0.545190
H7351	H735	0.122200	0.051400	0.553700
C11941	C1194	0.109330	0.080110	0.548220
C11951	C1195	0.110770	0.097410	0.534960
H7361	H736	0.101100	0.108600	0.536700
C11961	C1196	0.093040	0.079390	0.564330
N4511	N451	0.015270	0.135870	0.410930
N4521	N452	0.113770	0.273540	0.354310
N4531	N453	0.100670	0.233190	0.372730
N4541	N454	0.096360	0.189480	0.420300
N4551	N455	0.061930	0.180390	0.409900
N4561	N456	0.077150	0.164770	0.439700
N4571	N457	0.128610	0.149600	0.474660
N4581	N458	0.157500	0.122780	0.498740
N4591	N459	0.125060	0.098860	0.520010
N4601	N460	0.078630	0.094400	0.563970
S911	S91	0.084750	0.291120	0.326890
S921	S92	0.199840	0.115700	0.504910
C11971	C1197	0.531220	0.649160	0.411050
H7371	H737	0.534600	0.656000	0.398300
C11981	C1198	0.543160	0.653670	0.428450
C11991	C1199	0.538060	0.644000	0.447330
H7381	H738	0.546000	0.646600	0.459600
C12001	C1200	0.521160	0.630560	0.447600
H7391	H739	0.517100	0.623900	0.460200
C12011	C1201	0.510150	0.626900	0.429240
H7401	H740	0.498500	0.617700	0.429600
C12021	C1202	0.601720	0.781210	0.343020
C12031	C1203	0.585180	0.734660	0.358630
H7411	H741	0.586400	0.744700	0.347700
C12041	C1204	0.567360	0.722050	0.359440
H7421	H742	0.557000	0.723100	0.348900
C12051	C1205	0.564990	0.708230	0.375510
H7431	H743	0.552800	0.699800	0.376500
C12061	C1206	0.580940	0.706670	0.390570
C12071	C1207	0.598310	0.719350	0.388260
H7441	H744	0.609200	0.718200	0.398300
C12081	C1208	0.579620	0.691530	0.407910
C12091	C1209	0.561770	0.667300	0.426190
C12101	C1210	0.594300	0.675780	0.435530
C12111	C1211	0.612750	0.654350	0.462420
H7451	H745	0.600700	0.645600	0.462800
C12121	C1212	0.612710	0.671640	0.448780
C12131	C1213	0.630720	0.683990	0.447900
H7461	H746	0.631500	0.695700	0.438800
C12141	C1214	0.647440	0.678590	0.460630
H7471	H747	0.660000	0.686600	0.460300
C12151	C1215	0.645850	0.661580	0.473770
H7481	H748	0.657400	0.658200	0.482500
C12161	C1216	0.675040	0.619910	0.501260
C12171	C1217	0.638640	0.582930	0.517600
H7491	H749	0.649300	0.584100	0.507300
C12181	C1218	0.637860	0.565270	0.529250
H7501	H750	0.647300	0.554100	0.526600
C12191	C1219	0.622980	0.563550	0.545190
H7511	H751	0.622200	0.551400	0.553700
C12201	C1220	0.609330	0.580110	0.548220
C12211	C1221	0.610770	0.597410	0.534960
H7521	H752	0.601100	0.608600	0.536700
C12221	C1222	0.593040	0.579390	0.564330
N4611	N461	0.515270	0.635870	0.410930
N4621	N462	0.613770	0.773540	0.354310
N4631	N463	0.600670	0.733190	0.372730
N4641	N464	0.596360	0.689480	0.420300
N4651	N465	0.561930	0.680390	0.409900
N4661	N466	0.577150	0.664770	0.439700
N4671	N467	0.628610	0.649600	0.474660
N4681	N468	0.657500	0.622780	0.498740
N4691	N469	0.625060	0.598860	0.520010
N4701	N470	0.578630	0.594400	0.563970
S931	S93	0.584750	0.791120	0.326890
S941	S94	0.699840	0.615700	0.504910
C12231	C1223	0.531220	0.149160	0.911050
H7531	H753	0.534600	0.156000	0.898300
C12241	C1224	0.543160	0.153670	0.928450
C12251	C1225	0.538060	0.144000	0.947330
H7541	H754	0.546000	0.146600	0.959600
C12261	C1226	0.521160	0.130560	0.947600
H7551	H755	0.517100	0.123900	0.960200
C12271	C1227	0.510150	0.126900	0.929240
H7561	H756	0.498500	0.117700	0.929600
C12281	C1228	0.601720	0.281210	0.843020
C12291	C1229	0.585180	0.234660	0.858630
H7571	H757	0.586400	0.244700	0.847700
C12301	C1230	0.567360	0.222050	0.859440
H7581	H758	0.557000	0.223100	0.848900
C12311	C1231	0.564990	0.208230	0.875510
H7591	H759	0.552800	0.199800	0.876500
C12321	C1232	0.580940	0.206670	0.890570
C12331	C1233	0.598310	0.219350	0.888260
H7601	H760	0.609200	0.218200	0.898300
C12341	C1234	0.579620	0.191530	0.907910
C12351	C1235	0.561770	0.167300	0.926190
C12361	C1236	0.594300	0.175780	0.935530
C12371	C1237	0.612750	0.154350	0.962420
H7611	H761	0.600700	0.145600	0.962800
C12381	C1238	0.612710	0.171640	0.948780
C12391	C1239	0.630720	0.183990	0.947900
H7621	H762	0.631500	0.195700	0.938800
C12401	C1240	0.647440	0.178590	0.960630
H7631	H763	0.660000	0.186600	0.960300
C12411	C1241	0.645850	0.161580	0.973770
H7641	H764	0.657400	0.158200	0.982500
C12421	C1242	0.675040	0.119910	0.001260
C12431	C1243	0.638640	0.082930	0.017600
H7651	H765	0.649300	0.084100	0.007300
C12441	C1244	0.637860	0.065270	0.029250
H7661	H766	0.647300	0.054100	0.026600
C12451	C1245	0.622980	0.063550	0.045190
H7671	H767	0.622200	0.051400	0.053700
C12461	C1246	0.609330	0.080110	0.048220
C12471	C1247	0.610770	0.097410	0.034960
H7681	H768	0.601100	0.108600	0.036700
C12481	C1248	0.593040	0.079390	0.064330
N4711	N471	0.515270	0.135870	0.910930
N4721	N472	0.613770	0.273540	0.854310
N4731	N473	0.600670	0.233190	0.872730
N4741	N474	0.596360	0.189480	0.920300
N4751	N475	0.561930	0.180390	0.909900
N4761	N476	0.577150	0.164770	0.939700
N4771	N477	0.628610	0.149600	0.974660
N4781	N478	0.657500	0.122780	0.998740
N4791	N479	0.625060	0.098860	0.020010
N4801	N480	0.578630	0.094400	0.063970
S951	S95	0.584750	0.291120	0.826890
S961	S96	0.699840	0.115700	0.004910
C12491	C1249	0.968780	0.661050	0.899160
H7691	H769	0.965400	0.648300	0.906000
C12501	C1250	0.956840	0.678450	0.903670
C12511	C1251	0.961940	0.697330	0.894000
H7701	H770	0.954000	0.709600	0.896600
C12521	C1252	0.978840	0.697600	0.880560
H7711	H771	0.982900	0.710200	0.873900
C12531	C1253	0.989850	0.679240	0.876900
H7721	H772	0.001500	0.679600	0.867700
C12541	C1254	0.898280	0.593020	0.031210
C12551	C1255	0.914820	0.608630	0.984660
H7731	H773	0.913600	0.597700	0.994700
C12561	C1256	0.932640	0.609440	0.972050
H7741	H774	0.943000	0.598900	0.973100
C12571	C1257	0.935010	0.625510	0.958230
H7751	H775	0.947200	0.626500	0.949800
C12581	C1258	0.919060	0.640570	0.956670
C12591	C1259	0.901690	0.638260	0.969350
H7761	H776	0.890800	0.648300	0.968200
C12601	C1260	0.920380	0.657910	0.941530
C12611	C1261	0.938230	0.676190	0.917300
C12621	C1262	0.905700	0.685530	0.925780
C12631	C1263	0.887250	0.712420	0.904350
H7771	H777	0.899300	0.712800	0.895600
C12641	C1264	0.887290	0.698780	0.921640
C12651	C1265	0.869280	0.697900	0.933990
H7781	H778	0.868500	0.688800	0.945700
C12661	C1266	0.852560	0.710630	0.928590
H7791	H779	0.840000	0.710300	0.936600
C12671	C1267	0.854150	0.723770	0.911580
H7801	H780	0.842600	0.732500	0.908200
C12681	C1268	0.824960	0.751260	0.869910
C12691	C1269	0.861360	0.767600	0.832930
H7811	H781	0.850700	0.757300	0.834100
C12701	C1270	0.862140	0.779250	0.815270
H7821	H782	0.852700	0.776600	0.804100
C12711	C1271	0.877020	0.795190	0.813550
H7831	H783	0.877800	0.803700	0.801400
C12721	C1272	0.890670	0.798220	0.830110
C12731	C1273	0.889230	0.784960	0.847410
H7841	H784	0.898900	0.786700	0.858600
C12741	C1274	0.906960	0.814330	0.829390
N4811	N481	0.984730	0.660930	0.885870
N4821	N482	0.886230	0.604310	0.023540
N4831	N483	0.899330	0.622730	0.983190
N4841	N484	0.903640	0.670300	0.939480
N4851	N485	0.938070	0.659900	0.930390
N4861	N486	0.922850	0.689700	0.914770
N4871	N487	0.871390	0.724660	0.899600
N4881	N488	0.842500	0.748740	0.872780
N4891	N489	0.874940	0.770010	0.848860
N4901	N490	0.921370	0.813970	0.844400
S971	S97	0.915250	0.576890	0.041120
S981	S98	0.800160	0.754910	0.865700
C12751	C1275	0.968780	0.161050	0.399160
H7851	H785	0.965400	0.148300	0.406000
C12761	C1276	0.956840	0.178450	0.403670
C12771	C1277	0.961940	0.197330	0.394000
H7861	H786	0.954000	0.209600	0.396600
C12781	C1278	0.978840	0.197600	0.380560
H7871	H787	0.982900	0.210200	0.373900
C12791	C1279	0.989850	0.179240	0.376900
H7881	H788	0.001500	0.179600	0.367700
C12801	C1280	0.898280	0.093020	0.531210
C12811	C1281	0.914820	0.108630	0.484660
H7891	H789	0.913600	0.097700	0.494700
C12821	C1282	0.932640	0.109440	0.472050
H7901	H790	0.943000	0.098900	0.473100
C12831	C1283	0.935010	0.125510	0.458230
H7911	H791	0.947200	0.126500	0.449800
C12841	C1284	0.919060	0.140570	0.456670
C12851	C1285	0.901690	0.138260	0.469350
H7921	H792	0.890800	0.148300	0.468200
C12861	C1286	0.920380	0.157910	0.441530
C12871	C1287	0.938230	0.176190	0.417300
C12881	C1288	0.905700	0.185530	0.425780
C12891	C1289	0.887250	0.212420	0.404350
H7931	H793	0.899300	0.212800	0.395600
C12901	C1290	0.887290	0.198780	0.421640
C12911	C1291	0.869280	0.197900	0.433990
H7941	H794	0.868500	0.188800	0.445700
C12921	C1292	0.852560	0.210630	0.428590
H7951	H795	0.840000	0.210300	0.436600
C12931	C1293	0.854150	0.223770	0.411580
H7961	H796	0.842600	0.232500	0.408200
C12941	C1294	0.824960	0.251260	0.369910
C12951	C1295	0.861360	0.267600	0.332930
H7971	H797	0.850700	0.257300	0.334100
C12961	C1296	0.862140	0.279250	0.315270
H7981	H798	0.852700	0.276600	0.304100
C12971	C1297	0.877020	0.295190	0.313550
H7991	H799	0.877800	0.303700	0.301400
C12981	C1298	0.890670	0.298220	0.330110
C12991	C1299	0.889230	0.284960	0.347410
H8001	H800	0.898900	0.286700	0.358600
C13001	C1300	0.906960	0.314330	0.329390
N4911	N491	0.984730	0.160930	0.385870
N4921	N492	0.886230	0.104310	0.523540
N4931	N493	0.899330	0.122730	0.483190
N4941	N494	0.903640	0.170300	0.439480
N4951	N495	0.938070	0.159900	0.430390
N4961	N496	0.922850	0.189700	0.414770
N4971	N497	0.871390	0.224660	0.399600
N4981	N498	0.842500	0.248740	0.372780
N4991	N499	0.874940	0.270010	0.348860
N5001	N500	0.921370	0.313970	0.344400
S991	S99	0.915250	0.076890	0.541120
S1001	S100	0.800160	0.254910	0.365700
C13011	C1301	0.468780	0.661050	0.399160
H8011	H801	0.465400	0.648300	0.406000
C13021	C1302	0.456840	0.678450	0.403670
C13031	C1303	0.461940	0.697330	0.394000
H8021	H802	0.454000	0.709600	0.396600
C13041	C1304	0.478840	0.697600	0.380560
H8031	H803	0.482900	0.710200	0.373900
C13051	C1305	0.489850	0.679240	0.376900
H8041	H804	0.501500	0.679600	0.367700
C13061	C1306	0.398280	0.593020	0.531210
C13071	C1307	0.414820	0.608630	0.484660
H8051	H805	0.413600	0.597700	0.494700
C13081	C1308	0.432640	0.609440	0.472050
H8061	H806	0.443000	0.598900	0.473100
C13091	C1309	0.435010	0.625510	0.458230
H8071	H807	0.447200	0.626500	0.449800
C13101	C1310	0.419060	0.640570	0.456670
C13111	C1311	0.401690	0.638260	0.469350
H8081	H808	0.390800	0.648300	0.468200
C13121	C1312	0.420380	0.657910	0.441530
C13131	C1313	0.438230	0.676190	0.417300
C13141	C1314	0.405700	0.685530	0.425780
C13151	C1315	0.387250	0.712420	0.404350
H8091	H809	0.399300	0.712800	0.395600
C13161	C1316	0.387290	0.698780	0.421640
C13171	C1317	0.369280	0.697900	0.433990
H8101	H810	0.368500	0.688800	0.445700
C13181	C1318	0.352560	0.710630	0.428590
H8111	H811	0.340000	0.710300	0.436600
C13191	C1319	0.354150	0.723770	0.411580
H8121	H812	0.342600	0.732500	0.408200
C13201	C1320	0.324960	0.751260	0.369910
C13211	C1321	0.361360	0.767600	0.332930
H8131	H813	0.350700	0.757300	0.334100
C13221	C1322	0.362140	0.779250	0.315270
H8141	H814	0.352700	0.776600	0.304100
C13231	C1323	0.377020	0.795190	0.313550
H8151	H815	0.377800	0.803700	0.301400
C13241	C1324	0.390670	0.798220	0.330110
C13251	C1325	0.389230	0.784960	0.347410
H8161	H816	0.398900	0.786700	0.358600
C13261	C1326	0.406960	0.814330	0.329390
N5011	N501	0.484730	0.660930	0.385870
N5021	N502	0.386230	0.604310	0.523540
N5031	N503	0.399330	0.622730	0.483190
N5041	N504	0.403640	0.670300	0.439480
N5051	N505	0.438070	0.659900	0.430390
N5061	N506	0.422850	0.689700	0.414770
N5071	N507	0.371390	0.724660	0.399600
N5081	N508	0.342500	0.748740	0.372780
N5091	N509	0.374940	0.770010	0.348860
N5101	N510	0.421370	0.813970	0.344400
S1011	S101	0.415250	0.576890	0.541120
S1021	S102	0.300160	0.754910	0.365700
C13271	C1327	0.468780	0.161050	0.899160
H8171	H817	0.465400	0.148300	0.906000
C13281	C1328	0.456840	0.178450	0.903670
C13291	C1329	0.461940	0.197330	0.894000
H8181	H818	0.454000	0.209600	0.896600
C13301	C1330	0.478840	0.197600	0.880560
H8191	H819	0.482900	0.210200	0.873900
C13311	C1331	0.489850	0.179240	0.876900
H8201	H820	0.501500	0.179600	0.867700
C13321	C1332	0.398280	0.093020	0.031210
C13331	C1333	0.414820	0.108630	0.984660
H8211	H821	0.413600	0.097700	0.994700
C13341	C1334	0.432640	0.109440	0.972050
H8221	H822	0.443000	0.098900	0.973100
C13351	C1335	0.435010	0.125510	0.958230
H8231	H823	0.447200	0.126500	0.949800
C13361	C1336	0.419060	0.140570	0.956670
C13371	C1337	0.401690	0.138260	0.969350
H8241	H824	0.390800	0.148300	0.968200
C13381	C1338	0.420380	0.157910	0.941530
C13391	C1339	0.438230	0.176190	0.917300
C13401	C1340	0.405700	0.185530	0.925780
C13411	C1341	0.387250	0.212420	0.904350
H8251	H825	0.399300	0.212800	0.895600
C13421	C1342	0.387290	0.198780	0.921640
C13431	C1343	0.369280	0.197900	0.933990
H8261	H826	0.368500	0.188800	0.945700
C13441	C1344	0.352560	0.210630	0.928590
H8271	H827	0.340000	0.210300	0.936600
C13451	C1345	0.354150	0.223770	0.911580
H8281	H828	0.342600	0.232500	0.908200
C13461	C1346	0.324960	0.251260	0.869910
C13471	C1347	0.361360	0.267600	0.832930
H8291	H829	0.350700	0.257300	0.834100
C13481	C1348	0.362140	0.279250	0.815270
H8301	H830	0.352700	0.276600	0.804100
C13491	C1349	0.377020	0.295190	0.813550
H8311	H831	0.377800	0.303700	0.801400
C13501	C1350	0.390670	0.298220	0.830110
C13511	C1351	0.389230	0.284960	0.847410
H8321	H832	0.398900	0.286700	0.858600
C13521	C1352	0.406960	0.314330	0.829390
N5111	N511	0.484730	0.160930	0.885870
N5121	N512	0.386230	0.104310	0.023540
N5131	N513	0.399330	0.122730	0.983190
N5141	N514	0.403640	0.170300	0.939480
N5151	N515	0.438070	0.159900	0.930390
N5161	N516	0.422850	0.189700	0.914770
N5171	N517	0.371390	0.224660	0.899600
N5181	N518	0.342500	0.248740	0.872780
N5191	N519	0.374940	0.270010	0.848860
N5201	N520	0.421370	0.313970	0.844400
S1031	S103	0.415250	0.076890	0.041120
S1041	S104	0.300160	0.254910	0.865700
C13531	C1353	0.281220	0.088950	0.399160
H8331	H833	0.284600	0.101700	0.406000
C13541	C1354	0.293160	0.071550	0.403670
C13551	C1355	0.288060	0.052670	0.394000
H8341	H834	0.296000	0.040400	0.396600
C13561	C1356	0.271160	0.052400	0.380560
H8351	H835	0.267100	0.039800	0.373900
C13571	C1357	0.260150	0.070760	0.376900
H8361	H836	0.248500	0.070400	0.367700
C13581	C1358	0.351720	0.156980	0.531210
C13591	C1359	0.335180	0.141370	0.484660
H8371	H837	0.336400	0.152300	0.494700
C13601	C1360	0.317360	0.140560	0.472050
H8381	H838	0.307000	0.151100	0.473100
C13611	C1361	0.314990	0.124490	0.458230
H8391	H839	0.302800	0.123500	0.449800
C13621	C1362	0.330940	0.109430	0.456670
C13631	C1363	0.348310	0.111740	0.469350
H8401	H840	0.359200	0.101700	0.468200
C13641	C1364	0.329620	0.092090	0.441530
C13651	C1365	0.311770	0.073810	0.417300
C13661	C1366	0.344300	0.064470	0.425780
C13671	C1367	0.362750	0.037580	0.404350
H8411	H841	0.350700	0.037200	0.395600
C13681	C1368	0.362710	0.051220	0.421640
C13691	C1369	0.380720	0.052100	0.433990
H8421	H842	0.381500	0.061200	0.445700
C13701	C1370	0.397440	0.039370	0.428590
H8431	H843	0.410000	0.039700	0.436600
C13711	C1371	0.395850	0.026230	0.411580
H8441	H844	0.407400	0.017500	0.408200
C13721	C1372	0.425040	0.998740	0.369910
C13731	C1373	0.388640	0.982400	0.332930
H8451	H845	0.399300	0.992700	0.334100
C13741	C1374	0.387860	0.970750	0.315270
H8461	H846	0.397300	0.973400	0.304100
C13751	C1375	0.372980	0.954810	0.313550
H8471	H847	0.372200	0.946300	0.301400
C13761	C1376	0.359330	0.951780	0.330110
C13771	C1377	0.360770	0.965040	0.347410
H8481	H848	0.351100	0.963300	0.358600
C13781	C1378	0.343040	0.935670	0.329390
N5211	N521	0.265270	0.089070	0.385870
N5221	N522	0.363770	0.145690	0.523540
N5231	N523	0.350670	0.127270	0.483190
N5241	N524	0.346360	0.079700	0.439480
N5251	N525	0.311930	0.090100	0.430390
N5261	N526	0.327150	0.060300	0.414770
N5271	N527	0.378610	0.025340	0.399600
N5281	N528	0.407500	0.001260	0.372780
N5291	N529	0.375060	0.979990	0.348860
N5301	N530	0.328630	0.936030	0.344400
S1051	S105	0.334750	0.173110	0.541120
S1061	S106	0.449840	0.995090	0.365700
C13791	C1379	0.281220	0.588950	0.899160
H8491	H849	0.284600	0.601700	0.906000
C13801	C1380	0.293160	0.571550	0.903670
C13811	C1381	0.288060	0.552670	0.894000
H8501	H850	0.296000	0.540400	0.896600
C13821	C1382	0.271160	0.552400	0.880560
H8511	H851	0.267100	0.539800	0.873900
C13831	C1383	0.260150	0.570760	0.876900
H8521	H852	0.248500	0.570400	0.867700
C13841	C1384	0.351720	0.656980	0.031210
C13851	C1385	0.335180	0.641370	0.984660
H8531	H853	0.336400	0.652300	0.994700
C13861	C1386	0.317360	0.640560	0.972050
H8541	H854	0.307000	0.651100	0.973100
C13871	C1387	0.314990	0.624490	0.958230
H8551	H855	0.302800	0.623500	0.949800
C13881	C1388	0.330940	0.609430	0.956670
C13891	C1389	0.348310	0.611740	0.969350
H8561	H856	0.359200	0.601700	0.968200
C13901	C1390	0.329620	0.592090	0.941530
C13911	C1391	0.311770	0.573810	0.917300
C13921	C1392	0.344300	0.564470	0.925780
C13931	C1393	0.362750	0.537580	0.904350
H8571	H857	0.350700	0.537200	0.895600
C13941	C1394	0.362710	0.551220	0.921640
C13951	C1395	0.380720	0.552100	0.933990
H8581	H858	0.381500	0.561200	0.945700
C13961	C1396	0.397440	0.539370	0.928590
H8591	H859	0.410000	0.539700	0.936600
C13971	C1397	0.395850	0.526230	0.911580
H8601	H860	0.407400	0.517500	0.908200
C13981	C1398	0.425040	0.498740	0.869910
C13991	C1399	0.388640	0.482400	0.832930
H8611	H861	0.399300	0.492700	0.834100
C14001	C1400	0.387860	0.470750	0.815270
H8621	H862	0.397300	0.473400	0.804100
C14011	C1401	0.372980	0.454810	0.813550
H8631	H863	0.372200	0.446300	0.801400
C14021	C1402	0.359330	0.451780	0.830110
C14031	C1403	0.360770	0.465040	0.847410
H8641	H864	0.351100	0.463300	0.858600
C14041	C1404	0.343040	0.435670	0.829390
N5311	N531	0.265270	0.589070	0.885870
N5321	N532	0.363770	0.645690	0.023540
N5331	N533	0.350670	0.627270	0.983190
N5341	N534	0.346360	0.579700	0.939480
N5351	N535	0.311930	0.590100	0.930390
N5361	N536	0.327150	0.560300	0.914770
N5371	N537	0.378610	0.525340	0.899600
N5381	N538	0.407500	0.501260	0.872780
N5391	N539	0.375060	0.479990	0.848860
N5401	N540	0.328630	0.436030	0.844400
S1071	S107	0.334750	0.673110	0.041120
S1081	S108	0.449840	0.495090	0.865700
C14051	C1405	0.781220	0.088950	0.899160
H8651	H865	0.784600	0.101700	0.906000
C14061	C1406	0.793160	0.071550	0.903670
C14071	C1407	0.788060	0.052670	0.894000
H8661	H866	0.796000	0.040400	0.896600
C14081	C1408	0.771160	0.052400	0.880560
H8671	H867	0.767100	0.039800	0.873900
C14091	C1409	0.760150	0.070760	0.876900
H8681	H868	0.748500	0.070400	0.867700
C14101	C1410	0.851720	0.156980	0.031210
C14111	C1411	0.835180	0.141370	0.984660
H8691	H869	0.836400	0.152300	0.994700
C14121	C1412	0.817360	0.140560	0.972050
H8701	H870	0.807000	0.151100	0.973100
C14131	C1413	0.814990	0.124490	0.958230
H8711	H871	0.802800	0.123500	0.949800
C14141	C1414	0.830940	0.109430	0.956670
C14151	C1415	0.848310	0.111740	0.969350
H8721	H872	0.859200	0.101700	0.968200
C14161	C1416	0.829620	0.092090	0.941530
C14171	C1417	0.811770	0.073810	0.917300
C14181	C1418	0.844300	0.064470	0.925780
C14191	C1419	0.862750	0.037580	0.904350
H8731	H873	0.850700	0.037200	0.895600
C14201	C1420	0.862710	0.051220	0.921640
C14211	C1421	0.880720	0.052100	0.933990
H8741	H874	0.881500	0.061200	0.945700
C14221	C1422	0.897440	0.039370	0.928590
H8751	H875	0.910000	0.039700	0.936600
C14231	C1423	0.895850	0.026230	0.911580
H8761	H876	0.907400	0.017500	0.908200
C14241	C1424	0.925040	0.998740	0.869910
C14251	C1425	0.888640	0.982400	0.832930
H8771	H877	0.899300	0.992700	0.834100
C14261	C1426	0.887860	0.970750	0.815270
H8781	H878	0.897300	0.973400	0.804100
C14271	C1427	0.872980	0.954810	0.813550
H8791	H879	0.872200	0.946300	0.801400
C14281	C1428	0.859330	0.951780	0.830110
C14291	C1429	0.860770	0.965040	0.847410
H8801	H880	0.851100	0.963300	0.858600
C14301	C1430	0.843040	0.935670	0.829390
N5411	N541	0.765270	0.089070	0.885870
N5421	N542	0.863770	0.145690	0.023540
N5431	N543	0.850670	0.127270	0.983190
N5441	N544	0.846360	0.079700	0.939480
N5451	N545	0.811930	0.090100	0.930390
N5461	N546	0.827150	0.060300	0.914770
N5471	N547	0.878610	0.025340	0.899600
N5481	N548	0.907500	0.001260	0.872780
N5491	N549	0.875060	0.979990	0.848860
N5501	N550	0.828630	0.936030	0.844400
S1091	S109	0.834750	0.173110	0.041120
S1101	S110	0.949840	0.995090	0.865700
C14311	C1431	0.781220	0.588950	0.399160
H8811	H881	0.784600	0.601700	0.406000
C14321	C1432	0.793160	0.571550	0.403670
C14331	C1433	0.788060	0.552670	0.394000
H8821	H882	0.796000	0.540400	0.396600
C14341	C1434	0.771160	0.552400	0.380560
H8831	H883	0.767100	0.539800	0.373900
C14351	C1435	0.760150	0.570760	0.376900
H8841	H884	0.748500	0.570400	0.367700
C14361	C1436	0.851720	0.656980	0.531210
C14371	C1437	0.835180	0.641370	0.484660
H8851	H885	0.836400	0.652300	0.494700
C14381	C1438	0.817360	0.640560	0.472050
H8861	H886	0.807000	0.651100	0.473100
C14391	C1439	0.814990	0.624490	0.458230
H8871	H887	0.802800	0.623500	0.449800
C14401	C1440	0.830940	0.609430	0.456670
C14411	C1441	0.848310	0.611740	0.469350
H8881	H888	0.859200	0.601700	0.468200
C14421	C1442	0.829620	0.592090	0.441530
C14431	C1443	0.811770	0.573810	0.417300
C14441	C1444	0.844300	0.564470	0.425780
C14451	C1445	0.862750	0.537580	0.404350
H8891	H889	0.850700	0.537200	0.395600
C14461	C1446	0.862710	0.551220	0.421640
C14471	C1447	0.880720	0.552100	0.433990
H8901	H890	0.881500	0.561200	0.445700
C14481	C1448	0.897440	0.539370	0.428590
H8911	H891	0.910000	0.539700	0.436600
C14491	C1449	0.895850	0.526230	0.411580
H8921	H892	0.907400	0.517500	0.408200
C14501	C1450	0.925040	0.498740	0.369910
C14511	C1451	0.888640	0.482400	0.332930
H8931	H893	0.899300	0.492700	0.334100
C14521	C1452	0.887860	0.470750	0.315270
H8941	H894	0.897300	0.473400	0.304100
C14531	C1453	0.872980	0.454810	0.313550
H8951	H895	0.872200	0.446300	0.301400
C14541	C1454	0.859330	0.451780	0.330110
C14551	C1455	0.860770	0.465040	0.347410
H8961	H896	0.851100	0.463300	0.358600
C14561	C1456	0.843040	0.435670	0.329390
N5511	N551	0.765270	0.589070	0.385870
N5521	N552	0.863770	0.645690	0.523540
N5531	N553	0.850670	0.627270	0.483190
N5541	N554	0.846360	0.579700	0.439480
N5551	N555	0.811930	0.590100	0.430390
N5561	N556	0.827150	0.560300	0.414770
N5571	N557	0.878610	0.525340	0.399600
N5581	N558	0.907500	0.501260	0.372780
N5591	N559	0.875060	0.479990	0.348860
N5601	N560	0.828630	0.436030	0.344400
S1111	S111	0.834750	0.673110	0.541120
S1121	S112	0.949840	0.495090	0.365700
C14571	C1457	0.468780	0.588950	0.850840
H8971	H897	0.465400	0.601700	0.844000
C14581	C1458	0.456840	0.571550	0.846330
C14591	C1459	0.461940	0.552670	0.856000
H8981	H898	0.454000	0.540400	0.853400
C14601	C1460	0.478840	0.552400	0.869440
H8991	H899	0.482900	0.539800	0.876100
C14611	C1461	0.489850	0.570760	0.873100
H9001	H900	0.501500	0.570400	0.882300
C14621	C1462	0.398280	0.656980	0.718790
C14631	C1463	0.414820	0.641370	0.765340
H9011	H901	0.413600	0.652300	0.755300
C14641	C1464	0.432640	0.640560	0.777950
H9021	H902	0.443000	0.651100	0.776900
C14651	C1465	0.435010	0.624490	0.791770
H9031	H903	0.447200	0.623500	0.800200
C14661	C1466	0.419060	0.609430	0.793330
C14671	C1467	0.401690	0.611740	0.780650
H9041	H904	0.390800	0.601700	0.781800
C14681	C1468	0.420380	0.592090	0.808470
C14691	C1469	0.438230	0.573810	0.832700
C14701	C1470	0.405700	0.564470	0.824220
C14711	C1471	0.387250	0.537580	0.845650
H9051	H905	0.399300	0.537200	0.854400
C14721	C1472	0.387290	0.551220	0.828360
C14731	C1473	0.369280	0.552100	0.816010
H9061	H906	0.368500	0.561200	0.804300
C14741	C1474	0.352560	0.539370	0.821410
H9071	H907	0.340000	0.539700	0.813400
C14751	C1475	0.354150	0.526230	0.838420
H9081	H908	0.342600	0.517500	0.841800
C14761	C1476	0.324960	0.498740	0.880090
C14771	C1477	0.361360	0.482400	0.917070
H9091	H909	0.350700	0.492700	0.915900
C14781	C1478	0.362140	0.470750	0.934730
H9101	H910	0.352700	0.473400	0.945900
C14791	C1479	0.377020	0.454810	0.936450
H9111	H911	0.377800	0.446300	0.948600
C14801	C1480	0.390670	0.451780	0.919890
C14811	C1481	0.389230	0.465040	0.902590
H9121	H912	0.398900	0.463300	0.891400
C14821	C1482	0.406960	0.435670	0.920610
N5611	N561	0.484730	0.589070	0.864130
N5621	N562	0.386230	0.645690	0.726460
N5631	N563	0.399330	0.627270	0.766810
N5641	N564	0.403640	0.579700	0.810520
N5651	N565	0.438070	0.590100	0.819610
N5661	N566	0.422850	0.560300	0.835230
N5671	N567	0.371390	0.525340	0.850400
N5681	N568	0.342500	0.501260	0.877220
N5691	N569	0.374940	0.479990	0.901140
N5701	N570	0.421370	0.436030	0.905600
S1131	S113	0.415250	0.673110	0.708880
S1141	S114	0.300160	0.495090	0.884300
C14831	C1483	0.468780	0.088950	0.350840
H9131	H913	0.465400	0.101700	0.344000
C14841	C1484	0.456840	0.071550	0.346330
C14851	C1485	0.461940	0.052670	0.356000
H9141	H914	0.454000	0.040400	0.353400
C14861	C1486	0.478840	0.052400	0.369440
H9151	H915	0.482900	0.039800	0.376100
C14871	C1487	0.489850	0.070760	0.373100
H9161	H916	0.501500	0.070400	0.382300
C14881	C1488	0.398280	0.156980	0.218790
C14891	C1489	0.414820	0.141370	0.265340
H9171	H917	0.413600	0.152300	0.255300
C14901	C1490	0.432640	0.140560	0.277950
H9181	H918	0.443000	0.151100	0.276900
C14911	C1491	0.435010	0.124490	0.291770
H9191	H919	0.447200	0.123500	0.300200
C14921	C1492	0.419060	0.109430	0.293330
C14931	C1493	0.401690	0.111740	0.280650
H9201	H920	0.390800	0.101700	0.281800
C14941	C1494	0.420380	0.092090	0.308470
C14951	C1495	0.438230	0.073810	0.332700
C14961	C1496	0.405700	0.064470	0.324220
C14971	C1497	0.387250	0.037580	0.345650
H9211	H921	0.399300	0.037200	0.354400
C14981	C1498	0.387290	0.051220	0.328360
C14991	C1499	0.369280	0.052100	0.316010
H9221	H922	0.368500	0.061200	0.304300
C15001	C1500	0.352560	0.039370	0.321410
H9231	H923	0.340000	0.039700	0.313400
C15011	C1501	0.354150	0.026230	0.338420
H9241	H924	0.342600	0.017500	0.341800
C15021	C1502	0.324960	0.998740	0.380090
C15031	C1503	0.361360	0.982400	0.417070
H9251	H925	0.350700	0.992700	0.415900
C15041	C1504	0.362140	0.970750	0.434730
H9261	H926	0.352700	0.973400	0.445900
C15051	C1505	0.377020	0.954810	0.436450
H9271	H927	0.377800	0.946300	0.448600
C15061	C1506	0.390670	0.951780	0.419890
C15071	C1507	0.389230	0.965040	0.402590
H9281	H928	0.398900	0.963300	0.391400
C15081	C1508	0.406960	0.935670	0.420610
N5711	N571	0.484730	0.089070	0.364130
N5721	N572	0.386230	0.145690	0.226460
N5731	N573	0.399330	0.127270	0.266810
N5741	N574	0.403640	0.079700	0.310520
N5751	N575	0.438070	0.090100	0.319610
N5761	N576	0.422850	0.060300	0.335230
N5771	N577	0.371390	0.025340	0.350400
N5781	N578	0.342500	0.001260	0.377220
N5791	N579	0.374940	0.979990	0.401140
N5801	N580	0.421370	0.936030	0.405600
S1151	S115	0.415250	0.173110	0.208880
S1161	S116	0.300160	0.995090	0.384300
C15091	C1509	0.968780	0.588950	0.350840
H9291	H929	0.965400	0.601700	0.344000
C15101	C1510	0.956840	0.571550	0.346330
C15111	C1511	0.961940	0.552670	0.356000
H9301	H930	0.954000	0.540400	0.353400
C15121	C1512	0.978840	0.552400	0.369440
H9311	H931	0.982900	0.539800	0.376100
C15131	C1513	0.989850	0.570760	0.373100
H9321	H932	0.001500	0.570400	0.382300
C15141	C1514	0.898280	0.656980	0.218790
C15151	C1515	0.914820	0.641370	0.265340
H9331	H933	0.913600	0.652300	0.255300
C15161	C1516	0.932640	0.640560	0.277950
H9341	H934	0.943000	0.651100	0.276900
C15171	C1517	0.935010	0.624490	0.291770
H9351	H935	0.947200	0.623500	0.300200
C15181	C1518	0.919060	0.609430	0.293330
C15191	C1519	0.901690	0.611740	0.280650
H9361	H936	0.890800	0.601700	0.281800
C15201	C1520	0.920380	0.592090	0.308470
C15211	C1521	0.938230	0.573810	0.332700
C15221	C1522	0.905700	0.564470	0.324220
C15231	C1523	0.887250	0.537580	0.345650
H9371	H937	0.899300	0.537200	0.354400
C15241	C1524	0.887290	0.551220	0.328360
C15251	C1525	0.869280	0.552100	0.316010
H9381	H938	0.868500	0.561200	0.304300
C15261	C1526	0.852560	0.539370	0.321410
H9391	H939	0.840000	0.539700	0.313400
C15271	C1527	0.854150	0.526230	0.338420
H9401	H940	0.842600	0.517500	0.341800
C15281	C1528	0.824960	0.498740	0.380090
C15291	C1529	0.861360	0.482400	0.417070
H9411	H941	0.850700	0.492700	0.415900
C15301	C1530	0.862140	0.470750	0.434730
H9421	H942	0.852700	0.473400	0.445900
C15311	C1531	0.877020	0.454810	0.436450
H9431	H943	0.877800	0.446300	0.448600
C15321	C1532	0.890670	0.451780	0.419890
C15331	C1533	0.889230	0.465040	0.402590
H9441	H944	0.898900	0.463300	0.391400
C15341	C1534	0.906960	0.435670	0.420610
N5811	N581	0.984730	0.589070	0.364130
N5821	N582	0.886230	0.645690	0.226460
N5831	N583	0.899330	0.627270	0.266810
N5841	N584	0.903640	0.579700	0.310520
N5851	N585	0.938070	0.590100	0.319610
N5861	N586	0.922850	0.560300	0.335230
N5871	N587	0.871390	0.525340	0.350400
N5881	N588	0.842500	0.501260	0.377220
N5891	N589	0.874940	0.479990	0.401140
N5901	N590	0.921370	0.436030	0.405600
S1171	S117	0.915250	0.673110	0.208880
S1181	S118	0.800160	0.495090	0.384300
C15351	C1535	0.968780	0.088950	0.850840
H9451	H945	0.965400	0.101700	0.844000
C15361	C1536	0.956840	0.071550	0.846330
C15371	C1537	0.961940	0.052670	0.856000
H9461	H946	0.954000	0.040400	0.853400
C15381	C1538	0.978840	0.052400	0.869440
H9471	H947	0.982900	0.039800	0.876100
C15391	C1539	0.989850	0.070760	0.873100
H9481	H948	0.001500	0.070400	0.882300
C15401	C1540	0.898280	0.156980	0.718790
C15411	C1541	0.914820	0.141370	0.765340
H9491	H949	0.913600	0.152300	0.755300
C15421	C1542	0.932640	0.140560	0.777950
H9501	H950	0.943000	0.151100	0.776900
C15431	C1543	0.935010	0.124490	0.791770
H9511	H951	0.947200	0.123500	0.800200
C15441	C1544	0.919060	0.109430	0.793330
C15451	C1545	0.901690	0.111740	0.780650
H9521	H952	0.890800	0.101700	0.781800
C15461	C1546	0.920380	0.092090	0.808470
C15471	C1547	0.938230	0.073810	0.832700
C15481	C1548	0.905700	0.064470	0.824220
C15491	C1549	0.887250	0.037580	0.845650
H9531	H953	0.899300	0.037200	0.854400
C15501	C1550	0.887290	0.051220	0.828360
C15511	C1551	0.869280	0.052100	0.816010
H9541	H954	0.868500	0.061200	0.804300
C15521	C1552	0.852560	0.039370	0.821410
H9551	H955	0.840000	0.039700	0.813400
C15531	C1553	0.854150	0.026230	0.838420
H9561	H956	0.842600	0.017500	0.841800
C15541	C1554	0.824960	0.998740	0.880090
C15551	C1555	0.861360	0.982400	0.917070
H9571	H957	0.850700	0.992700	0.915900
C15561	C1556	0.862140	0.970750	0.934730
H9581	H958	0.852700	0.973400	0.945900
C15571	C1557	0.877020	0.954810	0.936450
H9591	H959	0.877800	0.946300	0.948600
C15581	C1558	0.890670	0.951780	0.919890
C15591	C1559	0.889230	0.965040	0.902590
H9601	H960	0.898900	0.963300	0.891400
C15601	C1560	0.906960	0.935670	0.920610
N5911	N591	0.984730	0.089070	0.864130
N5921	N592	0.886230	0.145690	0.726460
N5931	N593	0.899330	0.127270	0.766810
N5941	N594	0.903640	0.079700	0.810520
N5951	N595	0.938070	0.090100	0.819610
N5961	N596	0.922850	0.060300	0.835230
N5971	N597	0.871390	0.025340	0.850400
N5981	N598	0.842500	0.001260	0.877220
N5991	N599	0.874940	0.979990	0.901140
N6001	N600	0.921370	0.936030	0.905600
S1191	S119	0.915250	0.173110	0.708880
S1201	S120	0.800160	0.995090	0.884300
C15611	C1561	0.781220	0.161050	0.350840
H9611	H961	0.784600	0.148300	0.344000
C15621	C1562	0.793160	0.178450	0.346330
C15631	C1563	0.788060	0.197330	0.356000
H9621	H962	0.796000	0.209600	0.353400
C15641	C1564	0.771160	0.197600	0.369440
H9631	H963	0.767100	0.210200	0.376100
C15651	C1565	0.760150	0.179240	0.373100
H9641	H964	0.748500	0.179600	0.382300
C15661	C1566	0.851720	0.093020	0.218790
C15671	C1567	0.835180	0.108630	0.265340
H9651	H965	0.836400	0.097700	0.255300
C15681	C1568	0.817360	0.109440	0.277950
H9661	H966	0.807000	0.098900	0.276900
C15691	C1569	0.814990	0.125510	0.291770
H9671	H967	0.802800	0.126500	0.300200
C15701	C1570	0.830940	0.140570	0.293330
C15711	C1571	0.848310	0.138260	0.280650
H9681	H968	0.859200	0.148300	0.281800
C15721	C1572	0.829620	0.157910	0.308470
C15731	C1573	0.811770	0.176190	0.332700
C15741	C1574	0.844300	0.185530	0.324220
C15751	C1575	0.862750	0.212420	0.345650
H9691	H969	0.850700	0.212800	0.354400
C15761	C1576	0.862710	0.198780	0.328360
C15771	C1577	0.880720	0.197900	0.316010
H9701	H970	0.881500	0.188800	0.304300
C15781	C1578	0.897440	0.210630	0.321410
H9711	H971	0.910000	0.210300	0.313400
C15791	C1579	0.895850	0.223770	0.338420
H9721	H972	0.907400	0.232500	0.341800
C15801	C1580	0.925040	0.251260	0.380090
C15811	C1581	0.888640	0.267600	0.417070
H9731	H973	0.899300	0.257300	0.415900
C15821	C1582	0.887860	0.279250	0.434730
H9741	H974	0.897300	0.276600	0.445900
C15831	C1583	0.872980	0.295190	0.436450
H9751	H975	0.872200	0.303700	0.448600
C15841	C1584	0.859330	0.298220	0.419890
C15851	C1585	0.860770	0.284960	0.402590
H9761	H976	0.851100	0.286700	0.391400
C15861	C1586	0.843040	0.314330	0.420610
N6011	N601	0.765270	0.160930	0.364130
N6021	N602	0.863770	0.104310	0.226460
N6031	N603	0.850670	0.122730	0.266810
N6041	N604	0.846360	0.170300	0.310520
N6051	N605	0.811930	0.159900	0.319610
N6061	N606	0.827150	0.189700	0.335230
N6071	N607	0.878610	0.224660	0.350400
N6081	N608	0.907500	0.248740	0.377220
N6091	N609	0.875060	0.270010	0.401140
N6101	N610	0.828630	0.313970	0.405600
S1211	S121	0.834750	0.076890	0.208880
S1221	S122	0.949840	0.254910	0.384300
C15871	C1587	0.781220	0.661050	0.850840
H9771	H977	0.784600	0.648300	0.844000
C15881	C1588	0.793160	0.678450	0.846330
C15891	C1589	0.788060	0.697330	0.856000
H9781	H978	0.796000	0.709600	0.853400
C15901	C1590	0.771160	0.697600	0.869440
H9791	H979	0.767100	0.710200	0.876100
C15911	C1591	0.760150	0.679240	0.873100
H9801	H980	0.748500	0.679600	0.882300
C15921	C1592	0.851720	0.593020	0.718790
C15931	C1593	0.835180	0.608630	0.765340
H9811	H981	0.836400	0.597700	0.755300
C15941	C1594	0.817360	0.609440	0.777950
H9821	H982	0.807000	0.598900	0.776900
C15951	C1595	0.814990	0.625510	0.791770
H9831	H983	0.802800	0.626500	0.800200
C15961	C1596	0.830940	0.640570	0.793330
C15971	C1597	0.848310	0.638260	0.780650
H9841	H984	0.859200	0.648300	0.781800
C15981	C1598	0.829620	0.657910	0.808470
C15991	C1599	0.811770	0.676190	0.832700
C16001	C1600	0.844300	0.685530	0.824220
C16011	C1601	0.862750	0.712420	0.845650
H9851	H985	0.850700	0.712800	0.854400
C16021	C1602	0.862710	0.698780	0.828360
C16031	C1603	0.880720	0.697900	0.816010
H9861	H986	0.881500	0.688800	0.804300
C16041	C1604	0.897440	0.710630	0.821410
H9871	H987	0.910000	0.710300	0.813400
C16051	C1605	0.895850	0.723770	0.838420
H9881	H988	0.907400	0.732500	0.841800
C16061	C1606	0.925040	0.751260	0.880090
C16071	C1607	0.888640	0.767600	0.917070
H9891	H989	0.899300	0.757300	0.915900
C16081	C1608	0.887860	0.779250	0.934730
H9901	H990	0.897300	0.776600	0.945900
C16091	C1609	0.872980	0.795190	0.936450
H9911	H991	0.872200	0.803700	0.948600
C16101	C1610	0.859330	0.798220	0.919890
C16111	C1611	0.860770	0.784960	0.902590
H9921	H992	0.851100	0.786700	0.891400
C16121	C1612	0.843040	0.814330	0.920610
N6111	N611	0.765270	0.660930	0.864130
N6121	N612	0.863770	0.604310	0.726460
N6131	N613	0.850670	0.622730	0.766810
N6141	N614	0.846360	0.670300	0.810520
N6151	N615	0.811930	0.659900	0.819610
N6161	N616	0.827150	0.689700	0.835230
N6171	N617	0.878610	0.724660	0.850400
N6181	N618	0.907500	0.748740	0.877220
N6191	N619	0.875060	0.770010	0.901140
N6201	N620	0.828630	0.813970	0.905600
S1231	S123	0.834750	0.576890	0.708880
S1241	S124	0.949840	0.754910	0.884300
C16131	C1613	0.281220	0.161050	0.850840
H9931	H993	0.284600	0.148300	0.844000
C16141	C1614	0.293160	0.178450	0.846330
C16151	C1615	0.288060	0.197330	0.856000
H9941	H994	0.296000	0.209600	0.853400
C16161	C1616	0.271160	0.197600	0.869440
H9951	H995	0.267100	0.210200	0.876100
C16171	C1617	0.260150	0.179240	0.873100
H9961	H996	0.248500	0.179600	0.882300
C16181	C1618	0.351720	0.093020	0.718790
C16191	C1619	0.335180	0.108630	0.765340
H9971	H997	0.336400	0.097700	0.755300
C16201	C1620	0.317360	0.109440	0.777950
H9981	H998	0.307000	0.098900	0.776900
C16211	C1621	0.314990	0.125510	0.791770
H9991	H999	0.302800	0.126500	0.800200
C16221	C1622	0.330940	0.140570	0.793330
C16231	C1623	0.348310	0.138260	0.780650
H10001	H1000	0.359200	0.148300	0.781800
C16241	C1624	0.329620	0.157910	0.808470
C16251	C1625	0.311770	0.176190	0.832700
C16261	C1626	0.344300	0.185530	0.824220
C16271	C1627	0.362750	0.212420	0.845650
H10011	H1001	0.350700	0.212800	0.854400
C16281	C1628	0.362710	0.198780	0.828360
C16291	C1629	0.380720	0.197900	0.816010
H10021	H1002	0.381500	0.188800	0.804300
C16301	C1630	0.397440	0.210630	0.821410
H10031	H1003	0.410000	0.210300	0.813400
C16311	C1631	0.395850	0.223770	0.838420
H10041	H1004	0.407400	0.232500	0.841800
C16321	C1632	0.425040	0.251260	0.880090
C16331	C1633	0.388640	0.267600	0.917070
H10051	H1005	0.399300	0.257300	0.915900
C16341	C1634	0.387860	0.279250	0.934730
H10061	H1006	0.397300	0.276600	0.945900
C16351	C1635	0.372980	0.295190	0.936450
H10071	H1007	0.372200	0.303700	0.948600
C16361	C1636	0.359330	0.298220	0.919890
C16371	C1637	0.360770	0.284960	0.902590
H10081	H1008	0.351100	0.286700	0.891400
C16381	C1638	0.343040	0.314330	0.920610
N6211	N621	0.265270	0.160930	0.864130
N6221	N622	0.363770	0.104310	0.726460
N6231	N623	0.350670	0.122730	0.766810
N6241	N624	0.346360	0.170300	0.810520
N6251	N625	0.311930	0.159900	0.819610
N6261	N626	0.327150	0.189700	0.835230
N6271	N627	0.378610	0.224660	0.850400
N6281	N628	0.407500	0.248740	0.877220
N6291	N629	0.375060	0.270010	0.901140
N6301	N630	0.328630	0.313970	0.905600
S1251	S125	0.334750	0.076890	0.708880
S1261	S126	0.449840	0.254910	0.884300
C16391	C1639	0.281220	0.661050	0.350840
H10091	H1009	0.284600	0.648300	0.344000
C16401	C1640	0.293160	0.678450	0.346330
C16411	C1641	0.288060	0.697330	0.356000
H10101	H1010	0.296000	0.709600	0.353400
C16421	C1642	0.271160	0.697600	0.369440
H10111	H1011	0.267100	0.710200	0.376100
C16431	C1643	0.260150	0.679240	0.373100
H10121	H1012	0.248500	0.679600	0.382300
C16441	C1644	0.351720	0.593020	0.218790
C16451	C1645	0.335180	0.608630	0.265340
H10131	H1013	0.336400	0.597700	0.255300
C16461	C1646	0.317360	0.609440	0.277950
H10141	H1014	0.307000	0.598900	0.276900
C16471	C1647	0.314990	0.625510	0.291770
H10151	H1015	0.302800	0.626500	0.300200
C16481	C1648	0.330940	0.640570	0.293330
C16491	C1649	0.348310	0.638260	0.280650
H10161	H1016	0.359200	0.648300	0.281800
C16501	C1650	0.329620	0.657910	0.308470
C16511	C1651	0.311770	0.676190	0.332700
C16521	C1652	0.344300	0.685530	0.324220
C16531	C1653	0.362750	0.712420	0.345650
H10171	H1017	0.350700	0.712800	0.354400
C16541	C1654	0.362710	0.698780	0.328360
C16551	C1655	0.380720	0.697900	0.316010
H10181	H1018	0.381500	0.688800	0.304300
C16561	C1656	0.397440	0.710630	0.321410
H10191	H1019	0.410000	0.710300	0.313400
C16571	C1657	0.395850	0.723770	0.338420
H10201	H1020	0.407400	0.732500	0.341800
C16581	C1658	0.425040	0.751260	0.380090
C16591	C1659	0.388640	0.767600	0.417070
H10211	H1021	0.399300	0.757300	0.415900
C16601	C1660	0.387860	0.779250	0.434730
H10221	H1022	0.397300	0.776600	0.445900
C16611	C1661	0.372980	0.795190	0.436450
H10231	H1023	0.372200	0.803700	0.448600
C16621	C1662	0.359330	0.798220	0.419890
C16631	C1663	0.360770	0.784960	0.402590
H10241	H1024	0.351100	0.786700	0.391400
C16641	C1664	0.343040	0.814330	0.420610
N6311	N631	0.265270	0.660930	0.364130
N6321	N632	0.363770	0.604310	0.226460
N6331	N633	0.350670	0.622730	0.266810
N6341	N634	0.346360	0.670300	0.310520
N6351	N635	0.311930	0.659900	0.319610
N6361	N636	0.327150	0.689700	0.335230
N6371	N637	0.378610	0.724660	0.350400
N6381	N638	0.407500	0.748740	0.377220
N6391	N639	0.375060	0.770010	0.401140
N6401	N640	0.328630	0.813970	0.405600
S1271	S127	0.334750	0.576890	0.208880
S1281	S128	0.449840	0.754910	0.384300
C16651	C1665	0.161050	0.350840	0.781220
H10251	H1025	0.148300	0.344000	0.784600
C16661	C1666	0.178450	0.346330	0.793160
C16671	C1667	0.197330	0.356000	0.788060
H10261	H1026	0.209600	0.353400	0.796000
C16681	C1668	0.197600	0.369440	0.771160
H10271	H1027	0.210200	0.376100	0.767100
C16691	C1669	0.179240	0.373100	0.760150
H10281	H1028	0.179600	0.382300	0.748500
C16701	C1670	0.093020	0.218790	0.851720
C16711	C1671	0.108630	0.265340	0.835180
H10291	H1029	0.097700	0.255300	0.836400
C16721	C1672	0.109440	0.277950	0.817360
H10301	H1030	0.098900	0.276900	0.807000
C16731	C1673	0.125510	0.291770	0.814990
H10311	H1031	0.126500	0.300200	0.802800
C16741	C1674	0.140570	0.293330	0.830940
C16751	C1675	0.138260	0.280650	0.848310
H10321	H1032	0.148300	0.281800	0.859200
C16761	C1676	0.157910	0.308470	0.829620
C16771	C1677	0.176190	0.332700	0.811770
C16781	C1678	0.185530	0.324220	0.844300
C16791	C1679	0.212420	0.345650	0.862750
H10331	H1033	0.212800	0.354400	0.850700
C16801	C1680	0.198780	0.328360	0.862710
C16811	C1681	0.197900	0.316010	0.880720
H10341	H1034	0.188800	0.304300	0.881500
C16821	C1682	0.210630	0.321410	0.897440
H10351	H1035	0.210300	0.313400	0.910000
C16831	C1683	0.223770	0.338420	0.895850
H10361	H1036	0.232500	0.341800	0.907400
C16841	C1684	0.251260	0.380090	0.925040
C16851	C1685	0.267600	0.417070	0.888640
H10371	H1037	0.257300	0.415900	0.899300
C16861	C1686	0.279250	0.434730	0.887860
H10381	H1038	0.276600	0.445900	0.897300
C16871	C1687	0.295190	0.436450	0.872980
H10391	H1039	0.303700	0.448600	0.872200
C16881	C1688	0.298220	0.419890	0.859330
C16891	C1689	0.284960	0.402590	0.860770
H10401	H1040	0.286700	0.391400	0.851100
C16901	C1690	0.314330	0.420610	0.843040
N6411	N641	0.160930	0.364130	0.765270
N6421	N642	0.104310	0.226460	0.863770
N6431	N643	0.122730	0.266810	0.850670
N6441	N644	0.170300	0.310520	0.846360
N6451	N645	0.159900	0.319610	0.811930
N6461	N646	0.189700	0.335230	0.827150
N6471	N647	0.224660	0.350400	0.878610
N6481	N648	0.248740	0.377220	0.907500
N6491	N649	0.270010	0.401140	0.875060
N6501	N650	0.313970	0.405600	0.828630
S1291	S129	0.076890	0.208880	0.834750
S1301	S130	0.254910	0.384300	0.949840
C16911	C1691	0.161050	0.850840	0.281220
H10411	H1041	0.148300	0.844000	0.284600
C16921	C1692	0.178450	0.846330	0.293160
C16931	C1693	0.197330	0.856000	0.288060
H10421	H1042	0.209600	0.853400	0.296000
C16941	C1694	0.197600	0.869440	0.271160
H10431	H1043	0.210200	0.876100	0.267100
C16951	C1695	0.179240	0.873100	0.260150
H10441	H1044	0.179600	0.882300	0.248500
C16961	C1696	0.093020	0.718790	0.351720
C16971	C1697	0.108630	0.765340	0.335180
H10451	H1045	0.097700	0.755300	0.336400
C16981	C1698	0.109440	0.777950	0.317360
H10461	H1046	0.098900	0.776900	0.307000
C16991	C1699	0.125510	0.791770	0.314990
H10471	H1047	0.126500	0.800200	0.302800
C17001	C1700	0.140570	0.793330	0.330940
C17011	C1701	0.138260	0.780650	0.348310
H10481	H1048	0.148300	0.781800	0.359200
C17021	C1702	0.157910	0.808470	0.329620
C17031	C1703	0.176190	0.832700	0.311770
C17041	C1704	0.185530	0.824220	0.344300
C17051	C1705	0.212420	0.845650	0.362750
H10491	H1049	0.212800	0.854400	0.350700
C17061	C1706	0.198780	0.828360	0.362710
C17071	C1707	0.197900	0.816010	0.380720
H10501	H1050	0.188800	0.804300	0.381500
C17081	C1708	0.210630	0.821410	0.397440
H10511	H1051	0.210300	0.813400	0.410000
C17091	C1709	0.223770	0.838420	0.395850
H10521	H1052	0.232500	0.841800	0.407400
C17101	C1710	0.251260	0.880090	0.425040
C17111	C1711	0.267600	0.917070	0.388640
H10531	H1053	0.257300	0.915900	0.399300
C17121	C1712	0.279250	0.934730	0.387860
H10541	H1054	0.276600	0.945900	0.397300
C17131	C1713	0.295190	0.936450	0.372980
H10551	H1055	0.303700	0.948600	0.372200
C17141	C1714	0.298220	0.919890	0.359330
C17151	C1715	0.284960	0.902590	0.360770
H10561	H1056	0.286700	0.891400	0.351100
C17161	C1716	0.314330	0.920610	0.343040
N6511	N651	0.160930	0.864130	0.265270
N6521	N652	0.104310	0.726460	0.363770
N6531	N653	0.122730	0.766810	0.350670
N6541	N654	0.170300	0.810520	0.346360
N6551	N655	0.159900	0.819610	0.311930
N6561	N656	0.189700	0.835230	0.327150
N6571	N657	0.224660	0.850400	0.378610
N6581	N658	0.248740	0.877220	0.407500
N6591	N659	0.270010	0.901140	0.375060
N6601	N660	0.313970	0.905600	0.328630
S1311	S131	0.076890	0.708880	0.334750
S1321	S132	0.254910	0.884300	0.449840
C17171	C1717	0.661050	0.350840	0.281220
H10571	H1057	0.648300	0.344000	0.284600
C17181	C1718	0.678450	0.346330	0.293160
C17191	C1719	0.697330	0.356000	0.288060
H10581	H1058	0.709600	0.353400	0.296000
C17201	C1720	0.697600	0.369440	0.271160
H10591	H1059	0.710200	0.376100	0.267100
C17211	C1721	0.679240	0.373100	0.260150
H10601	H1060	0.679600	0.382300	0.248500
C17221	C1722	0.593020	0.218790	0.351720
C17231	C1723	0.608630	0.265340	0.335180
H10611	H1061	0.597700	0.255300	0.336400
C17241	C1724	0.609440	0.277950	0.317360
H10621	H1062	0.598900	0.276900	0.307000
C17251	C1725	0.625510	0.291770	0.314990
H10631	H1063	0.626500	0.300200	0.302800
C17261	C1726	0.640570	0.293330	0.330940
C17271	C1727	0.638260	0.280650	0.348310
H10641	H1064	0.648300	0.281800	0.359200
C17281	C1728	0.657910	0.308470	0.329620
C17291	C1729	0.676190	0.332700	0.311770
C17301	C1730	0.685530	0.324220	0.344300
C17311	C1731	0.712420	0.345650	0.362750
H10651	H1065	0.712800	0.354400	0.350700
C17321	C1732	0.698780	0.328360	0.362710
C17331	C1733	0.697900	0.316010	0.380720
H10661	H1066	0.688800	0.304300	0.381500
C17341	C1734	0.710630	0.321410	0.397440
H10671	H1067	0.710300	0.313400	0.410000
C17351	C1735	0.723770	0.338420	0.395850
H10681	H1068	0.732500	0.341800	0.407400
C17361	C1736	0.751260	0.380090	0.425040
C17371	C1737	0.767600	0.417070	0.388640
H10691	H1069	0.757300	0.415900	0.399300
C17381	C1738	0.779250	0.434730	0.387860
H10701	H1070	0.776600	0.445900	0.397300
C17391	C1739	0.795190	0.436450	0.372980
H10711	H1071	0.803700	0.448600	0.372200
C17401	C1740	0.798220	0.419890	0.359330
C17411	C1741	0.784960	0.402590	0.360770
H10721	H1072	0.786700	0.391400	0.351100
C17421	C1742	0.814330	0.420610	0.343040
N6611	N661	0.660930	0.364130	0.265270
N6621	N662	0.604310	0.226460	0.363770
N6631	N663	0.622730	0.266810	0.350670
N6641	N664	0.670300	0.310520	0.346360
N6651	N665	0.659900	0.319610	0.311930
N6661	N666	0.689700	0.335230	0.327150
N6671	N667	0.724660	0.350400	0.378610
N6681	N668	0.748740	0.377220	0.407500
N6691	N669	0.770010	0.401140	0.375060
N6701	N670	0.813970	0.405600	0.328630
S1331	S133	0.576890	0.208880	0.334750
S1341	S134	0.754910	0.384300	0.449840
C17431	C1743	0.661050	0.850840	0.781220
H10731	H1073	0.648300	0.844000	0.784600
C17441	C1744	0.678450	0.846330	0.793160
C17451	C1745	0.697330	0.856000	0.788060
H10741	H1074	0.709600	0.853400	0.796000
C17461	C1746	0.697600	0.869440	0.771160
H10751	H1075	0.710200	0.876100	0.767100
C17471	C1747	0.679240	0.873100	0.760150
H10761	H1076	0.679600	0.882300	0.748500
C17481	C1748	0.593020	0.718790	0.851720
C17491	C1749	0.608630	0.765340	0.835180
H10771	H1077	0.597700	0.755300	0.836400
C17501	C1750	0.609440	0.777950	0.817360
H10781	H1078	0.598900	0.776900	0.807000
C17511	C1751	0.625510	0.791770	0.814990
H10791	H1079	0.626500	0.800200	0.802800
C17521	C1752	0.640570	0.793330	0.830940
C17531	C1753	0.638260	0.780650	0.848310
H10801	H1080	0.648300	0.781800	0.859200
C17541	C1754	0.657910	0.808470	0.829620
C17551	C1755	0.676190	0.832700	0.811770
C17561	C1756	0.685530	0.824220	0.844300
C17571	C1757	0.712420	0.845650	0.862750
H10811	H1081	0.712800	0.854400	0.850700
C17581	C1758	0.698780	0.828360	0.862710
C17591	C1759	0.697900	0.816010	0.880720
H10821	H1082	0.688800	0.804300	0.881500
C17601	C1760	0.710630	0.821410	0.897440
H10831	H1083	0.710300	0.813400	0.910000
C17611	C1761	0.723770	0.838420	0.895850
H10841	H1084	0.732500	0.841800	0.907400
C17621	C1762	0.751260	0.880090	0.925040
C17631	C1763	0.767600	0.917070	0.888640
H10851	H1085	0.757300	0.915900	0.899300
C17641	C1764	0.779250	0.934730	0.887860
H10861	H1086	0.776600	0.945900	0.897300
C17651	C1765	0.795190	0.936450	0.872980
H10871	H1087	0.803700	0.948600	0.872200
C17661	C1766	0.798220	0.919890	0.859330
C17671	C1767	0.784960	0.902590	0.860770
H10881	H1088	0.786700	0.891400	0.851100
C17681	C1768	0.814330	0.920610	0.843040
N6711	N671	0.660930	0.864130	0.765270
N6721	N672	0.604310	0.726460	0.863770
N6731	N673	0.622730	0.766810	0.850670
N6741	N674	0.670300	0.810520	0.846360
N6751	N675	0.659900	0.819610	0.811930
N6761	N676	0.689700	0.835230	0.827150
N6771	N677	0.724660	0.850400	0.878610
N6781	N678	0.748740	0.877220	0.907500
N6791	N679	0.770010	0.901140	0.875060
N6801	N680	0.813970	0.905600	0.828630
S1351	S135	0.576890	0.708880	0.834750
S1361	S136	0.754910	0.884300	0.949840
C17691	C1769	0.588950	0.850840	0.468780
H10891	H1089	0.601700	0.844000	0.465400
C17701	C1770	0.571550	0.846330	0.456840
C17711	C1771	0.552670	0.856000	0.461940
H10901	H1090	0.540400	0.853400	0.454000
C17721	C1772	0.552400	0.869440	0.478840
H10911	H1091	0.539800	0.876100	0.482900
C17731	C1773	0.570760	0.873100	0.489850
H10921	H1092	0.570400	0.882300	0.501500
C17741	C1774	0.656980	0.718790	0.398280
C17751	C1775	0.641370	0.765340	0.414820
H10931	H1093	0.652300	0.755300	0.413600
C17761	C1776	0.640560	0.777950	0.432640
H10941	H1094	0.651100	0.776900	0.443000
C17771	C1777	0.624490	0.791770	0.435010
H10951	H1095	0.623500	0.800200	0.447200
C17781	C1778	0.609430	0.793330	0.419060
C17791	C1779	0.611740	0.780650	0.401690
H10961	H1096	0.601700	0.781800	0.390800
C17801	C1780	0.592090	0.808470	0.420380
C17811	C1781	0.573810	0.832700	0.438230
C17821	C1782	0.564470	0.824220	0.405700
C17831	C1783	0.537580	0.845650	0.387250
H10971	H1097	0.537200	0.854400	0.399300
C17841	C1784	0.551220	0.828360	0.387290
C17851	C1785	0.552100	0.816010	0.369280
H10981	H1098	0.561200	0.804300	0.368500
C17861	C1786	0.539370	0.821410	0.352560
H10991	H1099	0.539700	0.813400	0.340000
C17871	C1787	0.526230	0.838420	0.354150
H11001	H1100	0.517500	0.841800	0.342600
C17881	C1788	0.498740	0.880090	0.324960
C17891	C1789	0.482400	0.917070	0.361360
H11011	H1101	0.492700	0.915900	0.350700
C17901	C1790	0.470750	0.934730	0.362140
H11021	H1102	0.473400	0.945900	0.352700
C17911	C1791	0.454810	0.936450	0.377020
H11031	H1103	0.446300	0.948600	0.377800
C17921	C1792	0.451780	0.919890	0.390670
C17931	C1793	0.465040	0.902590	0.389230
H11041	H1104	0.463300	0.891400	0.398900
C17941	C1794	0.435670	0.920610	0.406960
N6811	N681	0.589070	0.864130	0.484730
N6821	N682	0.645690	0.726460	0.386230
N6831	N683	0.627270	0.766810	0.399330
N6841	N684	0.579700	0.810520	0.403640
N6851	N685	0.590100	0.819610	0.438070
N6861	N686	0.560300	0.835230	0.422850
N6871	N687	0.525340	0.850400	0.371390
N6881	N688	0.501260	0.877220	0.342500
N6891	N689	0.479990	0.901140	0.374940
N6901	N690	0.436030	0.905600	0.421370
S1371	S137	0.673110	0.708880	0.415250
S1381	S138	0.495090	0.884300	0.300160
C17951	C1795	0.588950	0.350840	0.968780
H11051	H1105	0.601700	0.344000	0.965400
C17961	C1796	0.571550	0.346330	0.956840
C17971	C1797	0.552670	0.356000	0.961940
H11061	H1106	0.540400	0.353400	0.954000
C17981	C1798	0.552400	0.369440	0.978840
H11071	H1107	0.539800	0.376100	0.982900
C17991	C1799	0.570760	0.373100	0.989850
H11081	H1108	0.570400	0.382300	0.001500
C18001	C1800	0.656980	0.218790	0.898280
C18011	C1801	0.641370	0.265340	0.914820
H11091	H1109	0.652300	0.255300	0.913600
C18021	C1802	0.640560	0.277950	0.932640
H11101	H1110	0.651100	0.276900	0.943000
C18031	C1803	0.624490	0.291770	0.935010
H11111	H1111	0.623500	0.300200	0.947200
C18041	C1804	0.609430	0.293330	0.919060
C18051	C1805	0.611740	0.280650	0.901690
H11121	H1112	0.601700	0.281800	0.890800
C18061	C1806	0.592090	0.308470	0.920380
C18071	C1807	0.573810	0.332700	0.938230
C18081	C1808	0.564470	0.324220	0.905700
C18091	C1809	0.537580	0.345650	0.887250
H11131	H1113	0.537200	0.354400	0.899300
C18101	C1810	0.551220	0.328360	0.887290
C18111	C1811	0.552100	0.316010	0.869280
H11141	H1114	0.561200	0.304300	0.868500
C18121	C1812	0.539370	0.321410	0.852560
H11151	H1115	0.539700	0.313400	0.840000
C18131	C1813	0.526230	0.338420	0.854150
H11161	H1116	0.517500	0.341800	0.842600
C18141	C1814	0.498740	0.380090	0.824960
C18151	C1815	0.482400	0.417070	0.861360
H11171	H1117	0.492700	0.415900	0.850700
C18161	C1816	0.470750	0.434730	0.862140
H11181	H1118	0.473400	0.445900	0.852700
C18171	C1817	0.454810	0.436450	0.877020
H11191	H1119	0.446300	0.448600	0.877800
C18181	C1818	0.451780	0.419890	0.890670
C18191	C1819	0.465040	0.402590	0.889230
H11201	H1120	0.463300	0.391400	0.898900
C18201	C1820	0.435670	0.420610	0.906960
N6911	N691	0.589070	0.364130	0.984730
N6921	N692	0.645690	0.226460	0.886230
N6931	N693	0.627270	0.266810	0.899330
N6941	N694	0.579700	0.310520	0.903640
N6951	N695	0.590100	0.319610	0.938070
N6961	N696	0.560300	0.335230	0.922850
N6971	N697	0.525340	0.350400	0.871390
N6981	N698	0.501260	0.377220	0.842500
N6991	N699	0.479990	0.401140	0.874940
N7001	N700	0.436030	0.405600	0.921370
S1391	S139	0.673110	0.208880	0.915250
S1401	S140	0.495090	0.384300	0.800160
C18211	C1821	0.088950	0.850840	0.968780
H11211	H1121	0.101700	0.844000	0.965400
C18221	C1822	0.071550	0.846330	0.956840
C18231	C1823	0.052670	0.856000	0.961940
H11221	H1122	0.040400	0.853400	0.954000
C18241	C1824	0.052400	0.869440	0.978840
H11231	H1123	0.039800	0.876100	0.982900
C18251	C1825	0.070760	0.873100	0.989850
H11241	H1124	0.070400	0.882300	0.001500
C18261	C1826	0.156980	0.718790	0.898280
C18271	C1827	0.141370	0.765340	0.914820
H11251	H1125	0.152300	0.755300	0.913600
C18281	C1828	0.140560	0.777950	0.932640
H11261	H1126	0.151100	0.776900	0.943000
C18291	C1829	0.124490	0.791770	0.935010
H11271	H1127	0.123500	0.800200	0.947200
C18301	C1830	0.109430	0.793330	0.919060
C18311	C1831	0.111740	0.780650	0.901690
H11281	H1128	0.101700	0.781800	0.890800
C18321	C1832	0.092090	0.808470	0.920380
C18331	C1833	0.073810	0.832700	0.938230
C18341	C1834	0.064470	0.824220	0.905700
C18351	C1835	0.037580	0.845650	0.887250
H11291	H1129	0.037200	0.854400	0.899300
C18361	C1836	0.051220	0.828360	0.887290
C18371	C1837	0.052100	0.816010	0.869280
H11301	H1130	0.061200	0.804300	0.868500
C18381	C1838	0.039370	0.821410	0.852560
H11311	H1131	0.039700	0.813400	0.840000
C18391	C1839	0.026230	0.838420	0.854150
H11321	H1132	0.017500	0.841800	0.842600
C18401	C1840	0.998740	0.880090	0.824960
C18411	C1841	0.982400	0.917070	0.861360
H11331	H1133	0.992700	0.915900	0.850700
C18421	C1842	0.970750	0.934730	0.862140
H11341	H1134	0.973400	0.945900	0.852700
C18431	C1843	0.954810	0.936450	0.877020
H11351	H1135	0.946300	0.948600	0.877800
C18441	C1844	0.951780	0.919890	0.890670
C18451	C1845	0.965040	0.902590	0.889230
H11361	H1136	0.963300	0.891400	0.898900
C18461	C1846	0.935670	0.920610	0.906960
N7011	N701	0.089070	0.864130	0.984730
N7021	N702	0.145690	0.726460	0.886230
N7031	N703	0.127270	0.766810	0.899330
N7041	N704	0.079700	0.810520	0.903640
N7051	N705	0.090100	0.819610	0.938070
N7061	N706	0.060300	0.835230	0.922850
N7071	N707	0.025340	0.850400	0.871390
N7081	N708	0.001260	0.877220	0.842500
N7091	N709	0.979990	0.901140	0.874940
N7101	N710	0.936030	0.905600	0.921370
S1411	S141	0.173110	0.708880	0.915250
S1421	S142	0.995090	0.884300	0.800160
C18471	C1847	0.088950	0.350840	0.468780
H11371	H1137	0.101700	0.344000	0.465400
C18481	C1848	0.071550	0.346330	0.456840
C18491	C1849	0.052670	0.356000	0.461940
H11381	H1138	0.040400	0.353400	0.454000
C18501	C1850	0.052400	0.369440	0.478840
H11391	H1139	0.039800	0.376100	0.482900
C18511	C1851	0.070760	0.373100	0.489850
H11401	H1140	0.070400	0.382300	0.501500
C18521	C1852	0.156980	0.218790	0.398280
C18531	C1853	0.141370	0.265340	0.414820
H11411	H1141	0.152300	0.255300	0.413600
C18541	C1854	0.140560	0.277950	0.432640
H11421	H1142	0.151100	0.276900	0.443000
C18551	C1855	0.124490	0.291770	0.435010
H11431	H1143	0.123500	0.300200	0.447200
C18561	C1856	0.109430	0.293330	0.419060
C18571	C1857	0.111740	0.280650	0.401690
H11441	H1144	0.101700	0.281800	0.390800
C18581	C1858	0.092090	0.308470	0.420380
C18591	C1859	0.073810	0.332700	0.438230
C18601	C1860	0.064470	0.324220	0.405700
C18611	C1861	0.037580	0.345650	0.387250
H11451	H1145	0.037200	0.354400	0.399300
C18621	C1862	0.051220	0.328360	0.387290
C18631	C1863	0.052100	0.316010	0.369280
H11461	H1146	0.061200	0.304300	0.368500
C18641	C1864	0.039370	0.321410	0.352560
H11471	H1147	0.039700	0.313400	0.340000
C18651	C1865	0.026230	0.338420	0.354150
H11481	H1148	0.017500	0.341800	0.342600
C18661	C1866	0.998740	0.380090	0.324960
C18671	C1867	0.982400	0.417070	0.361360
H11491	H1149	0.992700	0.415900	0.350700
C18681	C1868	0.970750	0.434730	0.362140
H11501	H1150	0.973400	0.445900	0.352700
C18691	C1869	0.954810	0.436450	0.377020
H11511	H1151	0.946300	0.448600	0.377800
C18701	C1870	0.951780	0.419890	0.390670
C18711	C1871	0.965040	0.402590	0.389230
H11521	H1152	0.963300	0.391400	0.398900
C18721	C1872	0.935670	0.420610	0.406960
N7111	N711	0.089070	0.364130	0.484730
N7121	N712	0.145690	0.226460	0.386230
N7131	N713	0.127270	0.266810	0.399330
N7141	N714	0.079700	0.310520	0.403640
N7151	N715	0.090100	0.319610	0.438070
N7161	N716	0.060300	0.335230	0.422850
N7171	N717	0.025340	0.350400	0.371390
N7181	N718	0.001260	0.377220	0.342500
N7191	N719	0.979990	0.401140	0.374940
N7201	N720	0.936030	0.405600	0.421370
S1431	S143	0.173110	0.208880	0.415250
S1441	S144	0.995090	0.384300	0.300160
C18731	C1873	0.088950	0.399160	0.281220
H11531	H1153	0.101700	0.406000	0.284600
C18741	C1874	0.071550	0.403670	0.293160
C18751	C1875	0.052670	0.394000	0.288060
H11541	H1154	0.040400	0.396600	0.296000
C18761	C1876	0.052400	0.380560	0.271160
H11551	H1155	0.039800	0.373900	0.267100
C18771	C1877	0.070760	0.376900	0.260150
H11561	H1156	0.070400	0.367700	0.248500
C18781	C1878	0.156980	0.531210	0.351720
C18791	C1879	0.141370	0.484660	0.335180
H11571	H1157	0.152300	0.494700	0.336400
C18801	C1880	0.140560	0.472050	0.317360
H11581	H1158	0.151100	0.473100	0.307000
C18811	C1881	0.124490	0.458230	0.314990
H11591	H1159	0.123500	0.449800	0.302800
C18821	C1882	0.109430	0.456670	0.330940
C18831	C1883	0.111740	0.469350	0.348310
H11601	H1160	0.101700	0.468200	0.359200
C18841	C1884	0.092090	0.441530	0.329620
C18851	C1885	0.073810	0.417300	0.311770
C18861	C1886	0.064470	0.425780	0.344300
C18871	C1887	0.037580	0.404350	0.362750
H11611	H1161	0.037200	0.395600	0.350700
C18881	C1888	0.051220	0.421640	0.362710
C18891	C1889	0.052100	0.433990	0.380720
H11621	H1162	0.061200	0.445700	0.381500
C18901	C1890	0.039370	0.428590	0.397440
H11631	H1163	0.039700	0.436600	0.410000
C18911	C1891	0.026230	0.411580	0.395850
H11641	H1164	0.017500	0.408200	0.407400
C18921	C1892	0.998740	0.369910	0.425040
C18931	C1893	0.982400	0.332930	0.388640
H11651	H1165	0.992700	0.334100	0.399300
C18941	C1894	0.970750	0.315270	0.387860
H11661	H1166	0.973400	0.304100	0.397300
C18951	C1895	0.954810	0.313550	0.372980
H11671	H1167	0.946300	0.301400	0.372200
C18961	C1896	0.951780	0.330110	0.359330
C18971	C1897	0.965040	0.347410	0.360770
H11681	H1168	0.963300	0.358600	0.351100
C18981	C1898	0.935670	0.329390	0.343040
N7211	N721	0.089070	0.385870	0.265270
N7221	N722	0.145690	0.523540	0.363770
N7231	N723	0.127270	0.483190	0.350670
N7241	N724	0.079700	0.439480	0.346360
N7251	N725	0.090100	0.430390	0.311930
N7261	N726	0.060300	0.414770	0.327150
N7271	N727	0.025340	0.399600	0.378610
N7281	N728	0.001260	0.372780	0.407500
N7291	N729	0.979990	0.348860	0.375060
N7301	N730	0.936030	0.344400	0.328630
S1451	S145	0.173110	0.541120	0.334750
S1461	S146	0.995090	0.365700	0.449840
C18991	C1899	0.088950	0.899160	0.781220
H11691	H1169	0.101700	0.906000	0.784600
C19001	C1900	0.071550	0.903670	0.793160
C19011	C1901	0.052670	0.894000	0.788060
H11701	H1170	0.040400	0.896600	0.796000
C19021	C1902	0.052400	0.880560	0.771160
H11711	H1171	0.039800	0.873900	0.767100
C19031	C1903	0.070760	0.876900	0.760150
H11721	H1172	0.070400	0.867700	0.748500
C19041	C1904	0.156980	0.031210	0.851720
C19051	C1905	0.141370	0.984660	0.835180
H11731	H1173	0.152300	0.994700	0.836400
C19061	C1906	0.140560	0.972050	0.817360
H11741	H1174	0.151100	0.973100	0.807000
C19071	C1907	0.124490	0.958230	0.814990
H11751	H1175	0.123500	0.949800	0.802800
C19081	C1908	0.109430	0.956670	0.830940
C19091	C1909	0.111740	0.969350	0.848310
H11761	H1176	0.101700	0.968200	0.859200
C19101	C1910	0.092090	0.941530	0.829620
C19111	C1911	0.073810	0.917300	0.811770
C19121	C1912	0.064470	0.925780	0.844300
C19131	C1913	0.037580	0.904350	0.862750
H11771	H1177	0.037200	0.895600	0.850700
C19141	C1914	0.051220	0.921640	0.862710
C19151	C1915	0.052100	0.933990	0.880720
H11781	H1178	0.061200	0.945700	0.881500
C19161	C1916	0.039370	0.928590	0.897440
H11791	H1179	0.039700	0.936600	0.910000
C19171	C1917	0.026230	0.911580	0.895850
H11801	H1180	0.017500	0.908200	0.907400
C19181	C1918	0.998740	0.869910	0.925040
C19191	C1919	0.982400	0.832930	0.888640
H11811	H1181	0.992700	0.834100	0.899300
C19201	C1920	0.970750	0.815270	0.887860
H11821	H1182	0.973400	0.804100	0.897300
C19211	C1921	0.954810	0.813550	0.872980
H11831	H1183	0.946300	0.801400	0.872200
C19221	C1922	0.951780	0.830110	0.859330
C19231	C1923	0.965040	0.847410	0.860770
H11841	H1184	0.963300	0.858600	0.851100
C19241	C1924	0.935670	0.829390	0.843040
N7311	N731	0.089070	0.885870	0.765270
N7321	N732	0.145690	0.023540	0.863770
N7331	N733	0.127270	0.983190	0.850670
N7341	N734	0.079700	0.939480	0.846360
N7351	N735	0.090100	0.930390	0.811930
N7361	N736	0.060300	0.914770	0.827150
N7371	N737	0.025340	0.899600	0.878610
N7381	N738	0.001260	0.872780	0.907500
N7391	N739	0.979990	0.848860	0.875060
N7401	N740	0.936030	0.844400	0.828630
S1471	S147	0.173110	0.041120	0.834750
S1481	S148	0.995090	0.865700	0.949840
C19251	C1925	0.588950	0.399160	0.781220
H11851	H1185	0.601700	0.406000	0.784600
C19261	C1926	0.571550	0.403670	0.793160
C19271	C1927	0.552670	0.394000	0.788060
H11861	H1186	0.540400	0.396600	0.796000
C19281	C1928	0.552400	0.380560	0.771160
H11871	H1187	0.539800	0.373900	0.767100
C19291	C1929	0.570760	0.376900	0.760150
H11881	H1188	0.570400	0.367700	0.748500
C19301	C1930	0.656980	0.531210	0.851720
C19311	C1931	0.641370	0.484660	0.835180
H11891	H1189	0.652300	0.494700	0.836400
C19321	C1932	0.640560	0.472050	0.817360
H11901	H1190	0.651100	0.473100	0.807000
C19331	C1933	0.624490	0.458230	0.814990
H11911	H1191	0.623500	0.449800	0.802800
C19341	C1934	0.609430	0.456670	0.830940
C19351	C1935	0.611740	0.469350	0.848310
H11921	H1192	0.601700	0.468200	0.859200
C19361	C1936	0.592090	0.441530	0.829620
C19371	C1937	0.573810	0.417300	0.811770
C19381	C1938	0.564470	0.425780	0.844300
C19391	C1939	0.537580	0.404350	0.862750
H11931	H1193	0.537200	0.395600	0.850700
C19401	C1940	0.551220	0.421640	0.862710
C19411	C1941	0.552100	0.433990	0.880720
H11941	H1194	0.561200	0.445700	0.881500
C19421	C1942	0.539370	0.428590	0.897440
H11951	H1195	0.539700	0.436600	0.910000
C19431	C1943	0.526230	0.411580	0.895850
H11961	H1196	0.517500	0.408200	0.907400
C19441	C1944	0.498740	0.369910	0.925040
C19451	C1945	0.482400	0.332930	0.888640
H11971	H1197	0.492700	0.334100	0.899300
C19461	C1946	0.470750	0.315270	0.887860
H11981	H1198	0.473400	0.304100	0.897300
C19471	C1947	0.454810	0.313550	0.872980
H11991	H1199	0.446300	0.301400	0.872200
C19481	C1948	0.451780	0.330110	0.859330
C19491	C1949	0.465040	0.347410	0.860770
H12001	H1200	0.463300	0.358600	0.851100
C19501	C1950	0.435670	0.329390	0.843040
N7411	N741	0.589070	0.385870	0.765270
N7421	N742	0.645690	0.523540	0.863770
N7431	N743	0.627270	0.483190	0.850670
N7441	N744	0.579700	0.439480	0.846360
N7451	N745	0.590100	0.430390	0.811930
N7461	N746	0.560300	0.414770	0.827150
N7471	N747	0.525340	0.399600	0.878610
N7481	N748	0.501260	0.372780	0.907500
N7491	N749	0.479990	0.348860	0.875060
N7501	N750	0.436030	0.344400	0.828630
S1491	S149	0.673110	0.541120	0.834750
S1501	S150	0.495090	0.365700	0.949840
C19511	C1951	0.588950	0.899160	0.281220
H12011	H1201	0.601700	0.906000	0.284600
C19521	C1952	0.571550	0.903670	0.293160
C19531	C1953	0.552670	0.894000	0.288060
H12021	H1202	0.540400	0.896600	0.296000
C19541	C1954	0.552400	0.880560	0.271160
H12031	H1203	0.539800	0.873900	0.267100
C19551	C1955	0.570760	0.876900	0.260150
H12041	H1204	0.570400	0.867700	0.248500
C19561	C1956	0.656980	0.031210	0.351720
C19571	C1957	0.641370	0.984660	0.335180
H12051	H1205	0.652300	0.994700	0.336400
C19581	C1958	0.640560	0.972050	0.317360
H12061	H1206	0.651100	0.973100	0.307000
C19591	C1959	0.624490	0.958230	0.314990
H12071	H1207	0.623500	0.949800	0.302800
C19601	C1960	0.609430	0.956670	0.330940
C19611	C1961	0.611740	0.969350	0.348310
H12081	H1208	0.601700	0.968200	0.359200
C19621	C1962	0.592090	0.941530	0.329620
C19631	C1963	0.573810	0.917300	0.311770
C19641	C1964	0.564470	0.925780	0.344300
C19651	C1965	0.537580	0.904350	0.362750
H12091	H1209	0.537200	0.895600	0.350700
C19661	C1966	0.551220	0.921640	0.362710
C19671	C1967	0.552100	0.933990	0.380720
H12101	H1210	0.561200	0.945700	0.381500
C19681	C1968	0.539370	0.928590	0.397440
H12111	H1211	0.539700	0.936600	0.410000
C19691	C1969	0.526230	0.911580	0.395850
H12121	H1212	0.517500	0.908200	0.407400
C19701	C1970	0.498740	0.869910	0.425040
C19711	C1971	0.482400	0.832930	0.388640
H12131	H1213	0.492700	0.834100	0.399300
C19721	C1972	0.470750	0.815270	0.387860
H12141	H1214	0.473400	0.804100	0.397300
C19731	C1973	0.454810	0.813550	0.372980
H12151	H1215	0.446300	0.801400	0.372200
C19741	C1974	0.451780	0.830110	0.359330
C19751	C1975	0.465040	0.847410	0.360770
H12161	H1216	0.463300	0.858600	0.351100
C19761	C1976	0.435670	0.829390	0.343040
N7511	N751	0.589070	0.885870	0.265270
N7521	N752	0.645690	0.023540	0.363770
N7531	N753	0.627270	0.983190	0.350670
N7541	N754	0.579700	0.939480	0.346360
N7551	N755	0.590100	0.930390	0.311930
N7561	N756	0.560300	0.914770	0.327150
N7571	N757	0.525340	0.899600	0.378610
N7581	N758	0.501260	0.872780	0.407500
N7591	N759	0.479990	0.848860	0.375060
N7601	N760	0.436030	0.844400	0.328630
S1511	S151	0.673110	0.041120	0.334750
S1521	S152	0.495090	0.865700	0.449840
C19771	C1977	0.661050	0.899160	0.968780
H12171	H1217	0.648300	0.906000	0.965400
C19781	C1978	0.678450	0.903670	0.956840
C19791	C1979	0.697330	0.894000	0.961940
H12181	H1218	0.709600	0.896600	0.954000
C19801	C1980	0.697600	0.880560	0.978840
H12191	H1219	0.710200	0.873900	0.982900
C19811	C1981	0.679240	0.876900	0.989850
H12201	H1220	0.679600	0.867700	0.001500
C19821	C1982	0.593020	0.031210	0.898280
C19831	C1983	0.608630	0.984660	0.914820
H12211	H1221	0.597700	0.994700	0.913600
C19841	C1984	0.609440	0.972050	0.932640
H12221	H1222	0.598900	0.973100	0.943000
C19851	C1985	0.625510	0.958230	0.935010
H12231	H1223	0.626500	0.949800	0.947200
C19861	C1986	0.640570	0.956670	0.919060
C19871	C1987	0.638260	0.969350	0.901690
H12241	H1224	0.648300	0.968200	0.890800
C19881	C1988	0.657910	0.941530	0.920380
C19891	C1989	0.676190	0.917300	0.938230
C19901	C1990	0.685530	0.925780	0.905700
C19911	C1991	0.712420	0.904350	0.887250
H12251	H1225	0.712800	0.895600	0.899300
C19921	C1992	0.698780	0.921640	0.887290
C19931	C1993	0.697900	0.933990	0.869280
H12261	H1226	0.688800	0.945700	0.868500
C19941	C1994	0.710630	0.928590	0.852560
H12271	H1227	0.710300	0.936600	0.840000
C19951	C1995	0.723770	0.911580	0.854150
H12281	H1228	0.732500	0.908200	0.842600
C19961	C1996	0.751260	0.869910	0.824960
C19971	C1997	0.767600	0.832930	0.861360
H12291	H1229	0.757300	0.834100	0.850700
C19981	C1998	0.779250	0.815270	0.862140
H12301	H1230	0.776600	0.804100	0.852700
C19991	C1999	0.795190	0.813550	0.877020
H12311	H1231	0.803700	0.801400	0.877800
C20001	C2000	0.798220	0.830110	0.890670
C20011	C2001	0.784960	0.847410	0.889230
H12321	H1232	0.786700	0.858600	0.898900
C20021	C2002	0.814330	0.829390	0.906960
N7611	N761	0.660930	0.885870	0.984730
N7621	N762	0.604310	0.023540	0.886230
N7631	N763	0.622730	0.983190	0.899330
N7641	N764	0.670300	0.939480	0.903640
N7651	N765	0.659900	0.930390	0.938070
N7661	N766	0.689700	0.914770	0.922850
N7671	N767	0.724660	0.899600	0.871390
N7681	N768	0.748740	0.872780	0.842500
N7691	N769	0.770010	0.848860	0.874940
N7701	N770	0.813970	0.844400	0.921370
S1531	S153	0.576890	0.041120	0.915250
S1541	S154	0.754910	0.865700	0.800160
C20031	C2003	0.661050	0.399160	0.468780
H12331	H1233	0.648300	0.406000	0.465400
C20041	C2004	0.678450	0.403670	0.456840
C20051	C2005	0.697330	0.394000	0.461940
H12341	H1234	0.709600	0.396600	0.454000
C20061	C2006	0.697600	0.380560	0.478840
H12351	H1235	0.710200	0.373900	0.482900
C20071	C2007	0.679240	0.376900	0.489850
H12361	H1236	0.679600	0.367700	0.501500
C20081	C2008	0.593020	0.531210	0.398280
C20091	C2009	0.608630	0.484660	0.414820
H12371	H1237	0.597700	0.494700	0.413600
C20101	C2010	0.609440	0.472050	0.432640
H12381	H1238	0.598900	0.473100	0.443000
C20111	C2011	0.625510	0.458230	0.435010
H12391	H1239	0.626500	0.449800	0.447200
C20121	C2012	0.640570	0.456670	0.419060
C20131	C2013	0.638260	0.469350	0.401690
H12401	H1240	0.648300	0.468200	0.390800
C20141	C2014	0.657910	0.441530	0.420380
C20151	C2015	0.676190	0.417300	0.438230
C20161	C2016	0.685530	0.425780	0.405700
C20171	C2017	0.712420	0.404350	0.387250
H12411	H1241	0.712800	0.395600	0.399300
C20181	C2018	0.698780	0.421640	0.387290
C20191	C2019	0.697900	0.433990	0.369280
H12421	H1242	0.688800	0.445700	0.368500
C20201	C2020	0.710630	0.428590	0.352560
H12431	H1243	0.710300	0.436600	0.340000
C20211	C2021	0.723770	0.411580	0.354150
H12441	H1244	0.732500	0.408200	0.342600
C20221	C2022	0.751260	0.369910	0.324960
C20231	C2023	0.767600	0.332930	0.361360
H12451	H1245	0.757300	0.334100	0.350700
C20241	C2024	0.779250	0.315270	0.362140
H12461	H1246	0.776600	0.304100	0.352700
C20251	C2025	0.795190	0.313550	0.377020
H12471	H1247	0.803700	0.301400	0.377800
C20261	C2026	0.798220	0.330110	0.390670
C20271	C2027	0.784960	0.347410	0.389230
H12481	H1248	0.786700	0.358600	0.398900
C20281	C2028	0.814330	0.329390	0.406960
N7711	N771	0.660930	0.385870	0.484730
N7721	N772	0.604310	0.523540	0.386230
N7731	N773	0.622730	0.483190	0.399330
N7741	N774	0.670300	0.439480	0.403640
N7751	N775	0.659900	0.430390	0.438070
N7761	N776	0.689700	0.414770	0.422850
N7771	N777	0.724660	0.399600	0.371390
N7781	N778	0.748740	0.372780	0.342500
N7791	N779	0.770010	0.348860	0.374940
N7801	N780	0.813970	0.344400	0.421370
S1551	S155	0.576890	0.541120	0.415250
S1561	S156	0.754910	0.365700	0.300160
C20291	C2029	0.161050	0.899160	0.468780
H12491	H1249	0.148300	0.906000	0.465400
C20301	C2030	0.178450	0.903670	0.456840
C20311	C2031	0.197330	0.894000	0.461940
H12501	H1250	0.209600	0.896600	0.454000
C20321	C2032	0.197600	0.880560	0.478840
H12511	H1251	0.210200	0.873900	0.482900
C20331	C2033	0.179240	0.876900	0.489850
H12521	H1252	0.179600	0.867700	0.501500
C20341	C2034	0.093020	0.031210	0.398280
C20351	C2035	0.108630	0.984660	0.414820
H12531	H1253	0.097700	0.994700	0.413600
C20361	C2036	0.109440	0.972050	0.432640
H12541	H1254	0.098900	0.973100	0.443000
C20371	C2037	0.125510	0.958230	0.435010
H12551	H1255	0.126500	0.949800	0.447200
C20381	C2038	0.140570	0.956670	0.419060
C20391	C2039	0.138260	0.969350	0.401690
H12561	H1256	0.148300	0.968200	0.390800
C20401	C2040	0.157910	0.941530	0.420380
C20411	C2041	0.176190	0.917300	0.438230
C20421	C2042	0.185530	0.925780	0.405700
C20431	C2043	0.212420	0.904350	0.387250
H12571	H1257	0.212800	0.895600	0.399300
C20441	C2044	0.198780	0.921640	0.387290
C20451	C2045	0.197900	0.933990	0.369280
H12581	H1258	0.188800	0.945700	0.368500
C20461	C2046	0.210630	0.928590	0.352560
H12591	H1259	0.210300	0.936600	0.340000
C20471	C2047	0.223770	0.911580	0.354150
H12601	H1260	0.232500	0.908200	0.342600
C20481	C2048	0.251260	0.869910	0.324960
C20491	C2049	0.267600	0.832930	0.361360
H12611	H1261	0.257300	0.834100	0.350700
C20501	C2050	0.279250	0.815270	0.362140
H12621	H1262	0.276600	0.804100	0.352700
C20511	C2051	0.295190	0.813550	0.377020
H12631	H1263	0.303700	0.801400	0.377800
C20521	C2052	0.298220	0.830110	0.390670
C20531	C2053	0.284960	0.847410	0.389230
H12641	H1264	0.286700	0.858600	0.398900
C20541	C2054	0.314330	0.829390	0.406960
N7811	N781	0.160930	0.885870	0.484730
N7821	N782	0.104310	0.023540	0.386230
N7831	N783	0.122730	0.983190	0.399330
N7841	N784	0.170300	0.939480	0.403640
N7851	N785	0.159900	0.930390	0.438070
N7861	N786	0.189700	0.914770	0.422850
N7871	N787	0.224660	0.899600	0.371390
N7881	N788	0.248740	0.872780	0.342500
N7891	N789	0.270010	0.848860	0.374940
N7901	N790	0.313970	0.844400	0.421370
S1571	S157	0.076890	0.041120	0.415250
S1581	S158	0.254910	0.865700	0.300160
C20551	C2055	0.161050	0.399160	0.968780
H12651	H1265	0.148300	0.406000	0.965400
C20561	C2056	0.178450	0.403670	0.956840
C20571	C2057	0.197330	0.394000	0.961940
H12661	H1266	0.209600	0.396600	0.954000
C20581	C2058	0.197600	0.380560	0.978840
H12671	H1267	0.210200	0.373900	0.982900
C20591	C2059	0.179240	0.376900	0.989850
H12681	H1268	0.179600	0.367700	0.001500
C20601	C2060	0.093020	0.531210	0.898280
C20611	C2061	0.108630	0.484660	0.914820
H12691	H1269	0.097700	0.494700	0.913600
C20621	C2062	0.109440	0.472050	0.932640
H12701	H1270	0.098900	0.473100	0.943000
C20631	C2063	0.125510	0.458230	0.935010
H12711	H1271	0.126500	0.449800	0.947200
C20641	C2064	0.140570	0.456670	0.919060
C20651	C2065	0.138260	0.469350	0.901690
H12721	H1272	0.148300	0.468200	0.890800
C20661	C2066	0.157910	0.441530	0.920380
C20671	C2067	0.176190	0.417300	0.938230
C20681	C2068	0.185530	0.425780	0.905700
C20691	C2069	0.212420	0.404350	0.887250
H12731	H1273	0.212800	0.395600	0.899300
C20701	C2070	0.198780	0.421640	0.887290
C20711	C2071	0.197900	0.433990	0.869280
H12741	H1274	0.188800	0.445700	0.868500
C20721	C2072	0.210630	0.428590	0.852560
H12751	H1275	0.210300	0.436600	0.840000
C20731	C2073	0.223770	0.411580	0.854150
H12761	H1276	0.232500	0.408200	0.842600
C20741	C2074	0.251260	0.369910	0.824960
C20751	C2075	0.267600	0.332930	0.861360
H12771	H1277	0.257300	0.334100	0.850700
C20761	C2076	0.279250	0.315270	0.862140
H12781	H1278	0.276600	0.304100	0.852700
C20771	C2077	0.295190	0.313550	0.877020
H12791	H1279	0.303700	0.301400	0.877800
C20781	C2078	0.298220	0.330110	0.890670
C20791	C2079	0.284960	0.347410	0.889230
H12801	H1280	0.286700	0.358600	0.898900
C20801	C2080	0.314330	0.329390	0.906960
N7911	N791	0.160930	0.385870	0.984730
N7921	N792	0.104310	0.523540	0.886230
N7931	N793	0.122730	0.483190	0.899330
N7941	N794	0.170300	0.439480	0.903640
N7951	N795	0.159900	0.430390	0.938070
N7961	N796	0.189700	0.414770	0.922850
N7971	N797	0.224660	0.399600	0.871390
N7981	N798	0.248740	0.372780	0.842500
N7991	N799	0.270010	0.348860	0.874940
N8001	N800	0.313970	0.344400	0.921370
S1591	S159	0.076890	0.541120	0.915250
S1601	S160	0.254910	0.365700	0.800160
C20811	C2081	0.850840	0.468780	0.588950
H12811	H1281	0.844000	0.465400	0.601700
C20821	C2082	0.846330	0.456840	0.571550
C20831	C2083	0.856000	0.461940	0.552670
H12821	H1282	0.853400	0.454000	0.540400
C20841	C2084	0.869440	0.478840	0.552400
H12831	H1283	0.876100	0.482900	0.539800
C20851	C2085	0.873100	0.489850	0.570760
H12841	H1284	0.882300	0.501500	0.570400
C20861	C2086	0.718790	0.398280	0.656980
C20871	C2087	0.765340	0.414820	0.641370
H12851	H1285	0.755300	0.413600	0.652300
C20881	C2088	0.777950	0.432640	0.640560
H12861	H1286	0.776900	0.443000	0.651100
C20891	C2089	0.791770	0.435010	0.624490
H12871	H1287	0.800200	0.447200	0.623500
C20901	C2090	0.793330	0.419060	0.609430
C20911	C2091	0.780650	0.401690	0.611740
H12881	H1288	0.781800	0.390800	0.601700
C20921	C2092	0.808470	0.420380	0.592090
C20931	C2093	0.832700	0.438230	0.573810
C20941	C2094	0.824220	0.405700	0.564470
C20951	C2095	0.845650	0.387250	0.537580
H12891	H1289	0.854400	0.399300	0.537200
C20961	C2096	0.828360	0.387290	0.551220
C20971	C2097	0.816010	0.369280	0.552100
H12901	H1290	0.804300	0.368500	0.561200
C20981	C2098	0.821410	0.352560	0.539370
H12911	H1291	0.813400	0.340000	0.539700
C20991	C2099	0.838420	0.354150	0.526230
H12921	H1292	0.841800	0.342600	0.517500
C21001	C2100	0.880090	0.324960	0.498740
C21011	C2101	0.917070	0.361360	0.482400
H12931	H1293	0.915900	0.350700	0.492700
C21021	C2102	0.934730	0.362140	0.470750
H12941	H1294	0.945900	0.352700	0.473400
C21031	C2103	0.936450	0.377020	0.454810
H12951	H1295	0.948600	0.377800	0.446300
C21041	C2104	0.919890	0.390670	0.451780
C21051	C2105	0.902590	0.389230	0.465040
H12961	H1296	0.891400	0.398900	0.463300
C21061	C2106	0.920610	0.406960	0.435670
N8011	N801	0.864130	0.484730	0.589070
N8021	N802	0.726460	0.386230	0.645690
N8031	N803	0.766810	0.399330	0.627270
N8041	N804	0.810520	0.403640	0.579700
N8051	N805	0.819610	0.438070	0.590100
N8061	N806	0.835230	0.422850	0.560300
N8071	N807	0.850400	0.371390	0.525340
N8081	N808	0.877220	0.342500	0.501260
N8091	N809	0.901140	0.374940	0.479990
N8101	N810	0.905600	0.421370	0.436030
S1611	S161	0.708880	0.415250	0.673110
S1621	S162	0.884300	0.300160	0.495090
C21071	C2107	0.850840	0.968780	0.088950
H12971	H1297	0.844000	0.965400	0.101700
C21081	C2108	0.846330	0.956840	0.071550
C21091	C2109	0.856000	0.961940	0.052670
H12981	H1298	0.853400	0.954000	0.040400
C21101	C2110	0.869440	0.978840	0.052400
H12991	H1299	0.876100	0.982900	0.039800
C21111	C2111	0.873100	0.989850	0.070760
H13001	H1300	0.882300	0.001500	0.070400
C21121	C2112	0.718790	0.898280	0.156980
C21131	C2113	0.765340	0.914820	0.141370
H13011	H1301	0.755300	0.913600	0.152300
C21141	C2114	0.777950	0.932640	0.140560
H13021	H1302	0.776900	0.943000	0.151100
C21151	C2115	0.791770	0.935010	0.124490
H13031	H1303	0.800200	0.947200	0.123500
C21161	C2116	0.793330	0.919060	0.109430
C21171	C2117	0.780650	0.901690	0.111740
H13041	H1304	0.781800	0.890800	0.101700
C21181	C2118	0.808470	0.920380	0.092090
C21191	C2119	0.832700	0.938230	0.073810
C21201	C2120	0.824220	0.905700	0.064470
C21211	C2121	0.845650	0.887250	0.037580
H13051	H1305	0.854400	0.899300	0.037200
C21221	C2122	0.828360	0.887290	0.051220
C21231	C2123	0.816010	0.869280	0.052100
H13061	H1306	0.804300	0.868500	0.061200
C21241	C2124	0.821410	0.852560	0.039370
H13071	H1307	0.813400	0.840000	0.039700
C21251	C2125	0.838420	0.854150	0.026230
H13081	H1308	0.841800	0.842600	0.017500
C21261	C2126	0.880090	0.824960	0.998740
C21271	C2127	0.917070	0.861360	0.982400
H13091	H1309	0.915900	0.850700	0.992700
C21281	C2128	0.934730	0.862140	0.970750
H13101	H1310	0.945900	0.852700	0.973400
C21291	C2129	0.936450	0.877020	0.954810
H13111	H1311	0.948600	0.877800	0.946300
C21301	C2130	0.919890	0.890670	0.951780
C21311	C2131	0.902590	0.889230	0.965040
H13121	H1312	0.891400	0.898900	0.963300
C21321	C2132	0.920610	0.906960	0.935670
N8111	N811	0.864130	0.984730	0.089070
N8121	N812	0.726460	0.886230	0.145690
N8131	N813	0.766810	0.899330	0.127270
N8141	N814	0.810520	0.903640	0.079700
N8151	N815	0.819610	0.938070	0.090100
N8161	N816	0.835230	0.922850	0.060300
N8171	N817	0.850400	0.871390	0.025340
N8181	N818	0.877220	0.842500	0.001260
N8191	N819	0.901140	0.874940	0.979990
N8201	N820	0.905600	0.921370	0.936030
S1631	S163	0.708880	0.915250	0.173110
S1641	S164	0.884300	0.800160	0.995090
C21331	C2133	0.350840	0.468780	0.088950
H13131	H1313	0.344000	0.465400	0.101700
C21341	C2134	0.346330	0.456840	0.071550
C21351	C2135	0.356000	0.461940	0.052670
H13141	H1314	0.353400	0.454000	0.040400
C21361	C2136	0.369440	0.478840	0.052400
H13151	H1315	0.376100	0.482900	0.039800
C21371	C2137	0.373100	0.489850	0.070760
H13161	H1316	0.382300	0.501500	0.070400
C21381	C2138	0.218790	0.398280	0.156980
C21391	C2139	0.265340	0.414820	0.141370
H13171	H1317	0.255300	0.413600	0.152300
C21401	C2140	0.277950	0.432640	0.140560
H13181	H1318	0.276900	0.443000	0.151100
C21411	C2141	0.291770	0.435010	0.124490
H13191	H1319	0.300200	0.447200	0.123500
C21421	C2142	0.293330	0.419060	0.109430
C21431	C2143	0.280650	0.401690	0.111740
H13201	H1320	0.281800	0.390800	0.101700
C21441	C2144	0.308470	0.420380	0.092090
C21451	C2145	0.332700	0.438230	0.073810
C21461	C2146	0.324220	0.405700	0.064470
C21471	C2147	0.345650	0.387250	0.037580
H13211	H1321	0.354400	0.399300	0.037200
C21481	C2148	0.328360	0.387290	0.051220
C21491	C2149	0.316010	0.369280	0.052100
H13221	H1322	0.304300	0.368500	0.061200
C21501	C2150	0.321410	0.352560	0.039370
H13231	H1323	0.313400	0.340000	0.039700
C21511	C2151	0.338420	0.354150	0.026230
H13241	H1324	0.341800	0.342600	0.017500
C21521	C2152	0.380090	0.324960	0.998740
C21531	C2153	0.417070	0.361360	0.982400
H13251	H1325	0.415900	0.350700	0.992700
C21541	C2154	0.434730	0.362140	0.970750
H13261	H1326	0.445900	0.352700	0.973400
C21551	C2155	0.436450	0.377020	0.954810
H13271	H1327	0.448600	0.377800	0.946300
C21561	C2156	0.419890	0.390670	0.951780
C21571	C2157	0.402590	0.389230	0.965040
H13281	H1328	0.391400	0.398900	0.963300
C21581	C2158	0.420610	0.406960	0.935670
N8211	N821	0.364130	0.484730	0.089070
N8221	N822	0.226460	0.386230	0.145690
N8231	N823	0.266810	0.399330	0.127270
N8241	N824	0.310520	0.403640	0.079700
N8251	N825	0.319610	0.438070	0.090100
N8261	N826	0.335230	0.422850	0.060300
N8271	N827	0.350400	0.371390	0.025340
N8281	N828	0.377220	0.342500	0.001260
N8291	N829	0.401140	0.374940	0.979990
N8301	N830	0.405600	0.421370	0.936030
S1651	S165	0.208880	0.415250	0.173110
S1661	S166	0.384300	0.300160	0.995090
C21591	C2159	0.350840	0.968780	0.588950
H13291	H1329	0.344000	0.965400	0.601700
C21601	C2160	0.346330	0.956840	0.571550
C21611	C2161	0.356000	0.961940	0.552670
H13301	H1330	0.353400	0.954000	0.540400
C21621	C2162	0.369440	0.978840	0.552400
H13311	H1331	0.376100	0.982900	0.539800
C21631	C2163	0.373100	0.989850	0.570760
H13321	H1332	0.382300	0.001500	0.570400
C21641	C2164	0.218790	0.898280	0.656980
C21651	C2165	0.265340	0.914820	0.641370
H13331	H1333	0.255300	0.913600	0.652300
C21661	C2166	0.277950	0.932640	0.640560
H13341	H1334	0.276900	0.943000	0.651100
C21671	C2167	0.291770	0.935010	0.624490
H13351	H1335	0.300200	0.947200	0.623500
C21681	C2168	0.293330	0.919060	0.609430
C21691	C2169	0.280650	0.901690	0.611740
H13361	H1336	0.281800	0.890800	0.601700
C21701	C2170	0.308470	0.920380	0.592090
C21711	C2171	0.332700	0.938230	0.573810
C21721	C2172	0.324220	0.905700	0.564470
C21731	C2173	0.345650	0.887250	0.537580
H13371	H1337	0.354400	0.899300	0.537200
C21741	C2174	0.328360	0.887290	0.551220
C21751	C2175	0.316010	0.869280	0.552100
H13381	H1338	0.304300	0.868500	0.561200
C21761	C2176	0.321410	0.852560	0.539370
H13391	H1339	0.313400	0.840000	0.539700
C21771	C2177	0.338420	0.854150	0.526230
H13401	H1340	0.341800	0.842600	0.517500
C21781	C2178	0.380090	0.824960	0.498740
C21791	C2179	0.417070	0.861360	0.482400
H13411	H1341	0.415900	0.850700	0.492700
C21801	C2180	0.434730	0.862140	0.470750
H13421	H1342	0.445900	0.852700	0.473400
C21811	C2181	0.436450	0.877020	0.454810
H13431	H1343	0.448600	0.877800	0.446300
C21821	C2182	0.419890	0.890670	0.451780
C21831	C2183	0.402590	0.889230	0.465040
H13441	H1344	0.391400	0.898900	0.463300
C21841	C2184	0.420610	0.906960	0.435670
N8311	N831	0.364130	0.984730	0.589070
N8321	N832	0.226460	0.886230	0.645690
N8331	N833	0.266810	0.899330	0.627270
N8341	N834	0.310520	0.903640	0.579700
N8351	N835	0.319610	0.938070	0.590100
N8361	N836	0.335230	0.922850	0.560300
N8371	N837	0.350400	0.871390	0.525340
N8381	N838	0.377220	0.842500	0.501260
N8391	N839	0.401140	0.874940	0.479990
N8401	N840	0.405600	0.921370	0.436030
S1671	S167	0.208880	0.915250	0.673110
S1681	S168	0.384300	0.800160	0.495090
C21851	C2185	0.350840	0.781220	0.161050
H13451	H1345	0.344000	0.784600	0.148300
C21861	C2186	0.346330	0.793160	0.178450
C21871	C2187	0.356000	0.788060	0.197330
H13461	H1346	0.353400	0.796000	0.209600
C21881	C2188	0.369440	0.771160	0.197600
H13471	H1347	0.376100	0.767100	0.210200
C21891	C2189	0.373100	0.760150	0.179240
H13481	H1348	0.382300	0.748500	0.179600
C21901	C2190	0.218790	0.851720	0.093020
C21911	C2191	0.265340	0.835180	0.108630
H13491	H1349	0.255300	0.836400	0.097700
C21921	C2192	0.277950	0.817360	0.109440
H13501	H1350	0.276900	0.807000	0.098900
C21931	C2193	0.291770	0.814990	0.125510
H13511	H1351	0.300200	0.802800	0.126500
C21941	C2194	0.293330	0.830940	0.140570
C21951	C2195	0.280650	0.848310	0.138260
H13521	H1352	0.281800	0.859200	0.148300
C21961	C2196	0.308470	0.829620	0.157910
C21971	C2197	0.332700	0.811770	0.176190
C21981	C2198	0.324220	0.844300	0.185530
C21991	C2199	0.345650	0.862750	0.212420
H13531	H1353	0.354400	0.850700	0.212800
C22001	C2200	0.328360	0.862710	0.198780
C22011	C2201	0.316010	0.880720	0.197900
H13541	H1354	0.304300	0.881500	0.188800
C22021	C2202	0.321410	0.897440	0.210630
H13551	H1355	0.313400	0.910000	0.210300
C22031	C2203	0.338420	0.895850	0.223770
H13561	H1356	0.341800	0.907400	0.232500
C22041	C2204	0.380090	0.925040	0.251260
C22051	C2205	0.417070	0.888640	0.267600
H13571	H1357	0.415900	0.899300	0.257300
C22061	C2206	0.434730	0.887860	0.279250
H13581	H1358	0.445900	0.897300	0.276600
C22071	C2207	0.436450	0.872980	0.295190
H13591	H1359	0.448600	0.872200	0.303700
C22081	C2208	0.419890	0.859330	0.298220
C22091	C2209	0.402590	0.860770	0.284960
H13601	H1360	0.391400	0.851100	0.286700
C22101	C2210	0.420610	0.843040	0.314330
N8411	N841	0.364130	0.765270	0.160930
N8421	N842	0.226460	0.863770	0.104310
N8431	N843	0.266810	0.850670	0.122730
N8441	N844	0.310520	0.846360	0.170300
N8451	N845	0.319610	0.811930	0.159900
N8461	N846	0.335230	0.827150	0.189700
N8471	N847	0.350400	0.878610	0.224660
N8481	N848	0.377220	0.907500	0.248740
N8491	N849	0.401140	0.875060	0.270010
N8501	N850	0.405600	0.828630	0.313970
S1691	S169	0.208880	0.834750	0.076890
S1701	S170	0.384300	0.949840	0.254910
C22111	C2211	0.350840	0.281220	0.661050
H13611	H1361	0.344000	0.284600	0.648300
C22121	C2212	0.346330	0.293160	0.678450
C22131	C2213	0.356000	0.288060	0.697330
H13621	H1362	0.353400	0.296000	0.709600
C22141	C2214	0.369440	0.271160	0.697600
H13631	H1363	0.376100	0.267100	0.710200
C22151	C2215	0.373100	0.260150	0.679240
H13641	H1364	0.382300	0.248500	0.679600
C22161	C2216	0.218790	0.351720	0.593020
C22171	C2217	0.265340	0.335180	0.608630
H13651	H1365	0.255300	0.336400	0.597700
C22181	C2218	0.277950	0.317360	0.609440
H13661	H1366	0.276900	0.307000	0.598900
C22191	C2219	0.291770	0.314990	0.625510
H13671	H1367	0.300200	0.302800	0.626500
C22201	C2220	0.293330	0.330940	0.640570
C22211	C2221	0.280650	0.348310	0.638260
H13681	H1368	0.281800	0.359200	0.648300
C22221	C2222	0.308470	0.329620	0.657910
C22231	C2223	0.332700	0.311770	0.676190
C22241	C2224	0.324220	0.344300	0.685530
C22251	C2225	0.345650	0.362750	0.712420
H13691	H1369	0.354400	0.350700	0.712800
C22261	C2226	0.328360	0.362710	0.698780
C22271	C2227	0.316010	0.380720	0.697900
H13701	H1370	0.304300	0.381500	0.688800
C22281	C2228	0.321410	0.397440	0.710630
H13711	H1371	0.313400	0.410000	0.710300
C22291	C2229	0.338420	0.395850	0.723770
H13721	H1372	0.341800	0.407400	0.732500
C22301	C2230	0.380090	0.425040	0.751260
C22311	C2231	0.417070	0.388640	0.767600
H13731	H1373	0.415900	0.399300	0.757300
C22321	C2232	0.434730	0.387860	0.779250
H13741	H1374	0.445900	0.397300	0.776600
C22331	C2233	0.436450	0.372980	0.795190
H13751	H1375	0.448600	0.372200	0.803700
C22341	C2234	0.419890	0.359330	0.798220
C22351	C2235	0.402590	0.360770	0.784960
H13761	H1376	0.391400	0.351100	0.786700
C22361	C2236	0.420610	0.343040	0.814330
N8511	N851	0.364130	0.265270	0.660930
N8521	N852	0.226460	0.363770	0.604310
N8531	N853	0.266810	0.350670	0.622730
N8541	N854	0.310520	0.346360	0.670300
N8551	N855	0.319610	0.311930	0.659900
N8561	N856	0.335230	0.327150	0.689700
N8571	N857	0.350400	0.378610	0.724660
N8581	N858	0.377220	0.407500	0.748740
N8591	N859	0.401140	0.375060	0.770010
N8601	N860	0.405600	0.328630	0.813970
S1711	S171	0.208880	0.334750	0.576890
S1721	S172	0.384300	0.449840	0.754910
C22371	C2237	0.850840	0.781220	0.661050
H13771	H1377	0.844000	0.784600	0.648300
C22381	C2238	0.846330	0.793160	0.678450
C22391	C2239	0.856000	0.788060	0.697330
H13781	H1378	0.853400	0.796000	0.709600
C22401	C2240	0.869440	0.771160	0.697600
H13791	H1379	0.876100	0.767100	0.710200
C22411	C2241	0.873100	0.760150	0.679240
H13801	H1380	0.882300	0.748500	0.679600
C22421	C2242	0.718790	0.851720	0.593020
C22431	C2243	0.765340	0.835180	0.608630
H13811	H1381	0.755300	0.836400	0.597700
C22441	C2244	0.777950	0.817360	0.609440
H13821	H1382	0.776900	0.807000	0.598900
C22451	C2245	0.791770	0.814990	0.625510
H13831	H1383	0.800200	0.802800	0.626500
C22461	C2246	0.793330	0.830940	0.640570
C22471	C2247	0.780650	0.848310	0.638260
H13841	H1384	0.781800	0.859200	0.648300
C22481	C2248	0.808470	0.829620	0.657910
C22491	C2249	0.832700	0.811770	0.676190
C22501	C2250	0.824220	0.844300	0.685530
C22511	C2251	0.845650	0.862750	0.712420
H13851	H1385	0.854400	0.850700	0.712800
C22521	C2252	0.828360	0.862710	0.698780
C22531	C2253	0.816010	0.880720	0.697900
H13861	H1386	0.804300	0.881500	0.688800
C22541	C2254	0.821410	0.897440	0.710630
H13871	H1387	0.813400	0.910000	0.710300
C22551	C2255	0.838420	0.895850	0.723770
H13881	H1388	0.841800	0.907400	0.732500
C22561	C2256	0.880090	0.925040	0.751260
C22571	C2257	0.917070	0.888640	0.767600
H13891	H1389	0.915900	0.899300	0.757300
C22581	C2258	0.934730	0.887860	0.779250
H13901	H1390	0.945900	0.897300	0.776600
C22591	C2259	0.936450	0.872980	0.795190
H13911	H1391	0.948600	0.872200	0.803700
C22601	C2260	0.919890	0.859330	0.798220
C22611	C2261	0.902590	0.860770	0.784960
H13921	H1392	0.891400	0.851100	0.786700
C22621	C2262	0.920610	0.843040	0.814330
N8611	N861	0.864130	0.765270	0.660930
N8621	N862	0.726460	0.863770	0.604310
N8631	N863	0.766810	0.850670	0.622730
N8641	N864	0.810520	0.846360	0.670300
N8651	N865	0.819610	0.811930	0.659900
N8661	N866	0.835230	0.827150	0.689700
N8671	N867	0.850400	0.878610	0.724660
N8681	N868	0.877220	0.907500	0.748740
N8691	N869	0.901140	0.875060	0.770010
N8701	N870	0.905600	0.828630	0.813970
S1731	S173	0.708880	0.834750	0.576890
S1741	S174	0.884300	0.949840	0.754910
C22631	C2263	0.850840	0.281220	0.161050
H13931	H1393	0.844000	0.284600	0.148300
C22641	C2264	0.846330	0.293160	0.178450
C22651	C2265	0.856000	0.288060	0.197330
H13941	H1394	0.853400	0.296000	0.209600
C22661	C2266	0.869440	0.271160	0.197600
H13951	H1395	0.876100	0.267100	0.210200
C22671	C2267	0.873100	0.260150	0.179240
H13961	H1396	0.882300	0.248500	0.179600
C22681	C2268	0.718790	0.351720	0.093020
C22691	C2269	0.765340	0.335180	0.108630
H13971	H1397	0.755300	0.336400	0.097700
C22701	C2270	0.777950	0.317360	0.109440
H13981	H1398	0.776900	0.307000	0.098900
C22711	C2271	0.791770	0.314990	0.125510
H13991	H1399	0.800200	0.302800	0.126500
C22721	C2272	0.793330	0.330940	0.140570
C22731	C2273	0.780650	0.348310	0.138260
H14001	H1400	0.781800	0.359200	0.148300
C22741	C2274	0.808470	0.329620	0.157910
C22751	C2275	0.832700	0.311770	0.176190
C22761	C2276	0.824220	0.344300	0.185530
C22771	C2277	0.845650	0.362750	0.212420
H14011	H1401	0.854400	0.350700	0.212800
C22781	C2278	0.828360	0.362710	0.198780
C22791	C2279	0.816010	0.380720	0.197900
H14021	H1402	0.804300	0.381500	0.188800
C22801	C2280	0.821410	0.397440	0.210630
H14031	H1403	0.813400	0.410000	0.210300
C22811	C2281	0.838420	0.395850	0.223770
H14041	H1404	0.841800	0.407400	0.232500
C22821	C2282	0.880090	0.425040	0.251260
C22831	C2283	0.917070	0.388640	0.267600
H14051	H1405	0.915900	0.399300	0.257300
C22841	C2284	0.934730	0.387860	0.279250
H14061	H1406	0.945900	0.397300	0.276600
C22851	C2285	0.936450	0.372980	0.295190
H14071	H1407	0.948600	0.372200	0.303700
C22861	C2286	0.919890	0.359330	0.298220
C22871	C2287	0.902590	0.360770	0.284960
H14081	H1408	0.891400	0.351100	0.286700
C22881	C2288	0.920610	0.343040	0.314330
N8711	N871	0.864130	0.265270	0.160930
N8721	N872	0.726460	0.363770	0.104310
N8731	N873	0.766810	0.350670	0.122730
N8741	N874	0.810520	0.346360	0.170300
N8751	N875	0.819610	0.311930	0.159900
N8761	N876	0.835230	0.327150	0.189700
N8771	N877	0.850400	0.378610	0.224660
N8781	N878	0.877220	0.407500	0.248740
N8791	N879	0.901140	0.375060	0.270010
N8801	N880	0.905600	0.328630	0.313970
S1751	S175	0.708880	0.334750	0.076890
S1761	S176	0.884300	0.449840	0.254910
C22891	C2289	0.899160	0.968780	0.661050
H14091	H1409	0.906000	0.965400	0.648300
C22901	C2290	0.903670	0.956840	0.678450
C22911	C2291	0.894000	0.961940	0.697330
H14101	H1410	0.896600	0.954000	0.709600
C22921	C2292	0.880560	0.978840	0.697600
H14111	H1411	0.873900	0.982900	0.710200
C22931	C2293	0.876900	0.989850	0.679240
H14121	H1412	0.867700	0.001500	0.679600
C22941	C2294	0.031210	0.898280	0.593020
C22951	C2295	0.984660	0.914820	0.608630
H14131	H1413	0.994700	0.913600	0.597700
C22961	C2296	0.972050	0.932640	0.609440
H14141	H1414	0.973100	0.943000	0.598900
C22971	C2297	0.958230	0.935010	0.625510
H14151	H1415	0.949800	0.947200	0.626500
C22981	C2298	0.956670	0.919060	0.640570
C22991	C2299	0.969350	0.901690	0.638260
H14161	H1416	0.968200	0.890800	0.648300
C23001	C2300	0.941530	0.920380	0.657910
C23011	C2301	0.917300	0.938230	0.676190
C23021	C2302	0.925780	0.905700	0.685530
C23031	C2303	0.904350	0.887250	0.712420
H14171	H1417	0.895600	0.899300	0.712800
C23041	C2304	0.921640	0.887290	0.698780
C23051	C2305	0.933990	0.869280	0.697900
H14181	H1418	0.945700	0.868500	0.688800
C23061	C2306	0.928590	0.852560	0.710630
H14191	H1419	0.936600	0.840000	0.710300
C23071	C2307	0.911580	0.854150	0.723770
H14201	H1420	0.908200	0.842600	0.732500
C23081	C2308	0.869910	0.824960	0.751260
C23091	C2309	0.832930	0.861360	0.767600
H14211	H1421	0.834100	0.850700	0.757300
C23101	C2310	0.815270	0.862140	0.779250
H14221	H1422	0.804100	0.852700	0.776600
C23111	C2311	0.813550	0.877020	0.795190
H14231	H1423	0.801400	0.877800	0.803700
C23121	C2312	0.830110	0.890670	0.798220
C23131	C2313	0.847410	0.889230	0.784960
H14241	H1424	0.858600	0.898900	0.786700
C23141	C2314	0.829390	0.906960	0.814330
N8811	N881	0.885870	0.984730	0.660930
N8821	N882	0.023540	0.886230	0.604310
N8831	N883	0.983190	0.899330	0.622730
N8841	N884	0.939480	0.903640	0.670300
N8851	N885	0.930390	0.938070	0.659900
N8861	N886	0.914770	0.922850	0.689700
N8871	N887	0.899600	0.871390	0.724660
N8881	N888	0.872780	0.842500	0.748740
N8891	N889	0.848860	0.874940	0.770010
N8901	N890	0.844400	0.921370	0.813970
S1771	S177	0.041120	0.915250	0.576890
S1781	S178	0.865700	0.800160	0.754910
C23151	C2315	0.899160	0.468780	0.161050
H14251	H1425	0.906000	0.465400	0.148300
C23161	C2316	0.903670	0.456840	0.178450
C23171	C2317	0.894000	0.461940	0.197330
H14261	H1426	0.896600	0.454000	0.209600
C23181	C2318	0.880560	0.478840	0.197600
H14271	H1427	0.873900	0.482900	0.210200
C23191	C2319	0.876900	0.489850	0.179240
H14281	H1428	0.867700	0.501500	0.179600
C23201	C2320	0.031210	0.398280	0.093020
C23211	C2321	0.984660	0.414820	0.108630
H14291	H1429	0.994700	0.413600	0.097700
C23221	C2322	0.972050	0.432640	0.109440
H14301	H1430	0.973100	0.443000	0.098900
C23231	C2323	0.958230	0.435010	0.125510
H14311	H1431	0.949800	0.447200	0.126500
C23241	C2324	0.956670	0.419060	0.140570
C23251	C2325	0.969350	0.401690	0.138260
H14321	H1432	0.968200	0.390800	0.148300
C23261	C2326	0.941530	0.420380	0.157910
C23271	C2327	0.917300	0.438230	0.176190
C23281	C2328	0.925780	0.405700	0.185530
C23291	C2329	0.904350	0.387250	0.212420
H14331	H1433	0.895600	0.399300	0.212800
C23301	C2330	0.921640	0.387290	0.198780
C23311	C2331	0.933990	0.369280	0.197900
H14341	H1434	0.945700	0.368500	0.188800
C23321	C2332	0.928590	0.352560	0.210630
H14351	H1435	0.936600	0.340000	0.210300
C23331	C2333	0.911580	0.354150	0.223770
H14361	H1436	0.908200	0.342600	0.232500
C23341	C2334	0.869910	0.324960	0.251260
C23351	C2335	0.832930	0.361360	0.267600
H14371	H1437	0.834100	0.350700	0.257300
C23361	C2336	0.815270	0.362140	0.279250
H14381	H1438	0.804100	0.352700	0.276600
C23371	C2337	0.813550	0.377020	0.295190
H14391	H1439	0.801400	0.377800	0.303700
C23381	C2338	0.830110	0.390670	0.298220
C23391	C2339	0.847410	0.389230	0.284960
H14401	H1440	0.858600	0.398900	0.286700
C23401	C2340	0.829390	0.406960	0.314330
N8911	N891	0.885870	0.484730	0.160930
N8921	N892	0.023540	0.386230	0.104310
N8931	N893	0.983190	0.399330	0.122730
N8941	N894	0.939480	0.403640	0.170300
N8951	N895	0.930390	0.438070	0.159900
N8961	N896	0.914770	0.422850	0.189700
N8971	N897	0.899600	0.371390	0.224660
N8981	N898	0.872780	0.342500	0.248740
N8991	N899	0.848860	0.374940	0.270010
N9001	N900	0.844400	0.421370	0.313970
S1791	S179	0.041120	0.415250	0.076890
S1801	S180	0.865700	0.300160	0.254910
C23411	C2341	0.399160	0.968780	0.161050
H14411	H1441	0.406000	0.965400	0.148300
C23421	C2342	0.403670	0.956840	0.178450
C23431	C2343	0.394000	0.961940	0.197330
H14421	H1442	0.396600	0.954000	0.209600
C23441	C2344	0.380560	0.978840	0.197600
H14431	H1443	0.373900	0.982900	0.210200
C23451	C2345	0.376900	0.989850	0.179240
H14441	H1444	0.367700	0.001500	0.179600
C23461	C2346	0.531210	0.898280	0.093020
C23471	C2347	0.484660	0.914820	0.108630
H14451	H1445	0.494700	0.913600	0.097700
C23481	C2348	0.472050	0.932640	0.109440
H14461	H1446	0.473100	0.943000	0.098900
C23491	C2349	0.458230	0.935010	0.125510
H14471	H1447	0.449800	0.947200	0.126500
C23501	C2350	0.456670	0.919060	0.140570
C23511	C2351	0.469350	0.901690	0.138260
H14481	H1448	0.468200	0.890800	0.148300
C23521	C2352	0.441530	0.920380	0.157910
C23531	C2353	0.417300	0.938230	0.176190
C23541	C2354	0.425780	0.905700	0.185530
C23551	C2355	0.404350	0.887250	0.212420
H14491	H1449	0.395600	0.899300	0.212800
C23561	C2356	0.421640	0.887290	0.198780
C23571	C2357	0.433990	0.869280	0.197900
H14501	H1450	0.445700	0.868500	0.188800
C23581	C2358	0.428590	0.852560	0.210630
H14511	H1451	0.436600	0.840000	0.210300
C23591	C2359	0.411580	0.854150	0.223770
H14521	H1452	0.408200	0.842600	0.232500
C23601	C2360	0.369910	0.824960	0.251260
C23611	C2361	0.332930	0.861360	0.267600
H14531	H1453	0.334100	0.850700	0.257300
C23621	C2362	0.315270	0.862140	0.279250
H14541	H1454	0.304100	0.852700	0.276600
C23631	C2363	0.313550	0.877020	0.295190
H14551	H1455	0.301400	0.877800	0.303700
C23641	C2364	0.330110	0.890670	0.298220
C23651	C2365	0.347410	0.889230	0.284960
H14561	H1456	0.358600	0.898900	0.286700
C23661	C2366	0.329390	0.906960	0.314330
N9011	N901	0.385870	0.984730	0.160930
N9021	N902	0.523540	0.886230	0.104310
N9031	N903	0.483190	0.899330	0.122730
N9041	N904	0.439480	0.903640	0.170300
N9051	N905	0.430390	0.938070	0.159900
N9061	N906	0.414770	0.922850	0.189700
N9071	N907	0.399600	0.871390	0.224660
N9081	N908	0.372780	0.842500	0.248740
N9091	N909	0.348860	0.874940	0.270010
N9101	N910	0.344400	0.921370	0.313970
S1811	S181	0.541120	0.915250	0.076890
S1821	S182	0.365700	0.800160	0.254910
C23671	C2367	0.399160	0.468780	0.661050
H14571	H1457	0.406000	0.465400	0.648300
C23681	C2368	0.403670	0.456840	0.678450
C23691	C2369	0.394000	0.461940	0.697330
H14581	H1458	0.396600	0.454000	0.709600
C23701	C2370	0.380560	0.478840	0.697600
H14591	H1459	0.373900	0.482900	0.710200
C23711	C2371	0.376900	0.489850	0.679240
H14601	H1460	0.367700	0.501500	0.679600
C23721	C2372	0.531210	0.398280	0.593020
C23731	C2373	0.484660	0.414820	0.608630
H14611	H1461	0.494700	0.413600	0.597700
C23741	C2374	0.472050	0.432640	0.609440
H14621	H1462	0.473100	0.443000	0.598900
C23751	C2375	0.458230	0.435010	0.625510
H14631	H1463	0.449800	0.447200	0.626500
C23761	C2376	0.456670	0.419060	0.640570
C23771	C2377	0.469350	0.401690	0.638260
H14641	H1464	0.468200	0.390800	0.648300
C23781	C2378	0.441530	0.420380	0.657910
C23791	C2379	0.417300	0.438230	0.676190
C23801	C2380	0.425780	0.405700	0.685530
C23811	C2381	0.404350	0.387250	0.712420
H14651	H1465	0.395600	0.399300	0.712800
C23821	C2382	0.421640	0.387290	0.698780
C23831	C2383	0.433990	0.369280	0.697900
H14661	H1466	0.445700	0.368500	0.688800
C23841	C2384	0.428590	0.352560	0.710630
H14671	H1467	0.436600	0.340000	0.710300
C23851	C2385	0.411580	0.354150	0.723770
H14681	H1468	0.408200	0.342600	0.732500
C23861	C2386	0.369910	0.324960	0.751260
C23871	C2387	0.332930	0.361360	0.767600
H14691	H1469	0.334100	0.350700	0.757300
C23881	C2388	0.315270	0.362140	0.779250
H14701	H1470	0.304100	0.352700	0.776600
C23891	C2389	0.313550	0.377020	0.795190
H14711	H1471	0.301400	0.377800	0.803700
C23901	C2390	0.330110	0.390670	0.798220
C23911	C2391	0.347410	0.389230	0.784960
H14721	H1472	0.358600	0.398900	0.786700
C23921	C2392	0.329390	0.406960	0.814330
N9111	N911	0.385870	0.484730	0.660930
N9121	N912	0.523540	0.386230	0.604310
N9131	N913	0.483190	0.399330	0.622730
N9141	N914	0.439480	0.403640	0.670300
N9151	N915	0.430390	0.438070	0.659900
N9161	N916	0.414770	0.422850	0.689700
N9171	N917	0.399600	0.371390	0.724660
N9181	N918	0.372780	0.342500	0.748740
N9191	N919	0.348860	0.374940	0.770010
N9201	N920	0.344400	0.421370	0.813970
S1831	S183	0.541120	0.415250	0.576890
S1841	S184	0.365700	0.300160	0.754910
C23931	C2393	0.399160	0.281220	0.088950
H14731	H1473	0.406000	0.284600	0.101700
C23941	C2394	0.403670	0.293160	0.071550
C23951	C2395	0.394000	0.288060	0.052670
H14741	H1474	0.396600	0.296000	0.040400
C23961	C2396	0.380560	0.271160	0.052400
H14751	H1475	0.373900	0.267100	0.039800
C23971	C2397	0.376900	0.260150	0.070760
H14761	H1476	0.367700	0.248500	0.070400
C23981	C2398	0.531210	0.351720	0.156980
C23991	C2399	0.484660	0.335180	0.141370
H14771	H1477	0.494700	0.336400	0.152300
C24001	C2400	0.472050	0.317360	0.140560
H14781	H1478	0.473100	0.307000	0.151100
C24011	C2401	0.458230	0.314990	0.124490
H14791	H1479	0.449800	0.302800	0.123500
C24021	C2402	0.456670	0.330940	0.109430
C24031	C2403	0.469350	0.348310	0.111740
H14801	H1480	0.468200	0.359200	0.101700
C24041	C2404	0.441530	0.329620	0.092090
C24051	C2405	0.417300	0.311770	0.073810
C24061	C2406	0.425780	0.344300	0.064470
C24071	C2407	0.404350	0.362750	0.037580
H14811	H1481	0.395600	0.350700	0.037200
C24081	C2408	0.421640	0.362710	0.051220
C24091	C2409	0.433990	0.380720	0.052100
H14821	H1482	0.445700	0.381500	0.061200
C24101	C2410	0.428590	0.397440	0.039370
H14831	H1483	0.436600	0.410000	0.039700
C24111	C2411	0.411580	0.395850	0.026230
H14841	H1484	0.408200	0.407400	0.017500
C24121	C2412	0.369910	0.425040	0.998740
C24131	C2413	0.332930	0.388640	0.982400
H14851	H1485	0.334100	0.399300	0.992700
C24141	C2414	0.315270	0.387860	0.970750
H14861	H1486	0.304100	0.397300	0.973400
C24151	C2415	0.313550	0.372980	0.954810
H14871	H1487	0.301400	0.372200	0.946300
C24161	C2416	0.330110	0.359330	0.951780
C24171	C2417	0.347410	0.360770	0.965040
H14881	H1488	0.358600	0.351100	0.963300
C24181	C2418	0.329390	0.343040	0.935670
N9211	N921	0.385870	0.265270	0.089070
N9221	N922	0.523540	0.363770	0.145690
N9231	N923	0.483190	0.350670	0.127270
N9241	N924	0.439480	0.346360	0.079700
N9251	N925	0.430390	0.311930	0.090100
N9261	N926	0.414770	0.327150	0.060300
N9271	N927	0.399600	0.378610	0.025340
N9281	N928	0.372780	0.407500	0.001260
N9291	N929	0.348860	0.375060	0.979990
N9301	N930	0.344400	0.328630	0.936030
S1851	S185	0.541120	0.334750	0.173110
S1861	S186	0.365700	0.449840	0.995090
C24191	C2419	0.399160	0.781220	0.588950
H14891	H1489	0.406000	0.784600	0.601700
C24201	C2420	0.403670	0.793160	0.571550
C24211	C2421	0.394000	0.788060	0.552670
H14901	H1490	0.396600	0.796000	0.540400
C24221	C2422	0.380560	0.771160	0.552400
H14911	H1491	0.373900	0.767100	0.539800
C24231	C2423	0.376900	0.760150	0.570760
H14921	H1492	0.367700	0.748500	0.570400
C24241	C2424	0.531210	0.851720	0.656980
C24251	C2425	0.484660	0.835180	0.641370
H14931	H1493	0.494700	0.836400	0.652300
C24261	C2426	0.472050	0.817360	0.640560
H14941	H1494	0.473100	0.807000	0.651100
C24271	C2427	0.458230	0.814990	0.624490
H14951	H1495	0.449800	0.802800	0.623500
C24281	C2428	0.456670	0.830940	0.609430
C24291	C2429	0.469350	0.848310	0.611740
H14961	H1496	0.468200	0.859200	0.601700
C24301	C2430	0.441530	0.829620	0.592090
C24311	C2431	0.417300	0.811770	0.573810
C24321	C2432	0.425780	0.844300	0.564470
C24331	C2433	0.404350	0.862750	0.537580
H14971	H1497	0.395600	0.850700	0.537200
C24341	C2434	0.421640	0.862710	0.551220
C24351	C2435	0.433990	0.880720	0.552100
H14981	H1498	0.445700	0.881500	0.561200
C24361	C2436	0.428590	0.897440	0.539370
H14991	H1499	0.436600	0.910000	0.539700
C24371	C2437	0.411580	0.895850	0.526230
H15001	H1500	0.408200	0.907400	0.517500
C24381	C2438	0.369910	0.925040	0.498740
C24391	C2439	0.332930	0.888640	0.482400
H15011	H1501	0.334100	0.899300	0.492700
C24401	C2440	0.315270	0.887860	0.470750
H15021	H1502	0.304100	0.897300	0.473400
C24411	C2441	0.313550	0.872980	0.454810
H15031	H1503	0.301400	0.872200	0.446300
C24421	C2442	0.330110	0.859330	0.451780
C24431	C2443	0.347410	0.860770	0.465040
H15041	H1504	0.358600	0.851100	0.463300
C24441	C2444	0.329390	0.843040	0.435670
N9311	N931	0.385870	0.765270	0.589070
N9321	N932	0.523540	0.863770	0.645690
N9331	N933	0.483190	0.850670	0.627270
N9341	N934	0.439480	0.846360	0.579700
N9351	N935	0.430390	0.811930	0.590100
N9361	N936	0.414770	0.827150	0.560300
N9371	N937	0.399600	0.878610	0.525340
N9381	N938	0.372780	0.907500	0.501260
N9391	N939	0.348860	0.875060	0.479990
N9401	N940	0.344400	0.828630	0.436030
S1871	S187	0.541120	0.834750	0.673110
S1881	S188	0.365700	0.949840	0.495090
C24451	C2445	0.899160	0.281220	0.588950
H15051	H1505	0.906000	0.284600	0.601700
C24461	C2446	0.903670	0.293160	0.571550
C24471	C2447	0.894000	0.288060	0.552670
H15061	H1506	0.896600	0.296000	0.540400
C24481	C2448	0.880560	0.271160	0.552400
H15071	H1507	0.873900	0.267100	0.539800
C24491	C2449	0.876900	0.260150	0.570760
H15081	H1508	0.867700	0.248500	0.570400
C24501	C2450	0.031210	0.351720	0.656980
C24511	C2451	0.984660	0.335180	0.641370
H15091	H1509	0.994700	0.336400	0.652300
C24521	C2452	0.972050	0.317360	0.640560
H15101	H1510	0.973100	0.307000	0.651100
C24531	C2453	0.958230	0.314990	0.624490
H15111	H1511	0.949800	0.302800	0.623500
C24541	C2454	0.956670	0.330940	0.609430
C24551	C2455	0.969350	0.348310	0.611740
H15121	H1512	0.968200	0.359200	0.601700
C24561	C2456	0.941530	0.329620	0.592090
C24571	C2457	0.917300	0.311770	0.573810
C24581	C2458	0.925780	0.344300	0.564470
C24591	C2459	0.904350	0.362750	0.537580
H15131	H1513	0.895600	0.350700	0.537200
C24601	C2460	0.921640	0.362710	0.551220
C24611	C2461	0.933990	0.380720	0.552100
H15141	H1514	0.945700	0.381500	0.561200
C24621	C2462	0.928590	0.397440	0.539370
H15151	H1515	0.936600	0.410000	0.539700
C24631	C2463	0.911580	0.395850	0.526230
H15161	H1516	0.908200	0.407400	0.517500
C24641	C2464	0.869910	0.425040	0.498740
C24651	C2465	0.832930	0.388640	0.482400
H15171	H1517	0.834100	0.399300	0.492700
C24661	C2466	0.815270	0.387860	0.470750
H15181	H1518	0.804100	0.397300	0.473400
C24671	C2467	0.813550	0.372980	0.454810
H15191	H1519	0.801400	0.372200	0.446300
C24681	C2468	0.830110	0.359330	0.451780
C24691	C2469	0.847410	0.360770	0.465040
H15201	H1520	0.858600	0.351100	0.463300
C24701	C2470	0.829390	0.343040	0.435670
N9411	N941	0.885870	0.265270	0.589070
N9421	N942	0.023540	0.363770	0.645690
N9431	N943	0.983190	0.350670	0.627270
N9441	N944	0.939480	0.346360	0.579700
N9451	N945	0.930390	0.311930	0.590100
N9461	N946	0.914770	0.327150	0.560300
N9471	N947	0.899600	0.378610	0.525340
N9481	N948	0.872780	0.407500	0.501260
N9491	N949	0.848860	0.375060	0.479990
N9501	N950	0.844400	0.328630	0.436030
S1891	S189	0.041120	0.334750	0.673110
S1901	S190	0.865700	0.449840	0.495090
C24711	C2471	0.899160	0.781220	0.088950
H15211	H1521	0.906000	0.784600	0.101700
C24721	C2472	0.903670	0.793160	0.071550
C24731	C2473	0.894000	0.788060	0.052670
H15221	H1522	0.896600	0.796000	0.040400
C24741	C2474	0.880560	0.771160	0.052400
H15231	H1523	0.873900	0.767100	0.039800
C24751	C2475	0.876900	0.760150	0.070760
H15241	H1524	0.867700	0.748500	0.070400
C24761	C2476	0.031210	0.851720	0.156980
C24771	C2477	0.984660	0.835180	0.141370
H15251	H1525	0.994700	0.836400	0.152300
C24781	C2478	0.972050	0.817360	0.140560
H15261	H1526	0.973100	0.807000	0.151100
C24791	C2479	0.958230	0.814990	0.124490
H15271	H1527	0.949800	0.802800	0.123500
C24801	C2480	0.956670	0.830940	0.109430
C24811	C2481	0.969350	0.848310	0.111740
H15281	H1528	0.968200	0.859200	0.101700
C24821	C2482	0.941530	0.829620	0.092090
C24831	C2483	0.917300	0.811770	0.073810
C24841	C2484	0.925780	0.844300	0.064470
C24851	C2485	0.904350	0.862750	0.037580
H15291	H1529	0.895600	0.850700	0.037200
C24861	C2486	0.921640	0.862710	0.051220
C24871	C2487	0.933990	0.880720	0.052100
H15301	H1530	0.945700	0.881500	0.061200
C24881	C2488	0.928590	0.897440	0.039370
H15311	H1531	0.936600	0.910000	0.039700
C24891	C2489	0.911580	0.895850	0.026230
H15321	H1532	0.908200	0.907400	0.017500
C24901	C2490	0.869910	0.925040	0.998740
C24911	C2491	0.832930	0.888640	0.982400
H15331	H1533	0.834100	0.899300	0.992700
C24921	C2492	0.815270	0.887860	0.970750
H15341	H1534	0.804100	0.897300	0.973400
C24931	C2493	0.813550	0.872980	0.954810
H15351	H1535	0.801400	0.872200	0.946300
C24941	C2494	0.830110	0.859330	0.951780
C24951	C2495	0.847410	0.860770	0.965040
H15361	H1536	0.858600	0.851100	0.963300
C24961	C2496	0.829390	0.843040	0.935670
N9511	N951	0.885870	0.765270	0.089070
N9521	N952	0.023540	0.863770	0.145690
N9531	N953	0.983190	0.850670	0.127270
N9541	N954	0.939480	0.846360	0.079700
N9551	N955	0.930390	0.811930	0.090100
N9561	N956	0.914770	0.827150	0.060300
N9571	N957	0.899600	0.878610	0.025340
N9581	N958	0.872780	0.907500	0.001260
N9591	N959	0.848860	0.875060	0.979990
N9601	N960	0.844400	0.828630	0.936030
S1911	S191	0.041120	0.834750	0.173110
S1921	S192	0.865700	0.949840	0.995090
C24971	C2497	0.588950	0.781220	0.899160
H15371	H1537	0.601700	0.784600	0.906000
C24981	C2498	0.571550	0.793160	0.903670
C24991	C2499	0.552670	0.788060	0.894000
H15381	H1538	0.540400	0.796000	0.896600
C25001	C2500	0.552400	0.771160	0.880560
H15391	H1539	0.539800	0.767100	0.873900
C25011	C2501	0.570760	0.760150	0.876900
H15401	H1540	0.570400	0.748500	0.867700
C25021	C2502	0.656980	0.851720	0.031210
C25031	C2503	0.641370	0.835180	0.984660
H15411	H1541	0.652300	0.836400	0.994700
C25041	C2504	0.640560	0.817360	0.972050
H15421	H1542	0.651100	0.807000	0.973100
C25051	C2505	0.624490	0.814990	0.958230
H15431	H1543	0.623500	0.802800	0.949800
C25061	C2506	0.609430	0.830940	0.956670
C25071	C2507	0.611740	0.848310	0.969350
H15441	H1544	0.601700	0.859200	0.968200
C25081	C2508	0.592090	0.829620	0.941530
C25091	C2509	0.573810	0.811770	0.917300
C25101	C2510	0.564470	0.844300	0.925780
C25111	C2511	0.537580	0.862750	0.904350
H15451	H1545	0.537200	0.850700	0.895600
C25121	C2512	0.551220	0.862710	0.921640
C25131	C2513	0.552100	0.880720	0.933990
H15461	H1546	0.561200	0.881500	0.945700
C25141	C2514	0.539370	0.897440	0.928590
H15471	H1547	0.539700	0.910000	0.936600
C25151	C2515	0.526230	0.895850	0.911580
H15481	H1548	0.517500	0.907400	0.908200
C25161	C2516	0.498740	0.925040	0.869910
C25171	C2517	0.482400	0.888640	0.832930
H15491	H1549	0.492700	0.899300	0.834100
C25181	C2518	0.470750	0.887860	0.815270
H15501	H1550	0.473400	0.897300	0.804100
C25191	C2519	0.454810	0.872980	0.813550
H15511	H1551	0.446300	0.872200	0.801400
C25201	C2520	0.451780	0.859330	0.830110
C25211	C2521	0.465040	0.860770	0.847410
H15521	H1552	0.463300	0.851100	0.858600
C25221	C2522	0.435670	0.843040	0.829390
N9611	N961	0.589070	0.765270	0.885870
N9621	N962	0.645690	0.863770	0.023540
N9631	N963	0.627270	0.850670	0.983190
N9641	N964	0.579700	0.846360	0.939480
N9651	N965	0.590100	0.811930	0.930390
N9661	N966	0.560300	0.827150	0.914770
N9671	N967	0.525340	0.878610	0.899600
N9681	N968	0.501260	0.907500	0.872780
N9691	N969	0.479990	0.875060	0.848860
N9701	N970	0.436030	0.828630	0.844400
S1931	S193	0.673110	0.834750	0.041120
S1941	S194	0.495090	0.949840	0.865700
C25231	C2523	0.588950	0.281220	0.399160
H15531	H1553	0.601700	0.284600	0.406000
C25241	C2524	0.571550	0.293160	0.403670
C25251	C2525	0.552670	0.288060	0.394000
H15541	H1554	0.540400	0.296000	0.396600
C25261	C2526	0.552400	0.271160	0.380560
H15551	H1555	0.539800	0.267100	0.373900
C25271	C2527	0.570760	0.260150	0.376900
H15561	H1556	0.570400	0.248500	0.367700
C25281	C2528	0.656980	0.351720	0.531210
C25291	C2529	0.641370	0.335180	0.484660
H15571	H1557	0.652300	0.336400	0.494700
C25301	C2530	0.640560	0.317360	0.472050
H15581	H1558	0.651100	0.307000	0.473100
C25311	C2531	0.624490	0.314990	0.458230
H15591	H1559	0.623500	0.302800	0.449800
C25321	C2532	0.609430	0.330940	0.456670
C25331	C2533	0.611740	0.348310	0.469350
H15601	H1560	0.601700	0.359200	0.468200
C25341	C2534	0.592090	0.329620	0.441530
C25351	C2535	0.573810	0.311770	0.417300
C25361	C2536	0.564470	0.344300	0.425780
C25371	C2537	0.537580	0.362750	0.404350
H15611	H1561	0.537200	0.350700	0.395600
C25381	C2538	0.551220	0.362710	0.421640
C25391	C2539	0.552100	0.380720	0.433990
H15621	H1562	0.561200	0.381500	0.445700
C25401	C2540	0.539370	0.397440	0.428590
H15631	H1563	0.539700	0.410000	0.436600
C25411	C2541	0.526230	0.395850	0.411580
H15641	H1564	0.517500	0.407400	0.408200
C25421	C2542	0.498740	0.425040	0.369910
C25431	C2543	0.482400	0.388640	0.332930
H15651	H1565	0.492700	0.399300	0.334100
C25441	C2544	0.470750	0.387860	0.315270
H15661	H1566	0.473400	0.397300	0.304100
C25451	C2545	0.454810	0.372980	0.313550
H15671	H1567	0.446300	0.372200	0.301400
C25461	C2546	0.451780	0.359330	0.330110
C25471	C2547	0.465040	0.360770	0.347410
H15681	H1568	0.463300	0.351100	0.358600
C25481	C2548	0.435670	0.343040	0.329390
N9711	N971	0.589070	0.265270	0.385870
N9721	N972	0.645690	0.363770	0.523540
N9731	N973	0.627270	0.350670	0.483190
N9741	N974	0.579700	0.346360	0.439480
N9751	N975	0.590100	0.311930	0.430390
N9761	N976	0.560300	0.327150	0.414770
N9771	N977	0.525340	0.378610	0.399600
N9781	N978	0.501260	0.407500	0.372780
N9791	N979	0.479990	0.375060	0.348860
N9801	N980	0.436030	0.328630	0.344400
S1951	S195	0.673110	0.334750	0.541120
S1961	S196	0.495090	0.449840	0.365700
C25491	C2549	0.088950	0.781220	0.399160
H15691	H1569	0.101700	0.784600	0.406000
C25501	C2550	0.071550	0.793160	0.403670
C25511	C2551	0.052670	0.788060	0.394000
H15701	H1570	0.040400	0.796000	0.396600
C25521	C2552	0.052400	0.771160	0.380560
H15711	H1571	0.039800	0.767100	0.373900
C25531	C2553	0.070760	0.760150	0.376900
H15721	H1572	0.070400	0.748500	0.367700
C25541	C2554	0.156980	0.851720	0.531210
C25551	C2555	0.141370	0.835180	0.484660
H15731	H1573	0.152300	0.836400	0.494700
C25561	C2556	0.140560	0.817360	0.472050
H15741	H1574	0.151100	0.807000	0.473100
C25571	C2557	0.124490	0.814990	0.458230
H15751	H1575	0.123500	0.802800	0.449800
C25581	C2558	0.109430	0.830940	0.456670
C25591	C2559	0.111740	0.848310	0.469350
H15761	H1576	0.101700	0.859200	0.468200
C25601	C2560	0.092090	0.829620	0.441530
C25611	C2561	0.073810	0.811770	0.417300
C25621	C2562	0.064470	0.844300	0.425780
C25631	C2563	0.037580	0.862750	0.404350
H15771	H1577	0.037200	0.850700	0.395600
C25641	C2564	0.051220	0.862710	0.421640
C25651	C2565	0.052100	0.880720	0.433990
H15781	H1578	0.061200	0.881500	0.445700
C25661	C2566	0.039370	0.897440	0.428590
H15791	H1579	0.039700	0.910000	0.436600
C25671	C2567	0.026230	0.895850	0.411580
H15801	H1580	0.017500	0.907400	0.408200
C25681	C2568	0.998740	0.925040	0.369910
C25691	C2569	0.982400	0.888640	0.332930
H15811	H1581	0.992700	0.899300	0.334100
C25701	C2570	0.970750	0.887860	0.315270
H15821	H1582	0.973400	0.897300	0.304100
C25711	C2571	0.954810	0.872980	0.313550
H15831	H1583	0.946300	0.872200	0.301400
C25721	C2572	0.951780	0.859330	0.330110
C25731	C2573	0.965040	0.860770	0.347410
H15841	H1584	0.963300	0.851100	0.358600
C25741	C2574	0.935670	0.843040	0.329390
N9811	N981	0.089070	0.765270	0.385870
N9821	N982	0.145690	0.863770	0.523540
N9831	N983	0.127270	0.850670	0.483190
N9841	N984	0.079700	0.846360	0.439480
N9851	N985	0.090100	0.811930	0.430390
N9861	N986	0.060300	0.827150	0.414770
N9871	N987	0.025340	0.878610	0.399600
N9881	N988	0.001260	0.907500	0.372780
N9891	N989	0.979990	0.875060	0.348860
N9901	N990	0.936030	0.828630	0.344400
S1971	S197	0.173110	0.834750	0.541120
S1981	S198	0.995090	0.949840	0.365700
C25751	C2575	0.088950	0.281220	0.899160
H15851	H1585	0.101700	0.284600	0.906000
C25761	C2576	0.071550	0.293160	0.903670
C25771	C2577	0.052670	0.288060	0.894000
H15861	H1586	0.040400	0.296000	0.896600
C25781	C2578	0.052400	0.271160	0.880560
H15871	H1587	0.039800	0.267100	0.873900
C25791	C2579	0.070760	0.260150	0.876900
H15881	H1588	0.070400	0.248500	0.867700
C25801	C2580	0.156980	0.351720	0.031210
C25811	C2581	0.141370	0.335180	0.984660
H15891	H1589	0.152300	0.336400	0.994700
C25821	C2582	0.140560	0.317360	0.972050
H15901	H1590	0.151100	0.307000	0.973100
C25831	C2583	0.124490	0.314990	0.958230
H15911	H1591	0.123500	0.302800	0.949800
C25841	C2584	0.109430	0.330940	0.956670
C25851	C2585	0.111740	0.348310	0.969350
H15921	H1592	0.101700	0.359200	0.968200
C25861	C2586	0.092090	0.329620	0.941530
C25871	C2587	0.073810	0.311770	0.917300
C25881	C2588	0.064470	0.344300	0.925780
C25891	C2589	0.037580	0.362750	0.904350
H15931	H1593	0.037200	0.350700	0.895600
C25901	C2590	0.051220	0.362710	0.921640
C25911	C2591	0.052100	0.380720	0.933990
H15941	H1594	0.061200	0.381500	0.945700
C25921	C2592	0.039370	0.397440	0.928590
H15951	H1595	0.039700	0.410000	0.936600
C25931	C2593	0.026230	0.395850	0.911580
H15961	H1596	0.017500	0.407400	0.908200
C25941	C2594	0.998740	0.425040	0.869910
C25951	C2595	0.982400	0.388640	0.832930
H15971	H1597	0.992700	0.399300	0.834100
C25961	C2596	0.970750	0.387860	0.815270
H15981	H1598	0.973400	0.397300	0.804100
C25971	C2597	0.954810	0.372980	0.813550
H15991	H1599	0.946300	0.372200	0.801400
C25981	C2598	0.951780	0.359330	0.830110
C25991	C2599	0.965040	0.360770	0.847410
H16001	H1600	0.963300	0.351100	0.858600
C26001	C2600	0.935670	0.343040	0.829390
N9911	N991	0.089070	0.265270	0.885870
N9921	N992	0.145690	0.363770	0.023540
N9931	N993	0.127270	0.350670	0.983190
N9941	N994	0.079700	0.346360	0.939480
N9951	N995	0.090100	0.311930	0.930390
N9961	N996	0.060300	0.327150	0.914770
N9971	N997	0.025340	0.378610	0.899600
N9981	N998	0.001260	0.407500	0.872780
N9991	N999	0.979990	0.375060	0.848860
N10001	N1000	0.936030	0.328630	0.844400
S1991	S199	0.173110	0.334750	0.041120
S2001	S200	0.995090	0.449840	0.865700
C26011	C2601	0.161050	0.468780	0.399160
H16011	H1601	0.148300	0.465400	0.406000
C26021	C2602	0.178450	0.456840	0.403670
C26031	C2603	0.197330	0.461940	0.394000
H16021	H1602	0.209600	0.454000	0.396600
C26041	C2604	0.197600	0.478840	0.380560
H16031	H1603	0.210200	0.482900	0.373900
C26051	C2605	0.179240	0.489850	0.376900
H16041	H1604	0.179600	0.501500	0.367700
C26061	C2606	0.093020	0.398280	0.531210
C26071	C2607	0.108630	0.414820	0.484660
H16051	H1605	0.097700	0.413600	0.494700
C26081	C2608	0.109440	0.432640	0.472050
H16061	H1606	0.098900	0.443000	0.473100
C26091	C2609	0.125510	0.435010	0.458230
H16071	H1607	0.126500	0.447200	0.449800
C26101	C2610	0.140570	0.419060	0.456670
C26111	C2611	0.138260	0.401690	0.469350
H16081	H1608	0.148300	0.390800	0.468200
C26121	C2612	0.157910	0.420380	0.441530
C26131	C2613	0.176190	0.438230	0.417300
C26141	C2614	0.185530	0.405700	0.425780
C26151	C2615	0.212420	0.387250	0.404350
H16091	H1609	0.212800	0.399300	0.395600
C26161	C2616	0.198780	0.387290	0.421640
C26171	C2617	0.197900	0.369280	0.433990
H16101	H1610	0.188800	0.368500	0.445700
C26181	C2618	0.210630	0.352560	0.428590
H16111	H1611	0.210300	0.340000	0.436600
C26191	C2619	0.223770	0.354150	0.411580
H16121	H1612	0.232500	0.342600	0.408200
C26201	C2620	0.251260	0.324960	0.369910
C26211	C2621	0.267600	0.361360	0.332930
H16131	H1613	0.257300	0.350700	0.334100
C26221	C2622	0.279250	0.362140	0.315270
H16141	H1614	0.276600	0.352700	0.304100
C26231	C2623	0.295190	0.377020	0.313550
H16151	H1615	0.303700	0.377800	0.301400
C26241	C2624	0.298220	0.390670	0.330110
C26251	C2625	0.284960	0.389230	0.347410
H16161	H1616	0.286700	0.398900	0.358600
C26261	C2626	0.314330	0.406960	0.329390
N10011	N1001	0.160930	0.484730	0.385870
N10021	N1002	0.104310	0.386230	0.523540
N10031	N1003	0.122730	0.399330	0.483190
N10041	N1004	0.170300	0.403640	0.439480
N10051	N1005	0.159900	0.438070	0.430390
N10061	N1006	0.189700	0.422850	0.414770
N10071	N1007	0.224660	0.371390	0.399600
N10081	N1008	0.248740	0.342500	0.372780
N10091	N1009	0.270010	0.374940	0.348860
N10101	N1010	0.313970	0.421370	0.344400
S2011	S201	0.076890	0.415250	0.541120
S2021	S202	0.254910	0.300160	0.365700
C26271	C2627	0.161050	0.968780	0.899160
H16171	H1617	0.148300	0.965400	0.906000
C26281	C2628	0.178450	0.956840	0.903670
C26291	C2629	0.197330	0.961940	0.894000
H16181	H1618	0.209600	0.954000	0.896600
C26301	C2630	0.197600	0.978840	0.880560
H16191	H1619	0.210200	0.982900	0.873900
C26311	C2631	0.179240	0.989850	0.876900
H16201	H1620	0.179600	0.001500	0.867700
C26321	C2632	0.093020	0.898280	0.031210
C26331	C2633	0.108630	0.914820	0.984660
H16211	H1621	0.097700	0.913600	0.994700
C26341	C2634	0.109440	0.932640	0.972050
H16221	H1622	0.098900	0.943000	0.973100
C26351	C2635	0.125510	0.935010	0.958230
H16231	H1623	0.126500	0.947200	0.949800
C26361	C2636	0.140570	0.919060	0.956670
C26371	C2637	0.138260	0.901690	0.969350
H16241	H1624	0.148300	0.890800	0.968200
C26381	C2638	0.157910	0.920380	0.941530
C26391	C2639	0.176190	0.938230	0.917300
C26401	C2640	0.185530	0.905700	0.925780
C26411	C2641	0.212420	0.887250	0.904350
H16251	H1625	0.212800	0.899300	0.895600
C26421	C2642	0.198780	0.887290	0.921640
C26431	C2643	0.197900	0.869280	0.933990
H16261	H1626	0.188800	0.868500	0.945700
C26441	C2644	0.210630	0.852560	0.928590
H16271	H1627	0.210300	0.840000	0.936600
C26451	C2645	0.223770	0.854150	0.911580
H16281	H1628	0.232500	0.842600	0.908200
C26461	C2646	0.251260	0.824960	0.869910
C26471	C2647	0.267600	0.861360	0.832930
H16291	H1629	0.257300	0.850700	0.834100
C26481	C2648	0.279250	0.862140	0.815270
H16301	H1630	0.276600	0.852700	0.804100
C26491	C2649	0.295190	0.877020	0.813550
H16311	H1631	0.303700	0.877800	0.801400
C26501	C2650	0.298220	0.890670	0.830110
C26511	C2651	0.284960	0.889230	0.847410
H16321	H1632	0.286700	0.898900	0.858600
C26521	C2652	0.314330	0.906960	0.829390
N10111	N1011	0.160930	0.984730	0.885870
N10121	N1012	0.104310	0.886230	0.023540
N10131	N1013	0.122730	0.899330	0.983190
N10141	N1014	0.170300	0.903640	0.939480
N10151	N1015	0.159900	0.938070	0.930390
N10161	N1016	0.189700	0.922850	0.914770
N10171	N1017	0.224660	0.871390	0.899600
N10181	N1018	0.248740	0.842500	0.872780
N10191	N1019	0.270010	0.874940	0.848860
N10201	N1020	0.313970	0.921370	0.844400
S2031	S203	0.076890	0.915250	0.041120
S2041	S204	0.254910	0.800160	0.865700
C26531	C2653	0.661050	0.468780	0.899160
H16331	H1633	0.648300	0.465400	0.906000
C26541	C2654	0.678450	0.456840	0.903670
C26551	C2655	0.697330	0.461940	0.894000
H16341	H1634	0.709600	0.454000	0.896600
C26561	C2656	0.697600	0.478840	0.880560
H16351	H1635	0.710200	0.482900	0.873900
C26571	C2657	0.679240	0.489850	0.876900
H16361	H1636	0.679600	0.501500	0.867700
C26581	C2658	0.593020	0.398280	0.031210
C26591	C2659	0.608630	0.414820	0.984660
H16371	H1637	0.597700	0.413600	0.994700
C26601	C2660	0.609440	0.432640	0.972050
H16381	H1638	0.598900	0.443000	0.973100
C26611	C2661	0.625510	0.435010	0.958230
H16391	H1639	0.626500	0.447200	0.949800
C26621	C2662	0.640570	0.419060	0.956670
C26631	C2663	0.638260	0.401690	0.969350
H16401	H1640	0.648300	0.390800	0.968200
C26641	C2664	0.657910	0.420380	0.941530
C26651	C2665	0.676190	0.438230	0.917300
C26661	C2666	0.685530	0.405700	0.925780
C26671	C2667	0.712420	0.387250	0.904350
H16411	H1641	0.712800	0.399300	0.895600
C26681	C2668	0.698780	0.387290	0.921640
C26691	C2669	0.697900	0.369280	0.933990
H16421	H1642	0.688800	0.368500	0.945700
C26701	C2670	0.710630	0.352560	0.928590
H16431	H1643	0.710300	0.340000	0.936600
C26711	C2671	0.723770	0.354150	0.911580
H16441	H1644	0.732500	0.342600	0.908200
C26721	C2672	0.751260	0.324960	0.869910
C26731	C2673	0.767600	0.361360	0.832930
H16451	H1645	0.757300	0.350700	0.834100
C26741	C2674	0.779250	0.362140	0.815270
H16461	H1646	0.776600	0.352700	0.804100
C26751	C2675	0.795190	0.377020	0.813550
H16471	H1647	0.803700	0.377800	0.801400
C26761	C2676	0.798220	0.390670	0.830110
C26771	C2677	0.784960	0.389230	0.847410
H16481	H1648	0.786700	0.398900	0.858600
C26781	C2678	0.814330	0.406960	0.829390
N10211	N1021	0.660930	0.484730	0.885870
N10221	N1022	0.604310	0.386230	0.023540
N10231	N1023	0.622730	0.399330	0.983190
N10241	N1024	0.670300	0.403640	0.939480
N10251	N1025	0.659900	0.438070	0.930390
N10261	N1026	0.689700	0.422850	0.914770
N10271	N1027	0.724660	0.371390	0.899600
N10281	N1028	0.748740	0.342500	0.872780
N10291	N1029	0.770010	0.374940	0.848860
N10301	N1030	0.813970	0.421370	0.844400
S2051	S205	0.576890	0.415250	0.041120
S2061	S206	0.754910	0.300160	0.865700
C26791	C2679	0.661050	0.968780	0.399160
H16491	H1649	0.648300	0.965400	0.406000
C26801	C2680	0.678450	0.956840	0.403670
C26811	C2681	0.697330	0.961940	0.394000
H16501	H1650	0.709600	0.954000	0.396600
C26821	C2682	0.697600	0.978840	0.380560
H16511	H1651	0.710200	0.982900	0.373900
C26831	C2683	0.679240	0.989850	0.376900
H16521	H1652	0.679600	0.001500	0.367700
C26841	C2684	0.593020	0.898280	0.531210
C26851	C2685	0.608630	0.914820	0.484660
H16531	H1653	0.597700	0.913600	0.494700
C26861	C2686	0.609440	0.932640	0.472050
H16541	H1654	0.598900	0.943000	0.473100
C26871	C2687	0.625510	0.935010	0.458230
H16551	H1655	0.626500	0.947200	0.449800
C26881	C2688	0.640570	0.919060	0.456670
C26891	C2689	0.638260	0.901690	0.469350
H16561	H1656	0.648300	0.890800	0.468200
C26901	C2690	0.657910	0.920380	0.441530
C26911	C2691	0.676190	0.938230	0.417300
C26921	C2692	0.685530	0.905700	0.425780
C26931	C2693	0.712420	0.887250	0.404350
H16571	H1657	0.712800	0.899300	0.395600
C26941	C2694	0.698780	0.887290	0.421640
C26951	C2695	0.697900	0.869280	0.433990
H16581	H1658	0.688800	0.868500	0.445700
C26961	C2696	0.710630	0.852560	0.428590
H16591	H1659	0.710300	0.840000	0.436600
C26971	C2697	0.723770	0.854150	0.411580
H16601	H1660	0.732500	0.842600	0.408200
C26981	C2698	0.751260	0.824960	0.369910
C26991	C2699	0.767600	0.861360	0.332930
H16611	H1661	0.757300	0.850700	0.334100
C27001	C2700	0.779250	0.862140	0.315270
H16621	H1662	0.776600	0.852700	0.304100
C27011	C2701	0.795190	0.877020	0.313550
H16631	H1663	0.803700	0.877800	0.301400
C27021	C2702	0.798220	0.890670	0.330110
C27031	C2703	0.784960	0.889230	0.347410
H16641	H1664	0.786700	0.898900	0.358600
C27041	C2704	0.814330	0.906960	0.329390
N10311	N1031	0.660930	0.984730	0.385870
N10321	N1032	0.604310	0.886230	0.523540
N10331	N1033	0.622730	0.899330	0.483190
N10341	N1034	0.670300	0.903640	0.439480
N10351	N1035	0.659900	0.938070	0.430390
N10361	N1036	0.689700	0.922850	0.414770
N10371	N1037	0.724660	0.871390	0.399600
N10381	N1038	0.748740	0.842500	0.372780
N10391	N1039	0.770010	0.874940	0.348860
N10401	N1040	0.813970	0.921370	0.344400
S2071	S207	0.576890	0.915250	0.541120
S2081	S208	0.754910	0.800160	0.365700
C27051	C2705	0.661050	0.281220	0.850840
H16651	H1665	0.648300	0.284600	0.844000
C27061	C2706	0.678450	0.293160	0.846330
C27071	C2707	0.697330	0.288060	0.856000
H16661	H1666	0.709600	0.296000	0.853400
C27081	C2708	0.697600	0.271160	0.869440
H16671	H1667	0.710200	0.267100	0.876100
C27091	C2709	0.679240	0.260150	0.873100
H16681	H1668	0.679600	0.248500	0.882300
C27101	C2710	0.593020	0.351720	0.718790
C27111	C2711	0.608630	0.335180	0.765340
H16691	H1669	0.597700	0.336400	0.755300
C27121	C2712	0.609440	0.317360	0.777950
H16701	H1670	0.598900	0.307000	0.776900
C27131	C2713	0.625510	0.314990	0.791770
H16711	H1671	0.626500	0.302800	0.800200
C27141	C2714	0.640570	0.330940	0.793330
C27151	C2715	0.638260	0.348310	0.780650
H16721	H1672	0.648300	0.359200	0.781800
C27161	C2716	0.657910	0.329620	0.808470
C27171	C2717	0.676190	0.311770	0.832700
C27181	C2718	0.685530	0.344300	0.824220
C27191	C2719	0.712420	0.362750	0.845650
H16731	H1673	0.712800	0.350700	0.854400
C27201	C2720	0.698780	0.362710	0.828360
C27211	C2721	0.697900	0.380720	0.816010
H16741	H1674	0.688800	0.381500	0.804300
C27221	C2722	0.710630	0.397440	0.821410
H16751	H1675	0.710300	0.410000	0.813400
C27231	C2723	0.723770	0.395850	0.838420
H16761	H1676	0.732500	0.407400	0.841800
C27241	C2724	0.751260	0.425040	0.880090
C27251	C2725	0.767600	0.388640	0.917070
H16771	H1677	0.757300	0.399300	0.915900
C27261	C2726	0.779250	0.387860	0.934730
H16781	H1678	0.776600	0.397300	0.945900
C27271	C2727	0.795190	0.372980	0.936450
H16791	H1679	0.803700	0.372200	0.948600
C27281	C2728	0.798220	0.359330	0.919890
C27291	C2729	0.784960	0.360770	0.902590
H16801	H1680	0.786700	0.351100	0.891400
C27301	C2730	0.814330	0.343040	0.920610
N10411	N1041	0.660930	0.265270	0.864130
N10421	N1042	0.604310	0.363770	0.726460
N10431	N1043	0.622730	0.350670	0.766810
N10441	N1044	0.670300	0.346360	0.810520
N10451	N1045	0.659900	0.311930	0.819610
N10461	N1046	0.689700	0.327150	0.835230
N10471	N1047	0.724660	0.378610	0.850400
N10481	N1048	0.748740	0.407500	0.877220
N10491	N1049	0.770010	0.375060	0.901140
N10501	N1050	0.813970	0.328630	0.905600
S2091	S209	0.576890	0.334750	0.708880
S2101	S210	0.754910	0.449840	0.884300
C27311	C2731	0.661050	0.781220	0.350840
H16811	H1681	0.648300	0.784600	0.344000
C27321	C2732	0.678450	0.793160	0.346330
C27331	C2733	0.697330	0.788060	0.356000
H16821	H1682	0.709600	0.796000	0.353400
C27341	C2734	0.697600	0.771160	0.369440
H16831	H1683	0.710200	0.767100	0.376100
C27351	C2735	0.679240	0.760150	0.373100
H16841	H1684	0.679600	0.748500	0.382300
C27361	C2736	0.593020	0.851720	0.218790
C27371	C2737	0.608630	0.835180	0.265340
H16851	H1685	0.597700	0.836400	0.255300
C27381	C2738	0.609440	0.817360	0.277950
H16861	H1686	0.598900	0.807000	0.276900
C27391	C2739	0.625510	0.814990	0.291770
H16871	H1687	0.626500	0.802800	0.300200
C27401	C2740	0.640570	0.830940	0.293330
C27411	C2741	0.638260	0.848310	0.280650
H16881	H1688	0.648300	0.859200	0.281800
C27421	C2742	0.657910	0.829620	0.308470
C27431	C2743	0.676190	0.811770	0.332700
C27441	C2744	0.685530	0.844300	0.324220
C27451	C2745	0.712420	0.862750	0.345650
H16891	H1689	0.712800	0.850700	0.354400
C27461	C2746	0.698780	0.862710	0.328360
C27471	C2747	0.697900	0.880720	0.316010
H16901	H1690	0.688800	0.881500	0.304300
C27481	C2748	0.710630	0.897440	0.321410
H16911	H1691	0.710300	0.910000	0.313400
C27491	C2749	0.723770	0.895850	0.338420
H16921	H1692	0.732500	0.907400	0.341800
C27501	C2750	0.751260	0.925040	0.380090
C27511	C2751	0.767600	0.888640	0.417070
H16931	H1693	0.757300	0.899300	0.415900
C27521	C2752	0.779250	0.887860	0.434730
H16941	H1694	0.776600	0.897300	0.445900
C27531	C2753	0.795190	0.872980	0.436450
H16951	H1695	0.803700	0.872200	0.448600
C27541	C2754	0.798220	0.859330	0.419890
C27551	C2755	0.784960	0.860770	0.402590
H16961	H1696	0.786700	0.851100	0.391400
C27561	C2756	0.814330	0.843040	0.420610
N10511	N1051	0.660930	0.765270	0.364130
N10521	N1052	0.604310	0.863770	0.226460
N10531	N1053	0.622730	0.850670	0.266810
N10541	N1054	0.670300	0.846360	0.310520
N10551	N1055	0.659900	0.811930	0.319610
N10561	N1056	0.689700	0.827150	0.335230
N10571	N1057	0.724660	0.878610	0.350400
N10581	N1058	0.748740	0.907500	0.377220
N10591	N1059	0.770010	0.875060	0.401140
N10601	N1060	0.813970	0.828630	0.405600
S2111	S211	0.576890	0.834750	0.208880
S2121	S212	0.754910	0.949840	0.384300
C27571	C2757	0.161050	0.281220	0.350840
H16971	H1697	0.148300	0.284600	0.344000
C27581	C2758	0.178450	0.293160	0.346330
C27591	C2759	0.197330	0.288060	0.356000
H16981	H1698	0.209600	0.296000	0.353400
C27601	C2760	0.197600	0.271160	0.369440
H16991	H1699	0.210200	0.267100	0.376100
C27611	C2761	0.179240	0.260150	0.373100
H17001	H1700	0.179600	0.248500	0.382300
C27621	C2762	0.093020	0.351720	0.218790
C27631	C2763	0.108630	0.335180	0.265340
H17011	H1701	0.097700	0.336400	0.255300
C27641	C2764	0.109440	0.317360	0.277950
H17021	H1702	0.098900	0.307000	0.276900
C27651	C2765	0.125510	0.314990	0.291770
H17031	H1703	0.126500	0.302800	0.300200
C27661	C2766	0.140570	0.330940	0.293330
C27671	C2767	0.138260	0.348310	0.280650
H17041	H1704	0.148300	0.359200	0.281800
C27681	C2768	0.157910	0.329620	0.308470
C27691	C2769	0.176190	0.311770	0.332700
C27701	C2770	0.185530	0.344300	0.324220
C27711	C2771	0.212420	0.362750	0.345650
H17051	H1705	0.212800	0.350700	0.354400
C27721	C2772	0.198780	0.362710	0.328360
C27731	C2773	0.197900	0.380720	0.316010
H17061	H1706	0.188800	0.381500	0.304300
C27741	C2774	0.210630	0.397440	0.321410
H17071	H1707	0.210300	0.410000	0.313400
C27751	C2775	0.223770	0.395850	0.338420
H17081	H1708	0.232500	0.407400	0.341800
C27761	C2776	0.251260	0.425040	0.380090
C27771	C2777	0.267600	0.388640	0.417070
H17091	H1709	0.257300	0.399300	0.415900
C27781	C2778	0.279250	0.387860	0.434730
H17101	H1710	0.276600	0.397300	0.445900
C27791	C2779	0.295190	0.372980	0.436450
H17111	H1711	0.303700	0.372200	0.448600
C27801	C2780	0.298220	0.359330	0.419890
C27811	C2781	0.284960	0.360770	0.402590
H17121	H1712	0.286700	0.351100	0.391400
C27821	C2782	0.314330	0.343040	0.420610
N10611	N1061	0.160930	0.265270	0.364130
N10621	N1062	0.104310	0.363770	0.226460
N10631	N1063	0.122730	0.350670	0.266810
N10641	N1064	0.170300	0.346360	0.310520
N10651	N1065	0.159900	0.311930	0.319610
N10661	N1066	0.189700	0.327150	0.335230
N10671	N1067	0.224660	0.378610	0.350400
N10681	N1068	0.248740	0.407500	0.377220
N10691	N1069	0.270010	0.375060	0.401140
N10701	N1070	0.313970	0.328630	0.405600
S2131	S213	0.076890	0.334750	0.208880
S2141	S214	0.254910	0.449840	0.384300
C27831	C2783	0.161050	0.781220	0.850840
H17131	H1713	0.148300	0.784600	0.844000
C27841	C2784	0.178450	0.793160	0.846330
C27851	C2785	0.197330	0.788060	0.856000
H17141	H1714	0.209600	0.796000	0.853400
C27861	C2786	0.197600	0.771160	0.869440
H17151	H1715	0.210200	0.767100	0.876100
C27871	C2787	0.179240	0.760150	0.873100
H17161	H1716	0.179600	0.748500	0.882300
C27881	C2788	0.093020	0.851720	0.718790
C27891	C2789	0.108630	0.835180	0.765340
H17171	H1717	0.097700	0.836400	0.755300
C27901	C2790	0.109440	0.817360	0.777950
H17181	H1718	0.098900	0.807000	0.776900
C27911	C2791	0.125510	0.814990	0.791770
H17191	H1719	0.126500	0.802800	0.800200
C27921	C2792	0.140570	0.830940	0.793330
C27931	C2793	0.138260	0.848310	0.780650
H17201	H1720	0.148300	0.859200	0.781800
C27941	C2794	0.157910	0.829620	0.808470
C27951	C2795	0.176190	0.811770	0.832700
C27961	C2796	0.185530	0.844300	0.824220
C27971	C2797	0.212420	0.862750	0.845650
H17211	H1721	0.212800	0.850700	0.854400
C27981	C2798	0.198780	0.862710	0.828360
C27991	C2799	0.197900	0.880720	0.816010
H17221	H1722	0.188800	0.881500	0.804300
C28001	C2800	0.210630	0.897440	0.821410
H17231	H1723	0.210300	0.910000	0.813400
C28011	C2801	0.223770	0.895850	0.838420
H17241	H1724	0.232500	0.907400	0.841800
C28021	C2802	0.251260	0.925040	0.880090
C28031	C2803	0.267600	0.888640	0.917070
H17251	H1725	0.257300	0.899300	0.915900
C28041	C2804	0.279250	0.887860	0.934730
H17261	H1726	0.276600	0.897300	0.945900
C28051	C2805	0.295190	0.872980	0.936450
H17271	H1727	0.303700	0.872200	0.948600
C28061	C2806	0.298220	0.859330	0.919890
C28071	C2807	0.284960	0.860770	0.902590
H17281	H1728	0.286700	0.851100	0.891400
C28081	C2808	0.314330	0.843040	0.920610
N10711	N1071	0.160930	0.765270	0.864130
N10721	N1072	0.104310	0.863770	0.726460
N10731	N1073	0.122730	0.850670	0.766810
N10741	N1074	0.170300	0.846360	0.810520
N10751	N1075	0.159900	0.811930	0.819610
N10761	N1076	0.189700	0.827150	0.835230
N10771	N1077	0.224660	0.878610	0.850400
N10781	N1078	0.248740	0.907500	0.877220
N10791	N1079	0.270010	0.875060	0.901140
N10801	N1080	0.313970	0.828630	0.905600
S2151	S215	0.076890	0.834750	0.708880
S2161	S216	0.254910	0.949840	0.884300
C28091	C2809	0.088950	0.968780	0.350840
H17291	H1729	0.101700	0.965400	0.344000
C28101	C2810	0.071550	0.956840	0.346330
C28111	C2811	0.052670	0.961940	0.356000
H17301	H1730	0.040400	0.954000	0.353400
C28121	C2812	0.052400	0.978840	0.369440
H17311	H1731	0.039800	0.982900	0.376100
C28131	C2813	0.070760	0.989850	0.373100
H17321	H1732	0.070400	0.001500	0.382300
C28141	C2814	0.156980	0.898280	0.218790
C28151	C2815	0.141370	0.914820	0.265340
H17331	H1733	0.152300	0.913600	0.255300
C28161	C2816	0.140560	0.932640	0.277950
H17341	H1734	0.151100	0.943000	0.276900
C28171	C2817	0.124490	0.935010	0.291770
H17351	H1735	0.123500	0.947200	0.300200
C28181	C2818	0.109430	0.919060	0.293330
C28191	C2819	0.111740	0.901690	0.280650
H17361	H1736	0.101700	0.890800	0.281800
C28201	C2820	0.092090	0.920380	0.308470
C28211	C2821	0.073810	0.938230	0.332700
C28221	C2822	0.064470	0.905700	0.324220
C28231	C2823	0.037580	0.887250	0.345650
H17371	H1737	0.037200	0.899300	0.354400
C28241	C2824	0.051220	0.887290	0.328360
C28251	C2825	0.052100	0.869280	0.316010
H17381	H1738	0.061200	0.868500	0.304300
C28261	C2826	0.039370	0.852560	0.321410
H17391	H1739	0.039700	0.840000	0.313400
C28271	C2827	0.026230	0.854150	0.338420
H17401	H1740	0.017500	0.842600	0.341800
C28281	C2828	0.998740	0.824960	0.380090
C28291	C2829	0.982400	0.861360	0.417070
H17411	H1741	0.992700	0.850700	0.415900
C28301	C2830	0.970750	0.862140	0.434730
H17421	H1742	0.973400	0.852700	0.445900
C28311	C2831	0.954810	0.877020	0.436450
H17431	H1743	0.946300	0.877800	0.448600
C28321	C2832	0.951780	0.890670	0.419890
C28331	C2833	0.965040	0.889230	0.402590
H17441	H1744	0.963300	0.898900	0.391400
C28341	C2834	0.935670	0.906960	0.420610
N10811	N1081	0.089070	0.984730	0.364130
N10821	N1082	0.145690	0.886230	0.226460
N10831	N1083	0.127270	0.899330	0.266810
N10841	N1084	0.079700	0.903640	0.310520
N10851	N1085	0.090100	0.938070	0.319610
N10861	N1086	0.060300	0.922850	0.335230
N10871	N1087	0.025340	0.871390	0.350400
N10881	N1088	0.001260	0.842500	0.377220
N10891	N1089	0.979990	0.874940	0.401140
N10901	N1090	0.936030	0.921370	0.405600
S2171	S217	0.173110	0.915250	0.208880
S2181	S218	0.995090	0.800160	0.384300
C28351	C2835	0.088950	0.468780	0.850840
H17451	H1745	0.101700	0.465400	0.844000
C28361	C2836	0.071550	0.456840	0.846330
C28371	C2837	0.052670	0.461940	0.856000
H17461	H1746	0.040400	0.454000	0.853400
C28381	C2838	0.052400	0.478840	0.869440
H17471	H1747	0.039800	0.482900	0.876100
C28391	C2839	0.070760	0.489850	0.873100
H17481	H1748	0.070400	0.501500	0.882300
C28401	C2840	0.156980	0.398280	0.718790
C28411	C2841	0.141370	0.414820	0.765340
H17491	H1749	0.152300	0.413600	0.755300
C28421	C2842	0.140560	0.432640	0.777950
H17501	H1750	0.151100	0.443000	0.776900
C28431	C2843	0.124490	0.435010	0.791770
H17511	H1751	0.123500	0.447200	0.800200
C28441	C2844	0.109430	0.419060	0.793330
C28451	C2845	0.111740	0.401690	0.780650
H17521	H1752	0.101700	0.390800	0.781800
C28461	C2846	0.092090	0.420380	0.808470
C28471	C2847	0.073810	0.438230	0.832700
C28481	C2848	0.064470	0.405700	0.824220
C28491	C2849	0.037580	0.387250	0.845650
H17531	H1753	0.037200	0.399300	0.854400
C28501	C2850	0.051220	0.387290	0.828360
C28511	C2851	0.052100	0.369280	0.816010
H17541	H1754	0.061200	0.368500	0.804300
C28521	C2852	0.039370	0.352560	0.821410
H17551	H1755	0.039700	0.340000	0.813400
C28531	C2853	0.026230	0.354150	0.838420
H17561	H1756	0.017500	0.342600	0.841800
C28541	C2854	0.998740	0.324960	0.880090
C28551	C2855	0.982400	0.361360	0.917070
H17571	H1757	0.992700	0.350700	0.915900
C28561	C2856	0.970750	0.362140	0.934730
H17581	H1758	0.973400	0.352700	0.945900
C28571	C2857	0.954810	0.377020	0.936450
H17591	H1759	0.946300	0.377800	0.948600
C28581	C2858	0.951780	0.390670	0.919890
C28591	C2859	0.965040	0.389230	0.902590
H17601	H1760	0.963300	0.398900	0.891400
C28601	C2860	0.935670	0.406960	0.920610
N10911	N1091	0.089070	0.484730	0.864130
N10921	N1092	0.145690	0.386230	0.726460
N10931	N1093	0.127270	0.399330	0.766810
N10941	N1094	0.079700	0.403640	0.810520
N10951	N1095	0.090100	0.438070	0.819610
N10961	N1096	0.060300	0.422850	0.835230
N10971	N1097	0.025340	0.371390	0.850400
N10981	N1098	0.001260	0.342500	0.877220
N10991	N1099	0.979990	0.374940	0.901140
N11001	N1100	0.936030	0.421370	0.905600
S2191	S219	0.173110	0.415250	0.708880
S2201	S220	0.995090	0.300160	0.884300
C28611	C2861	0.588950	0.968780	0.850840
H17611	H1761	0.601700	0.965400	0.844000
C28621	C2862	0.571550	0.956840	0.846330
C28631	C2863	0.552670	0.961940	0.856000
H17621	H1762	0.540400	0.954000	0.853400
C28641	C2864	0.552400	0.978840	0.869440
H17631	H1763	0.539800	0.982900	0.876100
C28651	C2865	0.570760	0.989850	0.873100
H17641	H1764	0.570400	0.001500	0.882300
C28661	C2866	0.656980	0.898280	0.718790
C28671	C2867	0.641370	0.914820	0.765340
H17651	H1765	0.652300	0.913600	0.755300
C28681	C2868	0.640560	0.932640	0.777950
H17661	H1766	0.651100	0.943000	0.776900
C28691	C2869	0.624490	0.935010	0.791770
H17671	H1767	0.623500	0.947200	0.800200
C28701	C2870	0.609430	0.919060	0.793330
C28711	C2871	0.611740	0.901690	0.780650
H17681	H1768	0.601700	0.890800	0.781800
C28721	C2872	0.592090	0.920380	0.808470
C28731	C2873	0.573810	0.938230	0.832700
C28741	C2874	0.564470	0.905700	0.824220
C28751	C2875	0.537580	0.887250	0.845650
H17691	H1769	0.537200	0.899300	0.854400
C28761	C2876	0.551220	0.887290	0.828360
C28771	C2877	0.552100	0.869280	0.816010
H17701	H1770	0.561200	0.868500	0.804300
C28781	C2878	0.539370	0.852560	0.821410
H17711	H1771	0.539700	0.840000	0.813400
C28791	C2879	0.526230	0.854150	0.838420
H17721	H1772	0.517500	0.842600	0.841800
C28801	C2880	0.498740	0.824960	0.880090
C28811	C2881	0.482400	0.861360	0.917070
H17731	H1773	0.492700	0.850700	0.915900
C28821	C2882	0.470750	0.862140	0.934730
H17741	H1774	0.473400	0.852700	0.945900
C28831	C2883	0.454810	0.877020	0.936450
H17751	H1775	0.446300	0.877800	0.948600
C28841	C2884	0.451780	0.890670	0.919890
C28851	C2885	0.465040	0.889230	0.902590
H17761	H1776	0.463300	0.898900	0.891400
C28861	C2886	0.435670	0.906960	0.920610
N11011	N1101	0.589070	0.984730	0.864130
N11021	N1102	0.645690	0.886230	0.726460
N11031	N1103	0.627270	0.899330	0.766810
N11041	N1104	0.579700	0.903640	0.810520
N11051	N1105	0.590100	0.938070	0.819610
N11061	N1106	0.560300	0.922850	0.835230
N11071	N1107	0.525340	0.871390	0.850400
N11081	N1108	0.501260	0.842500	0.877220
N11091	N1109	0.479990	0.874940	0.901140
N11101	N1110	0.436030	0.921370	0.905600
S2211	S221	0.673110	0.915250	0.708880
S2221	S222	0.495090	0.800160	0.884300
C28871	C2887	0.588950	0.468780	0.350840
H17771	H1777	0.601700	0.465400	0.344000
C28881	C2888	0.571550	0.456840	0.346330
C28891	C2889	0.552670	0.461940	0.356000
H17781	H1778	0.540400	0.454000	0.353400
C28901	C2890	0.552400	0.478840	0.369440
H17791	H1779	0.539800	0.482900	0.376100
C28911	C2891	0.570760	0.489850	0.373100
H17801	H1780	0.570400	0.501500	0.382300
C28921	C2892	0.656980	0.398280	0.218790
C28931	C2893	0.641370	0.414820	0.265340
H17811	H1781	0.652300	0.413600	0.255300
C28941	C2894	0.640560	0.432640	0.277950
H17821	H1782	0.651100	0.443000	0.276900
C28951	C2895	0.624490	0.435010	0.291770
H17831	H1783	0.623500	0.447200	0.300200
C28961	C2896	0.609430	0.419060	0.293330
C28971	C2897	0.611740	0.401690	0.280650
H17841	H1784	0.601700	0.390800	0.281800
C28981	C2898	0.592090	0.420380	0.308470
C28991	C2899	0.573810	0.438230	0.332700
C29001	C2900	0.564470	0.405700	0.324220
C29011	C2901	0.537580	0.387250	0.345650
H17851	H1785	0.537200	0.399300	0.354400
C29021	C2902	0.551220	0.387290	0.328360
C29031	C2903	0.552100	0.369280	0.316010
H17861	H1786	0.561200	0.368500	0.304300
C29041	C2904	0.539370	0.352560	0.321410
H17871	H1787	0.539700	0.340000	0.313400
C29051	C2905	0.526230	0.354150	0.338420
H17881	H1788	0.517500	0.342600	0.341800
C29061	C2906	0.498740	0.324960	0.380090
C29071	C2907	0.482400	0.361360	0.417070
H17891	H1789	0.492700	0.350700	0.415900
C29081	C2908	0.470750	0.362140	0.434730
H17901	H1790	0.473400	0.352700	0.445900
C29091	C2909	0.454810	0.377020	0.436450
H17911	H1791	0.446300	0.377800	0.448600
C29101	C2910	0.451780	0.390670	0.419890
C29111	C2911	0.465040	0.389230	0.402590
H17921	H1792	0.463300	0.398900	0.391400
C29121	C2912	0.435670	0.406960	0.420610
N11111	N1111	0.589070	0.484730	0.364130
N11121	N1112	0.645690	0.386230	0.226460
N11131	N1113	0.627270	0.399330	0.266810
N11141	N1114	0.579700	0.403640	0.310520
N11151	N1115	0.590100	0.438070	0.319610
N11161	N1116	0.560300	0.422850	0.335230
N11171	N1117	0.525340	0.371390	0.350400
N11181	N1118	0.501260	0.342500	0.377220
N11191	N1119	0.479990	0.374940	0.401140
N11201	N1120	0.436030	0.421370	0.405600
S2231	S223	0.673110	0.415250	0.208880
S2241	S224	0.495090	0.300160	0.384300
C29131	C2913	0.899160	0.588950	0.781220
H17931	H1793	0.906000	0.601700	0.784600
C29141	C2914	0.903670	0.571550	0.793160
C29151	C2915	0.894000	0.552670	0.788060
H17941	H1794	0.896600	0.540400	0.796000
C29161	C2916	0.880560	0.552400	0.771160
H17951	H1795	0.873900	0.539800	0.767100
C29171	C2917	0.876900	0.570760	0.760150
H17961	H1796	0.867700	0.570400	0.748500
C29181	C2918	0.031210	0.656980	0.851720
C29191	C2919	0.984660	0.641370	0.835180
H17971	H1797	0.994700	0.652300	0.836400
C29201	C2920	0.972050	0.640560	0.817360
H17981	H1798	0.973100	0.651100	0.807000
C29211	C2921	0.958230	0.624490	0.814990
H17991	H1799	0.949800	0.623500	0.802800
C29221	C2922	0.956670	0.609430	0.830940
C29231	C2923	0.969350	0.611740	0.848310
H18001	H1800	0.968200	0.601700	0.859200
C29241	C2924	0.941530	0.592090	0.829620
C29251	C2925	0.917300	0.573810	0.811770
C29261	C2926	0.925780	0.564470	0.844300
C29271	C2927	0.904350	0.537580	0.862750
H18011	H1801	0.895600	0.537200	0.850700
C29281	C2928	0.921640	0.551220	0.862710
C29291	C2929	0.933990	0.552100	0.880720
H18021	H1802	0.945700	0.561200	0.881500
C29301	C2930	0.928590	0.539370	0.897440
H18031	H1803	0.936600	0.539700	0.910000
C29311	C2931	0.911580	0.526230	0.895850
H18041	H1804	0.908200	0.517500	0.907400
C29321	C2932	0.869910	0.498740	0.925040
C29331	C2933	0.832930	0.482400	0.888640
H18051	H1805	0.834100	0.492700	0.899300
C29341	C2934	0.815270	0.470750	0.887860
H18061	H1806	0.804100	0.473400	0.897300
C29351	C2935	0.813550	0.454810	0.872980
H18071	H1807	0.801400	0.446300	0.872200
C29361	C2936	0.830110	0.451780	0.859330
C29371	C2937	0.847410	0.465040	0.860770
H18081	H1808	0.858600	0.463300	0.851100
C29381	C2938	0.829390	0.435670	0.843040
N11211	N1121	0.885870	0.589070	0.765270
N11221	N1122	0.023540	0.645690	0.863770
N11231	N1123	0.983190	0.627270	0.850670
N11241	N1124	0.939480	0.579700	0.846360
N11251	N1125	0.930390	0.590100	0.811930
N11261	N1126	0.914770	0.560300	0.827150
N11271	N1127	0.899600	0.525340	0.878610
N11281	N1128	0.872780	0.501260	0.907500
N11291	N1129	0.848860	0.479990	0.875060
N11301	N1130	0.844400	0.436030	0.828630
S2251	S225	0.041120	0.673110	0.834750
S2261	S226	0.865700	0.495090	0.949840
C29391	C2939	0.899160	0.088950	0.281220
H18091	H1809	0.906000	0.101700	0.284600
C29401	C2940	0.903670	0.071550	0.293160
C29411	C2941	0.894000	0.052670	0.288060
H18101	H1810	0.896600	0.040400	0.296000
C29421	C2942	0.880560	0.052400	0.271160
H18111	H1811	0.873900	0.039800	0.267100
C29431	C2943	0.876900	0.070760	0.260150
H18121	H1812	0.867700	0.070400	0.248500
C29441	C2944	0.031210	0.156980	0.351720
C29451	C2945	0.984660	0.141370	0.335180
H18131	H1813	0.994700	0.152300	0.336400
C29461	C2946	0.972050	0.140560	0.317360
H18141	H1814	0.973100	0.151100	0.307000
C29471	C2947	0.958230	0.124490	0.314990
H18151	H1815	0.949800	0.123500	0.302800
C29481	C2948	0.956670	0.109430	0.330940
C29491	C2949	0.969350	0.111740	0.348310
H18161	H1816	0.968200	0.101700	0.359200
C29501	C2950	0.941530	0.092090	0.329620
C29511	C2951	0.917300	0.073810	0.311770
C29521	C2952	0.925780	0.064470	0.344300
C29531	C2953	0.904350	0.037580	0.362750
H18171	H1817	0.895600	0.037200	0.350700
C29541	C2954	0.921640	0.051220	0.362710
C29551	C2955	0.933990	0.052100	0.380720
H18181	H1818	0.945700	0.061200	0.381500
C29561	C2956	0.928590	0.039370	0.397440
H18191	H1819	0.936600	0.039700	0.410000
C29571	C2957	0.911580	0.026230	0.395850
H18201	H1820	0.908200	0.017500	0.407400
C29581	C2958	0.869910	0.998740	0.425040
C29591	C2959	0.832930	0.982400	0.388640
H18211	H1821	0.834100	0.992700	0.399300
C29601	C2960	0.815270	0.970750	0.387860
H18221	H1822	0.804100	0.973400	0.397300
C29611	C2961	0.813550	0.954810	0.372980
H18231	H1823	0.801400	0.946300	0.372200
C29621	C2962	0.830110	0.951780	0.359330
C29631	C2963	0.847410	0.965040	0.360770
H18241	H1824	0.858600	0.963300	0.351100
C29641	C2964	0.829390	0.935670	0.343040
N11311	N1131	0.885870	0.089070	0.265270
N11321	N1132	0.023540	0.145690	0.363770
N11331	N1133	0.983190	0.127270	0.350670
N11341	N1134	0.939480	0.079700	0.346360
N11351	N1135	0.930390	0.090100	0.311930
N11361	N1136	0.914770	0.060300	0.327150
N11371	N1137	0.899600	0.025340	0.378610
N11381	N1138	0.872780	0.001260	0.407500
N11391	N1139	0.848860	0.979990	0.375060
N11401	N1140	0.844400	0.936030	0.328630
S2271	S227	0.041120	0.173110	0.334750
S2281	S228	0.865700	0.995090	0.449840
C29651	C2965	0.399160	0.588950	0.281220
H18251	H1825	0.406000	0.601700	0.284600
C29661	C2966	0.403670	0.571550	0.293160
C29671	C2967	0.394000	0.552670	0.288060
H18261	H1826	0.396600	0.540400	0.296000
C29681	C2968	0.380560	0.552400	0.271160
H18271	H1827	0.373900	0.539800	0.267100
C29691	C2969	0.376900	0.570760	0.260150
H18281	H1828	0.367700	0.570400	0.248500
C29701	C2970	0.531210	0.656980	0.351720
C29711	C2971	0.484660	0.641370	0.335180
H18291	H1829	0.494700	0.652300	0.336400
C29721	C2972	0.472050	0.640560	0.317360
H18301	H1830	0.473100	0.651100	0.307000
C29731	C2973	0.458230	0.624490	0.314990
H18311	H1831	0.449800	0.623500	0.302800
C29741	C2974	0.456670	0.609430	0.330940
C29751	C2975	0.469350	0.611740	0.348310
H18321	H1832	0.468200	0.601700	0.359200
C29761	C2976	0.441530	0.592090	0.329620
C29771	C2977	0.417300	0.573810	0.311770
C29781	C2978	0.425780	0.564470	0.344300
C29791	C2979	0.404350	0.537580	0.362750
H18331	H1833	0.395600	0.537200	0.350700
C29801	C2980	0.421640	0.551220	0.362710
C29811	C2981	0.433990	0.552100	0.380720
H18341	H1834	0.445700	0.561200	0.381500
C29821	C2982	0.428590	0.539370	0.397440
H18351	H1835	0.436600	0.539700	0.410000
C29831	C2983	0.411580	0.526230	0.395850
H18361	H1836	0.408200	0.517500	0.407400
C29841	C2984	0.369910	0.498740	0.425040
C29851	C2985	0.332930	0.482400	0.388640
H18371	H1837	0.334100	0.492700	0.399300
C29861	C2986	0.315270	0.470750	0.387860
H18381	H1838	0.304100	0.473400	0.397300
C29871	C2987	0.313550	0.454810	0.372980
H18391	H1839	0.301400	0.446300	0.372200
C29881	C2988	0.330110	0.451780	0.359330
C29891	C2989	0.347410	0.465040	0.360770
H18401	H1840	0.358600	0.463300	0.351100
C29901	C2990	0.329390	0.435670	0.343040
N11411	N1141	0.385870	0.589070	0.265270
N11421	N1142	0.523540	0.645690	0.363770
N11431	N1143	0.483190	0.627270	0.350670
N11441	N1144	0.439480	0.579700	0.346360
N11451	N1145	0.430390	0.590100	0.311930
N11461	N1146	0.414770	0.560300	0.327150
N11471	N1147	0.399600	0.525340	0.378610
N11481	N1148	0.372780	0.501260	0.407500
N11491	N1149	0.348860	0.479990	0.375060
N11501	N1150	0.344400	0.436030	0.328630
S2291	S229	0.541120	0.673110	0.334750
S2301	S230	0.365700	0.495090	0.449840
C29911	C2991	0.399160	0.088950	0.781220
H18411	H1841	0.406000	0.101700	0.784600
C29921	C2992	0.403670	0.071550	0.793160
C29931	C2993	0.394000	0.052670	0.788060
H18421	H1842	0.396600	0.040400	0.796000
C29941	C2994	0.380560	0.052400	0.771160
H18431	H1843	0.373900	0.039800	0.767100
C29951	C2995	0.376900	0.070760	0.760150
H18441	H1844	0.367700	0.070400	0.748500
C29961	C2996	0.531210	0.156980	0.851720
C29971	C2997	0.484660	0.141370	0.835180
H18451	H1845	0.494700	0.152300	0.836400
C29981	C2998	0.472050	0.140560	0.817360
H18461	H1846	0.473100	0.151100	0.807000
C29991	C2999	0.458230	0.124490	0.814990
H18471	H1847	0.449800	0.123500	0.802800
C30001	C3000	0.456670	0.109430	0.830940
C30011	C3001	0.469350	0.111740	0.848310
H18481	H1848	0.468200	0.101700	0.859200
C30021	C3002	0.441530	0.092090	0.829620
C30031	C3003	0.417300	0.073810	0.811770
C30041	C3004	0.425780	0.064470	0.844300
C30051	C3005	0.404350	0.037580	0.862750
H18491	H1849	0.395600	0.037200	0.850700
C30061	C3006	0.421640	0.051220	0.862710
C30071	C3007	0.433990	0.052100	0.880720
H18501	H1850	0.445700	0.061200	0.881500
C30081	C3008	0.428590	0.039370	0.897440
H18511	H1851	0.436600	0.039700	0.910000
C30091	C3009	0.411580	0.026230	0.895850
H18521	H1852	0.408200	0.017500	0.907400
C30101	C3010	0.369910	0.998740	0.925040
C30111	C3011	0.332930	0.982400	0.888640
H18531	H1853	0.334100	0.992700	0.899300
C30121	C3012	0.315270	0.970750	0.887860
H18541	H1854	0.304100	0.973400	0.897300
C30131	C3013	0.313550	0.954810	0.872980
H18551	H1855	0.301400	0.946300	0.872200
C30141	C3014	0.330110	0.951780	0.859330
C30151	C3015	0.347410	0.965040	0.860770
H18561	H1856	0.358600	0.963300	0.851100
C30161	C3016	0.329390	0.935670	0.843040
N11511	N1151	0.385870	0.089070	0.765270
N11521	N1152	0.523540	0.145690	0.863770
N11531	N1153	0.483190	0.127270	0.850670
N11541	N1154	0.439480	0.079700	0.846360
N11551	N1155	0.430390	0.090100	0.811930
N11561	N1156	0.414770	0.060300	0.827150
N11571	N1157	0.399600	0.025340	0.878610
N11581	N1158	0.372780	0.001260	0.907500
N11591	N1159	0.348860	0.979990	0.875060
N11601	N1160	0.344400	0.936030	0.828630
S2311	S231	0.541120	0.173110	0.834750
S2321	S232	0.365700	0.995090	0.949840
C30171	C3017	0.399160	0.161050	0.468780
H18571	H1857	0.406000	0.148300	0.465400
C30181	C3018	0.403670	0.178450	0.456840
C30191	C3019	0.394000	0.197330	0.461940
H18581	H1858	0.396600	0.209600	0.454000
C30201	C3020	0.380560	0.197600	0.478840
H18591	H1859	0.373900	0.210200	0.482900
C30211	C3021	0.376900	0.179240	0.489850
H18601	H1860	0.367700	0.179600	0.501500
C30221	C3022	0.531210	0.093020	0.398280
C30231	C3023	0.484660	0.108630	0.414820
H18611	H1861	0.494700	0.097700	0.413600
C30241	C3024	0.472050	0.109440	0.432640
H18621	H1862	0.473100	0.098900	0.443000
C30251	C3025	0.458230	0.125510	0.435010
H18631	H1863	0.449800	0.126500	0.447200
C30261	C3026	0.456670	0.140570	0.419060
C30271	C3027	0.469350	0.138260	0.401690
H18641	H1864	0.468200	0.148300	0.390800
C30281	C3028	0.441530	0.157910	0.420380
C30291	C3029	0.417300	0.176190	0.438230
C30301	C3030	0.425780	0.185530	0.405700
C30311	C3031	0.404350	0.212420	0.387250
H18651	H1865	0.395600	0.212800	0.399300
C30321	C3032	0.421640	0.198780	0.387290
C30331	C3033	0.433990	0.197900	0.369280
H18661	H1866	0.445700	0.188800	0.368500
C30341	C3034	0.428590	0.210630	0.352560
H18671	H1867	0.436600	0.210300	0.340000
C30351	C3035	0.411580	0.223770	0.354150
H18681	H1868	0.408200	0.232500	0.342600
C30361	C3036	0.369910	0.251260	0.324960
C30371	C3037	0.332930	0.267600	0.361360
H18691	H1869	0.334100	0.257300	0.350700
C30381	C3038	0.315270	0.279250	0.362140
H18701	H1870	0.304100	0.276600	0.352700
C30391	C3039	0.313550	0.295190	0.377020
H18711	H1871	0.301400	0.303700	0.377800
C30401	C3040	0.330110	0.298220	0.390670
C30411	C3041	0.347410	0.284960	0.389230
H18721	H1872	0.358600	0.286700	0.398900
C30421	C3042	0.329390	0.314330	0.406960
N11611	N1161	0.385870	0.160930	0.484730
N11621	N1162	0.523540	0.104310	0.386230
N11631	N1163	0.483190	0.122730	0.399330
N11641	N1164	0.439480	0.170300	0.403640
N11651	N1165	0.430390	0.159900	0.438070
N11661	N1166	0.414770	0.189700	0.422850
N11671	N1167	0.399600	0.224660	0.371390
N11681	N1168	0.372780	0.248740	0.342500
N11691	N1169	0.348860	0.270010	0.374940
N11701	N1170	0.344400	0.313970	0.421370
S2331	S233	0.541120	0.076890	0.415250
S2341	S234	0.365700	0.254910	0.300160
C30431	C3043	0.399160	0.661050	0.968780
H18731	H1873	0.406000	0.648300	0.965400
C30441	C3044	0.403670	0.678450	0.956840
C30451	C3045	0.394000	0.697330	0.961940
H18741	H1874	0.396600	0.709600	0.954000
C30461	C3046	0.380560	0.697600	0.978840
H18751	H1875	0.373900	0.710200	0.982900
C30471	C3047	0.376900	0.679240	0.989850
H18761	H1876	0.367700	0.679600	0.001500
C30481	C3048	0.531210	0.593020	0.898280
C30491	C3049	0.484660	0.608630	0.914820
H18771	H1877	0.494700	0.597700	0.913600
C30501	C3050	0.472050	0.609440	0.932640
H18781	H1878	0.473100	0.598900	0.943000
C30511	C3051	0.458230	0.625510	0.935010
H18791	H1879	0.449800	0.626500	0.947200
C30521	C3052	0.456670	0.640570	0.919060
C30531	C3053	0.469350	0.638260	0.901690
H18801	H1880	0.468200	0.648300	0.890800
C30541	C3054	0.441530	0.657910	0.920380
C30551	C3055	0.417300	0.676190	0.938230
C30561	C3056	0.425780	0.685530	0.905700
C30571	C3057	0.404350	0.712420	0.887250
H18811	H1881	0.395600	0.712800	0.899300
C30581	C3058	0.421640	0.698780	0.887290
C30591	C3059	0.433990	0.697900	0.869280
H18821	H1882	0.445700	0.688800	0.868500
C30601	C3060	0.428590	0.710630	0.852560
H18831	H1883	0.436600	0.710300	0.840000
C30611	C3061	0.411580	0.723770	0.854150
H18841	H1884	0.408200	0.732500	0.842600
C30621	C3062	0.369910	0.751260	0.824960
C30631	C3063	0.332930	0.767600	0.861360
H18851	H1885	0.334100	0.757300	0.850700
C30641	C3064	0.315270	0.779250	0.862140
H18861	H1886	0.304100	0.776600	0.852700
C30651	C3065	0.313550	0.795190	0.877020
H18871	H1887	0.301400	0.803700	0.877800
C30661	C3066	0.330110	0.798220	0.890670
C30671	C3067	0.347410	0.784960	0.889230
H18881	H1888	0.358600	0.786700	0.898900
C30681	C3068	0.329390	0.814330	0.906960
N11711	N1171	0.385870	0.660930	0.984730
N11721	N1172	0.523540	0.604310	0.886230
N11731	N1173	0.483190	0.622730	0.899330
N11741	N1174	0.439480	0.670300	0.903640
N11751	N1175	0.430390	0.659900	0.938070
N11761	N1176	0.414770	0.689700	0.922850
N11771	N1177	0.399600	0.724660	0.871390
N11781	N1178	0.372780	0.748740	0.842500
N11791	N1179	0.348860	0.770010	0.874940
N11801	N1180	0.344400	0.813970	0.921370
S2351	S235	0.541120	0.576890	0.915250
S2361	S236	0.365700	0.754910	0.800160
C30691	C3069	0.899160	0.161050	0.968780
H18891	H1889	0.906000	0.148300	0.965400
C30701	C3070	0.903670	0.178450	0.956840
C30711	C3071	0.894000	0.197330	0.961940
H18901	H1890	0.896600	0.209600	0.954000
C30721	C3072	0.880560	0.197600	0.978840
H18911	H1891	0.873900	0.210200	0.982900
C30731	C3073	0.876900	0.179240	0.989850
H18921	H1892	0.867700	0.179600	0.001500
C30741	C3074	0.031210	0.093020	0.898280
C30751	C3075	0.984660	0.108630	0.914820
H18931	H1893	0.994700	0.097700	0.913600
C30761	C3076	0.972050	0.109440	0.932640
H18941	H1894	0.973100	0.098900	0.943000
C30771	C3077	0.958230	0.125510	0.935010
H18951	H1895	0.949800	0.126500	0.947200
C30781	C3078	0.956670	0.140570	0.919060
C30791	C3079	0.969350	0.138260	0.901690
H18961	H1896	0.968200	0.148300	0.890800
C30801	C3080	0.941530	0.157910	0.920380
C30811	C3081	0.917300	0.176190	0.938230
C30821	C3082	0.925780	0.185530	0.905700
C30831	C3083	0.904350	0.212420	0.887250
H18971	H1897	0.895600	0.212800	0.899300
C30841	C3084	0.921640	0.198780	0.887290
C30851	C3085	0.933990	0.197900	0.869280
H18981	H1898	0.945700	0.188800	0.868500
C30861	C3086	0.928590	0.210630	0.852560
H18991	H1899	0.936600	0.210300	0.840000
C30871	C3087	0.911580	0.223770	0.854150
H19001	H1900	0.908200	0.232500	0.842600
C30881	C3088	0.869910	0.251260	0.824960
C30891	C3089	0.832930	0.267600	0.861360
H19011	H1901	0.834100	0.257300	0.850700
C30901	C3090	0.815270	0.279250	0.862140
H19021	H1902	0.804100	0.276600	0.852700
C30911	C3091	0.813550	0.295190	0.877020
H19031	H1903	0.801400	0.303700	0.877800
C30921	C3092	0.830110	0.298220	0.890670
C30931	C3093	0.847410	0.284960	0.889230
H19041	H1904	0.858600	0.286700	0.898900
C30941	C3094	0.829390	0.314330	0.906960
N11811	N1181	0.885870	0.160930	0.984730
N11821	N1182	0.023540	0.104310	0.886230
N11831	N1183	0.983190	0.122730	0.899330
N11841	N1184	0.939480	0.170300	0.903640
N11851	N1185	0.930390	0.159900	0.938070
N11861	N1186	0.914770	0.189700	0.922850
N11871	N1187	0.899600	0.224660	0.871390
N11881	N1188	0.872780	0.248740	0.842500
N11891	N1189	0.848860	0.270010	0.874940
N11901	N1190	0.844400	0.313970	0.921370
S2371	S237	0.041120	0.076890	0.915250
S2381	S238	0.865700	0.254910	0.800160
C30951	C3095	0.899160	0.661050	0.468780
H19051	H1905	0.906000	0.648300	0.465400
C30961	C3096	0.903670	0.678450	0.456840
C30971	C3097	0.894000	0.697330	0.461940
H19061	H1906	0.896600	0.709600	0.454000
C30981	C3098	0.880560	0.697600	0.478840
H19071	H1907	0.873900	0.710200	0.482900
C30991	C3099	0.876900	0.679240	0.489850
H19081	H1908	0.867700	0.679600	0.501500
C31001	C3100	0.031210	0.593020	0.398280
C31011	C3101	0.984660	0.608630	0.414820
H19091	H1909	0.994700	0.597700	0.413600
C31021	C3102	0.972050	0.609440	0.432640
H19101	H1910	0.973100	0.598900	0.443000
C31031	C3103	0.958230	0.625510	0.435010
H19111	H1911	0.949800	0.626500	0.447200
C31041	C3104	0.956670	0.640570	0.419060
C31051	C3105	0.969350	0.638260	0.401690
H19121	H1912	0.968200	0.648300	0.390800
C31061	C3106	0.941530	0.657910	0.420380
C31071	C3107	0.917300	0.676190	0.438230
C31081	C3108	0.925780	0.685530	0.405700
C31091	C3109	0.904350	0.712420	0.387250
H19131	H1913	0.895600	0.712800	0.399300
C31101	C3110	0.921640	0.698780	0.387290
C31111	C3111	0.933990	0.697900	0.369280
H19141	H1914	0.945700	0.688800	0.368500
C31121	C3112	0.928590	0.710630	0.352560
H19151	H1915	0.936600	0.710300	0.340000
C31131	C3113	0.911580	0.723770	0.354150
H19161	H1916	0.908200	0.732500	0.342600
C31141	C3114	0.869910	0.751260	0.324960
C31151	C3115	0.832930	0.767600	0.361360
H19171	H1917	0.834100	0.757300	0.350700
C31161	C3116	0.815270	0.779250	0.362140
H19181	H1918	0.804100	0.776600	0.352700
C31171	C3117	0.813550	0.795190	0.377020
H19191	H1919	0.801400	0.803700	0.377800
C31181	C3118	0.830110	0.798220	0.390670
C31191	C3119	0.847410	0.784960	0.389230
H19201	H1920	0.858600	0.786700	0.398900
C31201	C3120	0.829390	0.814330	0.406960
N11911	N1191	0.885870	0.660930	0.484730
N11921	N1192	0.023540	0.604310	0.386230
N11931	N1193	0.983190	0.622730	0.399330
N11941	N1194	0.939480	0.670300	0.403640
N11951	N1195	0.930390	0.659900	0.438070
N11961	N1196	0.914770	0.689700	0.422850
N11971	N1197	0.899600	0.724660	0.371390
N11981	N1198	0.872780	0.748740	0.342500
N11991	N1199	0.848860	0.770010	0.374940
N12001	N1200	0.844400	0.813970	0.421370
S2391	S239	0.041120	0.576890	0.415250
S2401	S240	0.865700	0.754910	0.300160
C31211	C3121	0.850840	0.661050	0.281220
H19211	H1921	0.844000	0.648300	0.284600
C31221	C3122	0.846330	0.678450	0.293160
C31231	C3123	0.856000	0.697330	0.288060
H19221	H1922	0.853400	0.709600	0.296000
C31241	C3124	0.869440	0.697600	0.271160
H19231	H1923	0.876100	0.710200	0.267100
C31251	C3125	0.873100	0.679240	0.260150
H19241	H1924	0.882300	0.679600	0.248500
C31261	C3126	0.718790	0.593020	0.351720
C31271	C3127	0.765340	0.608630	0.335180
H19251	H1925	0.755300	0.597700	0.336400
C31281	C3128	0.777950	0.609440	0.317360
H19261	H1926	0.776900	0.598900	0.307000
C31291	C3129	0.791770	0.625510	0.314990
H19271	H1927	0.800200	0.626500	0.302800
C31301	C3130	0.793330	0.640570	0.330940
C31311	C3131	0.780650	0.638260	0.348310
H19281	H1928	0.781800	0.648300	0.359200
C31321	C3132	0.808470	0.657910	0.329620
C31331	C3133	0.832700	0.676190	0.311770
C31341	C3134	0.824220	0.685530	0.344300
C31351	C3135	0.845650	0.712420	0.362750
H19291	H1929	0.854400	0.712800	0.350700
C31361	C3136	0.828360	0.698780	0.362710
C31371	C3137	0.816010	0.697900	0.380720
H19301	H1930	0.804300	0.688800	0.381500
C31381	C3138	0.821410	0.710630	0.397440
H19311	H1931	0.813400	0.710300	0.410000
C31391	C3139	0.838420	0.723770	0.395850
H19321	H1932	0.841800	0.732500	0.407400
C31401	C3140	0.880090	0.751260	0.425040
C31411	C3141	0.917070	0.767600	0.388640
H19331	H1933	0.915900	0.757300	0.399300
C31421	C3142	0.934730	0.779250	0.387860
H19341	H1934	0.945900	0.776600	0.397300
C31431	C3143	0.936450	0.795190	0.372980
H19351	H1935	0.948600	0.803700	0.372200
C31441	C3144	0.919890	0.798220	0.359330
C31451	C3145	0.902590	0.784960	0.360770
H19361	H1936	0.891400	0.786700	0.351100
C31461	C3146	0.920610	0.814330	0.343040
N12011	N1201	0.864130	0.660930	0.265270
N12021	N1202	0.726460	0.604310	0.363770
N12031	N1203	0.766810	0.622730	0.350670
N12041	N1204	0.810520	0.670300	0.346360
N12051	N1205	0.819610	0.659900	0.311930
N12061	N1206	0.835230	0.689700	0.327150
N12071	N1207	0.850400	0.724660	0.378610
N12081	N1208	0.877220	0.748740	0.407500
N12091	N1209	0.901140	0.770010	0.375060
N12101	N1210	0.905600	0.813970	0.328630
S2411	S241	0.708880	0.576890	0.334750
S2421	S242	0.884300	0.754910	0.449840
C31471	C3147	0.850840	0.161050	0.781220
H19371	H1937	0.844000	0.148300	0.784600
C31481	C3148	0.846330	0.178450	0.793160
C31491	C3149	0.856000	0.197330	0.788060
H19381	H1938	0.853400	0.209600	0.796000
C31501	C3150	0.869440	0.197600	0.771160
H19391	H1939	0.876100	0.210200	0.767100
C31511	C3151	0.873100	0.179240	0.760150
H19401	H1940	0.882300	0.179600	0.748500
C31521	C3152	0.718790	0.093020	0.851720
C31531	C3153	0.765340	0.108630	0.835180
H19411	H1941	0.755300	0.097700	0.836400
C31541	C3154	0.777950	0.109440	0.817360
H19421	H1942	0.776900	0.098900	0.807000
C31551	C3155	0.791770	0.125510	0.814990
H19431	H1943	0.800200	0.126500	0.802800
C31561	C3156	0.793330	0.140570	0.830940
C31571	C3157	0.780650	0.138260	0.848310
H19441	H1944	0.781800	0.148300	0.859200
C31581	C3158	0.808470	0.157910	0.829620
C31591	C3159	0.832700	0.176190	0.811770
C31601	C3160	0.824220	0.185530	0.844300
C31611	C3161	0.845650	0.212420	0.862750
H19451	H1945	0.854400	0.212800	0.850700
C31621	C3162	0.828360	0.198780	0.862710
C31631	C3163	0.816010	0.197900	0.880720
H19461	H1946	0.804300	0.188800	0.881500
C31641	C3164	0.821410	0.210630	0.897440
H19471	H1947	0.813400	0.210300	0.910000
C31651	C3165	0.838420	0.223770	0.895850
H19481	H1948	0.841800	0.232500	0.907400
C31661	C3166	0.880090	0.251260	0.925040
C31671	C3167	0.917070	0.267600	0.888640
H19491	H1949	0.915900	0.257300	0.899300
C31681	C3168	0.934730	0.279250	0.887860
H19501	H1950	0.945900	0.276600	0.897300
C31691	C3169	0.936450	0.295190	0.872980
H19511	H1951	0.948600	0.303700	0.872200
C31701	C3170	0.919890	0.298220	0.859330
C31711	C3171	0.902590	0.284960	0.860770
H19521	H1952	0.891400	0.286700	0.851100
C31721	C3172	0.920610	0.314330	0.843040
N12111	N1211	0.864130	0.160930	0.765270
N12121	N1212	0.726460	0.104310	0.863770
N12131	N1213	0.766810	0.122730	0.850670
N12141	N1214	0.810520	0.170300	0.846360
N12151	N1215	0.819610	0.159900	0.811930
N12161	N1216	0.835230	0.189700	0.827150
N12171	N1217	0.850400	0.224660	0.878610
N12181	N1218	0.877220	0.248740	0.907500
N12191	N1219	0.901140	0.270010	0.875060
N12201	N1220	0.905600	0.313970	0.828630
S2431	S243	0.708880	0.076890	0.834750
S2441	S244	0.884300	0.254910	0.949840
C31731	C3173	0.350840	0.661050	0.781220
H19531	H1953	0.344000	0.648300	0.784600
C31741	C3174	0.346330	0.678450	0.793160
C31751	C3175	0.356000	0.697330	0.788060
H19541	H1954	0.353400	0.709600	0.796000
C31761	C3176	0.369440	0.697600	0.771160
H19551	H1955	0.376100	0.710200	0.767100
C31771	C3177	0.373100	0.679240	0.760150
H19561	H1956	0.382300	0.679600	0.748500
C31781	C3178	0.218790	0.593020	0.851720
C31791	C3179	0.265340	0.608630	0.835180
H19571	H1957	0.255300	0.597700	0.836400
C31801	C3180	0.277950	0.609440	0.817360
H19581	H1958	0.276900	0.598900	0.807000
C31811	C3181	0.291770	0.625510	0.814990
H19591	H1959	0.300200	0.626500	0.802800
C31821	C3182	0.293330	0.640570	0.830940
C31831	C3183	0.280650	0.638260	0.848310
H19601	H1960	0.281800	0.648300	0.859200
C31841	C3184	0.308470	0.657910	0.829620
C31851	C3185	0.332700	0.676190	0.811770
C31861	C3186	0.324220	0.685530	0.844300
C31871	C3187	0.345650	0.712420	0.862750
H19611	H1961	0.354400	0.712800	0.850700
C31881	C3188	0.328360	0.698780	0.862710
C31891	C3189	0.316010	0.697900	0.880720
H19621	H1962	0.304300	0.688800	0.881500
C31901	C3190	0.321410	0.710630	0.897440
H19631	H1963	0.313400	0.710300	0.910000
C31911	C3191	0.338420	0.723770	0.895850
H19641	H1964	0.341800	0.732500	0.907400
C31921	C3192	0.380090	0.751260	0.925040
C31931	C3193	0.417070	0.767600	0.888640
H19651	H1965	0.415900	0.757300	0.899300
C31941	C3194	0.434730	0.779250	0.887860
H19661	H1966	0.445900	0.776600	0.897300
C31951	C3195	0.436450	0.795190	0.872980
H19671	H1967	0.448600	0.803700	0.872200
C31961	C3196	0.419890	0.798220	0.859330
C31971	C3197	0.402590	0.784960	0.860770
H19681	H1968	0.391400	0.786700	0.851100
C31981	C3198	0.420610	0.814330	0.843040
N12211	N1221	0.364130	0.660930	0.765270
N12221	N1222	0.226460	0.604310	0.863770
N12231	N1223	0.266810	0.622730	0.850670
N12241	N1224	0.310520	0.670300	0.846360
N12251	N1225	0.319610	0.659900	0.811930
N12261	N1226	0.335230	0.689700	0.827150
N12271	N1227	0.350400	0.724660	0.878610
N12281	N1228	0.377220	0.748740	0.907500
N12291	N1229	0.401140	0.770010	0.875060
N12301	N1230	0.405600	0.813970	0.828630
S2451	S245	0.208880	0.576890	0.834750
S2461	S246	0.384300	0.754910	0.949840
C31991	C3199	0.350840	0.161050	0.281220
H19691	H1969	0.344000	0.148300	0.284600
C32001	C3200	0.346330	0.178450	0.293160
C32011	C3201	0.356000	0.197330	0.288060
H19701	H1970	0.353400	0.209600	0.296000
C32021	C3202	0.369440	0.197600	0.271160
H19711	H1971	0.376100	0.210200	0.267100
C32031	C3203	0.373100	0.179240	0.260150
H19721	H1972	0.382300	0.179600	0.248500
C32041	C3204	0.218790	0.093020	0.351720
C32051	C3205	0.265340	0.108630	0.335180
H19731	H1973	0.255300	0.097700	0.336400
C32061	C3206	0.277950	0.109440	0.317360
H19741	H1974	0.276900	0.098900	0.307000
C32071	C3207	0.291770	0.125510	0.314990
H19751	H1975	0.300200	0.126500	0.302800
C32081	C3208	0.293330	0.140570	0.330940
C32091	C3209	0.280650	0.138260	0.348310
H19761	H1976	0.281800	0.148300	0.359200
C32101	C3210	0.308470	0.157910	0.329620
C32111	C3211	0.332700	0.176190	0.311770
C32121	C3212	0.324220	0.185530	0.344300
C32131	C3213	0.345650	0.212420	0.362750
H19771	H1977	0.354400	0.212800	0.350700
C32141	C3214	0.328360	0.198780	0.362710
C32151	C3215	0.316010	0.197900	0.380720
H19781	H1978	0.304300	0.188800	0.381500
C32161	C3216	0.321410	0.210630	0.397440
H19791	H1979	0.313400	0.210300	0.410000
C32171	C3217	0.338420	0.223770	0.395850
H19801	H1980	0.341800	0.232500	0.407400
C32181	C3218	0.380090	0.251260	0.425040
C32191	C3219	0.417070	0.267600	0.388640
H19811	H1981	0.415900	0.257300	0.399300
C32201	C3220	0.434730	0.279250	0.387860
H19821	H1982	0.445900	0.276600	0.397300
C32211	C3221	0.436450	0.295190	0.372980
H19831	H1983	0.448600	0.303700	0.372200
C32221	C3222	0.419890	0.298220	0.359330
C32231	C3223	0.402590	0.284960	0.360770
H19841	H1984	0.391400	0.286700	0.351100
C32241	C3224	0.420610	0.314330	0.343040
N12311	N1231	0.364130	0.160930	0.265270
N12321	N1232	0.226460	0.104310	0.363770
N12331	N1233	0.266810	0.122730	0.350670
N12341	N1234	0.310520	0.170300	0.346360
N12351	N1235	0.319610	0.159900	0.311930
N12361	N1236	0.335230	0.189700	0.327150
N12371	N1237	0.350400	0.224660	0.378610
N12381	N1238	0.377220	0.248740	0.407500
N12391	N1239	0.401140	0.270010	0.375060
N12401	N1240	0.405600	0.313970	0.328630
S2471	S247	0.208880	0.076890	0.334750
S2481	S248	0.384300	0.254910	0.449840
C32251	C3225	0.350840	0.088950	0.968780
H19851	H1985	0.344000	0.101700	0.965400
C32261	C3226	0.346330	0.071550	0.956840
C32271	C3227	0.356000	0.052670	0.961940
H19861	H1986	0.353400	0.040400	0.954000
C32281	C3228	0.369440	0.052400	0.978840
H19871	H1987	0.376100	0.039800	0.982900
C32291	C3229	0.373100	0.070760	0.989850
H19881	H1988	0.382300	0.070400	0.001500
C32301	C3230	0.218790	0.156980	0.898280
C32311	C3231	0.265340	0.141370	0.914820
H19891	H1989	0.255300	0.152300	0.913600
C32321	C3232	0.277950	0.140560	0.932640
H19901	H1990	0.276900	0.151100	0.943000
C32331	C3233	0.291770	0.124490	0.935010
H19911	H1991	0.300200	0.123500	0.947200
C32341	C3234	0.293330	0.109430	0.919060
C32351	C3235	0.280650	0.111740	0.901690
H19921	H1992	0.281800	0.101700	0.890800
C32361	C3236	0.308470	0.092090	0.920380
C32371	C3237	0.332700	0.073810	0.938230
C32381	C3238	0.324220	0.064470	0.905700
C32391	C3239	0.345650	0.037580	0.887250
H19931	H1993	0.354400	0.037200	0.899300
C32401	C3240	0.328360	0.051220	0.887290
C32411	C3241	0.316010	0.052100	0.869280
H19941	H1994	0.304300	0.061200	0.868500
C32421	C3242	0.321410	0.039370	0.852560
H19951	H1995	0.313400	0.039700	0.840000
C32431	C3243	0.338420	0.026230	0.854150
H19961	H1996	0.341800	0.017500	0.842600
C32441	C3244	0.380090	0.998740	0.824960
C32451	C3245	0.417070	0.982400	0.861360
H19971	H1997	0.415900	0.992700	0.850700
C32461	C3246	0.434730	0.970750	0.862140
H19981	H1998	0.445900	0.973400	0.852700
C32471	C3247	0.436450	0.954810	0.877020
H19991	H1999	0.448600	0.946300	0.877800
C32481	C3248	0.419890	0.951780	0.890670
C32491	C3249	0.402590	0.965040	0.889230
H20001	H2000	0.391400	0.963300	0.898900
C32501	C3250	0.420610	0.935670	0.906960
N12411	N1241	0.364130	0.089070	0.984730
N12421	N1242	0.226460	0.145690	0.886230
N12431	N1243	0.266810	0.127270	0.899330
N12441	N1244	0.310520	0.079700	0.903640
N12451	N1245	0.319610	0.090100	0.938070
N12461	N1246	0.335230	0.060300	0.922850
N12471	N1247	0.350400	0.025340	0.871390
N12481	N1248	0.377220	0.001260	0.842500
N12491	N1249	0.401140	0.979990	0.874940
N12501	N1250	0.405600	0.936030	0.921370
S2491	S249	0.208880	0.173110	0.915250
S2501	S250	0.384300	0.995090	0.800160
C32511	C3251	0.350840	0.588950	0.468780
H20011	H2001	0.344000	0.601700	0.465400
C32521	C3252	0.346330	0.571550	0.456840
C32531	C3253	0.356000	0.552670	0.461940
H20021	H2002	0.353400	0.540400	0.454000
C32541	C3254	0.369440	0.552400	0.478840
H20031	H2003	0.376100	0.539800	0.482900
C32551	C3255	0.373100	0.570760	0.489850
H20041	H2004	0.382300	0.570400	0.501500
C32561	C3256	0.218790	0.656980	0.398280
C32571	C3257	0.265340	0.641370	0.414820
H20051	H2005	0.255300	0.652300	0.413600
C32581	C3258	0.277950	0.640560	0.432640
H20061	H2006	0.276900	0.651100	0.443000
C32591	C3259	0.291770	0.624490	0.435010
H20071	H2007	0.300200	0.623500	0.447200
C32601	C3260	0.293330	0.609430	0.419060
C32611	C3261	0.280650	0.611740	0.401690
H20081	H2008	0.281800	0.601700	0.390800
C32621	C3262	0.308470	0.592090	0.420380
C32631	C3263	0.332700	0.573810	0.438230
C32641	C3264	0.324220	0.564470	0.405700
C32651	C3265	0.345650	0.537580	0.387250
H20091	H2009	0.354400	0.537200	0.399300
C32661	C3266	0.328360	0.551220	0.387290
C32671	C3267	0.316010	0.552100	0.369280
H20101	H2010	0.304300	0.561200	0.368500
C32681	C3268	0.321410	0.539370	0.352560
H20111	H2011	0.313400	0.539700	0.340000
C32691	C3269	0.338420	0.526230	0.354150
H20121	H2012	0.341800	0.517500	0.342600
C32701	C3270	0.380090	0.498740	0.324960
C32711	C3271	0.417070	0.482400	0.361360
H20131	H2013	0.415900	0.492700	0.350700
C32721	C3272	0.434730	0.470750	0.362140
H20141	H2014	0.445900	0.473400	0.352700
C32731	C3273	0.436450	0.454810	0.377020
H20151	H2015	0.448600	0.446300	0.377800
C32741	C3274	0.419890	0.451780	0.390670
C32751	C3275	0.402590	0.465040	0.389230
H20161	H2016	0.391400	0.463300	0.398900
C32761	C3276	0.420610	0.435670	0.406960
N12511	N1251	0.364130	0.589070	0.484730
N12521	N1252	0.226460	0.645690	0.386230
N12531	N1253	0.266810	0.627270	0.399330
N12541	N1254	0.310520	0.579700	0.403640
N12551	N1255	0.319610	0.590100	0.438070
N12561	N1256	0.335230	0.560300	0.422850
N12571	N1257	0.350400	0.525340	0.371390
N12581	N1258	0.377220	0.501260	0.342500
N12591	N1259	0.401140	0.479990	0.374940
N12601	N1260	0.405600	0.436030	0.421370
S2511	S251	0.208880	0.673110	0.415250
S2521	S252	0.384300	0.495090	0.300160
C32771	C3277	0.850840	0.088950	0.468780
H20171	H2017	0.844000	0.101700	0.465400
C32781	C3278	0.846330	0.071550	0.456840
C32791	C3279	0.856000	0.052670	0.461940
H20181	H2018	0.853400	0.040400	0.454000
C32801	C3280	0.869440	0.052400	0.478840
H20191	H2019	0.876100	0.039800	0.482900
C32811	C3281	0.873100	0.070760	0.489850
H20201	H2020	0.882300	0.070400	0.501500
C32821	C3282	0.718790	0.156980	0.398280
C32831	C3283	0.765340	0.141370	0.414820
H20211	H2021	0.755300	0.152300	0.413600
C32841	C3284	0.777950	0.140560	0.432640
H20221	H2022	0.776900	0.151100	0.443000
C32851	C3285	0.791770	0.124490	0.435010
H20231	H2023	0.800200	0.123500	0.447200
C32861	C3286	0.793330	0.109430	0.419060
C32871	C3287	0.780650	0.111740	0.401690
H20241	H2024	0.781800	0.101700	0.390800
C32881	C3288	0.808470	0.092090	0.420380
C32891	C3289	0.832700	0.073810	0.438230
C32901	C3290	0.824220	0.064470	0.405700
C32911	C3291	0.845650	0.037580	0.387250
H20251	H2025	0.854400	0.037200	0.399300
C32921	C3292	0.828360	0.051220	0.387290
C32931	C3293	0.816010	0.052100	0.369280
H20261	H2026	0.804300	0.061200	0.368500
C32941	C3294	0.821410	0.039370	0.352560
H20271	H2027	0.813400	0.039700	0.340000
C32951	C3295	0.838420	0.026230	0.354150
H20281	H2028	0.841800	0.017500	0.342600
C32961	C3296	0.880090	0.998740	0.324960
C32971	C3297	0.917070	0.982400	0.361360
H20291	H2029	0.915900	0.992700	0.350700
C32981	C3298	0.934730	0.970750	0.362140
H20301	H2030	0.945900	0.973400	0.352700
C32991	C3299	0.936450	0.954810	0.377020
H20311	H2031	0.948600	0.946300	0.377800
C33001	C3300	0.919890	0.951780	0.390670
C33011	C3301	0.902590	0.965040	0.389230
H20321	H2032	0.891400	0.963300	0.398900
C33021	C3302	0.920610	0.935670	0.406960
N12611	N1261	0.864130	0.089070	0.484730
N12621	N1262	0.726460	0.145690	0.386230
N12631	N1263	0.766810	0.127270	0.399330
N12641	N1264	0.810520	0.079700	0.403640
N12651	N1265	0.819610	0.090100	0.438070
N12661	N1266	0.835230	0.060300	0.422850
N12671	N1267	0.850400	0.025340	0.371390
N12681	N1268	0.877220	0.001260	0.342500
N12691	N1269	0.901140	0.979990	0.374940
N12701	N1270	0.905600	0.936030	0.421370
S2531	S253	0.708880	0.173110	0.415250
S2541	S254	0.884300	0.995090	0.300160
C33031	C3303	0.850840	0.588950	0.968780
H20331	H2033	0.844000	0.601700	0.965400
C33041	C3304	0.846330	0.571550	0.956840
C33051	C3305	0.856000	0.552670	0.961940
H20341	H2034	0.853400	0.540400	0.954000
C33061	C3306	0.869440	0.552400	0.978840
H20351	H2035	0.876100	0.539800	0.982900
C33071	C3307	0.873100	0.570760	0.989850
H20361	H2036	0.882300	0.570400	0.001500
C33081	C3308	0.718790	0.656980	0.898280
C33091	C3309	0.765340	0.641370	0.914820
H20371	H2037	0.755300	0.652300	0.913600
C33101	C3310	0.777950	0.640560	0.932640
H20381	H2038	0.776900	0.651100	0.943000
C33111	C3311	0.791770	0.624490	0.935010
H20391	H2039	0.800200	0.623500	0.947200
C33121	C3312	0.793330	0.609430	0.919060
C33131	C3313	0.780650	0.611740	0.901690
H20401	H2040	0.781800	0.601700	0.890800
C33141	C3314	0.808470	0.592090	0.920380
C33151	C3315	0.832700	0.573810	0.938230
C33161	C3316	0.824220	0.564470	0.905700
C33171	C3317	0.845650	0.537580	0.887250
H20411	H2041	0.854400	0.537200	0.899300
C33181	C3318	0.828360	0.551220	0.887290
C33191	C3319	0.816010	0.552100	0.869280
H20421	H2042	0.804300	0.561200	0.868500
C33201	C3320	0.821410	0.539370	0.852560
H20431	H2043	0.813400	0.539700	0.840000
C33211	C3321	0.838420	0.526230	0.854150
H20441	H2044	0.841800	0.517500	0.842600
C33221	C3322	0.880090	0.498740	0.824960
C33231	C3323	0.917070	0.482400	0.861360
H20451	H2045	0.915900	0.492700	0.850700
C33241	C3324	0.934730	0.470750	0.862140
H20461	H2046	0.945900	0.473400	0.852700
C33251	C3325	0.936450	0.454810	0.877020
H20471	H2047	0.948600	0.446300	0.877800
C33261	C3326	0.919890	0.451780	0.890670
C33271	C3327	0.902590	0.465040	0.889230
H20481	H2048	0.891400	0.463300	0.898900
C33281	C3328	0.920610	0.435670	0.906960
N12711	N1271	0.864130	0.589070	0.984730
N12721	N1272	0.726460	0.645690	0.886230
N12731	N1273	0.766810	0.627270	0.899330
N12741	N1274	0.810520	0.579700	0.903640
N12751	N1275	0.819610	0.590100	0.938070
N12761	N1276	0.835230	0.560300	0.922850
N12771	N1277	0.850400	0.525340	0.871390
N12781	N1278	0.877220	0.501260	0.842500
N12791	N1279	0.901140	0.479990	0.874940
N12801	N1280	0.905600	0.436030	0.921370
S2551	S255	0.708880	0.673110	0.915250
S2561	S256	0.884300	0.495090	0.800160
C33291	C3329	0.781220	0.899160	0.588950
H20491	H2049	0.784600	0.906000	0.601700
C33301	C3330	0.793160	0.903670	0.571550
C33311	C3331	0.788060	0.894000	0.552670
H20501	H2050	0.796000	0.896600	0.540400
C33321	C3332	0.771160	0.880560	0.552400
H20511	H2051	0.767100	0.873900	0.539800
C33331	C3333	0.760150	0.876900	0.570760
H20521	H2052	0.748500	0.867700	0.570400
C33341	C3334	0.851720	0.031210	0.656980
C33351	C3335	0.835180	0.984660	0.641370
H20531	H2053	0.836400	0.994700	0.652300
C33361	C3336	0.817360	0.972050	0.640560
H20541	H2054	0.807000	0.973100	0.651100
C33371	C3337	0.814990	0.958230	0.624490
H20551	H2055	0.802800	0.949800	0.623500
C33381	C3338	0.830940	0.956670	0.609430
C33391	C3339	0.848310	0.969350	0.611740
H20561	H2056	0.859200	0.968200	0.601700
C33401	C3340	0.829620	0.941530	0.592090
C33411	C3341	0.811770	0.917300	0.573810
C33421	C3342	0.844300	0.925780	0.564470
C33431	C3343	0.862750	0.904350	0.537580
H20571	H2057	0.850700	0.895600	0.537200
C33441	C3344	0.862710	0.921640	0.551220
C33451	C3345	0.880720	0.933990	0.552100
H20581	H2058	0.881500	0.945700	0.561200
C33461	C3346	0.897440	0.928590	0.539370
H20591	H2059	0.910000	0.936600	0.539700
C33471	C3347	0.895850	0.911580	0.526230
H20601	H2060	0.907400	0.908200	0.517500
C33481	C3348	0.925040	0.869910	0.498740
C33491	C3349	0.888640	0.832930	0.482400
H20611	H2061	0.899300	0.834100	0.492700
C33501	C3350	0.887860	0.815270	0.470750
H20621	H2062	0.897300	0.804100	0.473400
C33511	C3351	0.872980	0.813550	0.454810
H20631	H2063	0.872200	0.801400	0.446300
C33521	C3352	0.859330	0.830110	0.451780
C33531	C3353	0.860770	0.847410	0.465040
H20641	H2064	0.851100	0.858600	0.463300
C33541	C3354	0.843040	0.829390	0.435670
N12811	N1281	0.765270	0.885870	0.589070
N12821	N1282	0.863770	0.023540	0.645690
N12831	N1283	0.850670	0.983190	0.627270
N12841	N1284	0.846360	0.939480	0.579700
N12851	N1285	0.811930	0.930390	0.590100
N12861	N1286	0.827150	0.914770	0.560300
N12871	N1287	0.878610	0.899600	0.525340
N12881	N1288	0.907500	0.872780	0.501260
N12891	N1289	0.875060	0.848860	0.479990
N12901	N1290	0.828630	0.844400	0.436030
S2571	S257	0.834750	0.041120	0.673110
S2581	S258	0.949840	0.865700	0.495090
C33551	C3355	0.781220	0.399160	0.088950
H20651	H2065	0.784600	0.406000	0.101700
C33561	C3356	0.793160	0.403670	0.071550
C33571	C3357	0.788060	0.394000	0.052670
H20661	H2066	0.796000	0.396600	0.040400
C33581	C3358	0.771160	0.380560	0.052400
H20671	H2067	0.767100	0.373900	0.039800
C33591	C3359	0.760150	0.376900	0.070760
H20681	H2068	0.748500	0.367700	0.070400
C33601	C3360	0.851720	0.531210	0.156980
C33611	C3361	0.835180	0.484660	0.141370
H20691	H2069	0.836400	0.494700	0.152300
C33621	C3362	0.817360	0.472050	0.140560
H20701	H2070	0.807000	0.473100	0.151100
C33631	C3363	0.814990	0.458230	0.124490
H20711	H2071	0.802800	0.449800	0.123500
C33641	C3364	0.830940	0.456670	0.109430
C33651	C3365	0.848310	0.469350	0.111740
H20721	H2072	0.859200	0.468200	0.101700
C33661	C3366	0.829620	0.441530	0.092090
C33671	C3367	0.811770	0.417300	0.073810
C33681	C3368	0.844300	0.425780	0.064470
C33691	C3369	0.862750	0.404350	0.037580
H20731	H2073	0.850700	0.395600	0.037200
C33701	C3370	0.862710	0.421640	0.051220
C33711	C3371	0.880720	0.433990	0.052100
H20741	H2074	0.881500	0.445700	0.061200
C33721	C3372	0.897440	0.428590	0.039370
H20751	H2075	0.910000	0.436600	0.039700
C33731	C3373	0.895850	0.411580	0.026230
H20761	H2076	0.907400	0.408200	0.017500
C33741	C3374	0.925040	0.369910	0.998740
C33751	C3375	0.888640	0.332930	0.982400
H20771	H2077	0.899300	0.334100	0.992700
C33761	C3376	0.887860	0.315270	0.970750
H20781	H2078	0.897300	0.304100	0.973400
C33771	C3377	0.872980	0.313550	0.954810
H20791	H2079	0.872200	0.301400	0.946300
C33781	C3378	0.859330	0.330110	0.951780
C33791	C3379	0.860770	0.347410	0.965040
H20801	H2080	0.851100	0.358600	0.963300
C33801	C3380	0.843040	0.329390	0.935670
N12911	N1291	0.765270	0.385870	0.089070
N12921	N1292	0.863770	0.523540	0.145690
N12931	N1293	0.850670	0.483190	0.127270
N12941	N1294	0.846360	0.439480	0.079700
N12951	N1295	0.811930	0.430390	0.090100
N12961	N1296	0.827150	0.414770	0.060300
N12971	N1297	0.878610	0.399600	0.025340
N12981	N1298	0.907500	0.372780	0.001260
N12991	N1299	0.875060	0.348860	0.979990
N13001	N1300	0.828630	0.344400	0.936030
S2591	S259	0.834750	0.541120	0.173110
S2601	S260	0.949840	0.365700	0.995090
C33811	C3381	0.281220	0.899160	0.088950
H20811	H2081	0.284600	0.906000	0.101700
C33821	C3382	0.293160	0.903670	0.071550
C33831	C3383	0.288060	0.894000	0.052670
H20821	H2082	0.296000	0.896600	0.040400
C33841	C3384	0.271160	0.880560	0.052400
H20831	H2083	0.267100	0.873900	0.039800
C33851	C3385	0.260150	0.876900	0.070760
H20841	H2084	0.248500	0.867700	0.070400
C33861	C3386	0.351720	0.031210	0.156980
C33871	C3387	0.335180	0.984660	0.141370
H20851	H2085	0.336400	0.994700	0.152300
C33881	C3388	0.317360	0.972050	0.140560
H20861	H2086	0.307000	0.973100	0.151100
C33891	C3389	0.314990	0.958230	0.124490
H20871	H2087	0.302800	0.949800	0.123500
C33901	C3390	0.330940	0.956670	0.109430
C33911	C3391	0.348310	0.969350	0.111740
H20881	H2088	0.359200	0.968200	0.101700
C33921	C3392	0.329620	0.941530	0.092090
C33931	C3393	0.311770	0.917300	0.073810
C33941	C3394	0.344300	0.925780	0.064470
C33951	C3395	0.362750	0.904350	0.037580
H20891	H2089	0.350700	0.895600	0.037200
C33961	C3396	0.362710	0.921640	0.051220
C33971	C3397	0.380720	0.933990	0.052100
H20901	H2090	0.381500	0.945700	0.061200
C33981	C3398	0.397440	0.928590	0.039370
H20911	H2091	0.410000	0.936600	0.039700
C33991	C3399	0.395850	0.911580	0.026230
H20921	H2092	0.407400	0.908200	0.017500
C34001	C3400	0.425040	0.869910	0.998740
C34011	C3401	0.388640	0.832930	0.982400
H20931	H2093	0.399300	0.834100	0.992700
C34021	C3402	0.387860	0.815270	0.970750
H20941	H2094	0.397300	0.804100	0.973400
C34031	C3403	0.372980	0.813550	0.954810
H20951	H2095	0.372200	0.801400	0.946300
C34041	C3404	0.359330	0.830110	0.951780
C34051	C3405	0.360770	0.847410	0.965040
H20961	H2096	0.351100	0.858600	0.963300
C34061	C3406	0.343040	0.829390	0.935670
N13011	N1301	0.265270	0.885870	0.089070
N13021	N1302	0.363770	0.023540	0.145690
N13031	N1303	0.350670	0.983190	0.127270
N13041	N1304	0.346360	0.939480	0.079700
N13051	N1305	0.311930	0.930390	0.090100
N13061	N1306	0.327150	0.914770	0.060300
N13071	N1307	0.378610	0.899600	0.025340
N13081	N1308	0.407500	0.872780	0.001260
N13091	N1309	0.375060	0.848860	0.979990
N13101	N1310	0.328630	0.844400	0.936030
S2611	S261	0.334750	0.041120	0.173110
S2621	S262	0.449840	0.865700	0.995090
C34071	C3407	0.281220	0.399160	0.588950
H20971	H2097	0.284600	0.406000	0.601700
C34081	C3408	0.293160	0.403670	0.571550
C34091	C3409	0.288060	0.394000	0.552670
H20981	H2098	0.296000	0.396600	0.540400
C34101	C3410	0.271160	0.380560	0.552400
H20991	H2099	0.267100	0.373900	0.539800
C34111	C3411	0.260150	0.376900	0.570760
H21001	H2100	0.248500	0.367700	0.570400
C34121	C3412	0.351720	0.531210	0.656980
C34131	C3413	0.335180	0.484660	0.641370
H21011	H2101	0.336400	0.494700	0.652300
C34141	C3414	0.317360	0.472050	0.640560
H21021	H2102	0.307000	0.473100	0.651100
C34151	C3415	0.314990	0.458230	0.624490
H21031	H2103	0.302800	0.449800	0.623500
C34161	C3416	0.330940	0.456670	0.609430
C34171	C3417	0.348310	0.469350	0.611740
H21041	H2104	0.359200	0.468200	0.601700
C34181	C3418	0.329620	0.441530	0.592090
C34191	C3419	0.311770	0.417300	0.573810
C34201	C3420	0.344300	0.425780	0.564470
C34211	C3421	0.362750	0.404350	0.537580
H21051	H2105	0.350700	0.395600	0.537200
C34221	C3422	0.362710	0.421640	0.551220
C34231	C3423	0.380720	0.433990	0.552100
H21061	H2106	0.381500	0.445700	0.561200
C34241	C3424	0.397440	0.428590	0.539370
H21071	H2107	0.410000	0.436600	0.539700
C34251	C3425	0.395850	0.411580	0.526230
H21081	H2108	0.407400	0.408200	0.517500
C34261	C3426	0.425040	0.369910	0.498740
C34271	C3427	0.388640	0.332930	0.482400
H21091	H2109	0.399300	0.334100	0.492700
C34281	C3428	0.387860	0.315270	0.470750
H21101	H2110	0.397300	0.304100	0.473400
C34291	C3429	0.372980	0.313550	0.454810
H21111	H2111	0.372200	0.301400	0.446300
C34301	C3430	0.359330	0.330110	0.451780
C34311	C3431	0.360770	0.347410	0.465040
H21121	H2112	0.351100	0.358600	0.463300
C34321	C3432	0.343040	0.329390	0.435670
N13111	N1311	0.265270	0.385870	0.589070
N13121	N1312	0.363770	0.523540	0.645690
N13131	N1313	0.350670	0.483190	0.627270
N13141	N1314	0.346360	0.439480	0.579700
N13151	N1315	0.311930	0.430390	0.590100
N13161	N1316	0.327150	0.414770	0.560300
N13171	N1317	0.378610	0.399600	0.525340
N13181	N1318	0.407500	0.372780	0.501260
N13191	N1319	0.375060	0.348860	0.479990
N13201	N1320	0.328630	0.344400	0.436030
S2631	S263	0.334750	0.541120	0.673110
S2641	S264	0.449840	0.365700	0.495090
C34331	C3433	0.468780	0.399160	0.161050
H21131	H2113	0.465400	0.406000	0.148300
C34341	C3434	0.456840	0.403670	0.178450
C34351	C3435	0.461940	0.394000	0.197330
H21141	H2114	0.454000	0.396600	0.209600
C34361	C3436	0.478840	0.380560	0.197600
H21151	H2115	0.482900	0.373900	0.210200
C34371	C3437	0.489850	0.376900	0.179240
H21161	H2116	0.501500	0.367700	0.179600
C34381	C3438	0.398280	0.531210	0.093020
C34391	C3439	0.414820	0.484660	0.108630
H21171	H2117	0.413600	0.494700	0.097700
C34401	C3440	0.432640	0.472050	0.109440
H21181	H2118	0.443000	0.473100	0.098900
C34411	C3441	0.435010	0.458230	0.125510
H21191	H2119	0.447200	0.449800	0.126500
C34421	C3442	0.419060	0.456670	0.140570
C34431	C3443	0.401690	0.469350	0.138260
H21201	H2120	0.390800	0.468200	0.148300
C34441	C3444	0.420380	0.441530	0.157910
C34451	C3445	0.438230	0.417300	0.176190
C34461	C3446	0.405700	0.425780	0.185530
C34471	C3447	0.387250	0.404350	0.212420
H21211	H2121	0.399300	0.395600	0.212800
C34481	C3448	0.387290	0.421640	0.198780
C34491	C3449	0.369280	0.433990	0.197900
H21221	H2122	0.368500	0.445700	0.188800
C34501	C3450	0.352560	0.428590	0.210630
H21231	H2123	0.340000	0.436600	0.210300
C34511	C3451	0.354150	0.411580	0.223770
H21241	H2124	0.342600	0.408200	0.232500
C34521	C3452	0.324960	0.369910	0.251260
C34531	C3453	0.361360	0.332930	0.267600
H21251	H2125	0.350700	0.334100	0.257300
C34541	C3454	0.362140	0.315270	0.279250
H21261	H2126	0.352700	0.304100	0.276600
C34551	C3455	0.377020	0.313550	0.295190
H21271	H2127	0.377800	0.301400	0.303700
C34561	C3456	0.390670	0.330110	0.298220
C34571	C3457	0.389230	0.347410	0.284960
H21281	H2128	0.398900	0.358600	0.286700
C34581	C3458	0.406960	0.329390	0.314330
N13211	N1321	0.484730	0.385870	0.160930
N13221	N1322	0.386230	0.523540	0.104310
N13231	N1323	0.399330	0.483190	0.122730
N13241	N1324	0.403640	0.439480	0.170300
N13251	N1325	0.438070	0.430390	0.159900
N13261	N1326	0.422850	0.414770	0.189700
N13271	N1327	0.371390	0.399600	0.224660
N13281	N1328	0.342500	0.372780	0.248740
N13291	N1329	0.374940	0.348860	0.270010
N13301	N1330	0.421370	0.344400	0.313970
S2651	S265	0.415250	0.541120	0.076890
S2661	S266	0.300160	0.365700	0.254910
C34591	C3459	0.468780	0.899160	0.661050
H21291	H2129	0.465400	0.906000	0.648300
C34601	C3460	0.456840	0.903670	0.678450
C34611	C3461	0.461940	0.894000	0.697330
H21301	H2130	0.454000	0.896600	0.709600
C34621	C3462	0.478840	0.880560	0.697600
H21311	H2131	0.482900	0.873900	0.710200
C34631	C3463	0.489850	0.876900	0.679240
H21321	H2132	0.501500	0.867700	0.679600
C34641	C3464	0.398280	0.031210	0.593020
C34651	C3465	0.414820	0.984660	0.608630
H21331	H2133	0.413600	0.994700	0.597700
C34661	C3466	0.432640	0.972050	0.609440
H21341	H2134	0.443000	0.973100	0.598900
C34671	C3467	0.435010	0.958230	0.625510
H21351	H2135	0.447200	0.949800	0.626500
C34681	C3468	0.419060	0.956670	0.640570
C34691	C3469	0.401690	0.969350	0.638260
H21361	H2136	0.390800	0.968200	0.648300
C34701	C3470	0.420380	0.941530	0.657910
C34711	C3471	0.438230	0.917300	0.676190
C34721	C3472	0.405700	0.925780	0.685530
C34731	C3473	0.387250	0.904350	0.712420
H21371	H2137	0.399300	0.895600	0.712800
C34741	C3474	0.387290	0.921640	0.698780
C34751	C3475	0.369280	0.933990	0.697900
H21381	H2138	0.368500	0.945700	0.688800
C34761	C3476	0.352560	0.928590	0.710630
H21391	H2139	0.340000	0.936600	0.710300
C34771	C3477	0.354150	0.911580	0.723770
H21401	H2140	0.342600	0.908200	0.732500
C34781	C3478	0.324960	0.869910	0.751260
C34791	C3479	0.361360	0.832930	0.767600
H21411	H2141	0.350700	0.834100	0.757300
C34801	C3480	0.362140	0.815270	0.779250
H21421	H2142	0.352700	0.804100	0.776600
C34811	C3481	0.377020	0.813550	0.795190
H21431	H2143	0.377800	0.801400	0.803700
C34821	C3482	0.390670	0.830110	0.798220
C34831	C3483	0.389230	0.847410	0.784960
H21441	H2144	0.398900	0.858600	0.786700
C34841	C3484	0.406960	0.829390	0.814330
N13311	N1331	0.484730	0.885870	0.660930
N13321	N1332	0.386230	0.023540	0.604310
N13331	N1333	0.399330	0.983190	0.622730
N13341	N1334	0.403640	0.939480	0.670300
N13351	N1335	0.438070	0.930390	0.659900
N13361	N1336	0.422850	0.914770	0.689700
N13371	N1337	0.371390	0.899600	0.724660
N13381	N1338	0.342500	0.872780	0.748740
N13391	N1339	0.374940	0.848860	0.770010
N13401	N1340	0.421370	0.844400	0.813970
S2671	S267	0.415250	0.041120	0.576890
S2681	S268	0.300160	0.865700	0.754910
C34851	C3485	0.968780	0.399160	0.661050
H21451	H2145	0.965400	0.406000	0.648300
C34861	C3486	0.956840	0.403670	0.678450
C34871	C3487	0.961940	0.394000	0.697330
H21461	H2146	0.954000	0.396600	0.709600
C34881	C3488	0.978840	0.380560	0.697600
H21471	H2147	0.982900	0.373900	0.710200
C34891	C3489	0.989850	0.376900	0.679240
H21481	H2148	0.001500	0.367700	0.679600
C34901	C3490	0.898280	0.531210	0.593020
C34911	C3491	0.914820	0.484660	0.608630
H21491	H2149	0.913600	0.494700	0.597700
C34921	C3492	0.932640	0.472050	0.609440
H21501	H2150	0.943000	0.473100	0.598900
C34931	C3493	0.935010	0.458230	0.625510
H21511	H2151	0.947200	0.449800	0.626500
C34941	C3494	0.919060	0.456670	0.640570
C34951	C3495	0.901690	0.469350	0.638260
H21521	H2152	0.890800	0.468200	0.648300
C34961	C3496	0.920380	0.441530	0.657910
C34971	C3497	0.938230	0.417300	0.676190
C34981	C3498	0.905700	0.425780	0.685530
C34991	C3499	0.887250	0.404350	0.712420
H21531	H2153	0.899300	0.395600	0.712800
C35001	C3500	0.887290	0.421640	0.698780
C35011	C3501	0.869280	0.433990	0.697900
H21541	H2154	0.868500	0.445700	0.688800
C35021	C3502	0.852560	0.428590	0.710630
H21551	H2155	0.840000	0.436600	0.710300
C35031	C3503	0.854150	0.411580	0.723770
H21561	H2156	0.842600	0.408200	0.732500
C35041	C3504	0.824960	0.369910	0.751260
C35051	C3505	0.861360	0.332930	0.767600
H21571	H2157	0.850700	0.334100	0.757300
C35061	C3506	0.862140	0.315270	0.779250
H21581	H2158	0.852700	0.304100	0.776600
C35071	C3507	0.877020	0.313550	0.795190
H21591	H2159	0.877800	0.301400	0.803700
C35081	C3508	0.890670	0.330110	0.798220
C35091	C3509	0.889230	0.347410	0.784960
H21601	H2160	0.898900	0.358600	0.786700
C35101	C3510	0.906960	0.329390	0.814330
N13411	N1341	0.984730	0.385870	0.660930
N13421	N1342	0.886230	0.523540	0.604310
N13431	N1343	0.899330	0.483190	0.622730
N13441	N1344	0.903640	0.439480	0.670300
N13451	N1345	0.938070	0.430390	0.659900
N13461	N1346	0.922850	0.414770	0.689700
N13471	N1347	0.871390	0.399600	0.724660
N13481	N1348	0.842500	0.372780	0.748740
N13491	N1349	0.874940	0.348860	0.770010
N13501	N1350	0.921370	0.344400	0.813970
S2691	S269	0.915250	0.541120	0.576890
S2701	S270	0.800160	0.365700	0.754910
C35111	C3511	0.968780	0.899160	0.161050
H21611	H2161	0.965400	0.906000	0.148300
C35121	C3512	0.956840	0.903670	0.178450
C35131	C3513	0.961940	0.894000	0.197330
H21621	H2162	0.954000	0.896600	0.209600
C35141	C3514	0.978840	0.880560	0.197600
H21631	H2163	0.982900	0.873900	0.210200
C35151	C3515	0.989850	0.876900	0.179240
H21641	H2164	0.001500	0.867700	0.179600
C35161	C3516	0.898280	0.031210	0.093020
C35171	C3517	0.914820	0.984660	0.108630
H21651	H2165	0.913600	0.994700	0.097700
C35181	C3518	0.932640	0.972050	0.109440
H21661	H2166	0.943000	0.973100	0.098900
C35191	C3519	0.935010	0.958230	0.125510
H21671	H2167	0.947200	0.949800	0.126500
C35201	C3520	0.919060	0.956670	0.140570
C35211	C3521	0.901690	0.969350	0.138260
H21681	H2168	0.890800	0.968200	0.148300
C35221	C3522	0.920380	0.941530	0.157910
C35231	C3523	0.938230	0.917300	0.176190
C35241	C3524	0.905700	0.925780	0.185530
C35251	C3525	0.887250	0.904350	0.212420
H21691	H2169	0.899300	0.895600	0.212800
C35261	C3526	0.887290	0.921640	0.198780
C35271	C3527	0.869280	0.933990	0.197900
H21701	H2170	0.868500	0.945700	0.188800
C35281	C3528	0.852560	0.928590	0.210630
H21711	H2171	0.840000	0.936600	0.210300
C35291	C3529	0.854150	0.911580	0.223770
H21721	H2172	0.842600	0.908200	0.232500
C35301	C3530	0.824960	0.869910	0.251260
C35311	C3531	0.861360	0.832930	0.267600
H21731	H2173	0.850700	0.834100	0.257300
C35321	C3532	0.862140	0.815270	0.279250
H21741	H2174	0.852700	0.804100	0.276600
C35331	C3533	0.877020	0.813550	0.295190
H21751	H2175	0.877800	0.801400	0.303700
C35341	C3534	0.890670	0.830110	0.298220
C35351	C3535	0.889230	0.847410	0.284960
H21761	H2176	0.898900	0.858600	0.286700
C35361	C3536	0.906960	0.829390	0.314330
N13511	N1351	0.984730	0.885870	0.160930
N13521	N1352	0.886230	0.023540	0.104310
N13531	N1353	0.899330	0.983190	0.122730
N13541	N1354	0.903640	0.939480	0.170300
N13551	N1355	0.938070	0.930390	0.159900
N13561	N1356	0.922850	0.914770	0.189700
N13571	N1357	0.871390	0.899600	0.224660
N13581	N1358	0.842500	0.872780	0.248740
N13591	N1359	0.874940	0.848860	0.270010
N13601	N1360	0.921370	0.844400	0.313970
S2711	S271	0.915250	0.041120	0.076890
S2721	S272	0.800160	0.865700	0.254910
C35371	C3537	0.281220	0.850840	0.661050
H21771	H2177	0.284600	0.844000	0.648300
C35381	C3538	0.293160	0.846330	0.678450
C35391	C3539	0.288060	0.856000	0.697330
H21781	H2178	0.296000	0.853400	0.709600
C35401	C3540	0.271160	0.869440	0.697600
H21791	H2179	0.267100	0.876100	0.710200
C35411	C3541	0.260150	0.873100	0.679240
H21801	H2180	0.248500	0.882300	0.679600
C35421	C3542	0.351720	0.718790	0.593020
C35431	C3543	0.335180	0.765340	0.608630
H21811	H2181	0.336400	0.755300	0.597700
C35441	C3544	0.317360	0.777950	0.609440
H21821	H2182	0.307000	0.776900	0.598900
C35451	C3545	0.314990	0.791770	0.625510
H21831	H2183	0.302800	0.800200	0.626500
C35461	C3546	0.330940	0.793330	0.640570
C35471	C3547	0.348310	0.780650	0.638260
H21841	H2184	0.359200	0.781800	0.648300
C35481	C3548	0.329620	0.808470	0.657910
C35491	C3549	0.311770	0.832700	0.676190
C35501	C3550	0.344300	0.824220	0.685530
C35511	C3551	0.362750	0.845650	0.712420
H21851	H2185	0.350700	0.854400	0.712800
C35521	C3552	0.362710	0.828360	0.698780
C35531	C3553	0.380720	0.816010	0.697900
H21861	H2186	0.381500	0.804300	0.688800
C35541	C3554	0.397440	0.821410	0.710630
H21871	H2187	0.410000	0.813400	0.710300
C35551	C3555	0.395850	0.838420	0.723770
H21881	H2188	0.407400	0.841800	0.732500
C35561	C3556	0.425040	0.880090	0.751260
C35571	C3557	0.388640	0.917070	0.767600
H21891	H2189	0.399300	0.915900	0.757300
C35581	C3558	0.387860	0.934730	0.779250
H21901	H2190	0.397300	0.945900	0.776600
C35591	C3559	0.372980	0.936450	0.795190
H21911	H2191	0.372200	0.948600	0.803700
C35601	C3560	0.359330	0.919890	0.798220
C35611	C3561	0.360770	0.902590	0.784960
H21921	H2192	0.351100	0.891400	0.786700
C35621	C3562	0.343040	0.920610	0.814330
N13611	N1361	0.265270	0.864130	0.660930
N13621	N1362	0.363770	0.726460	0.604310
N13631	N1363	0.350670	0.766810	0.622730
N13641	N1364	0.346360	0.810520	0.670300
N13651	N1365	0.311930	0.819610	0.659900
N13661	N1366	0.327150	0.835230	0.689700
N13671	N1367	0.378610	0.850400	0.724660
N13681	N1368	0.407500	0.877220	0.748740
N13691	N1369	0.375060	0.901140	0.770010
N13701	N1370	0.328630	0.905600	0.813970
S2731	S273	0.334750	0.708880	0.576890
S2741	S274	0.449840	0.884300	0.754910
C35631	C3563	0.281220	0.350840	0.161050
H21931	H2193	0.284600	0.344000	0.148300
C35641	C3564	0.293160	0.346330	0.178450
C35651	C3565	0.288060	0.356000	0.197330
H21941	H2194	0.296000	0.353400	0.209600
C35661	C3566	0.271160	0.369440	0.197600
H21951	H2195	0.267100	0.376100	0.210200
C35671	C3567	0.260150	0.373100	0.179240
H21961	H2196	0.248500	0.382300	0.179600
C35681	C3568	0.351720	0.218790	0.093020
C35691	C3569	0.335180	0.265340	0.108630
H21971	H2197	0.336400	0.255300	0.097700
C35701	C3570	0.317360	0.277950	0.109440
H21981	H2198	0.307000	0.276900	0.098900
C35711	C3571	0.314990	0.291770	0.125510
H21991	H2199	0.302800	0.300200	0.126500
C35721	C3572	0.330940	0.293330	0.140570
C35731	C3573	0.348310	0.280650	0.138260
H22001	H2200	0.359200	0.281800	0.148300
C35741	C3574	0.329620	0.308470	0.157910
C35751	C3575	0.311770	0.332700	0.176190
C35761	C3576	0.344300	0.324220	0.185530
C35771	C3577	0.362750	0.345650	0.212420
H22011	H2201	0.350700	0.354400	0.212800
C35781	C3578	0.362710	0.328360	0.198780
C35791	C3579	0.380720	0.316010	0.197900
H22021	H2202	0.381500	0.304300	0.188800
C35801	C3580	0.397440	0.321410	0.210630
H22031	H2203	0.410000	0.313400	0.210300
C35811	C3581	0.395850	0.338420	0.223770
H22041	H2204	0.407400	0.341800	0.232500
C35821	C3582	0.425040	0.380090	0.251260
C35831	C3583	0.388640	0.417070	0.267600
H22051	H2205	0.399300	0.415900	0.257300
C35841	C3584	0.387860	0.434730	0.279250
H22061	H2206	0.397300	0.445900	0.276600
C35851	C3585	0.372980	0.436450	0.295190
H22071	H2207	0.372200	0.448600	0.303700
C35861	C3586	0.359330	0.419890	0.298220
C35871	C3587	0.360770	0.402590	0.284960
H22081	H2208	0.351100	0.391400	0.286700
C35881	C3588	0.343040	0.420610	0.314330
N13711	N1371	0.265270	0.364130	0.160930
N13721	N1372	0.363770	0.226460	0.104310
N13731	N1373	0.350670	0.266810	0.122730
N13741	N1374	0.346360	0.310520	0.170300
N13751	N1375	0.311930	0.319610	0.159900
N13761	N1376	0.327150	0.335230	0.189700
N13771	N1377	0.378610	0.350400	0.224660
N13781	N1378	0.407500	0.377220	0.248740
N13791	N1379	0.375060	0.401140	0.270010
N13801	N1380	0.328630	0.405600	0.313970
S2751	S275	0.334750	0.208880	0.076890
S2761	S276	0.449840	0.384300	0.254910
C35891	C3589	0.781220	0.850840	0.161050
H22091	H2209	0.784600	0.844000	0.148300
C35901	C3590	0.793160	0.846330	0.178450
C35911	C3591	0.788060	0.856000	0.197330
H22101	H2210	0.796000	0.853400	0.209600
C35921	C3592	0.771160	0.869440	0.197600
H22111	H2211	0.767100	0.876100	0.210200
C35931	C3593	0.760150	0.873100	0.179240
H22121	H2212	0.748500	0.882300	0.179600
C35941	C3594	0.851720	0.718790	0.093020
C35951	C3595	0.835180	0.765340	0.108630
H22131	H2213	0.836400	0.755300	0.097700
C35961	C3596	0.817360	0.777950	0.109440
H22141	H2214	0.807000	0.776900	0.098900
C35971	C3597	0.814990	0.791770	0.125510
H22151	H2215	0.802800	0.800200	0.126500
C35981	C3598	0.830940	0.793330	0.140570
C35991	C3599	0.848310	0.780650	0.138260
H22161	H2216	0.859200	0.781800	0.148300
C36001	C3600	0.829620	0.808470	0.157910
C36011	C3601	0.811770	0.832700	0.176190
C36021	C3602	0.844300	0.824220	0.185530
C36031	C3603	0.862750	0.845650	0.212420
H22171	H2217	0.850700	0.854400	0.212800
C36041	C3604	0.862710	0.828360	0.198780
C36051	C3605	0.880720	0.816010	0.197900
H22181	H2218	0.881500	0.804300	0.188800
C36061	C3606	0.897440	0.821410	0.210630
H22191	H2219	0.910000	0.813400	0.210300
C36071	C3607	0.895850	0.838420	0.223770
H22201	H2220	0.907400	0.841800	0.232500
C36081	C3608	0.925040	0.880090	0.251260
C36091	C3609	0.888640	0.917070	0.267600
H22211	H2221	0.899300	0.915900	0.257300
C36101	C3610	0.887860	0.934730	0.279250
H22221	H2222	0.897300	0.945900	0.276600
C36111	C3611	0.872980	0.936450	0.295190
H22231	H2223	0.872200	0.948600	0.303700
C36121	C3612	0.859330	0.919890	0.298220
C36131	C3613	0.860770	0.902590	0.284960
H22241	H2224	0.851100	0.891400	0.286700
C36141	C3614	0.843040	0.920610	0.314330
N13811	N1381	0.765270	0.864130	0.160930
N13821	N1382	0.863770	0.726460	0.104310
N13831	N1383	0.850670	0.766810	0.122730
N13841	N1384	0.846360	0.810520	0.170300
N13851	N1385	0.811930	0.819610	0.159900
N13861	N1386	0.827150	0.835230	0.189700
N13871	N1387	0.878610	0.850400	0.224660
N13881	N1388	0.907500	0.877220	0.248740
N13891	N1389	0.875060	0.901140	0.270010
N13901	N1390	0.828630	0.905600	0.313970
S2771	S277	0.834750	0.708880	0.076890
S2781	S278	0.949840	0.884300	0.254910
C36151	C3615	0.781220	0.350840	0.661050
H22251	H2225	0.784600	0.344000	0.648300
C36161	C3616	0.793160	0.346330	0.678450
C36171	C3617	0.788060	0.356000	0.697330
H22261	H2226	0.796000	0.353400	0.709600
C36181	C3618	0.771160	0.369440	0.697600
H22271	H2227	0.767100	0.376100	0.710200
C36191	C3619	0.760150	0.373100	0.679240
H22281	H2228	0.748500	0.382300	0.679600
C36201	C3620	0.851720	0.218790	0.593020
C36211	C3621	0.835180	0.265340	0.608630
H22291	H2229	0.836400	0.255300	0.597700
C36221	C3622	0.817360	0.277950	0.609440
H22301	H2230	0.807000	0.276900	0.598900
C36231	C3623	0.814990	0.291770	0.625510
H22311	H2231	0.802800	0.300200	0.626500
C36241	C3624	0.830940	0.293330	0.640570
C36251	C3625	0.848310	0.280650	0.638260
H22321	H2232	0.859200	0.281800	0.648300
C36261	C3626	0.829620	0.308470	0.657910
C36271	C3627	0.811770	0.332700	0.676190
C36281	C3628	0.844300	0.324220	0.685530
C36291	C3629	0.862750	0.345650	0.712420
H22331	H2233	0.850700	0.354400	0.712800
C36301	C3630	0.862710	0.328360	0.698780
C36311	C3631	0.880720	0.316010	0.697900
H22341	H2234	0.881500	0.304300	0.688800
C36321	C3632	0.897440	0.321410	0.710630
H22351	H2235	0.910000	0.313400	0.710300
C36331	C3633	0.895850	0.338420	0.723770
H22361	H2236	0.907400	0.341800	0.732500
C36341	C3634	0.925040	0.380090	0.751260
C36351	C3635	0.888640	0.417070	0.767600
H22371	H2237	0.899300	0.415900	0.757300
C36361	C3636	0.887860	0.434730	0.779250
H22381	H2238	0.897300	0.445900	0.776600
C36371	C3637	0.872980	0.436450	0.795190
H22391	H2239	0.872200	0.448600	0.803700
C36381	C3638	0.859330	0.419890	0.798220
C36391	C3639	0.860770	0.402590	0.784960
H22401	H2240	0.851100	0.391400	0.786700
C36401	C3640	0.843040	0.420610	0.814330
N13911	N1391	0.765270	0.364130	0.660930
N13921	N1392	0.863770	0.226460	0.604310
N13931	N1393	0.850670	0.266810	0.622730
N13941	N1394	0.846360	0.310520	0.670300
N13951	N1395	0.811930	0.319610	0.659900
N13961	N1396	0.827150	0.335230	0.689700
N13971	N1397	0.878610	0.350400	0.724660
N13981	N1398	0.907500	0.377220	0.748740
N13991	N1399	0.875060	0.401140	0.770010
N14001	N1400	0.828630	0.405600	0.813970
S2791	S279	0.834750	0.208880	0.576890
S2801	S280	0.949840	0.384300	0.754910
C36411	C3641	0.968780	0.350840	0.088950
H22411	H2241	0.965400	0.344000	0.101700
C36421	C3642	0.956840	0.346330	0.071550
C36431	C3643	0.961940	0.356000	0.052670
H22421	H2242	0.954000	0.353400	0.040400
C36441	C3644	0.978840	0.369440	0.052400
H22431	H2243	0.982900	0.376100	0.039800
C36451	C3645	0.989850	0.373100	0.070760
H22441	H2244	0.001500	0.382300	0.070400
C36461	C3646	0.898280	0.218790	0.156980
C36471	C3647	0.914820	0.265340	0.141370
H22451	H2245	0.913600	0.255300	0.152300
C36481	C3648	0.932640	0.277950	0.140560
H22461	H2246	0.943000	0.276900	0.151100
C36491	C3649	0.935010	0.291770	0.124490
H22471	H2247	0.947200	0.300200	0.123500
C36501	C3650	0.919060	0.293330	0.109430
C36511	C3651	0.901690	0.280650	0.111740
H22481	H2248	0.890800	0.281800	0.101700
C36521	C3652	0.920380	0.308470	0.092090
C36531	C3653	0.938230	0.332700	0.073810
C36541	C3654	0.905700	0.324220	0.064470
C36551	C3655	0.887250	0.345650	0.037580
H22491	H2249	0.899300	0.354400	0.037200
C36561	C3656	0.887290	0.328360	0.051220
C36571	C3657	0.869280	0.316010	0.052100
H22501	H2250	0.868500	0.304300	0.061200
C36581	C3658	0.852560	0.321410	0.039370
H22511	H2251	0.840000	0.313400	0.039700
C36591	C3659	0.854150	0.338420	0.026230
H22521	H2252	0.842600	0.341800	0.017500
C36601	C3660	0.824960	0.380090	0.998740
C36611	C3661	0.861360	0.417070	0.982400
H22531	H2253	0.850700	0.415900	0.992700
C36621	C3662	0.862140	0.434730	0.970750
H22541	H2254	0.852700	0.445900	0.973400
C36631	C3663	0.877020	0.436450	0.954810
H22551	H2255	0.877800	0.448600	0.946300
C36641	C3664	0.890670	0.419890	0.951780
C36651	C3665	0.889230	0.402590	0.965040
H22561	H2256	0.898900	0.391400	0.963300
C36661	C3666	0.906960	0.420610	0.935670
N14011	N1401	0.984730	0.364130	0.089070
N14021	N1402	0.886230	0.226460	0.145690
N14031	N1403	0.899330	0.266810	0.127270
N14041	N1404	0.903640	0.310520	0.079700
N14051	N1405	0.938070	0.319610	0.090100
N14061	N1406	0.922850	0.335230	0.060300
N14071	N1407	0.871390	0.350400	0.025340
N14081	N1408	0.842500	0.377220	0.001260
N14091	N1409	0.874940	0.401140	0.979990
N14101	N1410	0.921370	0.405600	0.936030
S2811	S281	0.915250	0.208880	0.173110
S2821	S282	0.800160	0.384300	0.995090
C36671	C3667	0.968780	0.850840	0.588950
H22571	H2257	0.965400	0.844000	0.601700
C36681	C3668	0.956840	0.846330	0.571550
C36691	C3669	0.961940	0.856000	0.552670
H22581	H2258	0.954000	0.853400	0.540400
C36701	C3670	0.978840	0.869440	0.552400
H22591	H2259	0.982900	0.876100	0.539800
C36711	C3671	0.989850	0.873100	0.570760
H22601	H2260	0.001500	0.882300	0.570400
C36721	C3672	0.898280	0.718790	0.656980
C36731	C3673	0.914820	0.765340	0.641370
H22611	H2261	0.913600	0.755300	0.652300
C36741	C3674	0.932640	0.777950	0.640560
H22621	H2262	0.943000	0.776900	0.651100
C36751	C3675	0.935010	0.791770	0.624490
H22631	H2263	0.947200	0.800200	0.623500
C36761	C3676	0.919060	0.793330	0.609430
C36771	C3677	0.901690	0.780650	0.611740
H22641	H2264	0.890800	0.781800	0.601700
C36781	C3678	0.920380	0.808470	0.592090
C36791	C3679	0.938230	0.832700	0.573810
C36801	C3680	0.905700	0.824220	0.564470
C36811	C3681	0.887250	0.845650	0.537580
H22651	H2265	0.899300	0.854400	0.537200
C36821	C3682	0.887290	0.828360	0.551220
C36831	C3683	0.869280	0.816010	0.552100
H22661	H2266	0.868500	0.804300	0.561200
C36841	C3684	0.852560	0.821410	0.539370
H22671	H2267	0.840000	0.813400	0.539700
C36851	C3685	0.854150	0.838420	0.526230
H22681	H2268	0.842600	0.841800	0.517500
C36861	C3686	0.824960	0.880090	0.498740
C36871	C3687	0.861360	0.917070	0.482400
H22691	H2269	0.850700	0.915900	0.492700
C36881	C3688	0.862140	0.934730	0.470750
H22701	H2270	0.852700	0.945900	0.473400
C36891	C3689	0.877020	0.936450	0.454810
H22711	H2271	0.877800	0.948600	0.446300
C36901	C3690	0.890670	0.919890	0.451780
C36911	C3691	0.889230	0.902590	0.465040
H22721	H2272	0.898900	0.891400	0.463300
C36921	C3692	0.906960	0.920610	0.435670
N14111	N1411	0.984730	0.864130	0.589070
N14121	N1412	0.886230	0.726460	0.645690
N14131	N1413	0.899330	0.766810	0.627270
N14141	N1414	0.903640	0.810520	0.579700
N14151	N1415	0.938070	0.819610	0.590100
N14161	N1416	0.922850	0.835230	0.560300
N14171	N1417	0.871390	0.850400	0.525340
N14181	N1418	0.842500	0.877220	0.501260
N14191	N1419	0.874940	0.901140	0.479990
N14201	N1420	0.921370	0.905600	0.436030
S2831	S283	0.915250	0.708880	0.673110
S2841	S284	0.800160	0.884300	0.495090
C36931	C3693	0.468780	0.350840	0.588950
H22731	H2273	0.465400	0.344000	0.601700
C36941	C3694	0.456840	0.346330	0.571550
C36951	C3695	0.461940	0.356000	0.552670
H22741	H2274	0.454000	0.353400	0.540400
C36961	C3696	0.478840	0.369440	0.552400
H22751	H2275	0.482900	0.376100	0.539800
C36971	C3697	0.489850	0.373100	0.570760
H22761	H2276	0.501500	0.382300	0.570400
C36981	C3698	0.398280	0.218790	0.656980
C36991	C3699	0.414820	0.265340	0.641370
H22771	H2277	0.413600	0.255300	0.652300
C37001	C3700	0.432640	0.277950	0.640560
H22781	H2278	0.443000	0.276900	0.651100
C37011	C3701	0.435010	0.291770	0.624490
H22791	H2279	0.447200	0.300200	0.623500
C37021	C3702	0.419060	0.293330	0.609430
C37031	C3703	0.401690	0.280650	0.611740
H22801	H2280	0.390800	0.281800	0.601700
C37041	C3704	0.420380	0.308470	0.592090
C37051	C3705	0.438230	0.332700	0.573810
C37061	C3706	0.405700	0.324220	0.564470
C37071	C3707	0.387250	0.345650	0.537580
H22811	H2281	0.399300	0.354400	0.537200
C37081	C3708	0.387290	0.328360	0.551220
C37091	C3709	0.369280	0.316010	0.552100
H22821	H2282	0.368500	0.304300	0.561200
C37101	C3710	0.352560	0.321410	0.539370
H22831	H2283	0.340000	0.313400	0.539700
C37111	C3711	0.354150	0.338420	0.526230
H22841	H2284	0.342600	0.341800	0.517500
C37121	C3712	0.324960	0.380090	0.498740
C37131	C3713	0.361360	0.417070	0.482400
H22851	H2285	0.350700	0.415900	0.492700
C37141	C3714	0.362140	0.434730	0.470750
H22861	H2286	0.352700	0.445900	0.473400
C37151	C3715	0.377020	0.436450	0.454810
H22871	H2287	0.377800	0.448600	0.446300
C37161	C3716	0.390670	0.419890	0.451780
C37171	C3717	0.389230	0.402590	0.465040
H22881	H2288	0.398900	0.391400	0.463300
C37181	C3718	0.406960	0.420610	0.435670
N14211	N1421	0.484730	0.364130	0.589070
N14221	N1422	0.386230	0.226460	0.645690
N14231	N1423	0.399330	0.266810	0.627270
N14241	N1424	0.403640	0.310520	0.579700
N14251	N1425	0.438070	0.319610	0.590100
N14261	N1426	0.422850	0.335230	0.560300
N14271	N1427	0.371390	0.350400	0.525340
N14281	N1428	0.342500	0.377220	0.501260
N14291	N1429	0.374940	0.401140	0.479990
N14301	N1430	0.421370	0.405600	0.436030
S2851	S285	0.415250	0.208880	0.673110
S2861	S286	0.300160	0.384300	0.495090
C37191	C3719	0.468780	0.850840	0.088950
H22891	H2289	0.465400	0.844000	0.101700
C37201	C3720	0.456840	0.846330	0.071550
C37211	C3721	0.461940	0.856000	0.052670
H22901	H2290	0.454000	0.853400	0.040400
C37221	C3722	0.478840	0.869440	0.052400
H22911	H2291	0.482900	0.876100	0.039800
C37231	C3723	0.489850	0.873100	0.070760
H22921	H2292	0.501500	0.882300	0.070400
C37241	C3724	0.398280	0.718790	0.156980
C37251	C3725	0.414820	0.765340	0.141370
H22931	H2293	0.413600	0.755300	0.152300
C37261	C3726	0.432640	0.777950	0.140560
H22941	H2294	0.443000	0.776900	0.151100
C37271	C3727	0.435010	0.791770	0.124490
H22951	H2295	0.447200	0.800200	0.123500
C37281	C3728	0.419060	0.793330	0.109430
C37291	C3729	0.401690	0.780650	0.111740
H22961	H2296	0.390800	0.781800	0.101700
C37301	C3730	0.420380	0.808470	0.092090
C37311	C3731	0.438230	0.832700	0.073810
C37321	C3732	0.405700	0.824220	0.064470
C37331	C3733	0.387250	0.845650	0.037580
H22971	H2297	0.399300	0.854400	0.037200
C37341	C3734	0.387290	0.828360	0.051220
C37351	C3735	0.369280	0.816010	0.052100
H22981	H2298	0.368500	0.804300	0.061200
C37361	C3736	0.352560	0.821410	0.039370
H22991	H2299	0.340000	0.813400	0.039700
C37371	C3737	0.354150	0.838420	0.026230
H23001	H2300	0.342600	0.841800	0.017500
C37381	C3738	0.324960	0.880090	0.998740
C37391	C3739	0.361360	0.917070	0.982400
H23011	H2301	0.350700	0.915900	0.992700
C37401	C3740	0.362140	0.934730	0.970750
H23021	H2302	0.352700	0.945900	0.973400
C37411	C3741	0.377020	0.936450	0.954810
H23031	H2303	0.377800	0.948600	0.946300
C37421	C3742	0.390670	0.919890	0.951780
C37431	C3743	0.389230	0.902590	0.965040
H23041	H2304	0.398900	0.891400	0.963300
C37441	C3744	0.406960	0.920610	0.935670
N14311	N1431	0.484730	0.864130	0.089070
N14321	N1432	0.386230	0.726460	0.145690
N14331	N1433	0.399330	0.766810	0.127270
N14341	N1434	0.403640	0.810520	0.079700
N14351	N1435	0.438070	0.819610	0.090100
N14361	N1436	0.422850	0.835230	0.060300
N14371	N1437	0.371390	0.850400	0.025340
N14381	N1438	0.342500	0.877220	0.001260
N14391	N1439	0.374940	0.901140	0.979990
N14401	N1440	0.421370	0.905600	0.936030
S2871	S287	0.415250	0.708880	0.173110
S2881	S288	0.300160	0.884300	0.995090
C37451	C3745	0.031220	0.338950	0.100840
H23051	H2305	0.034600	0.351700	0.094000
C37461	C3746	0.043160	0.321550	0.096330
C37471	C3747	0.038060	0.302670	0.106000
H23061	H2306	0.046000	0.290400	0.103400
C37481	C3748	0.021160	0.302400	0.119440
H23071	H2307	0.017100	0.289800	0.126100
C37491	C3749	0.010150	0.320760	0.123100
H23081	H2308	0.998500	0.320400	0.132300
C37501	C3750	0.101720	0.406980	0.968790
C37511	C3751	0.085180	0.391370	0.015340
H23091	H2309	0.086400	0.402300	0.005300
C37521	C3752	0.067360	0.390560	0.027950
H23101	H2310	0.057000	0.401100	0.026900
C37531	C3753	0.064990	0.374490	0.041770
H23111	H2311	0.052800	0.373500	0.050200
C37541	C3754	0.080940	0.359430	0.043330
C37551	C3755	0.098310	0.361740	0.030650
H23121	H2312	0.109200	0.351700	0.031800
C37561	C3756	0.079620	0.342090	0.058470
C37571	C3757	0.061770	0.323810	0.082700
C37581	C3758	0.094300	0.314470	0.074220
C37591	C3759	0.112750	0.287580	0.095650
H23131	H2313	0.100700	0.287200	0.104400
C37601	C3760	0.112710	0.301220	0.078360
C37611	C3761	0.130720	0.302100	0.066010
H23141	H2314	0.131500	0.311200	0.054300
C37621	C3762	0.147440	0.289370	0.071410
H23151	H2315	0.160000	0.289700	0.063400
C37631	C3763	0.145850	0.276230	0.088420
H23161	H2316	0.157400	0.267500	0.091800
C37641	C3764	0.175040	0.248740	0.130090
C37651	C3765	0.138640	0.232400	0.167070
H23171	H2317	0.149300	0.242700	0.165900
C37661	C3766	0.137860	0.220750	0.184730
H23181	H2318	0.147300	0.223400	0.195900
C37671	C3767	0.122980	0.204810	0.186450
H23191	H2319	0.122200	0.196300	0.198600
C37681	C3768	0.109330	0.201780	0.169890
C37691	C3769	0.110770	0.215040	0.152590
H23201	H2320	0.101100	0.213300	0.141400
C37701	C3770	0.093040	0.185670	0.170610
N14411	N1441	0.015270	0.339070	0.114130
N14421	N1442	0.113770	0.395690	0.976460
N14431	N1443	0.100670	0.377270	0.016810
N14441	N1444	0.096360	0.329700	0.060520
N14451	N1445	0.061930	0.340100	0.069610
N14461	N1446	0.077150	0.310300	0.085230
N14471	N1447	0.128610	0.275340	0.100400
N14481	N1448	0.157500	0.251260	0.127220
N14491	N1449	0.125060	0.229990	0.151140
N14501	N1450	0.078630	0.186030	0.155600
S2891	S289	0.084750	0.423110	0.958880
S2901	S290	0.199840	0.245090	0.134300
C37711	C3771	0.031220	0.838950	0.600840
H23211	H2321	0.034600	0.851700	0.594000
C37721	C3772	0.043160	0.821550	0.596330
C37731	C3773	0.038060	0.802670	0.606000
H23221	H2322	0.046000	0.790400	0.603400
C37741	C3774	0.021160	0.802400	0.619440
H23231	H2323	0.017100	0.789800	0.626100
C37751	C3775	0.010150	0.820760	0.623100
H23241	H2324	0.998500	0.820400	0.632300
C37761	C3776	0.101720	0.906980	0.468790
C37771	C3777	0.085180	0.891370	0.515340
H23251	H2325	0.086400	0.902300	0.505300
C37781	C3778	0.067360	0.890560	0.527950
H23261	H2326	0.057000	0.901100	0.526900
C37791	C3779	0.064990	0.874490	0.541770
H23271	H2327	0.052800	0.873500	0.550200
C37801	C3780	0.080940	0.859430	0.543330
C37811	C3781	0.098310	0.861740	0.530650
H23281	H2328	0.109200	0.851700	0.531800
C37821	C3782	0.079620	0.842090	0.558470
C37831	C3783	0.061770	0.823810	0.582700
C37841	C3784	0.094300	0.814470	0.574220
C37851	C3785	0.112750	0.787580	0.595650
H23291	H2329	0.100700	0.787200	0.604400
C37861	C3786	0.112710	0.801220	0.578360
C37871	C3787	0.130720	0.802100	0.566010
H23301	H2330	0.131500	0.811200	0.554300
C37881	C3788	0.147440	0.789370	0.571410
H23311	H2331	0.160000	0.789700	0.563400
C37891	C3789	0.145850	0.776230	0.588420
H23321	H2332	0.157400	0.767500	0.591800
C37901	C3790	0.175040	0.748740	0.630090
C37911	C3791	0.138640	0.732400	0.667070
H23331	H2333	0.149300	0.742700	0.665900
C37921	C3792	0.137860	0.720750	0.684730
H23341	H2334	0.147300	0.723400	0.695900
C37931	C3793	0.122980	0.704810	0.686450
H23351	H2335	0.122200	0.696300	0.698600
C37941	C3794	0.109330	0.701780	0.669890
C37951	C3795	0.110770	0.715040	0.652590
H23361	H2336	0.101100	0.713300	0.641400
C37961	C3796	0.093040	0.685670	0.670610
N14511	N1451	0.015270	0.839070	0.614130
N14521	N1452	0.113770	0.895690	0.476460
N14531	N1453	0.100670	0.877270	0.516810
N14541	N1454	0.096360	0.829700	0.560520
N14551	N1455	0.061930	0.840100	0.569610
N14561	N1456	0.077150	0.810300	0.585230
N14571	N1457	0.128610	0.775340	0.600400
N14581	N1458	0.157500	0.751260	0.627220
N14591	N1459	0.125060	0.729990	0.651140
N14601	N1460	0.078630	0.686030	0.655600
S2911	S291	0.084750	0.923110	0.458880
S2921	S292	0.199840	0.745090	0.634300
C37971	C3797	0.531220	0.338950	0.600840
H23371	H2337	0.534600	0.351700	0.594000
C37981	C3798	0.543160	0.321550	0.596330
C37991	C3799	0.538060	0.302670	0.606000
H23381	H2338	0.546000	0.290400	0.603400
C38001	C3800	0.521160	0.302400	0.619440
H23391	H2339	0.517100	0.289800	0.626100
C38011	C3801	0.510150	0.320760	0.623100
H23401	H2340	0.498500	0.320400	0.632300
C38021	C3802	0.601720	0.406980	0.468790
C38031	C3803	0.585180	0.391370	0.515340
H23411	H2341	0.586400	0.402300	0.505300
C38041	C3804	0.567360	0.390560	0.527950
H23421	H2342	0.557000	0.401100	0.526900
C38051	C3805	0.564990	0.374490	0.541770
H23431	H2343	0.552800	0.373500	0.550200
C38061	C3806	0.580940	0.359430	0.543330
C38071	C3807	0.598310	0.361740	0.530650
H23441	H2344	0.609200	0.351700	0.531800
C38081	C3808	0.579620	0.342090	0.558470
C38091	C3809	0.561770	0.323810	0.582700
C38101	C3810	0.594300	0.314470	0.574220
C38111	C3811	0.612750	0.287580	0.595650
H23451	H2345	0.600700	0.287200	0.604400
C38121	C3812	0.612710	0.301220	0.578360
C38131	C3813	0.630720	0.302100	0.566010
H23461	H2346	0.631500	0.311200	0.554300
C38141	C3814	0.647440	0.289370	0.571410
H23471	H2347	0.660000	0.289700	0.563400
C38151	C3815	0.645850	0.276230	0.588420
H23481	H2348	0.657400	0.267500	0.591800
C38161	C3816	0.675040	0.248740	0.630090
C38171	C3817	0.638640	0.232400	0.667070
H23491	H2349	0.649300	0.242700	0.665900
C38181	C3818	0.637860	0.220750	0.684730
H23501	H2350	0.647300	0.223400	0.695900
C38191	C3819	0.622980	0.204810	0.686450
H23511	H2351	0.622200	0.196300	0.698600
C38201	C3820	0.609330	0.201780	0.669890
C38211	C3821	0.610770	0.215040	0.652590
H23521	H2352	0.601100	0.213300	0.641400
C38221	C3822	0.593040	0.185670	0.670610
N14611	N1461	0.515270	0.339070	0.614130
N14621	N1462	0.613770	0.395690	0.476460
N14631	N1463	0.600670	0.377270	0.516810
N14641	N1464	0.596360	0.329700	0.560520
N14651	N1465	0.561930	0.340100	0.569610
N14661	N1466	0.577150	0.310300	0.585230
N14671	N1467	0.628610	0.275340	0.600400
N14681	N1468	0.657500	0.251260	0.627220
N14691	N1469	0.625060	0.229990	0.651140
N14701	N1470	0.578630	0.186030	0.655600
S2931	S293	0.584750	0.423110	0.458880
S2941	S294	0.699840	0.245090	0.634300
C38231	C3823	0.531220	0.838950	0.100840
H23531	H2353	0.534600	0.851700	0.094000
C38241	C3824	0.543160	0.821550	0.096330
C38251	C3825	0.538060	0.802670	0.106000
H23541	H2354	0.546000	0.790400	0.103400
C38261	C3826	0.521160	0.802400	0.119440
H23551	H2355	0.517100	0.789800	0.126100
C38271	C3827	0.510150	0.820760	0.123100
H23561	H2356	0.498500	0.820400	0.132300
C38281	C3828	0.601720	0.906980	0.968790
C38291	C3829	0.585180	0.891370	0.015340
H23571	H2357	0.586400	0.902300	0.005300
C38301	C3830	0.567360	0.890560	0.027950
H23581	H2358	0.557000	0.901100	0.026900
C38311	C3831	0.564990	0.874490	0.041770
H23591	H2359	0.552800	0.873500	0.050200
C38321	C3832	0.580940	0.859430	0.043330
C38331	C3833	0.598310	0.861740	0.030650
H23601	H2360	0.609200	0.851700	0.031800
C38341	C3834	0.579620	0.842090	0.058470
C38351	C3835	0.561770	0.823810	0.082700
C38361	C3836	0.594300	0.814470	0.074220
C38371	C3837	0.612750	0.787580	0.095650
H23611	H2361	0.600700	0.787200	0.104400
C38381	C3838	0.612710	0.801220	0.078360
C38391	C3839	0.630720	0.802100	0.066010
H23621	H2362	0.631500	0.811200	0.054300
C38401	C3840	0.647440	0.789370	0.071410
H23631	H2363	0.660000	0.789700	0.063400
C38411	C3841	0.645850	0.776230	0.088420
H23641	H2364	0.657400	0.767500	0.091800
C38421	C3842	0.675040	0.748740	0.130090
C38431	C3843	0.638640	0.732400	0.167070
H23651	H2365	0.649300	0.742700	0.165900
C38441	C3844	0.637860	0.720750	0.184730
H23661	H2366	0.647300	0.723400	0.195900
C38451	C3845	0.622980	0.704810	0.186450
H23671	H2367	0.622200	0.696300	0.198600
C38461	C3846	0.609330	0.701780	0.169890
C38471	C3847	0.610770	0.715040	0.152590
H23681	H2368	0.601100	0.713300	0.141400
C38481	C3848	0.593040	0.685670	0.170610
N14711	N1471	0.515270	0.839070	0.114130
N14721	N1472	0.613770	0.895690	0.976460
N14731	N1473	0.600670	0.877270	0.016810
N14741	N1474	0.596360	0.829700	0.060520
N14751	N1475	0.561930	0.840100	0.069610
N14761	N1476	0.577150	0.810300	0.085230
N14771	N1477	0.628610	0.775340	0.100400
N14781	N1478	0.657500	0.751260	0.127220
N14791	N1479	0.625060	0.729990	0.151140
N14801	N1480	0.578630	0.686030	0.155600
S2951	S295	0.584750	0.923110	0.958880
S2961	S296	0.699840	0.745090	0.134300
C38491	C3849	0.718780	0.911050	0.600840
H23691	H2369	0.715400	0.898300	0.594000
C38501	C3850	0.706840	0.928450	0.596330
C38511	C3851	0.711940	0.947330	0.606000
H23701	H2370	0.704000	0.959600	0.603400
C38521	C3852	0.728840	0.947600	0.619440
H23711	H2371	0.732900	0.960200	0.626100
C38531	C3853	0.739850	0.929240	0.623100
H23721	H2372	0.751500	0.929600	0.632300
C38541	C3854	0.648280	0.843020	0.468790
C38551	C3855	0.664820	0.858630	0.515340
H23731	H2373	0.663600	0.847700	0.505300
C38561	C3856	0.682640	0.859440	0.527950
H23741	H2374	0.693000	0.848900	0.526900
C38571	C3857	0.685010	0.875510	0.541770
H23751	H2375	0.697200	0.876500	0.550200
C38581	C3858	0.669060	0.890570	0.543330
C38591	C3859	0.651690	0.888260	0.530650
H23761	H2376	0.640800	0.898300	0.531800
C38601	C3860	0.670380	0.907910	0.558470
C38611	C3861	0.688230	0.926190	0.582700
C38621	C3862	0.655700	0.935530	0.574220
C38631	C3863	0.637250	0.962420	0.595650
H23771	H2377	0.649300	0.962800	0.604400
C38641	C3864	0.637290	0.948780	0.578360
C38651	C3865	0.619280	0.947900	0.566010
H23781	H2378	0.618500	0.938800	0.554300
C38661	C3866	0.602560	0.960630	0.571410
H23791	H2379	0.590000	0.960300	0.563400
C38671	C3867	0.604150	0.973770	0.588420
H23801	H2380	0.592600	0.982500	0.591800
C38681	C3868	0.574960	0.001260	0.630090
C38691	C3869	0.611360	0.017600	0.667070
H23811	H2381	0.600700	0.007300	0.665900
C38701	C3870	0.612140	0.029250	0.684730
H23821	H2382	0.602700	0.026600	0.695900
C38711	C3871	0.627020	0.045190	0.686450
H23831	H2383	0.627800	0.053700	0.698600
C38721	C3872	0.640670	0.048220	0.669890
C38731	C3873	0.639230	0.034960	0.652590
H23841	H2384	0.648900	0.036700	0.641400
C38741	C3874	0.656960	0.064330	0.670610
N14811	N1481	0.734730	0.910930	0.614130
N14821	N1482	0.636230	0.854310	0.476460
N14831	N1483	0.649330	0.872730	0.516810
N14841	N1484	0.653640	0.920300	0.560520
N14851	N1485	0.688070	0.909900	0.569610
N14861	N1486	0.672850	0.939700	0.585230
N14871	N1487	0.621390	0.974660	0.600400
N14881	N1488	0.592500	0.998740	0.627220
N14891	N1489	0.624940	0.020010	0.651140
N14901	N1490	0.671370	0.063970	0.655600
S2971	S297	0.665250	0.826890	0.458880
S2981	S298	0.550160	0.004910	0.634300
C38751	C3875	0.718780	0.411050	0.100840
H23851	H2385	0.715400	0.398300	0.094000
C38761	C3876	0.706840	0.428450	0.096330
C38771	C3877	0.711940	0.447330	0.106000
H23861	H2386	0.704000	0.459600	0.103400
C38781	C3878	0.728840	0.447600	0.119440
H23871	H2387	0.732900	0.460200	0.126100
C38791	C3879	0.739850	0.429240	0.123100
H23881	H2388	0.751500	0.429600	0.132300
C38801	C3880	0.648280	0.343020	0.968790
C38811	C3881	0.664820	0.358630	0.015340
H23891	H2389	0.663600	0.347700	0.005300
C38821	C3882	0.682640	0.359440	0.027950
H23901	H2390	0.693000	0.348900	0.026900
C38831	C3883	0.685010	0.375510	0.041770
H23911	H2391	0.697200	0.376500	0.050200
C38841	C3884	0.669060	0.390570	0.043330
C38851	C3885	0.651690	0.388260	0.030650
H23921	H2392	0.640800	0.398300	0.031800
C38861	C3886	0.670380	0.407910	0.058470
C38871	C3887	0.688230	0.426190	0.082700
C38881	C3888	0.655700	0.435530	0.074220
C38891	C3889	0.637250	0.462420	0.095650
H23931	H2393	0.649300	0.462800	0.104400
C38901	C3890	0.637290	0.448780	0.078360
C38911	C3891	0.619280	0.447900	0.066010
H23941	H2394	0.618500	0.438800	0.054300
C38921	C3892	0.602560	0.460630	0.071410
H23951	H2395	0.590000	0.460300	0.063400
C38931	C3893	0.604150	0.473770	0.088420
H23961	H2396	0.592600	0.482500	0.091800
C38941	C3894	0.574960	0.501260	0.130090
C38951	C3895	0.611360	0.517600	0.167070
H23971	H2397	0.600700	0.507300	0.165900
C38961	C3896	0.612140	0.529250	0.184730
H23981	H2398	0.602700	0.526600	0.195900
C38971	C3897	0.627020	0.545190	0.186450
H23991	H2399	0.627800	0.553700	0.198600
C38981	C3898	0.640670	0.548220	0.169890
C38991	C3899	0.639230	0.534960	0.152590
H24001	H2400	0.648900	0.536700	0.141400
C39001	C3900	0.656960	0.564330	0.170610
N14911	N1491	0.734730	0.410930	0.114130
N14921	N1492	0.636230	0.354310	0.976460
N14931	N1493	0.649330	0.372730	0.016810
N14941	N1494	0.653640	0.420300	0.060520
N14951	N1495	0.688070	0.409900	0.069610
N14961	N1496	0.672850	0.439700	0.085230
N14971	N1497	0.621390	0.474660	0.100400
N14981	N1498	0.592500	0.498740	0.127220
N14991	N1499	0.624940	0.520010	0.151140
N15001	N1500	0.671370	0.563970	0.155600
S2991	S299	0.665250	0.326890	0.958880
S3001	S300	0.550160	0.504910	0.134300
C39011	C3901	0.218780	0.911050	0.100840
H24011	H2401	0.215400	0.898300	0.094000
C39021	C3902	0.206840	0.928450	0.096330
C39031	C3903	0.211940	0.947330	0.106000
H24021	H2402	0.204000	0.959600	0.103400
C39041	C3904	0.228840	0.947600	0.119440
H24031	H2403	0.232900	0.960200	0.126100
C39051	C3905	0.239850	0.929240	0.123100
H24041	H2404	0.251500	0.929600	0.132300
C39061	C3906	0.148280	0.843020	0.968790
C39071	C3907	0.164820	0.858630	0.015340
H24051	H2405	0.163600	0.847700	0.005300
C39081	C3908	0.182640	0.859440	0.027950
H24061	H2406	0.193000	0.848900	0.026900
C39091	C3909	0.185010	0.875510	0.041770
H24071	H2407	0.197200	0.876500	0.050200
C39101	C3910	0.169060	0.890570	0.043330
C39111	C3911	0.151690	0.888260	0.030650
H24081	H2408	0.140800	0.898300	0.031800
C39121	C3912	0.170380	0.907910	0.058470
C39131	C3913	0.188230	0.926190	0.082700
C39141	C3914	0.155700	0.935530	0.074220
C39151	C3915	0.137250	0.962420	0.095650
H24091	H2409	0.149300	0.962800	0.104400
C39161	C3916	0.137290	0.948780	0.078360
C39171	C3917	0.119280	0.947900	0.066010
H24101	H2410	0.118500	0.938800	0.054300
C39181	C3918	0.102560	0.960630	0.071410
H24111	H2411	0.090000	0.960300	0.063400
C39191	C3919	0.104150	0.973770	0.088420
H24121	H2412	0.092600	0.982500	0.091800
C39201	C3920	0.074960	0.001260	0.130090
C39211	C3921	0.111360	0.017600	0.167070
H24131	H2413	0.100700	0.007300	0.165900
C39221	C3922	0.112140	0.029250	0.184730
H24141	H2414	0.102700	0.026600	0.195900
C39231	C3923	0.127020	0.045190	0.186450
H24151	H2415	0.127800	0.053700	0.198600
C39241	C3924	0.140670	0.048220	0.169890
C39251	C3925	0.139230	0.034960	0.152590
H24161	H2416	0.148900	0.036700	0.141400
C39261	C3926	0.156960	0.064330	0.170610
N15011	N1501	0.234730	0.910930	0.114130
N15021	N1502	0.136230	0.854310	0.976460
N15031	N1503	0.149330	0.872730	0.016810
N15041	N1504	0.153640	0.920300	0.060520
N15051	N1505	0.188070	0.909900	0.069610
N15061	N1506	0.172850	0.939700	0.085230
N15071	N1507	0.121390	0.974660	0.100400
N15081	N1508	0.092500	0.998740	0.127220
N15091	N1509	0.124940	0.020010	0.151140
N15101	N1510	0.171370	0.063970	0.155600
S3011	S301	0.165250	0.826890	0.958880
S3021	S302	0.050160	0.004910	0.134300
C39271	C3927	0.218780	0.411050	0.600840
H24171	H2417	0.215400	0.398300	0.594000
C39281	C3928	0.206840	0.428450	0.596330
C39291	C3929	0.211940	0.447330	0.606000
H24181	H2418	0.204000	0.459600	0.603400
C39301	C3930	0.228840	0.447600	0.619440
H24191	H2419	0.232900	0.460200	0.626100
C39311	C3931	0.239850	0.429240	0.623100
H24201	H2420	0.251500	0.429600	0.632300
C39321	C3932	0.148280	0.343020	0.468790
C39331	C3933	0.164820	0.358630	0.515340
H24211	H2421	0.163600	0.347700	0.505300
C39341	C3934	0.182640	0.359440	0.527950
H24221	H2422	0.193000	0.348900	0.526900
C39351	C3935	0.185010	0.375510	0.541770
H24231	H2423	0.197200	0.376500	0.550200
C39361	C3936	0.169060	0.390570	0.543330
C39371	C3937	0.151690	0.388260	0.530650
H24241	H2424	0.140800	0.398300	0.531800
C39381	C3938	0.170380	0.407910	0.558470
C39391	C3939	0.188230	0.426190	0.582700
C39401	C3940	0.155700	0.435530	0.574220
C39411	C3941	0.137250	0.462420	0.595650
H24251	H2425	0.149300	0.462800	0.604400
C39421	C3942	0.137290	0.448780	0.578360
C39431	C3943	0.119280	0.447900	0.566010
H24261	H2426	0.118500	0.438800	0.554300
C39441	C3944	0.102560	0.460630	0.571410
H24271	H2427	0.090000	0.460300	0.563400
C39451	C3945	0.104150	0.473770	0.588420
H24281	H2428	0.092600	0.482500	0.591800
C39461	C3946	0.074960	0.501260	0.630090
C39471	C3947	0.111360	0.517600	0.667070
H24291	H2429	0.100700	0.507300	0.665900
C39481	C3948	0.112140	0.529250	0.684730
H24301	H2430	0.102700	0.526600	0.695900
C39491	C3949	0.127020	0.545190	0.686450
H24311	H2431	0.127800	0.553700	0.698600
C39501	C3950	0.140670	0.548220	0.669890
C39511	C3951	0.139230	0.534960	0.652590
H24321	H2432	0.148900	0.536700	0.641400
C39521	C3952	0.156960	0.564330	0.670610
N15111	N1511	0.234730	0.410930	0.614130
N15121	N1512	0.136230	0.354310	0.476460
N15131	N1513	0.149330	0.372730	0.516810
N15141	N1514	0.153640	0.420300	0.560520
N15151	N1515	0.188070	0.409900	0.569610
N15161	N1516	0.172850	0.439700	0.585230
N15171	N1517	0.121390	0.474660	0.600400
N15181	N1518	0.092500	0.498740	0.627220
N15191	N1519	0.124940	0.520010	0.651140
N15201	N1520	0.171370	0.563970	0.655600
S3031	S303	0.165250	0.326890	0.458880
S3041	S304	0.050160	0.504910	0.634300
C39531	C3953	0.531220	0.411050	0.149160
H24331	H2433	0.534600	0.398300	0.156000
C39541	C3954	0.543160	0.428450	0.153670
C39551	C3955	0.538060	0.447330	0.144000
H24341	H2434	0.546000	0.459600	0.146600
C39561	C3956	0.521160	0.447600	0.130560
H24351	H2435	0.517100	0.460200	0.123900
C39571	C3957	0.510150	0.429240	0.126900
H24361	H2436	0.498500	0.429600	0.117700
C39581	C3958	0.601720	0.343020	0.281210
C39591	C3959	0.585180	0.358630	0.234660
H24371	H2437	0.586400	0.347700	0.244700
C39601	C3960	0.567360	0.359440	0.222050
H24381	H2438	0.557000	0.348900	0.223100
C39611	C3961	0.564990	0.375510	0.208230
H24391	H2439	0.552800	0.376500	0.199800
C39621	C3962	0.580940	0.390570	0.206670
C39631	C3963	0.598310	0.388260	0.219350
H24401	H2440	0.609200	0.398300	0.218200
C39641	C3964	0.579620	0.407910	0.191530
C39651	C3965	0.561770	0.426190	0.167300
C39661	C3966	0.594300	0.435530	0.175780
C39671	C3967	0.612750	0.462420	0.154350
H24411	H2441	0.600700	0.462800	0.145600
C39681	C3968	0.612710	0.448780	0.171640
C39691	C3969	0.630720	0.447900	0.183990
H24421	H2442	0.631500	0.438800	0.195700
C39701	C3970	0.647440	0.460630	0.178590
H24431	H2443	0.660000	0.460300	0.186600
C39711	C3971	0.645850	0.473770	0.161580
H24441	H2444	0.657400	0.482500	0.158200
C39721	C3972	0.675040	0.501260	0.119910
C39731	C3973	0.638640	0.517600	0.082930
H24451	H2445	0.649300	0.507300	0.084100
C39741	C3974	0.637860	0.529250	0.065270
H24461	H2446	0.647300	0.526600	0.054100
C39751	C3975	0.622980	0.545190	0.063550
H24471	H2447	0.622200	0.553700	0.051400
C39761	C3976	0.609330	0.548220	0.080110
C39771	C3977	0.610770	0.534960	0.097410
H24481	H2448	0.601100	0.536700	0.108600
C39781	C3978	0.593040	0.564330	0.079390
N15211	N1521	0.515270	0.410930	0.135870
N15221	N1522	0.613770	0.354310	0.273540
N15231	N1523	0.600670	0.372730	0.233190
N15241	N1524	0.596360	0.420300	0.189480
N15251	N1525	0.561930	0.409900	0.180390
N15261	N1526	0.577150	0.439700	0.164770
N15271	N1527	0.628610	0.474660	0.149600
N15281	N1528	0.657500	0.498740	0.122780
N15291	N1529	0.625060	0.520010	0.098860
N15301	N1530	0.578630	0.563970	0.094400
S3051	S305	0.584750	0.326890	0.291120
S3061	S306	0.699840	0.504910	0.115700
C39791	C3979	0.531220	0.911050	0.649160
H24491	H2449	0.534600	0.898300	0.656000
C39801	C3980	0.543160	0.928450	0.653670
C39811	C3981	0.538060	0.947330	0.644000
H24501	H2450	0.546000	0.959600	0.646600
C39821	C3982	0.521160	0.947600	0.630560
H24511	H2451	0.517100	0.960200	0.623900
C39831	C3983	0.510150	0.929240	0.626900
H24521	H2452	0.498500	0.929600	0.617700
C39841	C3984	0.601720	0.843020	0.781210
C39851	C3985	0.585180	0.858630	0.734660
H24531	H2453	0.586400	0.847700	0.744700
C39861	C3986	0.567360	0.859440	0.722050
H24541	H2454	0.557000	0.848900	0.723100
C39871	C3987	0.564990	0.875510	0.708230
H24551	H2455	0.552800	0.876500	0.699800
C39881	C3988	0.580940	0.890570	0.706670
C39891	C3989	0.598310	0.888260	0.719350
H24561	H2456	0.609200	0.898300	0.718200
C39901	C3990	0.579620	0.907910	0.691530
C39911	C3991	0.561770	0.926190	0.667300
C39921	C3992	0.594300	0.935530	0.675780
C39931	C3993	0.612750	0.962420	0.654350
H24571	H2457	0.600700	0.962800	0.645600
C39941	C3994	0.612710	0.948780	0.671640
C39951	C3995	0.630720	0.947900	0.683990
H24581	H2458	0.631500	0.938800	0.695700
C39961	C3996	0.647440	0.960630	0.678590
H24591	H2459	0.660000	0.960300	0.686600
C39971	C3997	0.645850	0.973770	0.661580
H24601	H2460	0.657400	0.982500	0.658200
C39981	C3998	0.675040	0.001260	0.619910
C39991	C3999	0.638640	0.017600	0.582930
H24611	H2461	0.649300	0.007300	0.584100
C40001	C4000	0.637860	0.029250	0.565270
H24621	H2462	0.647300	0.026600	0.554100
C40011	C4001	0.622980	0.045190	0.563550
H24631	H2463	0.622200	0.053700	0.551400
C40021	C4002	0.609330	0.048220	0.580110
C40031	C4003	0.610770	0.034960	0.597410
H24641	H2464	0.601100	0.036700	0.608600
C40041	C4004	0.593040	0.064330	0.579390
N15311	N1531	0.515270	0.910930	0.635870
N15321	N1532	0.613770	0.854310	0.773540
N15331	N1533	0.600670	0.872730	0.733190
N15341	N1534	0.596360	0.920300	0.689480
N15351	N1535	0.561930	0.909900	0.680390
N15361	N1536	0.577150	0.939700	0.664770
N15371	N1537	0.628610	0.974660	0.649600
N15381	N1538	0.657500	0.998740	0.622780
N15391	N1539	0.625060	0.020010	0.598860
N15401	N1540	0.578630	0.063970	0.594400
S3071	S307	0.584750	0.826890	0.791120
S3081	S308	0.699840	0.004910	0.615700
C40051	C4005	0.031220	0.411050	0.649160
H24651	H2465	0.034600	0.398300	0.656000
C40061	C4006	0.043160	0.428450	0.653670
C40071	C4007	0.038060	0.447330	0.644000
H24661	H2466	0.046000	0.459600	0.646600
C40081	C4008	0.021160	0.447600	0.630560
H24671	H2467	0.017100	0.460200	0.623900
C40091	C4009	0.010150	0.429240	0.626900
H24681	H2468	0.998500	0.429600	0.617700
C40101	C4010	0.101720	0.343020	0.781210
C40111	C4011	0.085180	0.358630	0.734660
H24691	H2469	0.086400	0.347700	0.744700
C40121	C4012	0.067360	0.359440	0.722050
H24701	H2470	0.057000	0.348900	0.723100
C40131	C4013	0.064990	0.375510	0.708230
H24711	H2471	0.052800	0.376500	0.699800
C40141	C4014	0.080940	0.390570	0.706670
C40151	C4015	0.098310	0.388260	0.719350
H24721	H2472	0.109200	0.398300	0.718200
C40161	C4016	0.079620	0.407910	0.691530
C40171	C4017	0.061770	0.426190	0.667300
C40181	C4018	0.094300	0.435530	0.675780
C40191	C4019	0.112750	0.462420	0.654350
H24731	H2473	0.100700	0.462800	0.645600
C40201	C4020	0.112710	0.448780	0.671640
C40211	C4021	0.130720	0.447900	0.683990
H24741	H2474	0.131500	0.438800	0.695700
C40221	C4022	0.147440	0.460630	0.678590
H24751	H2475	0.160000	0.460300	0.686600
C40231	C4023	0.145850	0.473770	0.661580
H24761	H2476	0.157400	0.482500	0.658200
C40241	C4024	0.175040	0.501260	0.619910
C40251	C4025	0.138640	0.517600	0.582930
H24771	H2477	0.149300	0.507300	0.584100
C40261	C4026	0.137860	0.529250	0.565270
H24781	H2478	0.147300	0.526600	0.554100
C40271	C4027	0.122980	0.545190	0.563550
H24791	H2479	0.122200	0.553700	0.551400
C40281	C4028	0.109330	0.548220	0.580110
C40291	C4029	0.110770	0.534960	0.597410
H24801	H2480	0.101100	0.536700	0.608600
C40301	C4030	0.093040	0.564330	0.579390
N15411	N1541	0.015270	0.410930	0.635870
N15421	N1542	0.113770	0.354310	0.773540
N15431	N1543	0.100670	0.372730	0.733190
N15441	N1544	0.096360	0.420300	0.689480
N15451	N1545	0.061930	0.409900	0.680390
N15461	N1546	0.077150	0.439700	0.664770
N15471	N1547	0.128610	0.474660	0.649600
N15481	N1548	0.157500	0.498740	0.622780
N15491	N1549	0.125060	0.520010	0.598860
N15501	N1550	0.078630	0.563970	0.594400
S3091	S309	0.084750	0.326890	0.791120
S3101	S310	0.199840	0.504910	0.615700
C40311	C4031	0.031220	0.911050	0.149160
H24811	H2481	0.034600	0.898300	0.156000
C40321	C4032	0.043160	0.928450	0.153670
C40331	C4033	0.038060	0.947330	0.144000
H24821	H2482	0.046000	0.959600	0.146600
C40341	C4034	0.021160	0.947600	0.130560
H24831	H2483	0.017100	0.960200	0.123900
C40351	C4035	0.010150	0.929240	0.126900
H24841	H2484	0.998500	0.929600	0.117700
C40361	C4036	0.101720	0.843020	0.281210
C40371	C4037	0.085180	0.858630	0.234660
H24851	H2485	0.086400	0.847700	0.244700
C40381	C4038	0.067360	0.859440	0.222050
H24861	H2486	0.057000	0.848900	0.223100
C40391	C4039	0.064990	0.875510	0.208230
H24871	H2487	0.052800	0.876500	0.199800
C40401	C4040	0.080940	0.890570	0.206670
C40411	C4041	0.098310	0.888260	0.219350
H24881	H2488	0.109200	0.898300	0.218200
C40421	C4042	0.079620	0.907910	0.191530
C40431	C4043	0.061770	0.926190	0.167300
C40441	C4044	0.094300	0.935530	0.175780
C40451	C4045	0.112750	0.962420	0.154350
H24891	H2489	0.100700	0.962800	0.145600
C40461	C4046	0.112710	0.948780	0.171640
C40471	C4047	0.130720	0.947900	0.183990
H24901	H2490	0.131500	0.938800	0.195700
C40481	C4048	0.147440	0.960630	0.178590
H24911	H2491	0.160000	0.960300	0.186600
C40491	C4049	0.145850	0.973770	0.161580
H24921	H2492	0.157400	0.982500	0.158200
C40501	C4050	0.175040	0.001260	0.119910
C40511	C4051	0.138640	0.017600	0.082930
H24931	H2493	0.149300	0.007300	0.084100
C40521	C4052	0.137860	0.029250	0.065270
H24941	H2494	0.147300	0.026600	0.054100
C40531	C4053	0.122980	0.045190	0.063550
H24951	H2495	0.122200	0.053700	0.051400
C40541	C4054	0.109330	0.048220	0.080110
C40551	C4055	0.110770	0.034960	0.097410
H24961	H2496	0.101100	0.036700	0.108600
C40561	C4056	0.093040	0.064330	0.079390
N15511	N1551	0.015270	0.910930	0.135870
N15521	N1552	0.113770	0.854310	0.273540
N15531	N1553	0.100670	0.872730	0.233190
N15541	N1554	0.096360	0.920300	0.189480
N15551	N1555	0.061930	0.909900	0.180390
N15561	N1556	0.077150	0.939700	0.164770
N15571	N1557	0.128610	0.974660	0.149600
N15581	N1558	0.157500	0.998740	0.122780
N15591	N1559	0.125060	0.020010	0.098860
N15601	N1560	0.078630	0.063970	0.094400
S3111	S311	0.084750	0.826890	0.291120
S3121	S312	0.199840	0.004910	0.115700
C40571	C4057	0.218780	0.838950	0.649160
H24971	H2497	0.215400	0.851700	0.656000
C40581	C4058	0.206840	0.821550	0.653670
C40591	C4059	0.211940	0.802670	0.644000
H24981	H2498	0.204000	0.790400	0.646600
C40601	C4060	0.228840	0.802400	0.630560
H24991	H2499	0.232900	0.789800	0.623900
C40611	C4061	0.239850	0.820760	0.626900
H25001	H2500	0.251500	0.820400	0.617700
C40621	C4062	0.148280	0.906980	0.781210
C40631	C4063	0.164820	0.891370	0.734660
H25011	H2501	0.163600	0.902300	0.744700
C40641	C4064	0.182640	0.890560	0.722050
H25021	H2502	0.193000	0.901100	0.723100
C40651	C4065	0.185010	0.874490	0.708230
H25031	H2503	0.197200	0.873500	0.699800
C40661	C4066	0.169060	0.859430	0.706670
C40671	C4067	0.151690	0.861740	0.719350
H25041	H2504	0.140800	0.851700	0.718200
C40681	C4068	0.170380	0.842090	0.691530
C40691	C4069	0.188230	0.823810	0.667300
C40701	C4070	0.155700	0.814470	0.675780
C40711	C4071	0.137250	0.787580	0.654350
H25051	H2505	0.149300	0.787200	0.645600
C40721	C4072	0.137290	0.801220	0.671640
C40731	C4073	0.119280	0.802100	0.683990
H25061	H2506	0.118500	0.811200	0.695700
C40741	C4074	0.102560	0.789370	0.678590
H25071	H2507	0.090000	0.789700	0.686600
C40751	C4075	0.104150	0.776230	0.661580
H25081	H2508	0.092600	0.767500	0.658200
C40761	C4076	0.074960	0.748740	0.619910
C40771	C4077	0.111360	0.732400	0.582930
H25091	H2509	0.100700	0.742700	0.584100
C40781	C4078	0.112140	0.720750	0.565270
H25101	H2510	0.102700	0.723400	0.554100
C40791	C4079	0.127020	0.704810	0.563550
H25111	H2511	0.127800	0.696300	0.551400
C40801	C4080	0.140670	0.701780	0.580110
C40811	C4081	0.139230	0.715040	0.597410
H25121	H2512	0.148900	0.713300	0.608600
C40821	C4082	0.156960	0.685670	0.579390
N15611	N1561	0.234730	0.839070	0.635870
N15621	N1562	0.136230	0.895690	0.773540
N15631	N1563	0.149330	0.877270	0.733190
N15641	N1564	0.153640	0.829700	0.689480
N15651	N1565	0.188070	0.840100	0.680390
N15661	N1566	0.172850	0.810300	0.664770
N15671	N1567	0.121390	0.775340	0.649600
N15681	N1568	0.092500	0.751260	0.622780
N15691	N1569	0.124940	0.729990	0.598860
N15701	N1570	0.171370	0.686030	0.594400
S3131	S313	0.165250	0.923110	0.791120
S3141	S314	0.050160	0.745090	0.615700
C40831	C4083	0.218780	0.338950	0.149160
H25131	H2513	0.215400	0.351700	0.156000
C40841	C4084	0.206840	0.321550	0.153670
C40851	C4085	0.211940	0.302670	0.144000
H25141	H2514	0.204000	0.290400	0.146600
C40861	C4086	0.228840	0.302400	0.130560
H25151	H2515	0.232900	0.289800	0.123900
C40871	C4087	0.239850	0.320760	0.126900
H25161	H2516	0.251500	0.320400	0.117700
C40881	C4088	0.148280	0.406980	0.281210
C40891	C4089	0.164820	0.391370	0.234660
H25171	H2517	0.163600	0.402300	0.244700
C40901	C4090	0.182640	0.390560	0.222050
H25181	H2518	0.193000	0.401100	0.223100
C40911	C4091	0.185010	0.374490	0.208230
H25191	H2519	0.197200	0.373500	0.199800
C40921	C4092	0.169060	0.359430	0.206670
C40931	C4093	0.151690	0.361740	0.219350
H25201	H2520	0.140800	0.351700	0.218200
C40941	C4094	0.170380	0.342090	0.191530
C40951	C4095	0.188230	0.323810	0.167300
C40961	C4096	0.155700	0.314470	0.175780
C40971	C4097	0.137250	0.287580	0.154350
H25211	H2521	0.149300	0.287200	0.145600
C40981	C4098	0.137290	0.301220	0.171640
C40991	C4099	0.119280	0.302100	0.183990
H25221	H2522	0.118500	0.311200	0.195700
C41001	C4100	0.102560	0.289370	0.178590
H25231	H2523	0.090000	0.289700	0.186600
C41011	C4101	0.104150	0.276230	0.161580
H25241	H2524	0.092600	0.267500	0.158200
C41021	C4102	0.074960	0.248740	0.119910
C41031	C4103	0.111360	0.232400	0.082930
H25251	H2525	0.100700	0.242700	0.084100
C41041	C4104	0.112140	0.220750	0.065270
H25261	H2526	0.102700	0.223400	0.054100
C41051	C4105	0.127020	0.204810	0.063550
H25271	H2527	0.127800	0.196300	0.051400
C41061	C4106	0.140670	0.201780	0.080110
C41071	C4107	0.139230	0.215040	0.097410
H25281	H2528	0.148900	0.213300	0.108600
C41081	C4108	0.156960	0.185670	0.079390
N15711	N1571	0.234730	0.339070	0.135870
N15721	N1572	0.136230	0.395690	0.273540
N15731	N1573	0.149330	0.377270	0.233190
N15741	N1574	0.153640	0.329700	0.189480
N15751	N1575	0.188070	0.340100	0.180390
N15761	N1576	0.172850	0.310300	0.164770
N15771	N1577	0.121390	0.275340	0.149600
N15781	N1578	0.092500	0.251260	0.122780
N15791	N1579	0.124940	0.229990	0.098860
N15801	N1580	0.171370	0.186030	0.094400
S3151	S315	0.165250	0.423110	0.291120
S3161	S316	0.050160	0.245090	0.115700
C41091	C4109	0.718780	0.838950	0.149160
H25291	H2529	0.715400	0.851700	0.156000
C41101	C4110	0.706840	0.821550	0.153670
C41111	C4111	0.711940	0.802670	0.144000
H25301	H2530	0.704000	0.790400	0.146600
C41121	C4112	0.728840	0.802400	0.130560
H25311	H2531	0.732900	0.789800	0.123900
C41131	C4113	0.739850	0.820760	0.126900
H25321	H2532	0.751500	0.820400	0.117700
C41141	C4114	0.648280	0.906980	0.281210
C41151	C4115	0.664820	0.891370	0.234660
H25331	H2533	0.663600	0.902300	0.244700
C41161	C4116	0.682640	0.890560	0.222050
H25341	H2534	0.693000	0.901100	0.223100
C41171	C4117	0.685010	0.874490	0.208230
H25351	H2535	0.697200	0.873500	0.199800
C41181	C4118	0.669060	0.859430	0.206670
C41191	C4119	0.651690	0.861740	0.219350
H25361	H2536	0.640800	0.851700	0.218200
C41201	C4120	0.670380	0.842090	0.191530
C41211	C4121	0.688230	0.823810	0.167300
C41221	C4122	0.655700	0.814470	0.175780
C41231	C4123	0.637250	0.787580	0.154350
H25371	H2537	0.649300	0.787200	0.145600
C41241	C4124	0.637290	0.801220	0.171640
C41251	C4125	0.619280	0.802100	0.183990
H25381	H2538	0.618500	0.811200	0.195700
C41261	C4126	0.602560	0.789370	0.178590
H25391	H2539	0.590000	0.789700	0.186600
C41271	C4127	0.604150	0.776230	0.161580
H25401	H2540	0.592600	0.767500	0.158200
C41281	C4128	0.574960	0.748740	0.119910
C41291	C4129	0.611360	0.732400	0.082930
H25411	H2541	0.600700	0.742700	0.084100
C41301	C4130	0.612140	0.720750	0.065270
H25421	H2542	0.602700	0.723400	0.054100
C41311	C4131	0.627020	0.704810	0.063550
H25431	H2543	0.627800	0.696300	0.051400
C41321	C4132	0.640670	0.701780	0.080110
C41331	C4133	0.639230	0.715040	0.097410
H25441	H2544	0.648900	0.713300	0.108600
C41341	C4134	0.656960	0.685670	0.079390
N15811	N1581	0.734730	0.839070	0.135870
N15821	N1582	0.636230	0.895690	0.273540
N15831	N1583	0.649330	0.877270	0.233190
N15841	N1584	0.653640	0.829700	0.189480
N15851	N1585	0.688070	0.840100	0.180390
N15861	N1586	0.672850	0.810300	0.164770
N15871	N1587	0.621390	0.775340	0.149600
N15881	N1588	0.592500	0.751260	0.122780
N15891	N1589	0.624940	0.729990	0.098860
N15901	N1590	0.671370	0.686030	0.094400
S3171	S317	0.665250	0.923110	0.291120
S3181	S318	0.550160	0.745090	0.115700
C41351	C4135	0.718780	0.338950	0.649160
H25451	H2545	0.715400	0.351700	0.656000
C41361	C4136	0.706840	0.321550	0.653670
C41371	C4137	0.711940	0.302670	0.644000
H25461	H2546	0.704000	0.290400	0.646600
C41381	C4138	0.728840	0.302400	0.630560
H25471	H2547	0.732900	0.289800	0.623900
C41391	C4139	0.739850	0.320760	0.626900
H25481	H2548	0.751500	0.320400	0.617700
C41401	C4140	0.648280	0.406980	0.781210
C41411	C4141	0.664820	0.391370	0.734660
H25491	H2549	0.663600	0.402300	0.744700
C41421	C4142	0.682640	0.390560	0.722050
H25501	H2550	0.693000	0.401100	0.723100
C41431	C4143	0.685010	0.374490	0.708230
H25511	H2551	0.697200	0.373500	0.699800
C41441	C4144	0.669060	0.359430	0.706670
C41451	C4145	0.651690	0.361740	0.719350
H25521	H2552	0.640800	0.351700	0.718200
C41461	C4146	0.670380	0.342090	0.691530
C41471	C4147	0.688230	0.323810	0.667300
C41481	C4148	0.655700	0.314470	0.675780
C41491	C4149	0.637250	0.287580	0.654350
H25531	H2553	0.649300	0.287200	0.645600
C41501	C4150	0.637290	0.301220	0.671640
C41511	C4151	0.619280	0.302100	0.683990
H25541	H2554	0.618500	0.311200	0.695700
C41521	C4152	0.602560	0.289370	0.678590
H25551	H2555	0.590000	0.289700	0.686600
C41531	C4153	0.604150	0.276230	0.661580
H25561	H2556	0.592600	0.267500	0.658200
C41541	C4154	0.574960	0.248740	0.619910
C41551	C4155	0.611360	0.232400	0.582930
H25571	H2557	0.600700	0.242700	0.584100
C41561	C4156	0.612140	0.220750	0.565270
H25581	H2558	0.602700	0.223400	0.554100
C41571	C4157	0.627020	0.204810	0.563550
H25591	H2559	0.627800	0.196300	0.551400
C41581	C4158	0.640670	0.201780	0.580110
C41591	C4159	0.639230	0.215040	0.597410
H25601	H2560	0.648900	0.213300	0.608600
C41601	C4160	0.656960	0.185670	0.579390
N15911	N1591	0.734730	0.339070	0.635870
N15921	N1592	0.636230	0.395690	0.773540
N15931	N1593	0.649330	0.377270	0.733190
N15941	N1594	0.653640	0.329700	0.689480
N15951	N1595	0.688070	0.340100	0.680390
N15961	N1596	0.672850	0.310300	0.664770
N15971	N1597	0.621390	0.275340	0.649600
N15981	N1598	0.592500	0.251260	0.622780
N15991	N1599	0.624940	0.229990	0.598860
N16001	N1600	0.671370	0.186030	0.594400
S3191	S319	0.665250	0.423110	0.791120
S3201	S320	0.550160	0.245090	0.615700
C41611	C4161	0.838950	0.649160	0.218780
H25611	H2561	0.851700	0.656000	0.215400
C41621	C4162	0.821550	0.653670	0.206840
C41631	C4163	0.802670	0.644000	0.211940
H25621	H2562	0.790400	0.646600	0.204000
C41641	C4164	0.802400	0.630560	0.228840
H25631	H2563	0.789800	0.623900	0.232900
C41651	C4165	0.820760	0.626900	0.239850
H25641	H2564	0.820400	0.617700	0.251500
C41661	C4166	0.906980	0.781210	0.148280
C41671	C4167	0.891370	0.734660	0.164820
H25651	H2565	0.902300	0.744700	0.163600
C41681	C4168	0.890560	0.722050	0.182640
H25661	H2566	0.901100	0.723100	0.193000
C41691	C4169	0.874490	0.708230	0.185010
H25671	H2567	0.873500	0.699800	0.197200
C41701	C4170	0.859430	0.706670	0.169060
C41711	C4171	0.861740	0.719350	0.151690
H25681	H2568	0.851700	0.718200	0.140800
C41721	C4172	0.842090	0.691530	0.170380
C41731	C4173	0.823810	0.667300	0.188230
C41741	C4174	0.814470	0.675780	0.155700
C41751	C4175	0.787580	0.654350	0.137250
H25691	H2569	0.787200	0.645600	0.149300
C41761	C4176	0.801220	0.671640	0.137290
C41771	C4177	0.802100	0.683990	0.119280
H25701	H2570	0.811200	0.695700	0.118500
C41781	C4178	0.789370	0.678590	0.102560
H25711	H2571	0.789700	0.686600	0.090000
C41791	C4179	0.776230	0.661580	0.104150
H25721	H2572	0.767500	0.658200	0.092600
C41801	C4180	0.748740	0.619910	0.074960
C41811	C4181	0.732400	0.582930	0.111360
H25731	H2573	0.742700	0.584100	0.100700
C41821	C4182	0.720750	0.565270	0.112140
H25741	H2574	0.723400	0.554100	0.102700
C41831	C4183	0.704810	0.563550	0.127020
H25751	H2575	0.696300	0.551400	0.127800
C41841	C4184	0.701780	0.580110	0.140670
C41851	C4185	0.715040	0.597410	0.139230
H25761	H2576	0.713300	0.608600	0.148900
C41861	C4186	0.685670	0.579390	0.156960
N16011	N1601	0.839070	0.635870	0.234730
N16021	N1602	0.895690	0.773540	0.136230
N16031	N1603	0.877270	0.733190	0.149330
N16041	N1604	0.829700	0.689480	0.153640
N16051	N1605	0.840100	0.680390	0.188070
N16061	N1606	0.810300	0.664770	0.172850
N16071	N1607	0.775340	0.649600	0.121390
N16081	N1608	0.751260	0.622780	0.092500
N16091	N1609	0.729990	0.598860	0.124940
N16101	N1610	0.686030	0.594400	0.171370
S3211	S321	0.923110	0.791120	0.165250
S3221	S322	0.745090	0.615700	0.050160
C41871	C4187	0.838950	0.149160	0.718780
H25771	H2577	0.851700	0.156000	0.715400
C41881	C4188	0.821550	0.153670	0.706840
C41891	C4189	0.802670	0.144000	0.711940
H25781	H2578	0.790400	0.146600	0.704000
C41901	C4190	0.802400	0.130560	0.728840
H25791	H2579	0.789800	0.123900	0.732900
C41911	C4191	0.820760	0.126900	0.739850
H25801	H2580	0.820400	0.117700	0.751500
C41921	C4192	0.906980	0.281210	0.648280
C41931	C4193	0.891370	0.234660	0.664820
H25811	H2581	0.902300	0.244700	0.663600
C41941	C4194	0.890560	0.222050	0.682640
H25821	H2582	0.901100	0.223100	0.693000
C41951	C4195	0.874490	0.208230	0.685010
H25831	H2583	0.873500	0.199800	0.697200
C41961	C4196	0.859430	0.206670	0.669060
C41971	C4197	0.861740	0.219350	0.651690
H25841	H2584	0.851700	0.218200	0.640800
C41981	C4198	0.842090	0.191530	0.670380
C41991	C4199	0.823810	0.167300	0.688230
C42001	C4200	0.814470	0.175780	0.655700
C42011	C4201	0.787580	0.154350	0.637250
H25851	H2585	0.787200	0.145600	0.649300
C42021	C4202	0.801220	0.171640	0.637290
C42031	C4203	0.802100	0.183990	0.619280
H25861	H2586	0.811200	0.195700	0.618500
C42041	C4204	0.789370	0.178590	0.602560
H25871	H2587	0.789700	0.186600	0.590000
C42051	C4205	0.776230	0.161580	0.604150
H25881	H2588	0.767500	0.158200	0.592600
C42061	C4206	0.748740	0.119910	0.574960
C42071	C4207	0.732400	0.082930	0.611360
H25891	H2589	0.742700	0.084100	0.600700
C42081	C4208	0.720750	0.065270	0.612140
H25901	H2590	0.723400	0.054100	0.602700
C42091	C4209	0.704810	0.063550	0.627020
H25911	H2591	0.696300	0.051400	0.627800
C42101	C4210	0.701780	0.080110	0.640670
C42111	C4211	0.715040	0.097410	0.639230
H25921	H2592	0.713300	0.108600	0.648900
C42121	C4212	0.685670	0.079390	0.656960
N16111	N1611	0.839070	0.135870	0.734730
N16121	N1612	0.895690	0.273540	0.636230
N16131	N1613	0.877270	0.233190	0.649330
N16141	N1614	0.829700	0.189480	0.653640
N16151	N1615	0.840100	0.180390	0.688070
N16161	N1616	0.810300	0.164770	0.672850
N16171	N1617	0.775340	0.149600	0.621390
N16181	N1618	0.751260	0.122780	0.592500
N16191	N1619	0.729990	0.098860	0.624940
N16201	N1620	0.686030	0.094400	0.671370
S3231	S323	0.923110	0.291120	0.665250
S3241	S324	0.745090	0.115700	0.550160
C42131	C4213	0.338950	0.649160	0.718780
H25931	H2593	0.351700	0.656000	0.715400
C42141	C4214	0.321550	0.653670	0.706840
C42151	C4215	0.302670	0.644000	0.711940
H25941	H2594	0.290400	0.646600	0.704000
C42161	C4216	0.302400	0.630560	0.728840
H25951	H2595	0.289800	0.623900	0.732900
C42171	C4217	0.320760	0.626900	0.739850
H25961	H2596	0.320400	0.617700	0.751500
C42181	C4218	0.406980	0.781210	0.648280
C42191	C4219	0.391370	0.734660	0.664820
H25971	H2597	0.402300	0.744700	0.663600
C42201	C4220	0.390560	0.722050	0.682640
H25981	H2598	0.401100	0.723100	0.693000
C42211	C4221	0.374490	0.708230	0.685010
H25991	H2599	0.373500	0.699800	0.697200
C42221	C4222	0.359430	0.706670	0.669060
C42231	C4223	0.361740	0.719350	0.651690
H26001	H2600	0.351700	0.718200	0.640800
C42241	C4224	0.342090	0.691530	0.670380
C42251	C4225	0.323810	0.667300	0.688230
C42261	C4226	0.314470	0.675780	0.655700
C42271	C4227	0.287580	0.654350	0.637250
H26011	H2601	0.287200	0.645600	0.649300
C42281	C4228	0.301220	0.671640	0.637290
C42291	C4229	0.302100	0.683990	0.619280
H26021	H2602	0.311200	0.695700	0.618500
C42301	C4230	0.289370	0.678590	0.602560
H26031	H2603	0.289700	0.686600	0.590000
C42311	C4231	0.276230	0.661580	0.604150
H26041	H2604	0.267500	0.658200	0.592600
C42321	C4232	0.248740	0.619910	0.574960
C42331	C4233	0.232400	0.582930	0.611360
H26051	H2605	0.242700	0.584100	0.600700
C42341	C4234	0.220750	0.565270	0.612140
H26061	H2606	0.223400	0.554100	0.602700
C42351	C4235	0.204810	0.563550	0.627020
H26071	H2607	0.196300	0.551400	0.627800
C42361	C4236	0.201780	0.580110	0.640670
C42371	C4237	0.215040	0.597410	0.639230
H26081	H2608	0.213300	0.608600	0.648900
C42381	C4238	0.185670	0.579390	0.656960
N16211	N1621	0.339070	0.635870	0.734730
N16221	N1622	0.395690	0.773540	0.636230
N16231	N1623	0.377270	0.733190	0.649330
N16241	N1624	0.329700	0.689480	0.653640
N16251	N1625	0.340100	0.680390	0.688070
N16261	N1626	0.310300	0.664770	0.672850
N16271	N1627	0.275340	0.649600	0.621390
N16281	N1628	0.251260	0.622780	0.592500
N16291	N1629	0.229990	0.598860	0.624940
N16301	N1630	0.186030	0.594400	0.671370
S3251	S325	0.423110	0.791120	0.665250
S3261	S326	0.245090	0.615700	0.550160
C42391	C4239	0.338950	0.149160	0.218780
H26091	H2609	0.351700	0.156000	0.215400
C42401	C4240	0.321550	0.153670	0.206840
C42411	C4241	0.302670	0.144000	0.211940
H26101	H2610	0.290400	0.146600	0.204000
C42421	C4242	0.302400	0.130560	0.228840
H26111	H2611	0.289800	0.123900	0.232900
C42431	C4243	0.320760	0.126900	0.239850
H26121	H2612	0.320400	0.117700	0.251500
C42441	C4244	0.406980	0.281210	0.148280
C42451	C4245	0.391370	0.234660	0.164820
H26131	H2613	0.402300	0.244700	0.163600
C42461	C4246	0.390560	0.222050	0.182640
H26141	H2614	0.401100	0.223100	0.193000
C42471	C4247	0.374490	0.208230	0.185010
H26151	H2615	0.373500	0.199800	0.197200
C42481	C4248	0.359430	0.206670	0.169060
C42491	C4249	0.361740	0.219350	0.151690
H26161	H2616	0.351700	0.218200	0.140800
C42501	C4250	0.342090	0.191530	0.170380
C42511	C4251	0.323810	0.167300	0.188230
C42521	C4252	0.314470	0.175780	0.155700
C42531	C4253	0.287580	0.154350	0.137250
H26171	H2617	0.287200	0.145600	0.149300
C42541	C4254	0.301220	0.171640	0.137290
C42551	C4255	0.302100	0.183990	0.119280
H26181	H2618	0.311200	0.195700	0.118500
C42561	C4256	0.289370	0.178590	0.102560
H26191	H2619	0.289700	0.186600	0.090000
C42571	C4257	0.276230	0.161580	0.104150
H26201	H2620	0.267500	0.158200	0.092600
C42581	C4258	0.248740	0.119910	0.074960
C42591	C4259	0.232400	0.082930	0.111360
H26211	H2621	0.242700	0.084100	0.100700
C42601	C4260	0.220750	0.065270	0.112140
H26221	H2622	0.223400	0.054100	0.102700
C42611	C4261	0.204810	0.063550	0.127020
H26231	H2623	0.196300	0.051400	0.127800
C42621	C4262	0.201780	0.080110	0.140670
C42631	C4263	0.215040	0.097410	0.139230
H26241	H2624	0.213300	0.108600	0.148900
C42641	C4264	0.185670	0.079390	0.156960
N16311	N1631	0.339070	0.135870	0.234730
N16321	N1632	0.395690	0.273540	0.136230
N16331	N1633	0.377270	0.233190	0.149330
N16341	N1634	0.329700	0.189480	0.153640
N16351	N1635	0.340100	0.180390	0.188070
N16361	N1636	0.310300	0.164770	0.172850
N16371	N1637	0.275340	0.149600	0.121390
N16381	N1638	0.251260	0.122780	0.092500
N16391	N1639	0.229990	0.098860	0.124940
N16401	N1640	0.186030	0.094400	0.171370
S3271	S327	0.423110	0.291120	0.165250
S3281	S328	0.245090	0.115700	0.050160
C42651	C4265	0.411050	0.149160	0.531220
H26251	H2625	0.398300	0.156000	0.534600
C42661	C4266	0.428450	0.153670	0.543160
C42671	C4267	0.447330	0.144000	0.538060
H26261	H2626	0.459600	0.146600	0.546000
C42681	C4268	0.447600	0.130560	0.521160
H26271	H2627	0.460200	0.123900	0.517100
C42691	C4269	0.429240	0.126900	0.510150
H26281	H2628	0.429600	0.117700	0.498500
C42701	C4270	0.343020	0.281210	0.601720
C42711	C4271	0.358630	0.234660	0.585180
H26291	H2629	0.347700	0.244700	0.586400
C42721	C4272	0.359440	0.222050	0.567360
H26301	H2630	0.348900	0.223100	0.557000
C42731	C4273	0.375510	0.208230	0.564990
H26311	H2631	0.376500	0.199800	0.552800
C42741	C4274	0.390570	0.206670	0.580940
C42751	C4275	0.388260	0.219350	0.598310
H26321	H2632	0.398300	0.218200	0.609200
C42761	C4276	0.407910	0.191530	0.579620
C42771	C4277	0.426190	0.167300	0.561770
C42781	C4278	0.435530	0.175780	0.594300
C42791	C4279	0.462420	0.154350	0.612750
H26331	H2633	0.462800	0.145600	0.600700
C42801	C4280	0.448780	0.171640	0.612710
C42811	C4281	0.447900	0.183990	0.630720
H26341	H2634	0.438800	0.195700	0.631500
C42821	C4282	0.460630	0.178590	0.647440
H26351	H2635	0.460300	0.186600	0.660000
C42831	C4283	0.473770	0.161580	0.645850
H26361	H2636	0.482500	0.158200	0.657400
C42841	C4284	0.501260	0.119910	0.675040
C42851	C4285	0.517600	0.082930	0.638640
H26371	H2637	0.507300	0.084100	0.649300
C42861	C4286	0.529250	0.065270	0.637860
H26381	H2638	0.526600	0.054100	0.647300
C42871	C4287	0.545190	0.063550	0.622980
H26391	H2639	0.553700	0.051400	0.622200
C42881	C4288	0.548220	0.080110	0.609330
C42891	C4289	0.534960	0.097410	0.610770
H26401	H2640	0.536700	0.108600	0.601100
C42901	C4290	0.564330	0.079390	0.593040
N16411	N1641	0.410930	0.135870	0.515270
N16421	N1642	0.354310	0.273540	0.613770
N16431	N1643	0.372730	0.233190	0.600670
N16441	N1644	0.420300	0.189480	0.596360
N16451	N1645	0.409900	0.180390	0.561930
N16461	N1646	0.439700	0.164770	0.577150
N16471	N1647	0.474660	0.149600	0.628610
N16481	N1648	0.498740	0.122780	0.657500
N16491	N1649	0.520010	0.098860	0.625060
N16501	N1650	0.563970	0.094400	0.578630
S3291	S329	0.326890	0.291120	0.584750
S3301	S330	0.504910	0.115700	0.699840
C42911	C4291	0.411050	0.649160	0.031220
H26411	H2641	0.398300	0.656000	0.034600
C42921	C4292	0.428450	0.653670	0.043160
C42931	C4293	0.447330	0.644000	0.038060
H26421	H2642	0.459600	0.646600	0.046000
C42941	C4294	0.447600	0.630560	0.021160
H26431	H2643	0.460200	0.623900	0.017100
C42951	C4295	0.429240	0.626900	0.010150
H26441	H2644	0.429600	0.617700	0.998500
C42961	C4296	0.343020	0.781210	0.101720
C42971	C4297	0.358630	0.734660	0.085180
H26451	H2645	0.347700	0.744700	0.086400
C42981	C4298	0.359440	0.722050	0.067360
H26461	H2646	0.348900	0.723100	0.057000
C42991	C4299	0.375510	0.708230	0.064990
H26471	H2647	0.376500	0.699800	0.052800
C43001	C4300	0.390570	0.706670	0.080940
C43011	C4301	0.388260	0.719350	0.098310
H26481	H2648	0.398300	0.718200	0.109200
C43021	C4302	0.407910	0.691530	0.079620
C43031	C4303	0.426190	0.667300	0.061770
C43041	C4304	0.435530	0.675780	0.094300
C43051	C4305	0.462420	0.654350	0.112750
H26491	H2649	0.462800	0.645600	0.100700
C43061	C4306	0.448780	0.671640	0.112710
C43071	C4307	0.447900	0.683990	0.130720
H26501	H2650	0.438800	0.695700	0.131500
C43081	C4308	0.460630	0.678590	0.147440
H26511	H2651	0.460300	0.686600	0.160000
C43091	C4309	0.473770	0.661580	0.145850
H26521	H2652	0.482500	0.658200	0.157400
C43101	C4310	0.501260	0.619910	0.175040
C43111	C4311	0.517600	0.582930	0.138640
H26531	H2653	0.507300	0.584100	0.149300
C43121	C4312	0.529250	0.565270	0.137860
H26541	H2654	0.526600	0.554100	0.147300
C43131	C4313	0.545190	0.563550	0.122980
H26551	H2655	0.553700	0.551400	0.122200
C43141	C4314	0.548220	0.580110	0.109330
C43151	C4315	0.534960	0.597410	0.110770
H26561	H2656	0.536700	0.608600	0.101100
C43161	C4316	0.564330	0.579390	0.093040
N16511	N1651	0.410930	0.635870	0.015270
N16521	N1652	0.354310	0.773540	0.113770
N16531	N1653	0.372730	0.733190	0.100670
N16541	N1654	0.420300	0.689480	0.096360
N16551	N1655	0.409900	0.680390	0.061930
N16561	N1656	0.439700	0.664770	0.077150
N16571	N1657	0.474660	0.649600	0.128610
N16581	N1658	0.498740	0.622780	0.157500
N16591	N1659	0.520010	0.598860	0.125060
N16601	N1660	0.563970	0.594400	0.078630
S3311	S331	0.326890	0.791120	0.084750
S3321	S332	0.504910	0.615700	0.199840
C43171	C4317	0.911050	0.149160	0.031220
H26571	H2657	0.898300	0.156000	0.034600
C43181	C4318	0.928450	0.153670	0.043160
C43191	C4319	0.947330	0.144000	0.038060
H26581	H2658	0.959600	0.146600	0.046000
C43201	C4320	0.947600	0.130560	0.021160
H26591	H2659	0.960200	0.123900	0.017100
C43211	C4321	0.929240	0.126900	0.010150
H26601	H2660	0.929600	0.117700	0.998500
C43221	C4322	0.843020	0.281210	0.101720
C43231	C4323	0.858630	0.234660	0.085180
H26611	H2661	0.847700	0.244700	0.086400
C43241	C4324	0.859440	0.222050	0.067360
H26621	H2662	0.848900	0.223100	0.057000
C43251	C4325	0.875510	0.208230	0.064990
H26631	H2663	0.876500	0.199800	0.052800
C43261	C4326	0.890570	0.206670	0.080940
C43271	C4327	0.888260	0.219350	0.098310
H26641	H2664	0.898300	0.218200	0.109200
C43281	C4328	0.907910	0.191530	0.079620
C43291	C4329	0.926190	0.167300	0.061770
C43301	C4330	0.935530	0.175780	0.094300
C43311	C4331	0.962420	0.154350	0.112750
H26651	H2665	0.962800	0.145600	0.100700
C43321	C4332	0.948780	0.171640	0.112710
C43331	C4333	0.947900	0.183990	0.130720
H26661	H2666	0.938800	0.195700	0.131500
C43341	C4334	0.960630	0.178590	0.147440
H26671	H2667	0.960300	0.186600	0.160000
C43351	C4335	0.973770	0.161580	0.145850
H26681	H2668	0.982500	0.158200	0.157400
C43361	C4336	0.001260	0.119910	0.175040
C43371	C4337	0.017600	0.082930	0.138640
H26691	H2669	0.007300	0.084100	0.149300
C43381	C4338	0.029250	0.065270	0.137860
H26701	H2670	0.026600	0.054100	0.147300
C43391	C4339	0.045190	0.063550	0.122980
H26711	H2671	0.053700	0.051400	0.122200
C43401	C4340	0.048220	0.080110	0.109330
C43411	C4341	0.034960	0.097410	0.110770
H26721	H2672	0.036700	0.108600	0.101100
C43421	C4342	0.064330	0.079390	0.093040
N16611	N1661	0.910930	0.135870	0.015270
N16621	N1662	0.854310	0.273540	0.113770
N16631	N1663	0.872730	0.233190	0.100670
N16641	N1664	0.920300	0.189480	0.096360
N16651	N1665	0.909900	0.180390	0.061930
N16661	N1666	0.939700	0.164770	0.077150
N16671	N1667	0.974660	0.149600	0.128610
N16681	N1668	0.998740	0.122780	0.157500
N16691	N1669	0.020010	0.098860	0.125060
N16701	N1670	0.063970	0.094400	0.078630
S3331	S333	0.826890	0.291120	0.084750
S3341	S334	0.004910	0.115700	0.199840
C43431	C4343	0.911050	0.649160	0.531220
H26731	H2673	0.898300	0.656000	0.534600
C43441	C4344	0.928450	0.653670	0.543160
C43451	C4345	0.947330	0.644000	0.538060
H26741	H2674	0.959600	0.646600	0.546000
C43461	C4346	0.947600	0.630560	0.521160
H26751	H2675	0.960200	0.623900	0.517100
C43471	C4347	0.929240	0.626900	0.510150
H26761	H2676	0.929600	0.617700	0.498500
C43481	C4348	0.843020	0.781210	0.601720
C43491	C4349	0.858630	0.734660	0.585180
H26771	H2677	0.847700	0.744700	0.586400
C43501	C4350	0.859440	0.722050	0.567360
H26781	H2678	0.848900	0.723100	0.557000
C43511	C4351	0.875510	0.708230	0.564990
H26791	H2679	0.876500	0.699800	0.552800
C43521	C4352	0.890570	0.706670	0.580940
C43531	C4353	0.888260	0.719350	0.598310
H26801	H2680	0.898300	0.718200	0.609200
C43541	C4354	0.907910	0.691530	0.579620
C43551	C4355	0.926190	0.667300	0.561770
C43561	C4356	0.935530	0.675780	0.594300
C43571	C4357	0.962420	0.654350	0.612750
H26811	H2681	0.962800	0.645600	0.600700
C43581	C4358	0.948780	0.671640	0.612710
C43591	C4359	0.947900	0.683990	0.630720
H26821	H2682	0.938800	0.695700	0.631500
C43601	C4360	0.960630	0.678590	0.647440
H26831	H2683	0.960300	0.686600	0.660000
C43611	C4361	0.973770	0.661580	0.645850
H26841	H2684	0.982500	0.658200	0.657400
C43621	C4362	0.001260	0.619910	0.675040
C43631	C4363	0.017600	0.582930	0.638640
H26851	H2685	0.007300	0.584100	0.649300
C43641	C4364	0.029250	0.565270	0.637860
H26861	H2686	0.026600	0.554100	0.647300
C43651	C4365	0.045190	0.563550	0.622980
H26871	H2687	0.053700	0.551400	0.622200
C43661	C4366	0.048220	0.580110	0.609330
C43671	C4367	0.034960	0.597410	0.610770
H26881	H2688	0.036700	0.608600	0.601100
C43681	C4368	0.064330	0.579390	0.593040
N16711	N1671	0.910930	0.635870	0.515270
N16721	N1672	0.854310	0.773540	0.613770
N16731	N1673	0.872730	0.733190	0.600670
N16741	N1674	0.920300	0.689480	0.596360
N16751	N1675	0.909900	0.680390	0.561930
N16761	N1676	0.939700	0.664770	0.577150
N16771	N1677	0.974660	0.649600	0.628610
N16781	N1678	0.998740	0.622780	0.657500
N16791	N1679	0.020010	0.598860	0.625060
N16801	N1680	0.063970	0.594400	0.578630
S3351	S335	0.826890	0.791120	0.584750
S3361	S336	0.004910	0.615700	0.699840
C43691	C4369	0.911050	0.600840	0.718780
H26891	H2689	0.898300	0.594000	0.715400
C43701	C4370	0.928450	0.596330	0.706840
C43711	C4371	0.947330	0.606000	0.711940
H26901	H2690	0.959600	0.603400	0.704000
C43721	C4372	0.947600	0.619440	0.728840
H26911	H2691	0.960200	0.626100	0.732900
C43731	C4373	0.929240	0.623100	0.739850
H26921	H2692	0.929600	0.632300	0.751500
C43741	C4374	0.843020	0.468790	0.648280
C43751	C4375	0.858630	0.515340	0.664820
H26931	H2693	0.847700	0.505300	0.663600
C43761	C4376	0.859440	0.527950	0.682640
H26941	H2694	0.848900	0.526900	0.693000
C43771	C4377	0.875510	0.541770	0.685010
H26951	H2695	0.876500	0.550200	0.697200
C43781	C4378	0.890570	0.543330	0.669060
C43791	C4379	0.888260	0.530650	0.651690
H26961	H2696	0.898300	0.531800	0.640800
C43801	C4380	0.907910	0.558470	0.670380
C43811	C4381	0.926190	0.582700	0.688230
C43821	C4382	0.935530	0.574220	0.655700
C43831	C4383	0.962420	0.595650	0.637250
H26971	H2697	0.962800	0.604400	0.649300
C43841	C4384	0.948780	0.578360	0.637290
C43851	C4385	0.947900	0.566010	0.619280
H26981	H2698	0.938800	0.554300	0.618500
C43861	C4386	0.960630	0.571410	0.602560
H26991	H2699	0.960300	0.563400	0.590000
C43871	C4387	0.973770	0.588420	0.604150
H27001	H2700	0.982500	0.591800	0.592600
C43881	C4388	0.001260	0.630090	0.574960
C43891	C4389	0.017600	0.667070	0.611360
H27011	H2701	0.007300	0.665900	0.600700
C43901	C4390	0.029250	0.684730	0.612140
H27021	H2702	0.026600	0.695900	0.602700
C43911	C4391	0.045190	0.686450	0.627020
H27031	H2703	0.053700	0.698600	0.627800
C43921	C4392	0.048220	0.669890	0.640670
C43931	C4393	0.034960	0.652590	0.639230
H27041	H2704	0.036700	0.641400	0.648900
C43941	C4394	0.064330	0.670610	0.656960
N16811	N1681	0.910930	0.614130	0.734730
N16821	N1682	0.854310	0.476460	0.636230
N16831	N1683	0.872730	0.516810	0.649330
N16841	N1684	0.920300	0.560520	0.653640
N16851	N1685	0.909900	0.569610	0.688070
N16861	N1686	0.939700	0.585230	0.672850
N16871	N1687	0.974660	0.600400	0.621390
N16881	N1688	0.998740	0.627220	0.592500
N16891	N1689	0.020010	0.651140	0.624940
N16901	N1690	0.063970	0.655600	0.671370
S3371	S337	0.826890	0.458880	0.665250
S3381	S338	0.004910	0.634300	0.550160
C43951	C4395	0.911050	0.100840	0.218780
H27051	H2705	0.898300	0.094000	0.215400
C43961	C4396	0.928450	0.096330	0.206840
C43971	C4397	0.947330	0.106000	0.211940
H27061	H2706	0.959600	0.103400	0.204000
C43981	C4398	0.947600	0.119440	0.228840
H27071	H2707	0.960200	0.126100	0.232900
C43991	C4399	0.929240	0.123100	0.239850
H27081	H2708	0.929600	0.132300	0.251500
C44001	C4400	0.843020	0.968790	0.148280
C44011	C4401	0.858630	0.015340	0.164820
H27091	H2709	0.847700	0.005300	0.163600
C44021	C4402	0.859440	0.027950	0.182640
H27101	H2710	0.848900	0.026900	0.193000
C44031	C4403	0.875510	0.041770	0.185010
H27111	H2711	0.876500	0.050200	0.197200
C44041	C4404	0.890570	0.043330	0.169060
C44051	C4405	0.888260	0.030650	0.151690
H27121	H2712	0.898300	0.031800	0.140800
C44061	C4406	0.907910	0.058470	0.170380
C44071	C4407	0.926190	0.082700	0.188230
C44081	C4408	0.935530	0.074220	0.155700
C44091	C4409	0.962420	0.095650	0.137250
H27131	H2713	0.962800	0.104400	0.149300
C44101	C4410	0.948780	0.078360	0.137290
C44111	C4411	0.947900	0.066010	0.119280
H27141	H2714	0.938800	0.054300	0.118500
C44121	C4412	0.960630	0.071410	0.102560
H27151	H2715	0.960300	0.063400	0.090000
C44131	C4413	0.973770	0.088420	0.104150
H27161	H2716	0.982500	0.091800	0.092600
C44141	C4414	0.001260	0.130090	0.074960
C44151	C4415	0.017600	0.167070	0.111360
H27171	H2717	0.007300	0.165900	0.100700
C44161	C4416	0.029250	0.184730	0.112140
H27181	H2718	0.026600	0.195900	0.102700
C44171	C4417	0.045190	0.186450	0.127020
H27191	H2719	0.053700	0.198600	0.127800
C44181	C4418	0.048220	0.169890	0.140670
C44191	C4419	0.034960	0.152590	0.139230
H27201	H2720	0.036700	0.141400	0.148900
C44201	C4420	0.064330	0.170610	0.156960
N16911	N1691	0.910930	0.114130	0.234730
N16921	N1692	0.854310	0.976460	0.136230
N16931	N1693	0.872730	0.016810	0.149330
N16941	N1694	0.920300	0.060520	0.153640
N16951	N1695	0.909900	0.069610	0.188070
N16961	N1696	0.939700	0.085230	0.172850
N16971	N1697	0.974660	0.100400	0.121390
N16981	N1698	0.998740	0.127220	0.092500
N16991	N1699	0.020010	0.151140	0.124940
N17001	N1700	0.063970	0.155600	0.171370
S3391	S339	0.826890	0.958880	0.165250
S3401	S340	0.004910	0.134300	0.050160
C44211	C4421	0.411050	0.600840	0.218780
H27211	H2721	0.398300	0.594000	0.215400
C44221	C4422	0.428450	0.596330	0.206840
C44231	C4423	0.447330	0.606000	0.211940
H27221	H2722	0.459600	0.603400	0.204000
C44241	C4424	0.447600	0.619440	0.228840
H27231	H2723	0.460200	0.626100	0.232900
C44251	C4425	0.429240	0.623100	0.239850
H27241	H2724	0.429600	0.632300	0.251500
C44261	C4426	0.343020	0.468790	0.148280
C44271	C4427	0.358630	0.515340	0.164820
H27251	H2725	0.347700	0.505300	0.163600
C44281	C4428	0.359440	0.527950	0.182640
H27261	H2726	0.348900	0.526900	0.193000
C44291	C4429	0.375510	0.541770	0.185010
H27271	H2727	0.376500	0.550200	0.197200
C44301	C4430	0.390570	0.543330	0.169060
C44311	C4431	0.388260	0.530650	0.151690
H27281	H2728	0.398300	0.531800	0.140800
C44321	C4432	0.407910	0.558470	0.170380
C44331	C4433	0.426190	0.582700	0.188230
C44341	C4434	0.435530	0.574220	0.155700
C44351	C4435	0.462420	0.595650	0.137250
H27291	H2729	0.462800	0.604400	0.149300
C44361	C4436	0.448780	0.578360	0.137290
C44371	C4437	0.447900	0.566010	0.119280
H27301	H2730	0.438800	0.554300	0.118500
C44381	C4438	0.460630	0.571410	0.102560
H27311	H2731	0.460300	0.563400	0.090000
C44391	C4439	0.473770	0.588420	0.104150
H27321	H2732	0.482500	0.591800	0.092600
C44401	C4440	0.501260	0.630090	0.074960
C44411	C4441	0.517600	0.667070	0.111360
H27331	H2733	0.507300	0.665900	0.100700
C44421	C4442	0.529250	0.684730	0.112140
H27341	H2734	0.526600	0.695900	0.102700
C44431	C4443	0.545190	0.686450	0.127020
H27351	H2735	0.553700	0.698600	0.127800
C44441	C4444	0.548220	0.669890	0.140670
C44451	C4445	0.534960	0.652590	0.139230
H27361	H2736	0.536700	0.641400	0.148900
C44461	C4446	0.564330	0.670610	0.156960
N17011	N1701	0.410930	0.614130	0.234730
N17021	N1702	0.354310	0.476460	0.136230
N17031	N1703	0.372730	0.516810	0.149330
N17041	N1704	0.420300	0.560520	0.153640
N17051	N1705	0.409900	0.569610	0.188070
N17061	N1706	0.439700	0.585230	0.172850
N17071	N1707	0.474660	0.600400	0.121390
N17081	N1708	0.498740	0.627220	0.092500
N17091	N1709	0.520010	0.651140	0.124940
N17101	N1710	0.563970	0.655600	0.171370
S3411	S341	0.326890	0.458880	0.165250
S3421	S342	0.504910	0.634300	0.050160
C44471	C4447	0.411050	0.100840	0.718780
H27371	H2737	0.398300	0.094000	0.715400
C44481	C4448	0.428450	0.096330	0.706840
C44491	C4449	0.447330	0.106000	0.711940
H27381	H2738	0.459600	0.103400	0.704000
C44501	C4450	0.447600	0.119440	0.728840
H27391	H2739	0.460200	0.126100	0.732900
C44511	C4451	0.429240	0.123100	0.739850
H27401	H2740	0.429600	0.132300	0.751500
C44521	C4452	0.343020	0.968790	0.648280
C44531	C4453	0.358630	0.015340	0.664820
H27411	H2741	0.347700	0.005300	0.663600
C44541	C4454	0.359440	0.027950	0.682640
H27421	H2742	0.348900	0.026900	0.693000
C44551	C4455	0.375510	0.041770	0.685010
H27431	H2743	0.376500	0.050200	0.697200
C44561	C4456	0.390570	0.043330	0.669060
C44571	C4457	0.388260	0.030650	0.651690
H27441	H2744	0.398300	0.031800	0.640800
C44581	C4458	0.407910	0.058470	0.670380
C44591	C4459	0.426190	0.082700	0.688230
C44601	C4460	0.435530	0.074220	0.655700
C44611	C4461	0.462420	0.095650	0.637250
H27451	H2745	0.462800	0.104400	0.649300
C44621	C4462	0.448780	0.078360	0.637290
C44631	C4463	0.447900	0.066010	0.619280
H27461	H2746	0.438800	0.054300	0.618500
C44641	C4464	0.460630	0.071410	0.602560
H27471	H2747	0.460300	0.063400	0.590000
C44651	C4465	0.473770	0.088420	0.604150
H27481	H2748	0.482500	0.091800	0.592600
C44661	C4466	0.501260	0.130090	0.574960
C44671	C4467	0.517600	0.167070	0.611360
H27491	H2749	0.507300	0.165900	0.600700
C44681	C4468	0.529250	0.184730	0.612140
H27501	H2750	0.526600	0.195900	0.602700
C44691	C4469	0.545190	0.186450	0.627020
H27511	H2751	0.553700	0.198600	0.627800
C44701	C4470	0.548220	0.169890	0.640670
C44711	C4471	0.534960	0.152590	0.639230
H27521	H2752	0.536700	0.141400	0.648900
C44721	C4472	0.564330	0.170610	0.656960
N17111	N1711	0.410930	0.114130	0.734730
N17121	N1712	0.354310	0.976460	0.636230
N17131	N1713	0.372730	0.016810	0.649330
N17141	N1714	0.420300	0.060520	0.653640
N17151	N1715	0.409900	0.069610	0.688070
N17161	N1716	0.439700	0.085230	0.672850
N17171	N1717	0.474660	0.100400	0.621390
N17181	N1718	0.498740	0.127220	0.592500
N17191	N1719	0.520010	0.151140	0.624940
N17201	N1720	0.563970	0.155600	0.671370
S3431	S343	0.326890	0.958880	0.665250
S3441	S344	0.504910	0.134300	0.550160
C44731	C4473	0.338950	0.100840	0.031220
H27531	H2753	0.351700	0.094000	0.034600
C44741	C4474	0.321550	0.096330	0.043160
C44751	C4475	0.302670	0.106000	0.038060
H27541	H2754	0.290400	0.103400	0.046000
C44761	C4476	0.302400	0.119440	0.021160
H27551	H2755	0.289800	0.126100	0.017100
C44771	C4477	0.320760	0.123100	0.010150
H27561	H2756	0.320400	0.132300	0.998500
C44781	C4478	0.406980	0.968790	0.101720
C44791	C4479	0.391370	0.015340	0.085180
H27571	H2757	0.402300	0.005300	0.086400
C44801	C4480	0.390560	0.027950	0.067360
H27581	H2758	0.401100	0.026900	0.057000
C44811	C4481	0.374490	0.041770	0.064990
H27591	H2759	0.373500	0.050200	0.052800
C44821	C4482	0.359430	0.043330	0.080940
C44831	C4483	0.361740	0.030650	0.098310
H27601	H2760	0.351700	0.031800	0.109200
C44841	C4484	0.342090	0.058470	0.079620
C44851	C4485	0.323810	0.082700	0.061770
C44861	C4486	0.314470	0.074220	0.094300
C44871	C4487	0.287580	0.095650	0.112750
H27611	H2761	0.287200	0.104400	0.100700
C44881	C4488	0.301220	0.078360	0.112710
C44891	C4489	0.302100	0.066010	0.130720
H27621	H2762	0.311200	0.054300	0.131500
C44901	C4490	0.289370	0.071410	0.147440
H27631	H2763	0.289700	0.063400	0.160000
C44911	C4491	0.276230	0.088420	0.145850
H27641	H2764	0.267500	0.091800	0.157400
C44921	C4492	0.248740	0.130090	0.175040
C44931	C4493	0.232400	0.167070	0.138640
H27651	H2765	0.242700	0.165900	0.149300
C44941	C4494	0.220750	0.184730	0.137860
H27661	H2766	0.223400	0.195900	0.147300
C44951	C4495	0.204810	0.186450	0.122980
H27671	H2767	0.196300	0.198600	0.122200
C44961	C4496	0.201780	0.169890	0.109330
C44971	C4497	0.215040	0.152590	0.110770
H27681	H2768	0.213300	0.141400	0.101100
C44981	C4498	0.185670	0.170610	0.093040
N17211	N1721	0.339070	0.114130	0.015270
N17221	N1722	0.395690	0.976460	0.113770
N17231	N1723	0.377270	0.016810	0.100670
N17241	N1724	0.329700	0.060520	0.096360
N17251	N1725	0.340100	0.069610	0.061930
N17261	N1726	0.310300	0.085230	0.077150
N17271	N1727	0.275340	0.100400	0.128610
N17281	N1728	0.251260	0.127220	0.157500
N17291	N1729	0.229990	0.151140	0.125060
N17301	N1730	0.186030	0.155600	0.078630
S3451	S345	0.423110	0.958880	0.084750
S3461	S346	0.245090	0.134300	0.199840
C44991	C4499	0.338950	0.600840	0.531220
H27691	H2769	0.351700	0.594000	0.534600
C45001	C4500	0.321550	0.596330	0.543160
C45011	C4501	0.302670	0.606000	0.538060
H27701	H2770	0.290400	0.603400	0.546000
C45021	C4502	0.302400	0.619440	0.521160
H27711	H2771	0.289800	0.626100	0.517100
C45031	C4503	0.320760	0.623100	0.510150
H27721	H2772	0.320400	0.632300	0.498500
C45041	C4504	0.406980	0.468790	0.601720
C45051	C4505	0.391370	0.515340	0.585180
H27731	H2773	0.402300	0.505300	0.586400
C45061	C4506	0.390560	0.527950	0.567360
H27741	H2774	0.401100	0.526900	0.557000
C45071	C4507	0.374490	0.541770	0.564990
H27751	H2775	0.373500	0.550200	0.552800
C45081	C4508	0.359430	0.543330	0.580940
C45091	C4509	0.361740	0.530650	0.598310
H27761	H2776	0.351700	0.531800	0.609200
C45101	C4510	0.342090	0.558470	0.579620
C45111	C4511	0.323810	0.582700	0.561770
C45121	C4512	0.314470	0.574220	0.594300
C45131	C4513	0.287580	0.595650	0.612750
H27771	H2777	0.287200	0.604400	0.600700
C45141	C4514	0.301220	0.578360	0.612710
C45151	C4515	0.302100	0.566010	0.630720
H27781	H2778	0.311200	0.554300	0.631500
C45161	C4516	0.289370	0.571410	0.647440
H27791	H2779	0.289700	0.563400	0.660000
C45171	C4517	0.276230	0.588420	0.645850
H27801	H2780	0.267500	0.591800	0.657400
C45181	C4518	0.248740	0.630090	0.675040
C45191	C4519	0.232400	0.667070	0.638640
H27811	H2781	0.242700	0.665900	0.649300
C45201	C4520	0.220750	0.684730	0.637860
H27821	H2782	0.223400	0.695900	0.647300
C45211	C4521	0.204810	0.686450	0.622980
H27831	H2783	0.196300	0.698600	0.622200
C45221	C4522	0.201780	0.669890	0.609330
C45231	C4523	0.215040	0.652590	0.610770
H27841	H2784	0.213300	0.641400	0.601100
C45241	C4524	0.185670	0.670610	0.593040
N17311	N1731	0.339070	0.614130	0.515270
N17321	N1732	0.395690	0.476460	0.613770
N17331	N1733	0.377270	0.516810	0.600670
N17341	N1734	0.329700	0.560520	0.596360
N17351	N1735	0.340100	0.569610	0.561930
N17361	N1736	0.310300	0.585230	0.577150
N17371	N1737	0.275340	0.600400	0.628610
N17381	N1738	0.251260	0.627220	0.657500
N17391	N1739	0.229990	0.651140	0.625060
N17401	N1740	0.186030	0.655600	0.578630
S3471	S347	0.423110	0.458880	0.584750
S3481	S348	0.245090	0.634300	0.699840
C45251	C4525	0.838950	0.100840	0.531220
H27851	H2785	0.851700	0.094000	0.534600
C45261	C4526	0.821550	0.096330	0.543160
C45271	C4527	0.802670	0.106000	0.538060
H27861	H2786	0.790400	0.103400	0.546000
C45281	C4528	0.802400	0.119440	0.521160
H27871	H2787	0.789800	0.126100	0.517100
C45291	C4529	0.820760	0.123100	0.510150
H27881	H2788	0.820400	0.132300	0.498500
C45301	C4530	0.906980	0.968790	0.601720
C45311	C4531	0.891370	0.015340	0.585180
H27891	H2789	0.902300	0.005300	0.586400
C45321	C4532	0.890560	0.027950	0.567360
H27901	H2790	0.901100	0.026900	0.557000
C45331	C4533	0.874490	0.041770	0.564990
H27911	H2791	0.873500	0.050200	0.552800
C45341	C4534	0.859430	0.043330	0.580940
C45351	C4535	0.861740	0.030650	0.598310
H27921	H2792	0.851700	0.031800	0.609200
C45361	C4536	0.842090	0.058470	0.579620
C45371	C4537	0.823810	0.082700	0.561770
C45381	C4538	0.814470	0.074220	0.594300
C45391	C4539	0.787580	0.095650	0.612750
H27931	H2793	0.787200	0.104400	0.600700
C45401	C4540	0.801220	0.078360	0.612710
C45411	C4541	0.802100	0.066010	0.630720
H27941	H2794	0.811200	0.054300	0.631500
C45421	C4542	0.789370	0.071410	0.647440
H27951	H2795	0.789700	0.063400	0.660000
C45431	C4543	0.776230	0.088420	0.645850
H27961	H2796	0.767500	0.091800	0.657400
C45441	C4544	0.748740	0.130090	0.675040
C45451	C4545	0.732400	0.167070	0.638640
H27971	H2797	0.742700	0.165900	0.649300
C45461	C4546	0.720750	0.184730	0.637860
H27981	H2798	0.723400	0.195900	0.647300
C45471	C4547	0.704810	0.186450	0.622980
H27991	H2799	0.696300	0.198600	0.622200
C45481	C4548	0.701780	0.169890	0.609330
C45491	C4549	0.715040	0.152590	0.610770
H28001	H2800	0.713300	0.141400	0.601100
C45501	C4550	0.685670	0.170610	0.593040
N17411	N1741	0.839070	0.114130	0.515270
N17421	N1742	0.895690	0.976460	0.613770
N17431	N1743	0.877270	0.016810	0.600670
N17441	N1744	0.829700	0.060520	0.596360
N17451	N1745	0.840100	0.069610	0.561930
N17461	N1746	0.810300	0.085230	0.577150
N17471	N1747	0.775340	0.100400	0.628610
N17481	N1748	0.751260	0.127220	0.657500
N17491	N1749	0.729990	0.151140	0.625060
N17501	N1750	0.686030	0.155600	0.578630
S3491	S349	0.923110	0.958880	0.584750
S3501	S350	0.745090	0.134300	0.699840
C45511	C4551	0.838950	0.600840	0.031220
H28011	H2801	0.851700	0.594000	0.034600
C45521	C4552	0.821550	0.596330	0.043160
C45531	C4553	0.802670	0.606000	0.038060
H28021	H2802	0.790400	0.603400	0.046000
C45541	C4554	0.802400	0.619440	0.021160
H28031	H2803	0.789800	0.626100	0.017100
C45551	C4555	0.820760	0.623100	0.010150
H28041	H2804	0.820400	0.632300	0.998500
C45561	C4556	0.906980	0.468790	0.101720
C45571	C4557	0.891370	0.515340	0.085180
H28051	H2805	0.902300	0.505300	0.086400
C45581	C4558	0.890560	0.527950	0.067360
H28061	H2806	0.901100	0.526900	0.057000
C45591	C4559	0.874490	0.541770	0.064990
H28071	H2807	0.873500	0.550200	0.052800
C45601	C4560	0.859430	0.543330	0.080940
C45611	C4561	0.861740	0.530650	0.098310
H28081	H2808	0.851700	0.531800	0.109200
C45621	C4562	0.842090	0.558470	0.079620
C45631	C4563	0.823810	0.582700	0.061770
C45641	C4564	0.814470	0.574220	0.094300
C45651	C4565	0.787580	0.595650	0.112750
H28091	H2809	0.787200	0.604400	0.100700
C45661	C4566	0.801220	0.578360	0.112710
C45671	C4567	0.802100	0.566010	0.130720
H28101	H2810	0.811200	0.554300	0.131500
C45681	C4568	0.789370	0.571410	0.147440
H28111	H2811	0.789700	0.563400	0.160000
C45691	C4569	0.776230	0.588420	0.145850
H28121	H2812	0.767500	0.591800	0.157400
C45701	C4570	0.748740	0.630090	0.175040
C45711	C4571	0.732400	0.667070	0.138640
H28131	H2813	0.742700	0.665900	0.149300
C45721	C4572	0.720750	0.684730	0.137860
H28141	H2814	0.723400	0.695900	0.147300
C45731	C4573	0.704810	0.686450	0.122980
H28151	H2815	0.696300	0.698600	0.122200
C45741	C4574	0.701780	0.669890	0.109330
C45751	C4575	0.715040	0.652590	0.110770
H28161	H2816	0.713300	0.641400	0.101100
C45761	C4576	0.685670	0.670610	0.093040
N17511	N1751	0.839070	0.614130	0.015270
N17521	N1752	0.895690	0.476460	0.113770
N17531	N1753	0.877270	0.516810	0.100670
N17541	N1754	0.829700	0.560520	0.096360
N17551	N1755	0.840100	0.569610	0.061930
N17561	N1756	0.810300	0.585230	0.077150
N17571	N1757	0.775340	0.600400	0.128610
N17581	N1758	0.751260	0.627220	0.157500
N17591	N1759	0.729990	0.651140	0.125060
N17601	N1760	0.686030	0.655600	0.078630
S3511	S351	0.923110	0.458880	0.084750
S3521	S352	0.745090	0.634300	0.199840
C45771	C4577	0.149160	0.531220	0.411050
H28171	H2817	0.156000	0.534600	0.398300
C45781	C4578	0.153670	0.543160	0.428450
C45791	C4579	0.144000	0.538060	0.447330
H28181	H2818	0.146600	0.546000	0.459600
C45801	C4580	0.130560	0.521160	0.447600
H28191	H2819	0.123900	0.517100	0.460200
C45811	C4581	0.126900	0.510150	0.429240
H28201	H2820	0.117700	0.498500	0.429600
C45821	C4582	0.281210	0.601720	0.343020
C45831	C4583	0.234660	0.585180	0.358630
H28211	H2821	0.244700	0.586400	0.347700
C45841	C4584	0.222050	0.567360	0.359440
H28221	H2822	0.223100	0.557000	0.348900
C45851	C4585	0.208230	0.564990	0.375510
H28231	H2823	0.199800	0.552800	0.376500
C45861	C4586	0.206670	0.580940	0.390570
C45871	C4587	0.219350	0.598310	0.388260
H28241	H2824	0.218200	0.609200	0.398300
C45881	C4588	0.191530	0.579620	0.407910
C45891	C4589	0.167300	0.561770	0.426190
C45901	C4590	0.175780	0.594300	0.435530
C45911	C4591	0.154350	0.612750	0.462420
H28251	H2825	0.145600	0.600700	0.462800
C45921	C4592	0.171640	0.612710	0.448780
C45931	C4593	0.183990	0.630720	0.447900
H28261	H2826	0.195700	0.631500	0.438800
C45941	C4594	0.178590	0.647440	0.460630
H28271	H2827	0.186600	0.660000	0.460300
C45951	C4595	0.161580	0.645850	0.473770
H28281	H2828	0.158200	0.657400	0.482500
C45961	C4596	0.119910	0.675040	0.501260
C45971	C4597	0.082930	0.638640	0.517600
H28291	H2829	0.084100	0.649300	0.507300
C45981	C4598	0.065270	0.637860	0.529250
H28301	H2830	0.054100	0.647300	0.526600
C45991	C4599	0.063550	0.622980	0.545190
H28311	H2831	0.051400	0.622200	0.553700
C46001	C4600	0.080110	0.609330	0.548220
C46011	C4601	0.097410	0.610770	0.534960
H28321	H2832	0.108600	0.601100	0.536700
C46021	C4602	0.079390	0.593040	0.564330
N17611	N1761	0.135870	0.515270	0.410930
N17621	N1762	0.273540	0.613770	0.354310
N17631	N1763	0.233190	0.600670	0.372730
N17641	N1764	0.189480	0.596360	0.420300
N17651	N1765	0.180390	0.561930	0.409900
N17661	N1766	0.164770	0.577150	0.439700
N17671	N1767	0.149600	0.628610	0.474660
N17681	N1768	0.122780	0.657500	0.498740
N17691	N1769	0.098860	0.625060	0.520010
N17701	N1770	0.094400	0.578630	0.563970
S3531	S353	0.291120	0.584750	0.326890
S3541	S354	0.115700	0.699840	0.504910
C46031	C4603	0.149160	0.031220	0.911050
H28331	H2833	0.156000	0.034600	0.898300
C46041	C4604	0.153670	0.043160	0.928450
C46051	C4605	0.144000	0.038060	0.947330
H28341	H2834	0.146600	0.046000	0.959600
C46061	C4606	0.130560	0.021160	0.947600
H28351	H2835	0.123900	0.017100	0.960200
C46071	C4607	0.126900	0.010150	0.929240
H28361	H2836	0.117700	0.998500	0.929600
C46081	C4608	0.281210	0.101720	0.843020
C46091	C4609	0.234660	0.085180	0.858630
H28371	H2837	0.244700	0.086400	0.847700
C46101	C4610	0.222050	0.067360	0.859440
H28381	H2838	0.223100	0.057000	0.848900
C46111	C4611	0.208230	0.064990	0.875510
H28391	H2839	0.199800	0.052800	0.876500
C46121	C4612	0.206670	0.080940	0.890570
C46131	C4613	0.219350	0.098310	0.888260
H28401	H2840	0.218200	0.109200	0.898300
C46141	C4614	0.191530	0.079620	0.907910
C46151	C4615	0.167300	0.061770	0.926190
C46161	C4616	0.175780	0.094300	0.935530
C46171	C4617	0.154350	0.112750	0.962420
H28411	H2841	0.145600	0.100700	0.962800
C46181	C4618	0.171640	0.112710	0.948780
C46191	C4619	0.183990	0.130720	0.947900
H28421	H2842	0.195700	0.131500	0.938800
C46201	C4620	0.178590	0.147440	0.960630
H28431	H2843	0.186600	0.160000	0.960300
C46211	C4621	0.161580	0.145850	0.973770
H28441	H2844	0.158200	0.157400	0.982500
C46221	C4622	0.119910	0.175040	0.001260
C46231	C4623	0.082930	0.138640	0.017600
H28451	H2845	0.084100	0.149300	0.007300
C46241	C4624	0.065270	0.137860	0.029250
H28461	H2846	0.054100	0.147300	0.026600
C46251	C4625	0.063550	0.122980	0.045190
H28471	H2847	0.051400	0.122200	0.053700
C46261	C4626	0.080110	0.109330	0.048220
C46271	C4627	0.097410	0.110770	0.034960
H28481	H2848	0.108600	0.101100	0.036700
C46281	C4628	0.079390	0.093040	0.064330
N17711	N1771	0.135870	0.015270	0.910930
N17721	N1772	0.273540	0.113770	0.854310
N17731	N1773	0.233190	0.100670	0.872730
N17741	N1774	0.189480	0.096360	0.920300
N17751	N1775	0.180390	0.061930	0.909900
N17761	N1776	0.164770	0.077150	0.939700
N17771	N1777	0.149600	0.128610	0.974660
N17781	N1778	0.122780	0.157500	0.998740
N17791	N1779	0.098860	0.125060	0.020010
N17801	N1780	0.094400	0.078630	0.063970
S3551	S355	0.291120	0.084750	0.826890
S3561	S356	0.115700	0.199840	0.004910
C46291	C4629	0.649160	0.531220	0.911050
H28491	H2849	0.656000	0.534600	0.898300
C46301	C4630	0.653670	0.543160	0.928450
C46311	C4631	0.644000	0.538060	0.947330
H28501	H2850	0.646600	0.546000	0.959600
C46321	C4632	0.630560	0.521160	0.947600
H28511	H2851	0.623900	0.517100	0.960200
C46331	C4633	0.626900	0.510150	0.929240
H28521	H2852	0.617700	0.498500	0.929600
C46341	C4634	0.781210	0.601720	0.843020
C46351	C4635	0.734660	0.585180	0.858630
H28531	H2853	0.744700	0.586400	0.847700
C46361	C4636	0.722050	0.567360	0.859440
H28541	H2854	0.723100	0.557000	0.848900
C46371	C4637	0.708230	0.564990	0.875510
H28551	H2855	0.699800	0.552800	0.876500
C46381	C4638	0.706670	0.580940	0.890570
C46391	C4639	0.719350	0.598310	0.888260
H28561	H2856	0.718200	0.609200	0.898300
C46401	C4640	0.691530	0.579620	0.907910
C46411	C4641	0.667300	0.561770	0.926190
C46421	C4642	0.675780	0.594300	0.935530
C46431	C4643	0.654350	0.612750	0.962420
H28571	H2857	0.645600	0.600700	0.962800
C46441	C4644	0.671640	0.612710	0.948780
C46451	C4645	0.683990	0.630720	0.947900
H28581	H2858	0.695700	0.631500	0.938800
C46461	C4646	0.678590	0.647440	0.960630
H28591	H2859	0.686600	0.660000	0.960300
C46471	C4647	0.661580	0.645850	0.973770
H28601	H2860	0.658200	0.657400	0.982500
C46481	C4648	0.619910	0.675040	0.001260
C46491	C4649	0.582930	0.638640	0.017600
H28611	H2861	0.584100	0.649300	0.007300
C46501	C4650	0.565270	0.637860	0.029250
H28621	H2862	0.554100	0.647300	0.026600
C46511	C4651	0.563550	0.622980	0.045190
H28631	H2863	0.551400	0.622200	0.053700
C46521	C4652	0.580110	0.609330	0.048220
C46531	C4653	0.597410	0.610770	0.034960
H28641	H2864	0.608600	0.601100	0.036700
C46541	C4654	0.579390	0.593040	0.064330
N17811	N1781	0.635870	0.515270	0.910930
N17821	N1782	0.773540	0.613770	0.854310
N17831	N1783	0.733190	0.600670	0.872730
N17841	N1784	0.689480	0.596360	0.920300
N17851	N1785	0.680390	0.561930	0.909900
N17861	N1786	0.664770	0.577150	0.939700
N17871	N1787	0.649600	0.628610	0.974660
N17881	N1788	0.622780	0.657500	0.998740
N17891	N1789	0.598860	0.625060	0.020010
N17901	N1790	0.594400	0.578630	0.063970
S3571	S357	0.791120	0.584750	0.826890
S3581	S358	0.615700	0.699840	0.004910
C46551	C4655	0.649160	0.031220	0.411050
H28651	H2865	0.656000	0.034600	0.398300
C46561	C4656	0.653670	0.043160	0.428450
C46571	C4657	0.644000	0.038060	0.447330
H28661	H2866	0.646600	0.046000	0.459600
C46581	C4658	0.630560	0.021160	0.447600
H28671	H2867	0.623900	0.017100	0.460200
C46591	C4659	0.626900	0.010150	0.429240
H28681	H2868	0.617700	0.998500	0.429600
C46601	C4660	0.781210	0.101720	0.343020
C46611	C4661	0.734660	0.085180	0.358630
H28691	H2869	0.744700	0.086400	0.347700
C46621	C4662	0.722050	0.067360	0.359440
H28701	H2870	0.723100	0.057000	0.348900
C46631	C4663	0.708230	0.064990	0.375510
H28711	H2871	0.699800	0.052800	0.376500
C46641	C4664	0.706670	0.080940	0.390570
C46651	C4665	0.719350	0.098310	0.388260
H28721	H2872	0.718200	0.109200	0.398300
C46661	C4666	0.691530	0.079620	0.407910
C46671	C4667	0.667300	0.061770	0.426190
C46681	C4668	0.675780	0.094300	0.435530
C46691	C4669	0.654350	0.112750	0.462420
H28731	H2873	0.645600	0.100700	0.462800
C46701	C4670	0.671640	0.112710	0.448780
C46711	C4671	0.683990	0.130720	0.447900
H28741	H2874	0.695700	0.131500	0.438800
C46721	C4672	0.678590	0.147440	0.460630
H28751	H2875	0.686600	0.160000	0.460300
C46731	C4673	0.661580	0.145850	0.473770
H28761	H2876	0.658200	0.157400	0.482500
C46741	C4674	0.619910	0.175040	0.501260
C46751	C4675	0.582930	0.138640	0.517600
H28771	H2877	0.584100	0.149300	0.507300
C46761	C4676	0.565270	0.137860	0.529250
H28781	H2878	0.554100	0.147300	0.526600
C46771	C4677	0.563550	0.122980	0.545190
H28791	H2879	0.551400	0.122200	0.553700
C46781	C4678	0.580110	0.109330	0.548220
C46791	C4679	0.597410	0.110770	0.534960
H28801	H2880	0.608600	0.101100	0.536700
C46801	C4680	0.579390	0.093040	0.564330
N17911	N1791	0.635870	0.015270	0.410930
N17921	N1792	0.773540	0.113770	0.354310
N17931	N1793	0.733190	0.100670	0.372730
N17941	N1794	0.689480	0.096360	0.420300
N17951	N1795	0.680390	0.061930	0.409900
N17961	N1796	0.664770	0.077150	0.439700
N17971	N1797	0.649600	0.128610	0.474660
N17981	N1798	0.622780	0.157500	0.498740
N17991	N1799	0.598860	0.125060	0.520010
N18001	N1800	0.594400	0.078630	0.563970
S3591	S359	0.791120	0.084750	0.326890
S3601	S360	0.615700	0.199840	0.504910
C46811	C4681	0.649160	0.218780	0.838950
H28811	H2881	0.656000	0.215400	0.851700
C46821	C4682	0.653670	0.206840	0.821550
C46831	C4683	0.644000	0.211940	0.802670
H28821	H2882	0.646600	0.204000	0.790400
C46841	C4684	0.630560	0.228840	0.802400
H28831	H2883	0.623900	0.232900	0.789800
C46851	C4685	0.626900	0.239850	0.820760
H28841	H2884	0.617700	0.251500	0.820400
C46861	C4686	0.781210	0.148280	0.906980
C46871	C4687	0.734660	0.164820	0.891370
H28851	H2885	0.744700	0.163600	0.902300
C46881	C4688	0.722050	0.182640	0.890560
H28861	H2886	0.723100	0.193000	0.901100
C46891	C4689	0.708230	0.185010	0.874490
H28871	H2887	0.699800	0.197200	0.873500
C46901	C4690	0.706670	0.169060	0.859430
C46911	C4691	0.719350	0.151690	0.861740
H28881	H2888	0.718200	0.140800	0.851700
C46921	C4692	0.691530	0.170380	0.842090
C46931	C4693	0.667300	0.188230	0.823810
C46941	C4694	0.675780	0.155700	0.814470
C46951	C4695	0.654350	0.137250	0.787580
H28891	H2889	0.645600	0.149300	0.787200
C46961	C4696	0.671640	0.137290	0.801220
C46971	C4697	0.683990	0.119280	0.802100
H28901	H2890	0.695700	0.118500	0.811200
C46981	C4698	0.678590	0.102560	0.789370
H28911	H2891	0.686600	0.090000	0.789700
C46991	C4699	0.661580	0.104150	0.776230
H28921	H2892	0.658200	0.092600	0.767500
C47001	C4700	0.619910	0.074960	0.748740
C47011	C4701	0.582930	0.111360	0.732400
H28931	H2893	0.584100	0.100700	0.742700
C47021	C4702	0.565270	0.112140	0.720750
H28941	H2894	0.554100	0.102700	0.723400
C47031	C4703	0.563550	0.127020	0.704810
H28951	H2895	0.551400	0.127800	0.696300
C47041	C4704	0.580110	0.140670	0.701780
C47051	C4705	0.597410	0.139230	0.715040
H28961	H2896	0.608600	0.148900	0.713300
C47061	C4706	0.579390	0.156960	0.685670
N18011	N1801	0.635870	0.234730	0.839070
N18021	N1802	0.773540	0.136230	0.895690
N18031	N1803	0.733190	0.149330	0.877270
N18041	N1804	0.689480	0.153640	0.829700
N18051	N1805	0.680390	0.188070	0.840100
N18061	N1806	0.664770	0.172850	0.810300
N18071	N1807	0.649600	0.121390	0.775340
N18081	N1808	0.622780	0.092500	0.751260
N18091	N1809	0.598860	0.124940	0.729990
N18101	N1810	0.594400	0.171370	0.686030
S3611	S361	0.791120	0.165250	0.923110
S3621	S362	0.615700	0.050160	0.745090
C47071	C4707	0.649160	0.718780	0.338950
H28971	H2897	0.656000	0.715400	0.351700
C47081	C4708	0.653670	0.706840	0.321550
C47091	C4709	0.644000	0.711940	0.302670
H28981	H2898	0.646600	0.704000	0.290400
C47101	C4710	0.630560	0.728840	0.302400
H28991	H2899	0.623900	0.732900	0.289800
C47111	C4711	0.626900	0.739850	0.320760
H29001	H2900	0.617700	0.751500	0.320400
C47121	C4712	0.781210	0.648280	0.406980
C47131	C4713	0.734660	0.664820	0.391370
H29011	H2901	0.744700	0.663600	0.402300
C47141	C4714	0.722050	0.682640	0.390560
H29021	H2902	0.723100	0.693000	0.401100
C47151	C4715	0.708230	0.685010	0.374490
H29031	H2903	0.699800	0.697200	0.373500
C47161	C4716	0.706670	0.669060	0.359430
C47171	C4717	0.719350	0.651690	0.361740
H29041	H2904	0.718200	0.640800	0.351700
C47181	C4718	0.691530	0.670380	0.342090
C47191	C4719	0.667300	0.688230	0.323810
C47201	C4720	0.675780	0.655700	0.314470
C47211	C4721	0.654350	0.637250	0.287580
H29051	H2905	0.645600	0.649300	0.287200
C47221	C4722	0.671640	0.637290	0.301220
C47231	C4723	0.683990	0.619280	0.302100
H29061	H2906	0.695700	0.618500	0.311200
C47241	C4724	0.678590	0.602560	0.289370
H29071	H2907	0.686600	0.590000	0.289700
C47251	C4725	0.661580	0.604150	0.276230
H29081	H2908	0.658200	0.592600	0.267500
C47261	C4726	0.619910	0.574960	0.248740
C47271	C4727	0.582930	0.611360	0.232400
H29091	H2909	0.584100	0.600700	0.242700
C47281	C4728	0.565270	0.612140	0.220750
H29101	H2910	0.554100	0.602700	0.223400
C47291	C4729	0.563550	0.627020	0.204810
H29111	H2911	0.551400	0.627800	0.196300
C47301	C4730	0.580110	0.640670	0.201780
C47311	C4731	0.597410	0.639230	0.215040
H29121	H2912	0.608600	0.648900	0.213300
C47321	C4732	0.579390	0.656960	0.185670
N18111	N1811	0.635870	0.734730	0.339070
N18121	N1812	0.773540	0.636230	0.395690
N18131	N1813	0.733190	0.649330	0.377270
N18141	N1814	0.689480	0.653640	0.329700
N18151	N1815	0.680390	0.688070	0.340100
N18161	N1816	0.664770	0.672850	0.310300
N18171	N1817	0.649600	0.621390	0.275340
N18181	N1818	0.622780	0.592500	0.251260
N18191	N1819	0.598860	0.624940	0.229990
N18201	N1820	0.594400	0.671370	0.186030
S3631	S363	0.791120	0.665250	0.423110
S3641	S364	0.615700	0.550160	0.245090
C47331	C4733	0.149160	0.218780	0.338950
H29131	H2913	0.156000	0.215400	0.351700
C47341	C4734	0.153670	0.206840	0.321550
C47351	C4735	0.144000	0.211940	0.302670
H29141	H2914	0.146600	0.204000	0.290400
C47361	C4736	0.130560	0.228840	0.302400
H29151	H2915	0.123900	0.232900	0.289800
C47371	C4737	0.126900	0.239850	0.320760
H29161	H2916	0.117700	0.251500	0.320400
C47381	C4738	0.281210	0.148280	0.406980
C47391	C4739	0.234660	0.164820	0.391370
H29171	H2917	0.244700	0.163600	0.402300
C47401	C4740	0.222050	0.182640	0.390560
H29181	H2918	0.223100	0.193000	0.401100
C47411	C4741	0.208230	0.185010	0.374490
H29191	H2919	0.199800	0.197200	0.373500
C47421	C4742	0.206670	0.169060	0.359430
C47431	C4743	0.219350	0.151690	0.361740
H29201	H2920	0.218200	0.140800	0.351700
C47441	C4744	0.191530	0.170380	0.342090
C47451	C4745	0.167300	0.188230	0.323810
C47461	C4746	0.175780	0.155700	0.314470
C47471	C4747	0.154350	0.137250	0.287580
H29211	H2921	0.145600	0.149300	0.287200
C47481	C4748	0.171640	0.137290	0.301220
C47491	C4749	0.183990	0.119280	0.302100
H29221	H2922	0.195700	0.118500	0.311200
C47501	C4750	0.178590	0.102560	0.289370
H29231	H2923	0.186600	0.090000	0.289700
C47511	C4751	0.161580	0.104150	0.276230
H29241	H2924	0.158200	0.092600	0.267500
C47521	C4752	0.119910	0.074960	0.248740
C47531	C4753	0.082930	0.111360	0.232400
H29251	H2925	0.084100	0.100700	0.242700
C47541	C4754	0.065270	0.112140	0.220750
H29261	H2926	0.054100	0.102700	0.223400
C47551	C4755	0.063550	0.127020	0.204810
H29271	H2927	0.051400	0.127800	0.196300
C47561	C4756	0.080110	0.140670	0.201780
C47571	C4757	0.097410	0.139230	0.215040
H29281	H2928	0.108600	0.148900	0.213300
C47581	C4758	0.079390	0.156960	0.185670
N18211	N1821	0.135870	0.234730	0.339070
N18221	N1822	0.273540	0.136230	0.395690
N18231	N1823	0.233190	0.149330	0.377270
N18241	N1824	0.189480	0.153640	0.329700
N18251	N1825	0.180390	0.188070	0.340100
N18261	N1826	0.164770	0.172850	0.310300
N18271	N1827	0.149600	0.121390	0.275340
N18281	N1828	0.122780	0.092500	0.251260
N18291	N1829	0.098860	0.124940	0.229990
N18301	N1830	0.094400	0.171370	0.186030
S3651	S365	0.291120	0.165250	0.423110
S3661	S366	0.115700	0.050160	0.245090
C47591	C4759	0.149160	0.718780	0.838950
H29291	H2929	0.156000	0.715400	0.851700
C47601	C4760	0.153670	0.706840	0.821550
C47611	C4761	0.144000	0.711940	0.802670
H29301	H2930	0.146600	0.704000	0.790400
C47621	C4762	0.130560	0.728840	0.802400
H29311	H2931	0.123900	0.732900	0.789800
C47631	C4763	0.126900	0.739850	0.820760
H29321	H2932	0.117700	0.751500	0.820400
C47641	C4764	0.281210	0.648280	0.906980
C47651	C4765	0.234660	0.664820	0.891370
H29331	H2933	0.244700	0.663600	0.902300
C47661	C4766	0.222050	0.682640	0.890560
H29341	H2934	0.223100	0.693000	0.901100
C47671	C4767	0.208230	0.685010	0.874490
H29351	H2935	0.199800	0.697200	0.873500
C47681	C4768	0.206670	0.669060	0.859430
C47691	C4769	0.219350	0.651690	0.861740
H29361	H2936	0.218200	0.640800	0.851700
C47701	C4770	0.191530	0.670380	0.842090
C47711	C4771	0.167300	0.688230	0.823810
C47721	C4772	0.175780	0.655700	0.814470
C47731	C4773	0.154350	0.637250	0.787580
H29371	H2937	0.145600	0.649300	0.787200
C47741	C4774	0.171640	0.637290	0.801220
C47751	C4775	0.183990	0.619280	0.802100
H29381	H2938	0.195700	0.618500	0.811200
C47761	C4776	0.178590	0.602560	0.789370
H29391	H2939	0.186600	0.590000	0.789700
C47771	C4777	0.161580	0.604150	0.776230
H29401	H2940	0.158200	0.592600	0.767500
C47781	C4778	0.119910	0.574960	0.748740
C47791	C4779	0.082930	0.611360	0.732400
H29411	H2941	0.084100	0.600700	0.742700
C47801	C4780	0.065270	0.612140	0.720750
H29421	H2942	0.054100	0.602700	0.723400
C47811	C4781	0.063550	0.627020	0.704810
H29431	H2943	0.051400	0.627800	0.696300
C47821	C4782	0.080110	0.640670	0.701780
C47831	C4783	0.097410	0.639230	0.715040
H29441	H2944	0.108600	0.648900	0.713300
C47841	C4784	0.079390	0.656960	0.685670
N18311	N1831	0.135870	0.734730	0.839070
N18321	N1832	0.273540	0.636230	0.895690
N18331	N1833	0.233190	0.649330	0.877270
N18341	N1834	0.189480	0.653640	0.829700
N18351	N1835	0.180390	0.688070	0.840100
N18361	N1836	0.164770	0.672850	0.810300
N18371	N1837	0.149600	0.621390	0.775340
N18381	N1838	0.122780	0.592500	0.751260
N18391	N1839	0.098860	0.624940	0.729990
N18401	N1840	0.094400	0.671370	0.686030
S3671	S367	0.291120	0.665250	0.923110
S3681	S368	0.115700	0.550160	0.745090
C47851	C4785	0.100840	0.031220	0.338950
H29451	H2945	0.094000	0.034600	0.351700
C47861	C4786	0.096330	0.043160	0.321550
C47871	C4787	0.106000	0.038060	0.302670
H29461	H2946	0.103400	0.046000	0.290400
C47881	C4788	0.119440	0.021160	0.302400
H29471	H2947	0.126100	0.017100	0.289800
C47891	C4789	0.123100	0.010150	0.320760
H29481	H2948	0.132300	0.998500	0.320400
C47901	C4790	0.968790	0.101720	0.406980
C47911	C4791	0.015340	0.085180	0.391370
H29491	H2949	0.005300	0.086400	0.402300
C47921	C4792	0.027950	0.067360	0.390560
H29501	H2950	0.026900	0.057000	0.401100
C47931	C4793	0.041770	0.064990	0.374490
H29511	H2951	0.050200	0.052800	0.373500
C47941	C4794	0.043330	0.080940	0.359430
C47951	C4795	0.030650	0.098310	0.361740
H29521	H2952	0.031800	0.109200	0.351700
C47961	C4796	0.058470	0.079620	0.342090
C47971	C4797	0.082700	0.061770	0.323810
C47981	C4798	0.074220	0.094300	0.314470
C47991	C4799	0.095650	0.112750	0.287580
H29531	H2953	0.104400	0.100700	0.287200
C48001	C4800	0.078360	0.112710	0.301220
C48011	C4801	0.066010	0.130720	0.302100
H29541	H2954	0.054300	0.131500	0.311200
C48021	C4802	0.071410	0.147440	0.289370
H29551	H2955	0.063400	0.160000	0.289700
C48031	C4803	0.088420	0.145850	0.276230
H29561	H2956	0.091800	0.157400	0.267500
C48041	C4804	0.130090	0.175040	0.248740
C48051	C4805	0.167070	0.138640	0.232400
H29571	H2957	0.165900	0.149300	0.242700
C48061	C4806	0.184730	0.137860	0.220750
H29581	H2958	0.195900	0.147300	0.223400
C48071	C4807	0.186450	0.122980	0.204810
H29591	H2959	0.198600	0.122200	0.196300
C48081	C4808	0.169890	0.109330	0.201780
C48091	C4809	0.152590	0.110770	0.215040
H29601	H2960	0.141400	0.101100	0.213300
C48101	C4810	0.170610	0.093040	0.185670
N18411	N1841	0.114130	0.015270	0.339070
N18421	N1842	0.976460	0.113770	0.395690
N18431	N1843	0.016810	0.100670	0.377270
N18441	N1844	0.060520	0.096360	0.329700
N18451	N1845	0.069610	0.061930	0.340100
N18461	N1846	0.085230	0.077150	0.310300
N18471	N1847	0.100400	0.128610	0.275340
N18481	N1848	0.127220	0.157500	0.251260
N18491	N1849	0.151140	0.125060	0.229990
N18501	N1850	0.155600	0.078630	0.186030
S3691	S369	0.958880	0.084750	0.423110
S3701	S370	0.134300	0.199840	0.245090
C48111	C4811	0.100840	0.531220	0.838950
H29611	H2961	0.094000	0.534600	0.851700
C48121	C4812	0.096330	0.543160	0.821550
C48131	C4813	0.106000	0.538060	0.802670
H29621	H2962	0.103400	0.546000	0.790400
C48141	C4814	0.119440	0.521160	0.802400
H29631	H2963	0.126100	0.517100	0.789800
C48151	C4815	0.123100	0.510150	0.820760
H29641	H2964	0.132300	0.498500	0.820400
C48161	C4816	0.968790	0.601720	0.906980
C48171	C4817	0.015340	0.585180	0.891370
H29651	H2965	0.005300	0.586400	0.902300
C48181	C4818	0.027950	0.567360	0.890560
H29661	H2966	0.026900	0.557000	0.901100
C48191	C4819	0.041770	0.564990	0.874490
H29671	H2967	0.050200	0.552800	0.873500
C48201	C4820	0.043330	0.580940	0.859430
C48211	C4821	0.030650	0.598310	0.861740
H29681	H2968	0.031800	0.609200	0.851700
C48221	C4822	0.058470	0.579620	0.842090
C48231	C4823	0.082700	0.561770	0.823810
C48241	C4824	0.074220	0.594300	0.814470
C48251	C4825	0.095650	0.612750	0.787580
H29691	H2969	0.104400	0.600700	0.787200
C48261	C4826	0.078360	0.612710	0.801220
C48271	C4827	0.066010	0.630720	0.802100
H29701	H2970	0.054300	0.631500	0.811200
C48281	C4828	0.071410	0.647440	0.789370
H29711	H2971	0.063400	0.660000	0.789700
C48291	C4829	0.088420	0.645850	0.776230
H29721	H2972	0.091800	0.657400	0.767500
C48301	C4830	0.130090	0.675040	0.748740
C48311	C4831	0.167070	0.638640	0.732400
H29731	H2973	0.165900	0.649300	0.742700
C48321	C4832	0.184730	0.637860	0.720750
H29741	H2974	0.195900	0.647300	0.723400
C48331	C4833	0.186450	0.622980	0.704810
H29751	H2975	0.198600	0.622200	0.696300
C48341	C4834	0.169890	0.609330	0.701780
C48351	C4835	0.152590	0.610770	0.715040
H29761	H2976	0.141400	0.601100	0.713300
C48361	C4836	0.170610	0.593040	0.685670
N18511	N1851	0.114130	0.515270	0.839070
N18521	N1852	0.976460	0.613770	0.895690
N18531	N1853	0.016810	0.600670	0.877270
N18541	N1854	0.060520	0.596360	0.829700
N18551	N1855	0.069610	0.561930	0.840100
N18561	N1856	0.085230	0.577150	0.810300
N18571	N1857	0.100400	0.628610	0.775340
N18581	N1858	0.127220	0.657500	0.751260
N18591	N1859	0.151140	0.625060	0.729990
N18601	N1860	0.155600	0.578630	0.686030
S3711	S371	0.958880	0.584750	0.923110
S3721	S372	0.134300	0.699840	0.745090
C48371	C4837	0.600840	0.031220	0.838950
H29771	H2977	0.594000	0.034600	0.851700
C48381	C4838	0.596330	0.043160	0.821550
C48391	C4839	0.606000	0.038060	0.802670
H29781	H2978	0.603400	0.046000	0.790400
C48401	C4840	0.619440	0.021160	0.802400
H29791	H2979	0.626100	0.017100	0.789800
C48411	C4841	0.623100	0.010150	0.820760
H29801	H2980	0.632300	0.998500	0.820400
C48421	C4842	0.468790	0.101720	0.906980
C48431	C4843	0.515340	0.085180	0.891370
H29811	H2981	0.505300	0.086400	0.902300
C48441	C4844	0.527950	0.067360	0.890560
H29821	H2982	0.526900	0.057000	0.901100
C48451	C4845	0.541770	0.064990	0.874490
H29831	H2983	0.550200	0.052800	0.873500
C48461	C4846	0.543330	0.080940	0.859430
C48471	C4847	0.530650	0.098310	0.861740
H29841	H2984	0.531800	0.109200	0.851700
C48481	C4848	0.558470	0.079620	0.842090
C48491	C4849	0.582700	0.061770	0.823810
C48501	C4850	0.574220	0.094300	0.814470
C48511	C4851	0.595650	0.112750	0.787580
H29851	H2985	0.604400	0.100700	0.787200
C48521	C4852	0.578360	0.112710	0.801220
C48531	C4853	0.566010	0.130720	0.802100
H29861	H2986	0.554300	0.131500	0.811200
C48541	C4854	0.571410	0.147440	0.789370
H29871	H2987	0.563400	0.160000	0.789700
C48551	C4855	0.588420	0.145850	0.776230
H29881	H2988	0.591800	0.157400	0.767500
C48561	C4856	0.630090	0.175040	0.748740
C48571	C4857	0.667070	0.138640	0.732400
H29891	H2989	0.665900	0.149300	0.742700
C48581	C4858	0.684730	0.137860	0.720750
H29901	H2990	0.695900	0.147300	0.723400
C48591	C4859	0.686450	0.122980	0.704810
H29911	H2991	0.698600	0.122200	0.696300
C48601	C4860	0.669890	0.109330	0.701780
C48611	C4861	0.652590	0.110770	0.715040
H29921	H2992	0.641400	0.101100	0.713300
C48621	C4862	0.670610	0.093040	0.685670
N18611	N1861	0.614130	0.015270	0.839070
N18621	N1862	0.476460	0.113770	0.895690
N18631	N1863	0.516810	0.100670	0.877270
N18641	N1864	0.560520	0.096360	0.829700
N18651	N1865	0.569610	0.061930	0.840100
N18661	N1866	0.585230	0.077150	0.810300
N18671	N1867	0.600400	0.128610	0.775340
N18681	N1868	0.627220	0.157500	0.751260
N18691	N1869	0.651140	0.125060	0.729990
N18701	N1870	0.655600	0.078630	0.686030
S3731	S373	0.458880	0.084750	0.923110
S3741	S374	0.634300	0.199840	0.745090
C48631	C4863	0.600840	0.531220	0.338950
H29931	H2993	0.594000	0.534600	0.351700
C48641	C4864	0.596330	0.543160	0.321550
C48651	C4865	0.606000	0.538060	0.302670
H29941	H2994	0.603400	0.546000	0.290400
C48661	C4866	0.619440	0.521160	0.302400
H29951	H2995	0.626100	0.517100	0.289800
C48671	C4867	0.623100	0.510150	0.320760
H29961	H2996	0.632300	0.498500	0.320400
C48681	C4868	0.468790	0.601720	0.406980
C48691	C4869	0.515340	0.585180	0.391370
H29971	H2997	0.505300	0.586400	0.402300
C48701	C4870	0.527950	0.567360	0.390560
H29981	H2998	0.526900	0.557000	0.401100
C48711	C4871	0.541770	0.564990	0.374490
H29991	H2999	0.550200	0.552800	0.373500
C48721	C4872	0.543330	0.580940	0.359430
C48731	C4873	0.530650	0.598310	0.361740
H30001	H3000	0.531800	0.609200	0.351700
C48741	C4874	0.558470	0.579620	0.342090
C48751	C4875	0.582700	0.561770	0.323810
C48761	C4876	0.574220	0.594300	0.314470
C48771	C4877	0.595650	0.612750	0.287580
H30011	H3001	0.604400	0.600700	0.287200
C48781	C4878	0.578360	0.612710	0.301220
C48791	C4879	0.566010	0.630720	0.302100
H30021	H3002	0.554300	0.631500	0.311200
C48801	C4880	0.571410	0.647440	0.289370
H30031	H3003	0.563400	0.660000	0.289700
C48811	C4881	0.588420	0.645850	0.276230
H30041	H3004	0.591800	0.657400	0.267500
C48821	C4882	0.630090	0.675040	0.248740
C48831	C4883	0.667070	0.638640	0.232400
H30051	H3005	0.665900	0.649300	0.242700
C48841	C4884	0.684730	0.637860	0.220750
H30061	H3006	0.695900	0.647300	0.223400
C48851	C4885	0.686450	0.622980	0.204810
H30071	H3007	0.698600	0.622200	0.196300
C48861	C4886	0.669890	0.609330	0.201780
C48871	C4887	0.652590	0.610770	0.215040
H30081	H3008	0.641400	0.601100	0.213300
C48881	C4888	0.670610	0.593040	0.185670
N18711	N1871	0.614130	0.515270	0.339070
N18721	N1872	0.476460	0.613770	0.395690
N18731	N1873	0.516810	0.600670	0.377270
N18741	N1874	0.560520	0.596360	0.329700
N18751	N1875	0.569610	0.561930	0.340100
N18761	N1876	0.585230	0.577150	0.310300
N18771	N1877	0.600400	0.628610	0.275340
N18781	N1878	0.627220	0.657500	0.251260
N18791	N1879	0.651140	0.625060	0.229990
N18801	N1880	0.655600	0.578630	0.186030
S3751	S375	0.458880	0.584750	0.423110
S3761	S376	0.634300	0.699840	0.245090
C48891	C4889	0.600840	0.718780	0.911050
H30091	H3009	0.594000	0.715400	0.898300
C48901	C4890	0.596330	0.706840	0.928450
C48911	C4891	0.606000	0.711940	0.947330
H30101	H3010	0.603400	0.704000	0.959600
C48921	C4892	0.619440	0.728840	0.947600
H30111	H3011	0.626100	0.732900	0.960200
C48931	C4893	0.623100	0.739850	0.929240
H30121	H3012	0.632300	0.751500	0.929600
C48941	C4894	0.468790	0.648280	0.843020
C48951	C4895	0.515340	0.664820	0.858630
H30131	H3013	0.505300	0.663600	0.847700
C48961	C4896	0.527950	0.682640	0.859440
H30141	H3014	0.526900	0.693000	0.848900
C48971	C4897	0.541770	0.685010	0.875510
H30151	H3015	0.550200	0.697200	0.876500
C48981	C4898	0.543330	0.669060	0.890570
C48991	C4899	0.530650	0.651690	0.888260
H30161	H3016	0.531800	0.640800	0.898300
C49001	C4900	0.558470	0.670380	0.907910
C49011	C4901	0.582700	0.688230	0.926190
C49021	C4902	0.574220	0.655700	0.935530
C49031	C4903	0.595650	0.637250	0.962420
H30171	H3017	0.604400	0.649300	0.962800
C49041	C4904	0.578360	0.637290	0.948780
C49051	C4905	0.566010	0.619280	0.947900
H30181	H3018	0.554300	0.618500	0.938800
C49061	C4906	0.571410	0.602560	0.960630
H30191	H3019	0.563400	0.590000	0.960300
C49071	C4907	0.588420	0.604150	0.973770
H30201	H3020	0.591800	0.592600	0.982500
C49081	C4908	0.630090	0.574960	0.001260
C49091	C4909	0.667070	0.611360	0.017600
H30211	H3021	0.665900	0.600700	0.007300
C49101	C4910	0.684730	0.612140	0.029250
H30221	H3022	0.695900	0.602700	0.026600
C49111	C4911	0.686450	0.627020	0.045190
H30231	H3023	0.698600	0.627800	0.053700
C49121	C4912	0.669890	0.640670	0.048220
C49131	C4913	0.652590	0.639230	0.034960
H30241	H3024	0.641400	0.648900	0.036700
C49141	C4914	0.670610	0.656960	0.064330
N18811	N1881	0.614130	0.734730	0.910930
N18821	N1882	0.476460	0.636230	0.854310
N18831	N1883	0.516810	0.649330	0.872730
N18841	N1884	0.560520	0.653640	0.920300
N18851	N1885	0.569610	0.688070	0.909900
N18861	N1886	0.585230	0.672850	0.939700
N18871	N1887	0.600400	0.621390	0.974660
N18881	N1888	0.627220	0.592500	0.998740
N18891	N1889	0.651140	0.624940	0.020010
N18901	N1890	0.655600	0.671370	0.063970
S3771	S377	0.458880	0.665250	0.826890
S3781	S378	0.634300	0.550160	0.004910
C49151	C4915	0.600840	0.218780	0.411050
H30251	H3025	0.594000	0.215400	0.398300
C49161	C4916	0.596330	0.206840	0.428450
C49171	C4917	0.606000	0.211940	0.447330
H30261	H3026	0.603400	0.204000	0.459600
C49181	C4918	0.619440	0.228840	0.447600
H30271	H3027	0.626100	0.232900	0.460200
C49191	C4919	0.623100	0.239850	0.429240
H30281	H3028	0.632300	0.251500	0.429600
C49201	C4920	0.468790	0.148280	0.343020
C49211	C4921	0.515340	0.164820	0.358630
H30291	H3029	0.505300	0.163600	0.347700
C49221	C4922	0.527950	0.182640	0.359440
H30301	H3030	0.526900	0.193000	0.348900
C49231	C4923	0.541770	0.185010	0.375510
H30311	H3031	0.550200	0.197200	0.376500
C49241	C4924	0.543330	0.169060	0.390570
C49251	C4925	0.530650	0.151690	0.388260
H30321	H3032	0.531800	0.140800	0.398300
C49261	C4926	0.558470	0.170380	0.407910
C49271	C4927	0.582700	0.188230	0.426190
C49281	C4928	0.574220	0.155700	0.435530
C49291	C4929	0.595650	0.137250	0.462420
H30331	H3033	0.604400	0.149300	0.462800
C49301	C4930	0.578360	0.137290	0.448780
C49311	C4931	0.566010	0.119280	0.447900
H30341	H3034	0.554300	0.118500	0.438800
C49321	C4932	0.571410	0.102560	0.460630
H30351	H3035	0.563400	0.090000	0.460300
C49331	C4933	0.588420	0.104150	0.473770
H30361	H3036	0.591800	0.092600	0.482500
C49341	C4934	0.630090	0.074960	0.501260
C49351	C4935	0.667070	0.111360	0.517600
H30371	H3037	0.665900	0.100700	0.507300
C49361	C4936	0.684730	0.112140	0.529250
H30381	H3038	0.695900	0.102700	0.526600
C49371	C4937	0.686450	0.127020	0.545190
H30391	H3039	0.698600	0.127800	0.553700
C49381	C4938	0.669890	0.140670	0.548220
C49391	C4939	0.652590	0.139230	0.534960
H30401	H3040	0.641400	0.148900	0.536700
C49401	C4940	0.670610	0.156960	0.564330
N18911	N1891	0.614130	0.234730	0.410930
N18921	N1892	0.476460	0.136230	0.354310
N18931	N1893	0.516810	0.149330	0.372730
N18941	N1894	0.560520	0.153640	0.420300
N18951	N1895	0.569610	0.188070	0.409900
N18961	N1896	0.585230	0.172850	0.439700
N18971	N1897	0.600400	0.121390	0.474660
N18981	N1898	0.627220	0.092500	0.498740
N18991	N1899	0.651140	0.124940	0.520010
N19001	N1900	0.655600	0.171370	0.563970
S3791	S379	0.458880	0.165250	0.326890
S3801	S380	0.634300	0.050160	0.504910
C49411	C4941	0.100840	0.718780	0.411050
H30411	H3041	0.094000	0.715400	0.398300
C49421	C4942	0.096330	0.706840	0.428450
C49431	C4943	0.106000	0.711940	0.447330
H30421	H3042	0.103400	0.704000	0.459600
C49441	C4944	0.119440	0.728840	0.447600
H30431	H3043	0.126100	0.732900	0.460200
C49451	C4945	0.123100	0.739850	0.429240
H30441	H3044	0.132300	0.751500	0.429600
C49461	C4946	0.968790	0.648280	0.343020
C49471	C4947	0.015340	0.664820	0.358630
H30451	H3045	0.005300	0.663600	0.347700
C49481	C4948	0.027950	0.682640	0.359440
H30461	H3046	0.026900	0.693000	0.348900
C49491	C4949	0.041770	0.685010	0.375510
H30471	H3047	0.050200	0.697200	0.376500
C49501	C4950	0.043330	0.669060	0.390570
C49511	C4951	0.030650	0.651690	0.388260
H30481	H3048	0.031800	0.640800	0.398300
C49521	C4952	0.058470	0.670380	0.407910
C49531	C4953	0.082700	0.688230	0.426190
C49541	C4954	0.074220	0.655700	0.435530
C49551	C4955	0.095650	0.637250	0.462420
H30491	H3049	0.104400	0.649300	0.462800
C49561	C4956	0.078360	0.637290	0.448780
C49571	C4957	0.066010	0.619280	0.447900
H30501	H3050	0.054300	0.618500	0.438800
C49581	C4958	0.071410	0.602560	0.460630
H30511	H3051	0.063400	0.590000	0.460300
C49591	C4959	0.088420	0.604150	0.473770
H30521	H3052	0.091800	0.592600	0.482500
C49601	C4960	0.130090	0.574960	0.501260
C49611	C4961	0.167070	0.611360	0.517600
H30531	H3053	0.165900	0.600700	0.507300
C49621	C4962	0.184730	0.612140	0.529250
H30541	H3054	0.195900	0.602700	0.526600
C49631	C4963	0.186450	0.627020	0.545190
H30551	H3055	0.198600	0.627800	0.553700
C49641	C4964	0.169890	0.640670	0.548220
C49651	C4965	0.152590	0.639230	0.534960
H30561	H3056	0.141400	0.648900	0.536700
C49661	C4966	0.170610	0.656960	0.564330
N19011	N1901	0.114130	0.734730	0.410930
N19021	N1902	0.976460	0.636230	0.354310
N19031	N1903	0.016810	0.649330	0.372730
N19041	N1904	0.060520	0.653640	0.420300
N19051	N1905	0.069610	0.688070	0.409900
N19061	N1906	0.085230	0.672850	0.439700
N19071	N1907	0.100400	0.621390	0.474660
N19081	N1908	0.127220	0.592500	0.498740
N19091	N1909	0.151140	0.624940	0.520010
N19101	N1910	0.155600	0.671370	0.563970
S3811	S381	0.958880	0.665250	0.326890
S3821	S382	0.134300	0.550160	0.504910
C49671	C4967	0.100840	0.218780	0.911050
H30571	H3057	0.094000	0.215400	0.898300
C49681	C4968	0.096330	0.206840	0.928450
C49691	C4969	0.106000	0.211940	0.947330
H30581	H3058	0.103400	0.204000	0.959600
C49701	C4970	0.119440	0.228840	0.947600
H30591	H3059	0.126100	0.232900	0.960200
C49711	C4971	0.123100	0.239850	0.929240
H30601	H3060	0.132300	0.251500	0.929600
C49721	C4972	0.968790	0.148280	0.843020
C49731	C4973	0.015340	0.164820	0.858630
H30611	H3061	0.005300	0.163600	0.847700
C49741	C4974	0.027950	0.182640	0.859440
H30621	H3062	0.026900	0.193000	0.848900
C49751	C4975	0.041770	0.185010	0.875510
H30631	H3063	0.050200	0.197200	0.876500
C49761	C4976	0.043330	0.169060	0.890570
C49771	C4977	0.030650	0.151690	0.888260
H30641	H3064	0.031800	0.140800	0.898300
C49781	C4978	0.058470	0.170380	0.907910
C49791	C4979	0.082700	0.188230	0.926190
C49801	C4980	0.074220	0.155700	0.935530
C49811	C4981	0.095650	0.137250	0.962420
H30651	H3065	0.104400	0.149300	0.962800
C49821	C4982	0.078360	0.137290	0.948780
C49831	C4983	0.066010	0.119280	0.947900
H30661	H3066	0.054300	0.118500	0.938800
C49841	C4984	0.071410	0.102560	0.960630
H30671	H3067	0.063400	0.090000	0.960300
C49851	C4985	0.088420	0.104150	0.973770
H30681	H3068	0.091800	0.092600	0.982500
C49861	C4986	0.130090	0.074960	0.001260
C49871	C4987	0.167070	0.111360	0.017600
H30691	H3069	0.165900	0.100700	0.007300
C49881	C4988	0.184730	0.112140	0.029250
H30701	H3070	0.195900	0.102700	0.026600
C49891	C4989	0.186450	0.127020	0.045190
H30711	H3071	0.198600	0.127800	0.053700
C49901	C4990	0.169890	0.140670	0.048220
C49911	C4991	0.152590	0.139230	0.034960
H30721	H3072	0.141400	0.148900	0.036700
C49921	C4992	0.170610	0.156960	0.064330
N19111	N1911	0.114130	0.234730	0.910930
N19121	N1912	0.976460	0.136230	0.854310
N19131	N1913	0.016810	0.149330	0.872730
N19141	N1914	0.060520	0.153640	0.920300
N19151	N1915	0.069610	0.188070	0.909900
N19161	N1916	0.085230	0.172850	0.939700
N19171	N1917	0.100400	0.121390	0.974660
N19181	N1918	0.127220	0.092500	0.998740
N19191	N1919	0.151140	0.124940	0.020010
N19201	N1920	0.155600	0.171370	0.063970
S3831	S383	0.958880	0.165250	0.826890
S3841	S384	0.134300	0.050160	0.004910
Co11	Co1	0.369520	0.119520	0.000000
Co21	Co2	0.369520	0.619520	0.500000
Co31	Co3	0.869520	0.619520	0.000000
Co41	Co4	0.880480	0.630480	0.500000
Co51	Co5	0.880480	0.130480	0.000000
Co61	Co6	0.380480	0.630480	0.000000
Co71	Co7	0.380480	0.619520	0.250000
Co81	Co8	0.380480	0.119520	0.750000
Co91	Co9	0.869520	0.130480	0.750000
Co101	Co10	0.869520	0.630480	0.250000
Co111	Co11	0.000000	0.369520	0.119520
Co121	Co12	0.000000	0.869520	0.619520
Co131	Co13	0.500000	0.369520	0.619520
Co141	Co14	0.500000	0.880480	0.630480
Co151	Co15	0.000000	0.880480	0.130480
Co161	Co16	0.000000	0.380480	0.630480
Co171	Co17	0.250000	0.380480	0.619520
Co181	Co18	0.750000	0.380480	0.119520
Co191	Co19	0.750000	0.869520	0.130480
Co201	Co20	0.250000	0.869520	0.630480
Co211	Co21	0.119520	0.000000	0.369520
Co221	Co22	0.119520	0.500000	0.869520
Co231	Co23	0.619520	0.000000	0.869520
Co241	Co24	0.630480	0.500000	0.880480
Co251	Co25	0.630480	0.000000	0.380480
Co261	Co26	0.619520	0.250000	0.380480
Co271	Co27	0.619520	0.750000	0.880480
Co281	Co28	0.119520	0.750000	0.380480
Co291	Co29	0.130480	0.750000	0.869520
Co301	Co30	0.130480	0.250000	0.369520
Co311	Co31	0.869520	0.119520	0.500000
Co321	Co32	0.380480	0.130480	0.500000
Co331	Co33	0.369520	0.630480	0.750000
Co341	Co34	0.369520	0.130480	0.250000
Co351	Co35	0.880480	0.119520	0.250000
Co361	Co36	0.880480	0.619520	0.750000
Co371	Co37	0.119520	0.250000	0.880480
Co381	Co38	0.630480	0.750000	0.369520
Co391	Co39	0.630480	0.250000	0.869520
Co401	Co40	0.130480	0.500000	0.380480
Co411	Co41	0.130480	0.000000	0.880480
Co421	Co42	0.619520	0.500000	0.369520
Co431	Co43	0.750000	0.369520	0.630480
Co441	Co44	0.250000	0.369520	0.130480
Co451	Co45	0.250000	0.880480	0.119520
Co461	Co46	0.750000	0.880480	0.619520
Co471	Co47	0.500000	0.869520	0.119520
Co481	Co48	0.500000	0.380480	0.130480
Co491	Co49	0.630480	0.880480	0.000000
Co501	Co50	0.630480	0.380480	0.500000
Co511	Co51	0.130480	0.380480	0.000000
Co521	Co52	0.119520	0.369520	0.500000
Co531	Co53	0.119520	0.869520	0.000000
Co541	Co54	0.619520	0.380480	0.750000
Co551	Co55	0.619520	0.880480	0.250000
Co561	Co56	0.130480	0.869520	0.250000
Co571	Co57	0.130480	0.369520	0.750000
Co581	Co58	0.630480	0.869520	0.750000
Co591	Co59	0.000000	0.630480	0.880480
Co601	Co60	0.000000	0.130480	0.380480
Co611	Co61	0.500000	0.630480	0.380480
Co621	Co62	0.500000	0.119520	0.369520
Co631	Co63	0.000000	0.119520	0.869520
Co641	Co64	0.750000	0.619520	0.380480
Co651	Co65	0.250000	0.619520	0.880480
Co661	Co66	0.250000	0.130480	0.869520
Co671	Co67	0.750000	0.130480	0.369520
Co681	Co68	0.750000	0.630480	0.869520
Co691	Co69	0.880480	0.000000	0.630480
Co701	Co70	0.880480	0.500000	0.130480
Co711	Co71	0.380480	0.000000	0.130480
Co721	Co72	0.369520	0.500000	0.119520
Co731	Co73	0.369520	0.000000	0.619520
Co741	Co74	0.869520	0.000000	0.119520
Co751	Co75	0.380480	0.750000	0.619520
Co761	Co76	0.380480	0.250000	0.119520
Co771	Co77	0.869520	0.250000	0.130480
Co781	Co78	0.869520	0.750000	0.630480
Co791	Co79	0.130480	0.880480	0.500000
Co801	Co80	0.619520	0.869520	0.500000
Co811	Co81	0.619520	0.369520	0.000000
Co821	Co82	0.630480	0.369520	0.250000
Co831	Co83	0.119520	0.880480	0.750000
Co841	Co84	0.119520	0.380480	0.250000
Co851	Co85	0.880480	0.750000	0.119520
Co861	Co86	0.880480	0.250000	0.619520
Co871	Co87	0.369520	0.250000	0.630480
Co881	Co88	0.369520	0.750000	0.130480
Co891	Co89	0.869520	0.500000	0.619520
Co901	Co90	0.380480	0.500000	0.630480
Co911	Co91	0.250000	0.630480	0.369520
Co921	Co92	0.750000	0.119520	0.880480
Co931	Co93	0.250000	0.119520	0.380480
Co941	Co94	0.500000	0.130480	0.880480
Co951	Co95	0.500000	0.619520	0.869520
Co961	Co96	0.000000	0.619520	0.369520
Co971	Co97	0.497810	0.125000	0.125000
Co981	Co98	0.497810	0.625000	0.625000
Co991	Co99	0.997810	0.125000	0.625000
Co1001	Co100	0.752190	0.625000	0.625000
Co1011	Co101	0.752190	0.125000	0.125000
Co1021	Co102	0.252190	0.125000	0.625000
Co1031	Co103	0.252190	0.625000	0.125000
Co1041	Co104	0.997810	0.625000	0.125000
Co1051	Co105	0.125000	0.497810	0.125000
Co1061	Co106	0.125000	0.997810	0.625000
Co1071	Co107	0.625000	0.997810	0.125000
Co1081	Co108	0.625000	0.752190	0.625000
Co1091	Co109	0.625000	0.252190	0.125000
Co1101	Co110	0.125000	0.252190	0.625000
Co1111	Co111	0.125000	0.752190	0.125000
Co1121	Co112	0.625000	0.497810	0.625000
Co1131	Co113	0.125000	0.125000	0.497810
Co1141	Co114	0.125000	0.625000	0.997810
Co1151	Co115	0.625000	0.125000	0.997810
Co1161	Co116	0.625000	0.625000	0.752190
Co1171	Co117	0.125000	0.625000	0.252190
Co1181	Co118	0.625000	0.125000	0.252190
Co1191	Co119	0.125000	0.125000	0.752190
Co1201	Co120	0.625000	0.625000	0.497810
Co1211	Co121	0.875000	0.747810	0.875000
Co1221	Co122	0.375000	0.747810	0.375000
Co1231	Co123	0.375000	0.002190	0.375000
Co1241	Co124	0.875000	0.002190	0.875000
Co1251	Co125	0.375000	0.502190	0.875000
Co1261	Co126	0.875000	0.502190	0.375000
Co1271	Co127	0.875000	0.247810	0.375000
Co1281	Co128	0.375000	0.247810	0.875000
Co1291	Co129	0.247810	0.375000	0.875000
Co1301	Co130	0.247810	0.875000	0.375000
Co1311	Co131	0.502190	0.875000	0.375000
Co1321	Co132	0.502190	0.375000	0.875000
Co1331	Co133	0.002190	0.875000	0.875000
Co1341	Co134	0.002190	0.375000	0.375000
Co1351	Co135	0.747810	0.875000	0.875000
Co1361	Co136	0.747810	0.375000	0.375000
Co1371	Co137	0.875000	0.375000	0.502190
Co1381	Co138	0.875000	0.875000	0.002190
Co1391	Co139	0.375000	0.875000	0.247810
Co1401	Co140	0.375000	0.375000	0.747810
Co1411	Co141	0.875000	0.875000	0.747810
Co1421	Co142	0.875000	0.375000	0.247810
Co1431	Co143	0.375000	0.375000	0.002190
Co1441	Co144	0.375000	0.875000	0.502190
Co1451	Co145	0.502190	0.875000	0.875000
Co1461	Co146	0.502190	0.375000	0.375000
Co1471	Co147	0.247810	0.375000	0.375000
Co1481	Co148	0.247810	0.875000	0.875000
Co1491	Co149	0.747810	0.375000	0.875000
Co1501	Co150	0.747810	0.875000	0.375000
Co1511	Co151	0.002190	0.875000	0.375000
Co1521	Co152	0.002190	0.375000	0.875000
Co1531	Co153	0.875000	0.502190	0.875000
Co1541	Co154	0.875000	0.002190	0.375000
Co1551	Co155	0.375000	0.247810	0.375000
Co1561	Co156	0.375000	0.747810	0.875000
Co1571	Co157	0.875000	0.247810	0.875000
Co1581	Co158	0.875000	0.747810	0.375000
Co1591	Co159	0.375000	0.002190	0.875000
Co1601	Co160	0.375000	0.502190	0.375000
Co1611	Co161	0.875000	0.875000	0.502190
Co1621	Co162	0.375000	0.875000	0.002190
Co1631	Co163	0.375000	0.375000	0.247810
Co1641	Co164	0.875000	0.375000	0.747810
Co1651	Co165	0.875000	0.875000	0.247810
Co1661	Co166	0.375000	0.875000	0.747810
Co1671	Co167	0.875000	0.375000	0.002190
Co1681	Co168	0.375000	0.375000	0.502190
Co1691	Co169	0.125000	0.252190	0.125000
Co1701	Co170	0.625000	0.252190	0.625000
Co1711	Co171	0.625000	0.997810	0.625000
Co1721	Co172	0.125000	0.997810	0.125000
Co1731	Co173	0.625000	0.497810	0.125000
Co1741	Co174	0.125000	0.497810	0.625000
Co1751	Co175	0.125000	0.752190	0.625000
Co1761	Co176	0.625000	0.752190	0.125000
Co1771	Co177	0.752190	0.625000	0.125000
Co1781	Co178	0.752190	0.125000	0.625000
Co1791	Co179	0.252190	0.625000	0.625000
Co1801	Co180	0.497810	0.125000	0.625000
Co1811	Co181	0.497810	0.625000	0.125000
Co1821	Co182	0.997810	0.625000	0.625000
Co1831	Co183	0.997810	0.125000	0.125000
Co1841	Co184	0.252190	0.125000	0.125000
Co1851	Co185	0.125000	0.625000	0.497810
Co1861	Co186	0.125000	0.125000	0.997810
Co1871	Co187	0.625000	0.625000	0.997810
Co1881	Co188	0.625000	0.125000	0.752190
Co1891	Co189	0.625000	0.625000	0.252190
Co1901	Co190	0.125000	0.125000	0.252190
Co1911	Co191	0.125000	0.625000	0.752190
Co1921	Co192	0.625000	0.125000	0.497810
