data_RIVDIL_freeONLY_PM
_symmetry_space_group_name_H-M	'P1'
_cell_length_a	64.235000
_cell_length_b	64.235000
_cell_length_c	64.235000
_cell_angle_alpha	90.000000
_cell_angle_beta	90.000000
_cell_angle_gamma	90.000000
_symmetry_Int_Tables_number 1

loop_
_symmetry_equiv_pos_as_xyz
'x,y,z'

loop_
_atom_site_label
_atom_site_type_symbol
_atom_site_fract_x
_atom_site_fract_y
_atom_site_fract_z
C11	C1	0.531780	0.339900	0.101660
H11	H1	0.534900	0.352400	0.094300
C21	C2	0.544170	0.322730	0.098110
C31	C3	0.539510	0.304370	0.108170
H21	H2	0.548100	0.292400	0.106600
C41	C4	0.522020	0.303830	0.120620
H31	H3	0.517600	0.291100	0.126700
C51	C5	0.510990	0.321710	0.124220
H41	H4	0.499600	0.321200	0.133700
C61	C6	0.601510	0.406580	0.969000
C71	C7	0.585160	0.390670	0.016730
H51	H5	0.586000	0.401200	0.006400
C81	C8	0.568300	0.390770	0.029590
H61	H6	0.558200	0.401500	0.028700
C91	C9	0.566240	0.374950	0.043890
H71	H7	0.554700	0.374500	0.053100
C101	C10	0.581540	0.359540	0.044540
C111	C11	0.598010	0.361150	0.031150
H81	H8	0.608200	0.350500	0.031500
C121	C12	0.580040	0.342070	0.059830
C131	C13	0.595030	0.314780	0.075700
C141	C14	0.562530	0.324740	0.084630
C151	C15	0.612830	0.287640	0.096590
H91	H9	0.601000	0.287400	0.105400
C161	C16	0.612980	0.301770	0.079620
C171	C17	0.630860	0.302760	0.067880
H101	H10	0.631900	0.312300	0.056700
C181	C18	0.647240	0.289810	0.072490
H111	H11	0.659800	0.290400	0.064800
C191	C19	0.644930	0.275870	0.088620
H121	H12	0.656000	0.266400	0.091200
C201	C20	0.575520	0.248900	0.121900
C211	C21	0.637800	0.232470	0.167480
H131	H13	0.647900	0.243200	0.166500
C221	C22	0.637260	0.221060	0.184790
H141	H14	0.647200	0.223300	0.195500
C231	C23	0.621790	0.205610	0.187050
H151	H15	0.620700	0.197600	0.199400
C241	C24	0.608270	0.202560	0.170420
C251	C25	0.610050	0.215210	0.153040
H161	H16	0.600300	0.213400	0.142100
C261	C26	0.592070	0.186770	0.171390
N11	N1	0.515610	0.340030	0.114900
N21	N2	0.613250	0.395350	0.976910
N31	N3	0.600680	0.376720	0.017570
N41	N4	0.563090	0.340570	0.070920
N51	N5	0.596580	0.329770	0.061420
N61	N6	0.577740	0.311510	0.087540
N71	N7	0.628270	0.274880	0.100740
N81	N8	0.624520	0.229670	0.150840
N91	N9	0.592970	0.251020	0.122930
N101	N10	0.577510	0.186870	0.156570
S11	S1	0.584350	0.422570	0.959830
S21	S2	0.549750	0.246410	0.120790
C271	C27	0.531780	0.839900	0.601660
H171	H17	0.534900	0.852400	0.594300
C281	C28	0.544170	0.822730	0.598110
C291	C29	0.539510	0.804370	0.608170
H181	H18	0.548100	0.792400	0.606600
C301	C30	0.522020	0.803830	0.620620
H191	H19	0.517600	0.791100	0.626700
C311	C31	0.510990	0.821710	0.624220
H201	H20	0.499600	0.821200	0.633700
C321	C32	0.601510	0.906580	0.469000
C331	C33	0.585160	0.890670	0.516730
H211	H21	0.586000	0.901200	0.506400
C341	C34	0.568300	0.890770	0.529590
H221	H22	0.558200	0.901500	0.528700
C351	C35	0.566240	0.874950	0.543890
H231	H23	0.554700	0.874500	0.553100
C361	C36	0.581540	0.859540	0.544540
C371	C37	0.598010	0.861150	0.531150
H241	H24	0.608200	0.850500	0.531500
C381	C38	0.580040	0.842070	0.559830
C391	C39	0.595030	0.814780	0.575700
C401	C40	0.562530	0.824740	0.584630
C411	C41	0.612830	0.787640	0.596590
H251	H25	0.601000	0.787400	0.605400
C421	C42	0.612980	0.801770	0.579620
C431	C43	0.630860	0.802760	0.567880
H261	H26	0.631900	0.812300	0.556700
C441	C44	0.647240	0.789810	0.572490
H271	H27	0.659800	0.790400	0.564800
C451	C45	0.644930	0.775870	0.588620
H281	H28	0.656000	0.766400	0.591200
C461	C46	0.575520	0.748900	0.621900
C471	C47	0.637800	0.732470	0.667480
H291	H29	0.647900	0.743200	0.666500
C481	C48	0.637260	0.721060	0.684790
H301	H30	0.647200	0.723300	0.695500
C491	C49	0.621790	0.705610	0.687050
H311	H31	0.620700	0.697600	0.699400
C501	C50	0.608270	0.702560	0.670420
C511	C51	0.610050	0.715210	0.653040
H321	H32	0.600300	0.713400	0.642100
C521	C52	0.592070	0.686770	0.671390
N111	N11	0.515610	0.840030	0.614900
N121	N12	0.613250	0.895350	0.476910
N131	N13	0.600680	0.876720	0.517570
N141	N14	0.563090	0.840570	0.570920
N151	N15	0.596580	0.829770	0.561420
N161	N16	0.577740	0.811510	0.587540
N171	N17	0.628270	0.774880	0.600740
N181	N18	0.624520	0.729670	0.650840
N191	N19	0.592970	0.751020	0.622930
N201	N20	0.577510	0.686870	0.656570
S31	S3	0.584350	0.922570	0.459830
S41	S4	0.549750	0.746410	0.620790
C531	C53	0.031780	0.339900	0.601660
H331	H33	0.034900	0.352400	0.594300
C541	C54	0.044170	0.322730	0.598110
C551	C55	0.039510	0.304370	0.608170
H341	H34	0.048100	0.292400	0.606600
C561	C56	0.022020	0.303830	0.620620
H351	H35	0.017600	0.291100	0.626700
C571	C57	0.010990	0.321710	0.624220
H361	H36	0.999600	0.321200	0.633700
C581	C58	0.101510	0.406580	0.469000
C591	C59	0.085160	0.390670	0.516730
H371	H37	0.086000	0.401200	0.506400
C601	C60	0.068300	0.390770	0.529590
H381	H38	0.058200	0.401500	0.528700
C611	C61	0.066240	0.374950	0.543890
H391	H39	0.054700	0.374500	0.553100
C621	C62	0.081540	0.359540	0.544540
C631	C63	0.098010	0.361150	0.531150
H401	H40	0.108200	0.350500	0.531500
C641	C64	0.080040	0.342070	0.559830
C651	C65	0.095030	0.314780	0.575700
C661	C66	0.062530	0.324740	0.584630
C671	C67	0.112830	0.287640	0.596590
H411	H41	0.101000	0.287400	0.605400
C681	C68	0.112980	0.301770	0.579620
C691	C69	0.130860	0.302760	0.567880
H421	H42	0.131900	0.312300	0.556700
C701	C70	0.147240	0.289810	0.572490
H431	H43	0.159800	0.290400	0.564800
C711	C71	0.144930	0.275870	0.588620
H441	H44	0.156000	0.266400	0.591200
C721	C72	0.075520	0.248900	0.621900
C731	C73	0.137800	0.232470	0.667480
H451	H45	0.147900	0.243200	0.666500
C741	C74	0.137260	0.221060	0.684790
H461	H46	0.147200	0.223300	0.695500
C751	C75	0.121790	0.205610	0.687050
H471	H47	0.120700	0.197600	0.699400
C761	C76	0.108270	0.202560	0.670420
C771	C77	0.110050	0.215210	0.653040
H481	H48	0.100300	0.213400	0.642100
C781	C78	0.092070	0.186770	0.671390
N211	N21	0.015610	0.340030	0.614900
N221	N22	0.113250	0.395350	0.476910
N231	N23	0.100680	0.376720	0.517570
N241	N24	0.063090	0.340570	0.570920
N251	N25	0.096580	0.329770	0.561420
N261	N26	0.077740	0.311510	0.587540
N271	N27	0.128270	0.274880	0.600740
N281	N28	0.124520	0.229670	0.650840
N291	N29	0.092970	0.251020	0.622930
N301	N30	0.077510	0.186870	0.656570
S51	S5	0.084350	0.422570	0.459830
S61	S6	0.049750	0.246410	0.620790
C791	C79	0.031780	0.839900	0.101660
H491	H49	0.034900	0.852400	0.094300
C801	C80	0.044170	0.822730	0.098110
C811	C81	0.039510	0.804370	0.108170
H501	H50	0.048100	0.792400	0.106600
C821	C82	0.022020	0.803830	0.120620
H511	H51	0.017600	0.791100	0.126700
C831	C83	0.010990	0.821710	0.124220
H521	H52	0.999600	0.821200	0.133700
C841	C84	0.101510	0.906580	0.969000
C851	C85	0.085160	0.890670	0.016730
H531	H53	0.086000	0.901200	0.006400
C861	C86	0.068300	0.890770	0.029590
H541	H54	0.058200	0.901500	0.028700
C871	C87	0.066240	0.874950	0.043890
H551	H55	0.054700	0.874500	0.053100
C881	C88	0.081540	0.859540	0.044540
C891	C89	0.098010	0.861150	0.031150
H561	H56	0.108200	0.850500	0.031500
C901	C90	0.080040	0.842070	0.059830
C911	C91	0.095030	0.814780	0.075700
C921	C92	0.062530	0.824740	0.084630
C931	C93	0.112830	0.787640	0.096590
H571	H57	0.101000	0.787400	0.105400
C941	C94	0.112980	0.801770	0.079620
C951	C95	0.130860	0.802760	0.067880
H581	H58	0.131900	0.812300	0.056700
C961	C96	0.147240	0.789810	0.072490
H591	H59	0.159800	0.790400	0.064800
C971	C97	0.144930	0.775870	0.088620
H601	H60	0.156000	0.766400	0.091200
C981	C98	0.075520	0.748900	0.121900
C991	C99	0.137800	0.732470	0.167480
H611	H61	0.147900	0.743200	0.166500
C1001	C100	0.137260	0.721060	0.184790
H621	H62	0.147200	0.723300	0.195500
C1011	C101	0.121790	0.705610	0.187050
H631	H63	0.120700	0.697600	0.199400
C1021	C102	0.108270	0.702560	0.170420
C1031	C103	0.110050	0.715210	0.153040
H641	H64	0.100300	0.713400	0.142100
C1041	C104	0.092070	0.686770	0.171390
N311	N31	0.015610	0.840030	0.114900
N321	N32	0.113250	0.895350	0.976910
N331	N33	0.100680	0.876720	0.017570
N341	N34	0.063090	0.840570	0.070920
N351	N35	0.096580	0.829770	0.061420
N361	N36	0.077740	0.811510	0.087540
N371	N37	0.128270	0.774880	0.100740
N381	N38	0.124520	0.729670	0.150840
N391	N39	0.092970	0.751020	0.122930
N401	N40	0.077510	0.686870	0.156570
S71	S7	0.084350	0.922570	0.959830
S81	S8	0.049750	0.746410	0.120790
C1051	C105	0.718220	0.410100	0.601660
H651	H65	0.715100	0.397600	0.594300
C1061	C106	0.705830	0.427270	0.598110
C1071	C107	0.710490	0.445630	0.608170
H661	H66	0.701900	0.457600	0.606600
C1081	C108	0.727980	0.446170	0.620620
H671	H67	0.732400	0.458900	0.626700
C1091	C109	0.739010	0.428290	0.624220
H681	H68	0.750400	0.428800	0.633700
C1101	C110	0.648490	0.343420	0.469000
C1111	C111	0.664840	0.359330	0.516730
H691	H69	0.664000	0.348800	0.506400
C1121	C112	0.681700	0.359230	0.529590
H701	H70	0.691800	0.348500	0.528700
C1131	C113	0.683760	0.375050	0.543890
H711	H71	0.695300	0.375500	0.553100
C1141	C114	0.668460	0.390460	0.544540
C1151	C115	0.651990	0.388850	0.531150
H721	H72	0.641800	0.399500	0.531500
C1161	C116	0.669960	0.407930	0.559830
C1171	C117	0.654970	0.435220	0.575700
C1181	C118	0.687470	0.425260	0.584630
C1191	C119	0.637170	0.462360	0.596590
H731	H73	0.649000	0.462600	0.605400
C1201	C120	0.637020	0.448230	0.579620
C1211	C121	0.619140	0.447240	0.567880
H741	H74	0.618100	0.437700	0.556700
C1221	C122	0.602760	0.460190	0.572490
H751	H75	0.590200	0.459600	0.564800
C1231	C123	0.605070	0.474130	0.588620
H761	H76	0.594000	0.483600	0.591200
C1241	C124	0.674480	0.501100	0.621900
C1251	C125	0.612200	0.517530	0.667480
H771	H77	0.602100	0.506800	0.666500
C1261	C126	0.612740	0.528940	0.684790
H781	H78	0.602800	0.526700	0.695500
C1271	C127	0.628210	0.544390	0.687050
H791	H79	0.629300	0.552400	0.699400
C1281	C128	0.641730	0.547440	0.670420
C1291	C129	0.639950	0.534790	0.653040
H801	H80	0.649700	0.536600	0.642100
C1301	C130	0.657930	0.563230	0.671390
N411	N41	0.734390	0.409970	0.614900
N421	N42	0.636750	0.354650	0.476910
N431	N43	0.649320	0.373280	0.517570
N441	N44	0.686910	0.409430	0.570920
N451	N45	0.653420	0.420230	0.561420
N461	N46	0.672260	0.438490	0.587540
N471	N47	0.621730	0.475120	0.600740
N481	N48	0.625480	0.520330	0.650840
N491	N49	0.657030	0.498980	0.622930
N501	N50	0.672490	0.563130	0.656570
S91	S9	0.665650	0.327430	0.459830
S101	S10	0.700250	0.503590	0.620790
C1311	C131	0.718220	0.910100	0.101660
H811	H81	0.715100	0.897600	0.094300
C1321	C132	0.705830	0.927270	0.098110
C1331	C133	0.710490	0.945630	0.108170
H821	H82	0.701900	0.957600	0.106600
C1341	C134	0.727980	0.946170	0.120620
H831	H83	0.732400	0.958900	0.126700
C1351	C135	0.739010	0.928290	0.124220
H841	H84	0.750400	0.928800	0.133700
C1361	C136	0.648490	0.843420	0.969000
C1371	C137	0.664840	0.859330	0.016730
H851	H85	0.664000	0.848800	0.006400
C1381	C138	0.681700	0.859230	0.029590
H861	H86	0.691800	0.848500	0.028700
C1391	C139	0.683760	0.875050	0.043890
H871	H87	0.695300	0.875500	0.053100
C1401	C140	0.668460	0.890460	0.044540
C1411	C141	0.651990	0.888850	0.031150
H881	H88	0.641800	0.899500	0.031500
C1421	C142	0.669960	0.907930	0.059830
C1431	C143	0.654970	0.935220	0.075700
C1441	C144	0.687470	0.925260	0.084630
C1451	C145	0.637170	0.962360	0.096590
H891	H89	0.649000	0.962600	0.105400
C1461	C146	0.637020	0.948230	0.079620
C1471	C147	0.619140	0.947240	0.067880
H901	H90	0.618100	0.937700	0.056700
C1481	C148	0.602760	0.960190	0.072490
H911	H91	0.590200	0.959600	0.064800
C1491	C149	0.605070	0.974130	0.088620
H921	H92	0.594000	0.983600	0.091200
C1501	C150	0.674480	0.001100	0.121900
C1511	C151	0.612200	0.017530	0.167480
H931	H93	0.602100	0.006800	0.166500
C1521	C152	0.612740	0.028940	0.184790
H941	H94	0.602800	0.026700	0.195500
C1531	C153	0.628210	0.044390	0.187050
H951	H95	0.629300	0.052400	0.199400
C1541	C154	0.641730	0.047440	0.170420
C1551	C155	0.639950	0.034790	0.153040
H961	H96	0.649700	0.036600	0.142100
C1561	C156	0.657930	0.063230	0.171390
N511	N51	0.734390	0.909970	0.114900
N521	N52	0.636750	0.854650	0.976910
N531	N53	0.649320	0.873280	0.017570
N541	N54	0.686910	0.909430	0.070920
N551	N55	0.653420	0.920230	0.061420
N561	N56	0.672260	0.938490	0.087540
N571	N57	0.621730	0.975120	0.100740
N581	N58	0.625480	0.020330	0.150840
N591	N59	0.657030	0.998980	0.122930
N601	N60	0.672490	0.063130	0.156570
S111	S11	0.665650	0.827430	0.959830
S121	S12	0.700250	0.003590	0.120790
C1571	C157	0.218220	0.410100	0.101660
H971	H97	0.215100	0.397600	0.094300
C1581	C158	0.205830	0.427270	0.098110
C1591	C159	0.210490	0.445630	0.108170
H981	H98	0.201900	0.457600	0.106600
C1601	C160	0.227980	0.446170	0.120620
H991	H99	0.232400	0.458900	0.126700
C1611	C161	0.239010	0.428290	0.124220
H1001	H100	0.250400	0.428800	0.133700
C1621	C162	0.148490	0.343420	0.969000
C1631	C163	0.164840	0.359330	0.016730
H1011	H101	0.164000	0.348800	0.006400
C1641	C164	0.181700	0.359230	0.029590
H1021	H102	0.191800	0.348500	0.028700
C1651	C165	0.183760	0.375050	0.043890
H1031	H103	0.195300	0.375500	0.053100
C1661	C166	0.168460	0.390460	0.044540
C1671	C167	0.151990	0.388850	0.031150
H1041	H104	0.141800	0.399500	0.031500
C1681	C168	0.169960	0.407930	0.059830
C1691	C169	0.154970	0.435220	0.075700
C1701	C170	0.187470	0.425260	0.084630
C1711	C171	0.137170	0.462360	0.096590
H1051	H105	0.149000	0.462600	0.105400
C1721	C172	0.137020	0.448230	0.079620
C1731	C173	0.119140	0.447240	0.067880
H1061	H106	0.118100	0.437700	0.056700
C1741	C174	0.102760	0.460190	0.072490
H1071	H107	0.090200	0.459600	0.064800
C1751	C175	0.105070	0.474130	0.088620
H1081	H108	0.094000	0.483600	0.091200
C1761	C176	0.174480	0.501100	0.121900
C1771	C177	0.112200	0.517530	0.167480
H1091	H109	0.102100	0.506800	0.166500
C1781	C178	0.112740	0.528940	0.184790
H1101	H110	0.102800	0.526700	0.195500
C1791	C179	0.128210	0.544390	0.187050
H1111	H111	0.129300	0.552400	0.199400
C1801	C180	0.141730	0.547440	0.170420
C1811	C181	0.139950	0.534790	0.153040
H1121	H112	0.149700	0.536600	0.142100
C1821	C182	0.157930	0.563230	0.171390
N611	N61	0.234390	0.409970	0.114900
N621	N62	0.136750	0.354650	0.976910
N631	N63	0.149320	0.373280	0.017570
N641	N64	0.186910	0.409430	0.070920
N651	N65	0.153420	0.420230	0.061420
N661	N66	0.172260	0.438490	0.087540
N671	N67	0.121730	0.475120	0.100740
N681	N68	0.125480	0.520330	0.150840
N691	N69	0.157030	0.498980	0.122930
N701	N70	0.172490	0.563130	0.156570
S131	S13	0.165650	0.327430	0.959830
S141	S14	0.200250	0.503590	0.120790
C1831	C183	0.218220	0.910100	0.601660
H1131	H113	0.215100	0.897600	0.594300
C1841	C184	0.205830	0.927270	0.598110
C1851	C185	0.210490	0.945630	0.608170
H1141	H114	0.201900	0.957600	0.606600
C1861	C186	0.227980	0.946170	0.620620
H1151	H115	0.232400	0.958900	0.626700
C1871	C187	0.239010	0.928290	0.624220
H1161	H116	0.250400	0.928800	0.633700
C1881	C188	0.148490	0.843420	0.469000
C1891	C189	0.164840	0.859330	0.516730
H1171	H117	0.164000	0.848800	0.506400
C1901	C190	0.181700	0.859230	0.529590
H1181	H118	0.191800	0.848500	0.528700
C1911	C191	0.183760	0.875050	0.543890
H1191	H119	0.195300	0.875500	0.553100
C1921	C192	0.168460	0.890460	0.544540
C1931	C193	0.151990	0.888850	0.531150
H1201	H120	0.141800	0.899500	0.531500
C1941	C194	0.169960	0.907930	0.559830
C1951	C195	0.154970	0.935220	0.575700
C1961	C196	0.187470	0.925260	0.584630
C1971	C197	0.137170	0.962360	0.596590
H1211	H121	0.149000	0.962600	0.605400
C1981	C198	0.137020	0.948230	0.579620
C1991	C199	0.119140	0.947240	0.567880
H1221	H122	0.118100	0.937700	0.556700
C2001	C200	0.102760	0.960190	0.572490
H1231	H123	0.090200	0.959600	0.564800
C2011	C201	0.105070	0.974130	0.588620
H1241	H124	0.094000	0.983600	0.591200
C2021	C202	0.174480	0.001100	0.621900
C2031	C203	0.112200	0.017530	0.667480
H1251	H125	0.102100	0.006800	0.666500
C2041	C204	0.112740	0.028940	0.684790
H1261	H126	0.102800	0.026700	0.695500
C2051	C205	0.128210	0.044390	0.687050
H1271	H127	0.129300	0.052400	0.699400
C2061	C206	0.141730	0.047440	0.670420
C2071	C207	0.139950	0.034790	0.653040
H1281	H128	0.149700	0.036600	0.642100
C2081	C208	0.157930	0.063230	0.671390
N711	N71	0.234390	0.909970	0.614900
N721	N72	0.136750	0.854650	0.476910
N731	N73	0.149320	0.873280	0.517570
N741	N74	0.186910	0.909430	0.570920
N751	N75	0.153420	0.920230	0.561420
N761	N76	0.172260	0.938490	0.587540
N771	N77	0.121730	0.975120	0.600740
N781	N78	0.125480	0.020330	0.650840
N791	N79	0.157030	0.998980	0.622930
N801	N80	0.172490	0.063130	0.656570
S151	S15	0.165650	0.827430	0.459830
S161	S16	0.200250	0.003590	0.620790
C2091	C209	0.218220	0.839900	0.148340
H1291	H129	0.215100	0.852400	0.155700
C2101	C210	0.205830	0.822730	0.151890
C2111	C211	0.210490	0.804370	0.141830
H1301	H130	0.201900	0.792400	0.143400
C2121	C212	0.227980	0.803830	0.129380
H1311	H131	0.232400	0.791100	0.123300
C2131	C213	0.239010	0.821710	0.125780
H1321	H132	0.250400	0.821200	0.116300
C2141	C214	0.148490	0.906580	0.281000
C2151	C215	0.164840	0.890670	0.233270
H1331	H133	0.164000	0.901200	0.243600
C2161	C216	0.181700	0.890770	0.220410
H1341	H134	0.191800	0.901500	0.221300
C2171	C217	0.183760	0.874950	0.206110
H1351	H135	0.195300	0.874500	0.196900
C2181	C218	0.168460	0.859540	0.205460
C2191	C219	0.151990	0.861150	0.218850
H1361	H136	0.141800	0.850500	0.218500
C2201	C220	0.169960	0.842070	0.190170
C2211	C221	0.154970	0.814780	0.174300
C2221	C222	0.187470	0.824740	0.165370
C2231	C223	0.137170	0.787640	0.153410
H1371	H137	0.149000	0.787400	0.144600
C2241	C224	0.137020	0.801770	0.170380
C2251	C225	0.119140	0.802760	0.182120
H1381	H138	0.118100	0.812300	0.193300
C2261	C226	0.102760	0.789810	0.177510
H1391	H139	0.090200	0.790400	0.185200
C2271	C227	0.105070	0.775870	0.161380
H1401	H140	0.094000	0.766400	0.158800
C2281	C228	0.174480	0.748900	0.128100
C2291	C229	0.112200	0.732470	0.082520
H1411	H141	0.102100	0.743200	0.083500
C2301	C230	0.112740	0.721060	0.065210
H1421	H142	0.102800	0.723300	0.054500
C2311	C231	0.128210	0.705610	0.062950
H1431	H143	0.129300	0.697600	0.050600
C2321	C232	0.141730	0.702560	0.079580
C2331	C233	0.139950	0.715210	0.096960
H1441	H144	0.149700	0.713400	0.107900
C2341	C234	0.157930	0.686770	0.078610
N811	N81	0.234390	0.840030	0.135100
N821	N82	0.136750	0.895350	0.273090
N831	N83	0.149320	0.876720	0.232430
N841	N84	0.186910	0.840570	0.179080
N851	N85	0.153420	0.829770	0.188580
N861	N86	0.172260	0.811510	0.162460
N871	N87	0.121730	0.774880	0.149260
N881	N88	0.125480	0.729670	0.099160
N891	N89	0.157030	0.751020	0.127070
N901	N90	0.172490	0.686870	0.093430
S171	S17	0.165650	0.922570	0.290170
S181	S18	0.200250	0.746410	0.129210
C2351	C235	0.218220	0.339900	0.648340
H1451	H145	0.215100	0.352400	0.655700
C2361	C236	0.205830	0.322730	0.651890
C2371	C237	0.210490	0.304370	0.641830
H1461	H146	0.201900	0.292400	0.643400
C2381	C238	0.227980	0.303830	0.629380
H1471	H147	0.232400	0.291100	0.623300
C2391	C239	0.239010	0.321710	0.625780
H1481	H148	0.250400	0.321200	0.616300
C2401	C240	0.148490	0.406580	0.781000
C2411	C241	0.164840	0.390670	0.733270
H1491	H149	0.164000	0.401200	0.743600
C2421	C242	0.181700	0.390770	0.720410
H1501	H150	0.191800	0.401500	0.721300
C2431	C243	0.183760	0.374950	0.706110
H1511	H151	0.195300	0.374500	0.696900
C2441	C244	0.168460	0.359540	0.705460
C2451	C245	0.151990	0.361150	0.718850
H1521	H152	0.141800	0.350500	0.718500
C2461	C246	0.169960	0.342070	0.690170
C2471	C247	0.154970	0.314780	0.674300
C2481	C248	0.187470	0.324740	0.665370
C2491	C249	0.137170	0.287640	0.653410
H1531	H153	0.149000	0.287400	0.644600
C2501	C250	0.137020	0.301770	0.670380
C2511	C251	0.119140	0.302760	0.682120
H1541	H154	0.118100	0.312300	0.693300
C2521	C252	0.102760	0.289810	0.677510
H1551	H155	0.090200	0.290400	0.685200
C2531	C253	0.105070	0.275870	0.661380
H1561	H156	0.094000	0.266400	0.658800
C2541	C254	0.174480	0.248900	0.628100
C2551	C255	0.112200	0.232470	0.582520
H1571	H157	0.102100	0.243200	0.583500
C2561	C256	0.112740	0.221060	0.565210
H1581	H158	0.102800	0.223300	0.554500
C2571	C257	0.128210	0.205610	0.562950
H1591	H159	0.129300	0.197600	0.550600
C2581	C258	0.141730	0.202560	0.579580
C2591	C259	0.139950	0.215210	0.596960
H1601	H160	0.149700	0.213400	0.607900
C2601	C260	0.157930	0.186770	0.578610
N911	N91	0.234390	0.340030	0.635100
N921	N92	0.136750	0.395350	0.773090
N931	N93	0.149320	0.376720	0.732430
N941	N94	0.186910	0.340570	0.679080
N951	N95	0.153420	0.329770	0.688580
N961	N96	0.172260	0.311510	0.662460
N971	N97	0.121730	0.274880	0.649260
N981	N98	0.125480	0.229670	0.599160
N991	N99	0.157030	0.251020	0.627070
N1001	N100	0.172490	0.186870	0.593430
S191	S19	0.165650	0.422570	0.790170
S201	S20	0.200250	0.246410	0.629210
C2611	C261	0.718220	0.839900	0.648340
H1611	H161	0.715100	0.852400	0.655700
C2621	C262	0.705830	0.822730	0.651890
C2631	C263	0.710490	0.804370	0.641830
H1621	H162	0.701900	0.792400	0.643400
C2641	C264	0.727980	0.803830	0.629380
H1631	H163	0.732400	0.791100	0.623300
C2651	C265	0.739010	0.821710	0.625780
H1641	H164	0.750400	0.821200	0.616300
C2661	C266	0.648490	0.906580	0.781000
C2671	C267	0.664840	0.890670	0.733270
H1651	H165	0.664000	0.901200	0.743600
C2681	C268	0.681700	0.890770	0.720410
H1661	H166	0.691800	0.901500	0.721300
C2691	C269	0.683760	0.874950	0.706110
H1671	H167	0.695300	0.874500	0.696900
C2701	C270	0.668460	0.859540	0.705460
C2711	C271	0.651990	0.861150	0.718850
H1681	H168	0.641800	0.850500	0.718500
C2721	C272	0.669960	0.842070	0.690170
C2731	C273	0.654970	0.814780	0.674300
C2741	C274	0.687470	0.824740	0.665370
C2751	C275	0.637170	0.787640	0.653410
H1691	H169	0.649000	0.787400	0.644600
C2761	C276	0.637020	0.801770	0.670380
C2771	C277	0.619140	0.802760	0.682120
H1701	H170	0.618100	0.812300	0.693300
C2781	C278	0.602760	0.789810	0.677510
H1711	H171	0.590200	0.790400	0.685200
C2791	C279	0.605070	0.775870	0.661380
H1721	H172	0.594000	0.766400	0.658800
C2801	C280	0.674480	0.748900	0.628100
C2811	C281	0.612200	0.732470	0.582520
H1731	H173	0.602100	0.743200	0.583500
C2821	C282	0.612740	0.721060	0.565210
H1741	H174	0.602800	0.723300	0.554500
C2831	C283	0.628210	0.705610	0.562950
H1751	H175	0.629300	0.697600	0.550600
C2841	C284	0.641730	0.702560	0.579580
C2851	C285	0.639950	0.715210	0.596960
H1761	H176	0.649700	0.713400	0.607900
C2861	C286	0.657930	0.686770	0.578610
N1011	N101	0.734390	0.840030	0.635100
N1021	N102	0.636750	0.895350	0.773090
N1031	N103	0.649320	0.876720	0.732430
N1041	N104	0.686910	0.840570	0.679080
N1051	N105	0.653420	0.829770	0.688580
N1061	N106	0.672260	0.811510	0.662460
N1071	N107	0.621730	0.774880	0.649260
N1081	N108	0.625480	0.729670	0.599160
N1091	N109	0.657030	0.751020	0.627070
N1101	N110	0.672490	0.686870	0.593430
S211	S21	0.665650	0.922570	0.790170
S221	S22	0.700250	0.746410	0.629210
C2871	C287	0.718220	0.339900	0.148340
H1771	H177	0.715100	0.352400	0.155700
C2881	C288	0.705830	0.322730	0.151890
C2891	C289	0.710490	0.304370	0.141830
H1781	H178	0.701900	0.292400	0.143400
C2901	C290	0.727980	0.303830	0.129380
H1791	H179	0.732400	0.291100	0.123300
C2911	C291	0.739010	0.321710	0.125780
H1801	H180	0.750400	0.321200	0.116300
C2921	C292	0.648490	0.406580	0.281000
C2931	C293	0.664840	0.390670	0.233270
H1811	H181	0.664000	0.401200	0.243600
C2941	C294	0.681700	0.390770	0.220410
H1821	H182	0.691800	0.401500	0.221300
C2951	C295	0.683760	0.374950	0.206110
H1831	H183	0.695300	0.374500	0.196900
C2961	C296	0.668460	0.359540	0.205460
C2971	C297	0.651990	0.361150	0.218850
H1841	H184	0.641800	0.350500	0.218500
C2981	C298	0.669960	0.342070	0.190170
C2991	C299	0.654970	0.314780	0.174300
C3001	C300	0.687470	0.324740	0.165370
C3011	C301	0.637170	0.287640	0.153410
H1851	H185	0.649000	0.287400	0.144600
C3021	C302	0.637020	0.301770	0.170380
C3031	C303	0.619140	0.302760	0.182120
H1861	H186	0.618100	0.312300	0.193300
C3041	C304	0.602760	0.289810	0.177510
H1871	H187	0.590200	0.290400	0.185200
C3051	C305	0.605070	0.275870	0.161380
H1881	H188	0.594000	0.266400	0.158800
C3061	C306	0.674480	0.248900	0.128100
C3071	C307	0.612200	0.232470	0.082520
H1891	H189	0.602100	0.243200	0.083500
C3081	C308	0.612740	0.221060	0.065210
H1901	H190	0.602800	0.223300	0.054500
C3091	C309	0.628210	0.205610	0.062950
H1911	H191	0.629300	0.197600	0.050600
C3101	C310	0.641730	0.202560	0.079580
C3111	C311	0.639950	0.215210	0.096960
H1921	H192	0.649700	0.213400	0.107900
C3121	C312	0.657930	0.186770	0.078610
N1111	N111	0.734390	0.340030	0.135100
N1121	N112	0.636750	0.395350	0.273090
N1131	N113	0.649320	0.376720	0.232430
N1141	N114	0.686910	0.340570	0.179080
N1151	N115	0.653420	0.329770	0.188580
N1161	N116	0.672260	0.311510	0.162460
N1171	N117	0.621730	0.274880	0.149260
N1181	N118	0.625480	0.229670	0.099160
N1191	N119	0.657030	0.251020	0.127070
N1201	N120	0.672490	0.186870	0.093430
S231	S23	0.665650	0.422570	0.290170
S241	S24	0.700250	0.246410	0.129210
C3131	C313	0.031780	0.910100	0.648340
H1931	H193	0.034900	0.897600	0.655700
C3141	C314	0.044170	0.927270	0.651890
C3151	C315	0.039510	0.945630	0.641830
H1941	H194	0.048100	0.957600	0.643400
C3161	C316	0.022020	0.946170	0.629380
H1951	H195	0.017600	0.958900	0.623300
C3171	C317	0.010990	0.928290	0.625780
H1961	H196	0.999600	0.928800	0.616300
C3181	C318	0.101510	0.843420	0.781000
C3191	C319	0.085160	0.859330	0.733270
H1971	H197	0.086000	0.848800	0.743600
C3201	C320	0.068300	0.859230	0.720410
H1981	H198	0.058200	0.848500	0.721300
C3211	C321	0.066240	0.875050	0.706110
H1991	H199	0.054700	0.875500	0.696900
C3221	C322	0.081540	0.890460	0.705460
C3231	C323	0.098010	0.888850	0.718850
H2001	H200	0.108200	0.899500	0.718500
C3241	C324	0.080040	0.907930	0.690170
C3251	C325	0.095030	0.935220	0.674300
C3261	C326	0.062530	0.925260	0.665370
C3271	C327	0.112830	0.962360	0.653410
H2011	H201	0.101000	0.962600	0.644600
C3281	C328	0.112980	0.948230	0.670380
C3291	C329	0.130860	0.947240	0.682120
H2021	H202	0.131900	0.937700	0.693300
C3301	C330	0.147240	0.960190	0.677510
H2031	H203	0.159800	0.959600	0.685200
C3311	C331	0.144930	0.974130	0.661380
H2041	H204	0.156000	0.983600	0.658800
C3321	C332	0.075520	0.001100	0.628100
C3331	C333	0.137800	0.017530	0.582520
H2051	H205	0.147900	0.006800	0.583500
C3341	C334	0.137260	0.028940	0.565210
H2061	H206	0.147200	0.026700	0.554500
C3351	C335	0.121790	0.044390	0.562950
H2071	H207	0.120700	0.052400	0.550600
C3361	C336	0.108270	0.047440	0.579580
C3371	C337	0.110050	0.034790	0.596960
H2081	H208	0.100300	0.036600	0.607900
C3381	C338	0.092070	0.063230	0.578610
N1211	N121	0.015610	0.909970	0.635100
N1221	N122	0.113250	0.854650	0.773090
N1231	N123	0.100680	0.873280	0.732430
N1241	N124	0.063090	0.909430	0.679080
N1251	N125	0.096580	0.920230	0.688580
N1261	N126	0.077740	0.938490	0.662460
N1271	N127	0.128270	0.975120	0.649260
N1281	N128	0.124520	0.020330	0.599160
N1291	N129	0.092970	0.998980	0.627070
N1301	N130	0.077510	0.063130	0.593430
S251	S25	0.084350	0.827430	0.790170
S261	S26	0.049750	0.003590	0.629210
C3391	C339	0.031780	0.410100	0.148340
H2091	H209	0.034900	0.397600	0.155700
C3401	C340	0.044170	0.427270	0.151890
C3411	C341	0.039510	0.445630	0.141830
H2101	H210	0.048100	0.457600	0.143400
C3421	C342	0.022020	0.446170	0.129380
H2111	H211	0.017600	0.458900	0.123300
C3431	C343	0.010990	0.428290	0.125780
H2121	H212	0.999600	0.428800	0.116300
C3441	C344	0.101510	0.343420	0.281000
C3451	C345	0.085160	0.359330	0.233270
H2131	H213	0.086000	0.348800	0.243600
C3461	C346	0.068300	0.359230	0.220410
H2141	H214	0.058200	0.348500	0.221300
C3471	C347	0.066240	0.375050	0.206110
H2151	H215	0.054700	0.375500	0.196900
C3481	C348	0.081540	0.390460	0.205460
C3491	C349	0.098010	0.388850	0.218850
H2161	H216	0.108200	0.399500	0.218500
C3501	C350	0.080040	0.407930	0.190170
C3511	C351	0.095030	0.435220	0.174300
C3521	C352	0.062530	0.425260	0.165370
C3531	C353	0.112830	0.462360	0.153410
H2171	H217	0.101000	0.462600	0.144600
C3541	C354	0.112980	0.448230	0.170380
C3551	C355	0.130860	0.447240	0.182120
H2181	H218	0.131900	0.437700	0.193300
C3561	C356	0.147240	0.460190	0.177510
H2191	H219	0.159800	0.459600	0.185200
C3571	C357	0.144930	0.474130	0.161380
H2201	H220	0.156000	0.483600	0.158800
C3581	C358	0.075520	0.501100	0.128100
C3591	C359	0.137800	0.517530	0.082520
H2211	H221	0.147900	0.506800	0.083500
C3601	C360	0.137260	0.528940	0.065210
H2221	H222	0.147200	0.526700	0.054500
C3611	C361	0.121790	0.544390	0.062950
H2231	H223	0.120700	0.552400	0.050600
C3621	C362	0.108270	0.547440	0.079580
C3631	C363	0.110050	0.534790	0.096960
H2241	H224	0.100300	0.536600	0.107900
C3641	C364	0.092070	0.563230	0.078610
N1311	N131	0.015610	0.409970	0.135100
N1321	N132	0.113250	0.354650	0.273090
N1331	N133	0.100680	0.373280	0.232430
N1341	N134	0.063090	0.409430	0.179080
N1351	N135	0.096580	0.420230	0.188580
N1361	N136	0.077740	0.438490	0.162460
N1371	N137	0.128270	0.475120	0.149260
N1381	N138	0.124520	0.520330	0.099160
N1391	N139	0.092970	0.498980	0.127070
N1401	N140	0.077510	0.563130	0.093430
S271	S27	0.084350	0.327430	0.290170
S281	S28	0.049750	0.503590	0.129210
C3651	C365	0.531780	0.910100	0.148340
H2251	H225	0.534900	0.897600	0.155700
C3661	C366	0.544170	0.927270	0.151890
C3671	C367	0.539510	0.945630	0.141830
H2261	H226	0.548100	0.957600	0.143400
C3681	C368	0.522020	0.946170	0.129380
H2271	H227	0.517600	0.958900	0.123300
C3691	C369	0.510990	0.928290	0.125780
H2281	H228	0.499600	0.928800	0.116300
C3701	C370	0.601510	0.843420	0.281000
C3711	C371	0.585160	0.859330	0.233270
H2291	H229	0.586000	0.848800	0.243600
C3721	C372	0.568300	0.859230	0.220410
H2301	H230	0.558200	0.848500	0.221300
C3731	C373	0.566240	0.875050	0.206110
H2311	H231	0.554700	0.875500	0.196900
C3741	C374	0.581540	0.890460	0.205460
C3751	C375	0.598010	0.888850	0.218850
H2321	H232	0.608200	0.899500	0.218500
C3761	C376	0.580040	0.907930	0.190170
C3771	C377	0.595030	0.935220	0.174300
C3781	C378	0.562530	0.925260	0.165370
C3791	C379	0.612830	0.962360	0.153410
H2331	H233	0.601000	0.962600	0.144600
C3801	C380	0.612980	0.948230	0.170380
C3811	C381	0.630860	0.947240	0.182120
H2341	H234	0.631900	0.937700	0.193300
C3821	C382	0.647240	0.960190	0.177510
H2351	H235	0.659800	0.959600	0.185200
C3831	C383	0.644930	0.974130	0.161380
H2361	H236	0.656000	0.983600	0.158800
C3841	C384	0.575520	0.001100	0.128100
C3851	C385	0.637800	0.017530	0.082520
H2371	H237	0.647900	0.006800	0.083500
C3861	C386	0.637260	0.028940	0.065210
H2381	H238	0.647200	0.026700	0.054500
C3871	C387	0.621790	0.044390	0.062950
H2391	H239	0.620700	0.052400	0.050600
C3881	C388	0.608270	0.047440	0.079580
C3891	C389	0.610050	0.034790	0.096960
H2401	H240	0.600300	0.036600	0.107900
C3901	C390	0.592070	0.063230	0.078610
N1411	N141	0.515610	0.909970	0.135100
N1421	N142	0.613250	0.854650	0.273090
N1431	N143	0.600680	0.873280	0.232430
N1441	N144	0.563090	0.909430	0.179080
N1451	N145	0.596580	0.920230	0.188580
N1461	N146	0.577740	0.938490	0.162460
N1471	N147	0.628270	0.975120	0.149260
N1481	N148	0.624520	0.020330	0.099160
N1491	N149	0.592970	0.998980	0.127070
N1501	N150	0.577510	0.063130	0.093430
S291	S29	0.584350	0.827430	0.290170
S301	S30	0.549750	0.003590	0.129210
C3911	C391	0.531780	0.410100	0.648340
H2411	H241	0.534900	0.397600	0.655700
C3921	C392	0.544170	0.427270	0.651890
C3931	C393	0.539510	0.445630	0.641830
H2421	H242	0.548100	0.457600	0.643400
C3941	C394	0.522020	0.446170	0.629380
H2431	H243	0.517600	0.458900	0.623300
C3951	C395	0.510990	0.428290	0.625780
H2441	H244	0.499600	0.428800	0.616300
C3961	C396	0.601510	0.343420	0.781000
C3971	C397	0.585160	0.359330	0.733270
H2451	H245	0.586000	0.348800	0.743600
C3981	C398	0.568300	0.359230	0.720410
H2461	H246	0.558200	0.348500	0.721300
C3991	C399	0.566240	0.375050	0.706110
H2471	H247	0.554700	0.375500	0.696900
C4001	C400	0.581540	0.390460	0.705460
C4011	C401	0.598010	0.388850	0.718850
H2481	H248	0.608200	0.399500	0.718500
C4021	C402	0.580040	0.407930	0.690170
C4031	C403	0.595030	0.435220	0.674300
C4041	C404	0.562530	0.425260	0.665370
C4051	C405	0.612830	0.462360	0.653410
H2491	H249	0.601000	0.462600	0.644600
C4061	C406	0.612980	0.448230	0.670380
C4071	C407	0.630860	0.447240	0.682120
H2501	H250	0.631900	0.437700	0.693300
C4081	C408	0.647240	0.460190	0.677510
H2511	H251	0.659800	0.459600	0.685200
C4091	C409	0.644930	0.474130	0.661380
H2521	H252	0.656000	0.483600	0.658800
C4101	C410	0.575520	0.501100	0.628100
C4111	C411	0.637800	0.517530	0.582520
H2531	H253	0.647900	0.506800	0.583500
C4121	C412	0.637260	0.528940	0.565210
H2541	H254	0.647200	0.526700	0.554500
C4131	C413	0.621790	0.544390	0.562950
H2551	H255	0.620700	0.552400	0.550600
C4141	C414	0.608270	0.547440	0.579580
C4151	C415	0.610050	0.534790	0.596960
H2561	H256	0.600300	0.536600	0.607900
C4161	C416	0.592070	0.563230	0.578610
N1511	N151	0.515610	0.409970	0.635100
N1521	N152	0.613250	0.354650	0.773090
N1531	N153	0.600680	0.373280	0.732430
N1541	N154	0.563090	0.409430	0.679080
N1551	N155	0.596580	0.420230	0.688580
N1561	N156	0.577740	0.438490	0.662460
N1571	N157	0.628270	0.475120	0.649260
N1581	N158	0.624520	0.520330	0.599160
N1591	N159	0.592970	0.498980	0.627070
N1601	N160	0.577510	0.563130	0.593430
S311	S31	0.584350	0.327430	0.790170
S321	S32	0.549750	0.503590	0.629210
C4171	C417	0.101660	0.531780	0.339900
H2571	H257	0.094300	0.534900	0.352400
C4181	C418	0.098110	0.544170	0.322730
C4191	C419	0.108170	0.539510	0.304370
H2581	H258	0.106600	0.548100	0.292400
C4201	C420	0.120620	0.522020	0.303830
H2591	H259	0.126700	0.517600	0.291100
C4211	C421	0.124220	0.510990	0.321710
H2601	H260	0.133700	0.499600	0.321200
C4221	C422	0.969000	0.601510	0.406580
C4231	C423	0.016730	0.585160	0.390670
H2611	H261	0.006400	0.586000	0.401200
C4241	C424	0.029590	0.568300	0.390770
H2621	H262	0.028700	0.558200	0.401500
C4251	C425	0.043890	0.566240	0.374950
H2631	H263	0.053100	0.554700	0.374500
C4261	C426	0.044540	0.581540	0.359540
C4271	C427	0.031150	0.598010	0.361150
H2641	H264	0.031500	0.608200	0.350500
C4281	C428	0.059830	0.580040	0.342070
C4291	C429	0.075700	0.595030	0.314780
C4301	C430	0.084630	0.562530	0.324740
C4311	C431	0.096590	0.612830	0.287640
H2651	H265	0.105400	0.601000	0.287400
C4321	C432	0.079620	0.612980	0.301770
C4331	C433	0.067880	0.630860	0.302760
H2661	H266	0.056700	0.631900	0.312300
C4341	C434	0.072490	0.647240	0.289810
H2671	H267	0.064800	0.659800	0.290400
C4351	C435	0.088620	0.644930	0.275870
H2681	H268	0.091200	0.656000	0.266400
C4361	C436	0.121900	0.575520	0.248900
C4371	C437	0.167480	0.637800	0.232470
H2691	H269	0.166500	0.647900	0.243200
C4381	C438	0.184790	0.637260	0.221060
H2701	H270	0.195500	0.647200	0.223300
C4391	C439	0.187050	0.621790	0.205610
H2711	H271	0.199400	0.620700	0.197600
C4401	C440	0.170420	0.608270	0.202560
C4411	C441	0.153040	0.610050	0.215210
H2721	H272	0.142100	0.600300	0.213400
C4421	C442	0.171390	0.592070	0.186770
N1611	N161	0.114900	0.515610	0.340030
N1621	N162	0.976910	0.613250	0.395350
N1631	N163	0.017570	0.600680	0.376720
N1641	N164	0.070920	0.563090	0.340570
N1651	N165	0.061420	0.596580	0.329770
N1661	N166	0.087540	0.577740	0.311510
N1671	N167	0.100740	0.628270	0.274880
N1681	N168	0.150840	0.624520	0.229670
N1691	N169	0.122930	0.592970	0.251020
N1701	N170	0.156570	0.577510	0.186870
S331	S33	0.959830	0.584350	0.422570
S341	S34	0.120790	0.549750	0.246410
C4431	C443	0.101660	0.031780	0.839900
H2731	H273	0.094300	0.034900	0.852400
C4441	C444	0.098110	0.044170	0.822730
C4451	C445	0.108170	0.039510	0.804370
H2741	H274	0.106600	0.048100	0.792400
C4461	C446	0.120620	0.022020	0.803830
H2751	H275	0.126700	0.017600	0.791100
C4471	C447	0.124220	0.010990	0.821710
H2761	H276	0.133700	0.999600	0.821200
C4481	C448	0.969000	0.101510	0.906580
C4491	C449	0.016730	0.085160	0.890670
H2771	H277	0.006400	0.086000	0.901200
C4501	C450	0.029590	0.068300	0.890770
H2781	H278	0.028700	0.058200	0.901500
C4511	C451	0.043890	0.066240	0.874950
H2791	H279	0.053100	0.054700	0.874500
C4521	C452	0.044540	0.081540	0.859540
C4531	C453	0.031150	0.098010	0.861150
H2801	H280	0.031500	0.108200	0.850500
C4541	C454	0.059830	0.080040	0.842070
C4551	C455	0.075700	0.095030	0.814780
C4561	C456	0.084630	0.062530	0.824740
C4571	C457	0.096590	0.112830	0.787640
H2811	H281	0.105400	0.101000	0.787400
C4581	C458	0.079620	0.112980	0.801770
C4591	C459	0.067880	0.130860	0.802760
H2821	H282	0.056700	0.131900	0.812300
C4601	C460	0.072490	0.147240	0.789810
H2831	H283	0.064800	0.159800	0.790400
C4611	C461	0.088620	0.144930	0.775870
H2841	H284	0.091200	0.156000	0.766400
C4621	C462	0.121900	0.075520	0.748900
C4631	C463	0.167480	0.137800	0.732470
H2851	H285	0.166500	0.147900	0.743200
C4641	C464	0.184790	0.137260	0.721060
H2861	H286	0.195500	0.147200	0.723300
C4651	C465	0.187050	0.121790	0.705610
H2871	H287	0.199400	0.120700	0.697600
C4661	C466	0.170420	0.108270	0.702560
C4671	C467	0.153040	0.110050	0.715210
H2881	H288	0.142100	0.100300	0.713400
C4681	C468	0.171390	0.092070	0.686770
N1711	N171	0.114900	0.015610	0.840030
N1721	N172	0.976910	0.113250	0.895350
N1731	N173	0.017570	0.100680	0.876720
N1741	N174	0.070920	0.063090	0.840570
N1751	N175	0.061420	0.096580	0.829770
N1761	N176	0.087540	0.077740	0.811510
N1771	N177	0.100740	0.128270	0.774880
N1781	N178	0.150840	0.124520	0.729670
N1791	N179	0.122930	0.092970	0.751020
N1801	N180	0.156570	0.077510	0.686870
S351	S35	0.959830	0.084350	0.922570
S361	S36	0.120790	0.049750	0.746410
C4691	C469	0.601660	0.531780	0.839900
H2891	H289	0.594300	0.534900	0.852400
C4701	C470	0.598110	0.544170	0.822730
C4711	C471	0.608170	0.539510	0.804370
H2901	H290	0.606600	0.548100	0.792400
C4721	C472	0.620620	0.522020	0.803830
H2911	H291	0.626700	0.517600	0.791100
C4731	C473	0.624220	0.510990	0.821710
H2921	H292	0.633700	0.499600	0.821200
C4741	C474	0.469000	0.601510	0.906580
C4751	C475	0.516730	0.585160	0.890670
H2931	H293	0.506400	0.586000	0.901200
C4761	C476	0.529590	0.568300	0.890770
H2941	H294	0.528700	0.558200	0.901500
C4771	C477	0.543890	0.566240	0.874950
H2951	H295	0.553100	0.554700	0.874500
C4781	C478	0.544540	0.581540	0.859540
C4791	C479	0.531150	0.598010	0.861150
H2961	H296	0.531500	0.608200	0.850500
C4801	C480	0.559830	0.580040	0.842070
C4811	C481	0.575700	0.595030	0.814780
C4821	C482	0.584630	0.562530	0.824740
C4831	C483	0.596590	0.612830	0.787640
H2971	H297	0.605400	0.601000	0.787400
C4841	C484	0.579620	0.612980	0.801770
C4851	C485	0.567880	0.630860	0.802760
H2981	H298	0.556700	0.631900	0.812300
C4861	C486	0.572490	0.647240	0.789810
H2991	H299	0.564800	0.659800	0.790400
C4871	C487	0.588620	0.644930	0.775870
H3001	H300	0.591200	0.656000	0.766400
C4881	C488	0.621900	0.575520	0.748900
C4891	C489	0.667480	0.637800	0.732470
H3011	H301	0.666500	0.647900	0.743200
C4901	C490	0.684790	0.637260	0.721060
H3021	H302	0.695500	0.647200	0.723300
C4911	C491	0.687050	0.621790	0.705610
H3031	H303	0.699400	0.620700	0.697600
C4921	C492	0.670420	0.608270	0.702560
C4931	C493	0.653040	0.610050	0.715210
H3041	H304	0.642100	0.600300	0.713400
C4941	C494	0.671390	0.592070	0.686770
N1811	N181	0.614900	0.515610	0.840030
N1821	N182	0.476910	0.613250	0.895350
N1831	N183	0.517570	0.600680	0.876720
N1841	N184	0.570920	0.563090	0.840570
N1851	N185	0.561420	0.596580	0.829770
N1861	N186	0.587540	0.577740	0.811510
N1871	N187	0.600740	0.628270	0.774880
N1881	N188	0.650840	0.624520	0.729670
N1891	N189	0.622930	0.592970	0.751020
N1901	N190	0.656570	0.577510	0.686870
S371	S37	0.459830	0.584350	0.922570
S381	S38	0.620790	0.549750	0.746410
C4951	C495	0.601660	0.031780	0.339900
H3051	H305	0.594300	0.034900	0.352400
C4961	C496	0.598110	0.044170	0.322730
C4971	C497	0.608170	0.039510	0.304370
H3061	H306	0.606600	0.048100	0.292400
C4981	C498	0.620620	0.022020	0.303830
H3071	H307	0.626700	0.017600	0.291100
C4991	C499	0.624220	0.010990	0.321710
H3081	H308	0.633700	0.999600	0.321200
C5001	C500	0.469000	0.101510	0.406580
C5011	C501	0.516730	0.085160	0.390670
H3091	H309	0.506400	0.086000	0.401200
C5021	C502	0.529590	0.068300	0.390770
H3101	H310	0.528700	0.058200	0.401500
C5031	C503	0.543890	0.066240	0.374950
H3111	H311	0.553100	0.054700	0.374500
C5041	C504	0.544540	0.081540	0.359540
C5051	C505	0.531150	0.098010	0.361150
H3121	H312	0.531500	0.108200	0.350500
C5061	C506	0.559830	0.080040	0.342070
C5071	C507	0.575700	0.095030	0.314780
C5081	C508	0.584630	0.062530	0.324740
C5091	C509	0.596590	0.112830	0.287640
H3131	H313	0.605400	0.101000	0.287400
C5101	C510	0.579620	0.112980	0.301770
C5111	C511	0.567880	0.130860	0.302760
H3141	H314	0.556700	0.131900	0.312300
C5121	C512	0.572490	0.147240	0.289810
H3151	H315	0.564800	0.159800	0.290400
C5131	C513	0.588620	0.144930	0.275870
H3161	H316	0.591200	0.156000	0.266400
C5141	C514	0.621900	0.075520	0.248900
C5151	C515	0.667480	0.137800	0.232470
H3171	H317	0.666500	0.147900	0.243200
C5161	C516	0.684790	0.137260	0.221060
H3181	H318	0.695500	0.147200	0.223300
C5171	C517	0.687050	0.121790	0.205610
H3191	H319	0.699400	0.120700	0.197600
C5181	C518	0.670420	0.108270	0.202560
C5191	C519	0.653040	0.110050	0.215210
H3201	H320	0.642100	0.100300	0.213400
C5201	C520	0.671390	0.092070	0.186770
N1911	N191	0.614900	0.015610	0.340030
N1921	N192	0.476910	0.113250	0.395350
N1931	N193	0.517570	0.100680	0.376720
N1941	N194	0.570920	0.063090	0.340570
N1951	N195	0.561420	0.096580	0.329770
N1961	N196	0.587540	0.077740	0.311510
N1971	N197	0.600740	0.128270	0.274880
N1981	N198	0.650840	0.124520	0.229670
N1991	N199	0.622930	0.092970	0.251020
N2001	N200	0.656570	0.077510	0.186870
S391	S39	0.459830	0.084350	0.422570
S401	S40	0.620790	0.049750	0.246410
C5211	C521	0.601660	0.718220	0.410100
H3211	H321	0.594300	0.715100	0.397600
C5221	C522	0.598110	0.705830	0.427270
C5231	C523	0.608170	0.710490	0.445630
H3221	H322	0.606600	0.701900	0.457600
C5241	C524	0.620620	0.727980	0.446170
H3231	H323	0.626700	0.732400	0.458900
C5251	C525	0.624220	0.739010	0.428290
H3241	H324	0.633700	0.750400	0.428800
C5261	C526	0.469000	0.648490	0.343420
C5271	C527	0.516730	0.664840	0.359330
H3251	H325	0.506400	0.664000	0.348800
C5281	C528	0.529590	0.681700	0.359230
H3261	H326	0.528700	0.691800	0.348500
C5291	C529	0.543890	0.683760	0.375050
H3271	H327	0.553100	0.695300	0.375500
C5301	C530	0.544540	0.668460	0.390460
C5311	C531	0.531150	0.651990	0.388850
H3281	H328	0.531500	0.641800	0.399500
C5321	C532	0.559830	0.669960	0.407930
C5331	C533	0.575700	0.654970	0.435220
C5341	C534	0.584630	0.687470	0.425260
C5351	C535	0.596590	0.637170	0.462360
H3291	H329	0.605400	0.649000	0.462600
C5361	C536	0.579620	0.637020	0.448230
C5371	C537	0.567880	0.619140	0.447240
H3301	H330	0.556700	0.618100	0.437700
C5381	C538	0.572490	0.602760	0.460190
H3311	H331	0.564800	0.590200	0.459600
C5391	C539	0.588620	0.605070	0.474130
H3321	H332	0.591200	0.594000	0.483600
C5401	C540	0.621900	0.674480	0.501100
C5411	C541	0.667480	0.612200	0.517530
H3331	H333	0.666500	0.602100	0.506800
C5421	C542	0.684790	0.612740	0.528940
H3341	H334	0.695500	0.602800	0.526700
C5431	C543	0.687050	0.628210	0.544390
H3351	H335	0.699400	0.629300	0.552400
C5441	C544	0.670420	0.641730	0.547440
C5451	C545	0.653040	0.639950	0.534790
H3361	H336	0.642100	0.649700	0.536600
C5461	C546	0.671390	0.657930	0.563230
N2011	N201	0.614900	0.734390	0.409970
N2021	N202	0.476910	0.636750	0.354650
N2031	N203	0.517570	0.649320	0.373280
N2041	N204	0.570920	0.686910	0.409430
N2051	N205	0.561420	0.653420	0.420230
N2061	N206	0.587540	0.672260	0.438490
N2071	N207	0.600740	0.621730	0.475120
N2081	N208	0.650840	0.625480	0.520330
N2091	N209	0.622930	0.657030	0.498980
N2101	N210	0.656570	0.672490	0.563130
S411	S41	0.459830	0.665650	0.327430
S421	S42	0.620790	0.700250	0.503590
C5471	C547	0.601660	0.218220	0.910100
H3371	H337	0.594300	0.215100	0.897600
C5481	C548	0.598110	0.205830	0.927270
C5491	C549	0.608170	0.210490	0.945630
H3381	H338	0.606600	0.201900	0.957600
C5501	C550	0.620620	0.227980	0.946170
H3391	H339	0.626700	0.232400	0.958900
C5511	C551	0.624220	0.239010	0.928290
H3401	H340	0.633700	0.250400	0.928800
C5521	C552	0.469000	0.148490	0.843420
C5531	C553	0.516730	0.164840	0.859330
H3411	H341	0.506400	0.164000	0.848800
C5541	C554	0.529590	0.181700	0.859230
H3421	H342	0.528700	0.191800	0.848500
C5551	C555	0.543890	0.183760	0.875050
H3431	H343	0.553100	0.195300	0.875500
C5561	C556	0.544540	0.168460	0.890460
C5571	C557	0.531150	0.151990	0.888850
H3441	H344	0.531500	0.141800	0.899500
C5581	C558	0.559830	0.169960	0.907930
C5591	C559	0.575700	0.154970	0.935220
C5601	C560	0.584630	0.187470	0.925260
C5611	C561	0.596590	0.137170	0.962360
H3451	H345	0.605400	0.149000	0.962600
C5621	C562	0.579620	0.137020	0.948230
C5631	C563	0.567880	0.119140	0.947240
H3461	H346	0.556700	0.118100	0.937700
C5641	C564	0.572490	0.102760	0.960190
H3471	H347	0.564800	0.090200	0.959600
C5651	C565	0.588620	0.105070	0.974130
H3481	H348	0.591200	0.094000	0.983600
C5661	C566	0.621900	0.174480	0.001100
C5671	C567	0.667480	0.112200	0.017530
H3491	H349	0.666500	0.102100	0.006800
C5681	C568	0.684790	0.112740	0.028940
H3501	H350	0.695500	0.102800	0.026700
C5691	C569	0.687050	0.128210	0.044390
H3511	H351	0.699400	0.129300	0.052400
C5701	C570	0.670420	0.141730	0.047440
C5711	C571	0.653040	0.139950	0.034790
H3521	H352	0.642100	0.149700	0.036600
C5721	C572	0.671390	0.157930	0.063230
N2111	N211	0.614900	0.234390	0.909970
N2121	N212	0.476910	0.136750	0.854650
N2131	N213	0.517570	0.149320	0.873280
N2141	N214	0.570920	0.186910	0.909430
N2151	N215	0.561420	0.153420	0.920230
N2161	N216	0.587540	0.172260	0.938490
N2171	N217	0.600740	0.121730	0.975120
N2181	N218	0.650840	0.125480	0.020330
N2191	N219	0.622930	0.157030	0.998980
N2201	N220	0.656570	0.172490	0.063130
S431	S43	0.459830	0.165650	0.827430
S441	S44	0.620790	0.200250	0.003590
C5731	C573	0.101660	0.718220	0.910100
H3531	H353	0.094300	0.715100	0.897600
C5741	C574	0.098110	0.705830	0.927270
C5751	C575	0.108170	0.710490	0.945630
H3541	H354	0.106600	0.701900	0.957600
C5761	C576	0.120620	0.727980	0.946170
H3551	H355	0.126700	0.732400	0.958900
C5771	C577	0.124220	0.739010	0.928290
H3561	H356	0.133700	0.750400	0.928800
C5781	C578	0.969000	0.648490	0.843420
C5791	C579	0.016730	0.664840	0.859330
H3571	H357	0.006400	0.664000	0.848800
C5801	C580	0.029590	0.681700	0.859230
H3581	H358	0.028700	0.691800	0.848500
C5811	C581	0.043890	0.683760	0.875050
H3591	H359	0.053100	0.695300	0.875500
C5821	C582	0.044540	0.668460	0.890460
C5831	C583	0.031150	0.651990	0.888850
H3601	H360	0.031500	0.641800	0.899500
C5841	C584	0.059830	0.669960	0.907930
C5851	C585	0.075700	0.654970	0.935220
C5861	C586	0.084630	0.687470	0.925260
C5871	C587	0.096590	0.637170	0.962360
H3611	H361	0.105400	0.649000	0.962600
C5881	C588	0.079620	0.637020	0.948230
C5891	C589	0.067880	0.619140	0.947240
H3621	H362	0.056700	0.618100	0.937700
C5901	C590	0.072490	0.602760	0.960190
H3631	H363	0.064800	0.590200	0.959600
C5911	C591	0.088620	0.605070	0.974130
H3641	H364	0.091200	0.594000	0.983600
C5921	C592	0.121900	0.674480	0.001100
C5931	C593	0.167480	0.612200	0.017530
H3651	H365	0.166500	0.602100	0.006800
C5941	C594	0.184790	0.612740	0.028940
H3661	H366	0.195500	0.602800	0.026700
C5951	C595	0.187050	0.628210	0.044390
H3671	H367	0.199400	0.629300	0.052400
C5961	C596	0.170420	0.641730	0.047440
C5971	C597	0.153040	0.639950	0.034790
H3681	H368	0.142100	0.649700	0.036600
C5981	C598	0.171390	0.657930	0.063230
N2211	N221	0.114900	0.734390	0.909970
N2221	N222	0.976910	0.636750	0.854650
N2231	N223	0.017570	0.649320	0.873280
N2241	N224	0.070920	0.686910	0.909430
N2251	N225	0.061420	0.653420	0.920230
N2261	N226	0.087540	0.672260	0.938490
N2271	N227	0.100740	0.621730	0.975120
N2281	N228	0.150840	0.625480	0.020330
N2291	N229	0.122930	0.657030	0.998980
N2301	N230	0.156570	0.672490	0.063130
S451	S45	0.959830	0.665650	0.827430
S461	S46	0.120790	0.700250	0.003590
C5991	C599	0.101660	0.218220	0.410100
H3691	H369	0.094300	0.215100	0.397600
C6001	C600	0.098110	0.205830	0.427270
C6011	C601	0.108170	0.210490	0.445630
H3701	H370	0.106600	0.201900	0.457600
C6021	C602	0.120620	0.227980	0.446170
H3711	H371	0.126700	0.232400	0.458900
C6031	C603	0.124220	0.239010	0.428290
H3721	H372	0.133700	0.250400	0.428800
C6041	C604	0.969000	0.148490	0.343420
C6051	C605	0.016730	0.164840	0.359330
H3731	H373	0.006400	0.164000	0.348800
C6061	C606	0.029590	0.181700	0.359230
H3741	H374	0.028700	0.191800	0.348500
C6071	C607	0.043890	0.183760	0.375050
H3751	H375	0.053100	0.195300	0.375500
C6081	C608	0.044540	0.168460	0.390460
C6091	C609	0.031150	0.151990	0.388850
H3761	H376	0.031500	0.141800	0.399500
C6101	C610	0.059830	0.169960	0.407930
C6111	C611	0.075700	0.154970	0.435220
C6121	C612	0.084630	0.187470	0.425260
C6131	C613	0.096590	0.137170	0.462360
H3771	H377	0.105400	0.149000	0.462600
C6141	C614	0.079620	0.137020	0.448230
C6151	C615	0.067880	0.119140	0.447240
H3781	H378	0.056700	0.118100	0.437700
C6161	C616	0.072490	0.102760	0.460190
H3791	H379	0.064800	0.090200	0.459600
C6171	C617	0.088620	0.105070	0.474130
H3801	H380	0.091200	0.094000	0.483600
C6181	C618	0.121900	0.174480	0.501100
C6191	C619	0.167480	0.112200	0.517530
H3811	H381	0.166500	0.102100	0.506800
C6201	C620	0.184790	0.112740	0.528940
H3821	H382	0.195500	0.102800	0.526700
C6211	C621	0.187050	0.128210	0.544390
H3831	H383	0.199400	0.129300	0.552400
C6221	C622	0.170420	0.141730	0.547440
C6231	C623	0.153040	0.139950	0.534790
H3841	H384	0.142100	0.149700	0.536600
C6241	C624	0.171390	0.157930	0.563230
N2311	N231	0.114900	0.234390	0.409970
N2321	N232	0.976910	0.136750	0.354650
N2331	N233	0.017570	0.149320	0.373280
N2341	N234	0.070920	0.186910	0.409430
N2351	N235	0.061420	0.153420	0.420230
N2361	N236	0.087540	0.172260	0.438490
N2371	N237	0.100740	0.121730	0.475120
N2381	N238	0.150840	0.125480	0.520330
N2391	N239	0.122930	0.157030	0.498980
N2401	N240	0.156570	0.172490	0.563130
S471	S47	0.959830	0.165650	0.327430
S481	S48	0.120790	0.200250	0.503590
C6251	C625	0.148340	0.218220	0.839900
H3851	H385	0.155700	0.215100	0.852400
C6261	C626	0.151890	0.205830	0.822730
C6271	C627	0.141830	0.210490	0.804370
H3861	H386	0.143400	0.201900	0.792400
C6281	C628	0.129380	0.227980	0.803830
H3871	H387	0.123300	0.232400	0.791100
C6291	C629	0.125780	0.239010	0.821710
H3881	H388	0.116300	0.250400	0.821200
C6301	C630	0.281000	0.148490	0.906580
C6311	C631	0.233270	0.164840	0.890670
H3891	H389	0.243600	0.164000	0.901200
C6321	C632	0.220410	0.181700	0.890770
H3901	H390	0.221300	0.191800	0.901500
C6331	C633	0.206110	0.183760	0.874950
H3911	H391	0.196900	0.195300	0.874500
C6341	C634	0.205460	0.168460	0.859540
C6351	C635	0.218850	0.151990	0.861150
H3921	H392	0.218500	0.141800	0.850500
C6361	C636	0.190170	0.169960	0.842070
C6371	C637	0.174300	0.154970	0.814780
C6381	C638	0.165370	0.187470	0.824740
C6391	C639	0.153410	0.137170	0.787640
H3931	H393	0.144600	0.149000	0.787400
C6401	C640	0.170380	0.137020	0.801770
C6411	C641	0.182120	0.119140	0.802760
H3941	H394	0.193300	0.118100	0.812300
C6421	C642	0.177510	0.102760	0.789810
H3951	H395	0.185200	0.090200	0.790400
C6431	C643	0.161380	0.105070	0.775870
H3961	H396	0.158800	0.094000	0.766400
C6441	C644	0.128100	0.174480	0.748900
C6451	C645	0.082520	0.112200	0.732470
H3971	H397	0.083500	0.102100	0.743200
C6461	C646	0.065210	0.112740	0.721060
H3981	H398	0.054500	0.102800	0.723300
C6471	C647	0.062950	0.128210	0.705610
H3991	H399	0.050600	0.129300	0.697600
C6481	C648	0.079580	0.141730	0.702560
C6491	C649	0.096960	0.139950	0.715210
H4001	H400	0.107900	0.149700	0.713400
C6501	C650	0.078610	0.157930	0.686770
N2411	N241	0.135100	0.234390	0.840030
N2421	N242	0.273090	0.136750	0.895350
N2431	N243	0.232430	0.149320	0.876720
N2441	N244	0.179080	0.186910	0.840570
N2451	N245	0.188580	0.153420	0.829770
N2461	N246	0.162460	0.172260	0.811510
N2471	N247	0.149260	0.121730	0.774880
N2481	N248	0.099160	0.125480	0.729670
N2491	N249	0.127070	0.157030	0.751020
N2501	N250	0.093430	0.172490	0.686870
S491	S49	0.290170	0.165650	0.922570
S501	S50	0.129210	0.200250	0.746410
C6511	C651	0.148340	0.718220	0.339900
H4011	H401	0.155700	0.715100	0.352400
C6521	C652	0.151890	0.705830	0.322730
C6531	C653	0.141830	0.710490	0.304370
H4021	H402	0.143400	0.701900	0.292400
C6541	C654	0.129380	0.727980	0.303830
H4031	H403	0.123300	0.732400	0.291100
C6551	C655	0.125780	0.739010	0.321710
H4041	H404	0.116300	0.750400	0.321200
C6561	C656	0.281000	0.648490	0.406580
C6571	C657	0.233270	0.664840	0.390670
H4051	H405	0.243600	0.664000	0.401200
C6581	C658	0.220410	0.681700	0.390770
H4061	H406	0.221300	0.691800	0.401500
C6591	C659	0.206110	0.683760	0.374950
H4071	H407	0.196900	0.695300	0.374500
C6601	C660	0.205460	0.668460	0.359540
C6611	C661	0.218850	0.651990	0.361150
H4081	H408	0.218500	0.641800	0.350500
C6621	C662	0.190170	0.669960	0.342070
C6631	C663	0.174300	0.654970	0.314780
C6641	C664	0.165370	0.687470	0.324740
C6651	C665	0.153410	0.637170	0.287640
H4091	H409	0.144600	0.649000	0.287400
C6661	C666	0.170380	0.637020	0.301770
C6671	C667	0.182120	0.619140	0.302760
H4101	H410	0.193300	0.618100	0.312300
C6681	C668	0.177510	0.602760	0.289810
H4111	H411	0.185200	0.590200	0.290400
C6691	C669	0.161380	0.605070	0.275870
H4121	H412	0.158800	0.594000	0.266400
C6701	C670	0.128100	0.674480	0.248900
C6711	C671	0.082520	0.612200	0.232470
H4131	H413	0.083500	0.602100	0.243200
C6721	C672	0.065210	0.612740	0.221060
H4141	H414	0.054500	0.602800	0.223300
C6731	C673	0.062950	0.628210	0.205610
H4151	H415	0.050600	0.629300	0.197600
C6741	C674	0.079580	0.641730	0.202560
C6751	C675	0.096960	0.639950	0.215210
H4161	H416	0.107900	0.649700	0.213400
C6761	C676	0.078610	0.657930	0.186770
N2511	N251	0.135100	0.734390	0.340030
N2521	N252	0.273090	0.636750	0.395350
N2531	N253	0.232430	0.649320	0.376720
N2541	N254	0.179080	0.686910	0.340570
N2551	N255	0.188580	0.653420	0.329770
N2561	N256	0.162460	0.672260	0.311510
N2571	N257	0.149260	0.621730	0.274880
N2581	N258	0.099160	0.625480	0.229670
N2591	N259	0.127070	0.657030	0.251020
N2601	N260	0.093430	0.672490	0.186870
S511	S51	0.290170	0.665650	0.422570
S521	S52	0.129210	0.700250	0.246410
C6771	C677	0.648340	0.218220	0.339900
H4171	H417	0.655700	0.215100	0.352400
C6781	C678	0.651890	0.205830	0.322730
C6791	C679	0.641830	0.210490	0.304370
H4181	H418	0.643400	0.201900	0.292400
C6801	C680	0.629380	0.227980	0.303830
H4191	H419	0.623300	0.232400	0.291100
C6811	C681	0.625780	0.239010	0.321710
H4201	H420	0.616300	0.250400	0.321200
C6821	C682	0.781000	0.148490	0.406580
C6831	C683	0.733270	0.164840	0.390670
H4211	H421	0.743600	0.164000	0.401200
C6841	C684	0.720410	0.181700	0.390770
H4221	H422	0.721300	0.191800	0.401500
C6851	C685	0.706110	0.183760	0.374950
H4231	H423	0.696900	0.195300	0.374500
C6861	C686	0.705460	0.168460	0.359540
C6871	C687	0.718850	0.151990	0.361150
H4241	H424	0.718500	0.141800	0.350500
C6881	C688	0.690170	0.169960	0.342070
C6891	C689	0.674300	0.154970	0.314780
C6901	C690	0.665370	0.187470	0.324740
C6911	C691	0.653410	0.137170	0.287640
H4251	H425	0.644600	0.149000	0.287400
C6921	C692	0.670380	0.137020	0.301770
C6931	C693	0.682120	0.119140	0.302760
H4261	H426	0.693300	0.118100	0.312300
C6941	C694	0.677510	0.102760	0.289810
H4271	H427	0.685200	0.090200	0.290400
C6951	C695	0.661380	0.105070	0.275870
H4281	H428	0.658800	0.094000	0.266400
C6961	C696	0.628100	0.174480	0.248900
C6971	C697	0.582520	0.112200	0.232470
H4291	H429	0.583500	0.102100	0.243200
C6981	C698	0.565210	0.112740	0.221060
H4301	H430	0.554500	0.102800	0.223300
C6991	C699	0.562950	0.128210	0.205610
H4311	H431	0.550600	0.129300	0.197600
C7001	C700	0.579580	0.141730	0.202560
C7011	C701	0.596960	0.139950	0.215210
H4321	H432	0.607900	0.149700	0.213400
C7021	C702	0.578610	0.157930	0.186770
N2611	N261	0.635100	0.234390	0.340030
N2621	N262	0.773090	0.136750	0.395350
N2631	N263	0.732430	0.149320	0.376720
N2641	N264	0.679080	0.186910	0.340570
N2651	N265	0.688580	0.153420	0.329770
N2661	N266	0.662460	0.172260	0.311510
N2671	N267	0.649260	0.121730	0.274880
N2681	N268	0.599160	0.125480	0.229670
N2691	N269	0.627070	0.157030	0.251020
N2701	N270	0.593430	0.172490	0.186870
S531	S53	0.790170	0.165650	0.422570
S541	S54	0.629210	0.200250	0.246410
C7031	C703	0.648340	0.718220	0.839900
H4331	H433	0.655700	0.715100	0.852400
C7041	C704	0.651890	0.705830	0.822730
C7051	C705	0.641830	0.710490	0.804370
H4341	H434	0.643400	0.701900	0.792400
C7061	C706	0.629380	0.727980	0.803830
H4351	H435	0.623300	0.732400	0.791100
C7071	C707	0.625780	0.739010	0.821710
H4361	H436	0.616300	0.750400	0.821200
C7081	C708	0.781000	0.648490	0.906580
C7091	C709	0.733270	0.664840	0.890670
H4371	H437	0.743600	0.664000	0.901200
C7101	C710	0.720410	0.681700	0.890770
H4381	H438	0.721300	0.691800	0.901500
C7111	C711	0.706110	0.683760	0.874950
H4391	H439	0.696900	0.695300	0.874500
C7121	C712	0.705460	0.668460	0.859540
C7131	C713	0.718850	0.651990	0.861150
H4401	H440	0.718500	0.641800	0.850500
C7141	C714	0.690170	0.669960	0.842070
C7151	C715	0.674300	0.654970	0.814780
C7161	C716	0.665370	0.687470	0.824740
C7171	C717	0.653410	0.637170	0.787640
H4411	H441	0.644600	0.649000	0.787400
C7181	C718	0.670380	0.637020	0.801770
C7191	C719	0.682120	0.619140	0.802760
H4421	H442	0.693300	0.618100	0.812300
C7201	C720	0.677510	0.602760	0.789810
H4431	H443	0.685200	0.590200	0.790400
C7211	C721	0.661380	0.605070	0.775870
H4441	H444	0.658800	0.594000	0.766400
C7221	C722	0.628100	0.674480	0.748900
C7231	C723	0.582520	0.612200	0.732470
H4451	H445	0.583500	0.602100	0.743200
C7241	C724	0.565210	0.612740	0.721060
H4461	H446	0.554500	0.602800	0.723300
C7251	C725	0.562950	0.628210	0.705610
H4471	H447	0.550600	0.629300	0.697600
C7261	C726	0.579580	0.641730	0.702560
C7271	C727	0.596960	0.639950	0.715210
H4481	H448	0.607900	0.649700	0.713400
C7281	C728	0.578610	0.657930	0.686770
N2711	N271	0.635100	0.734390	0.840030
N2721	N272	0.773090	0.636750	0.895350
N2731	N273	0.732430	0.649320	0.876720
N2741	N274	0.679080	0.686910	0.840570
N2751	N275	0.688580	0.653420	0.829770
N2761	N276	0.662460	0.672260	0.811510
N2771	N277	0.649260	0.621730	0.774880
N2781	N278	0.599160	0.625480	0.729670
N2791	N279	0.627070	0.657030	0.751020
N2801	N280	0.593430	0.672490	0.686870
S551	S55	0.790170	0.665650	0.922570
S561	S56	0.629210	0.700250	0.746410
C7291	C729	0.648340	0.031780	0.910100
H4491	H449	0.655700	0.034900	0.897600
C7301	C730	0.651890	0.044170	0.927270
C7311	C731	0.641830	0.039510	0.945630
H4501	H450	0.643400	0.048100	0.957600
C7321	C732	0.629380	0.022020	0.946170
H4511	H451	0.623300	0.017600	0.958900
C7331	C733	0.625780	0.010990	0.928290
H4521	H452	0.616300	0.999600	0.928800
C7341	C734	0.781000	0.101510	0.843420
C7351	C735	0.733270	0.085160	0.859330
H4531	H453	0.743600	0.086000	0.848800
C7361	C736	0.720410	0.068300	0.859230
H4541	H454	0.721300	0.058200	0.848500
C7371	C737	0.706110	0.066240	0.875050
H4551	H455	0.696900	0.054700	0.875500
C7381	C738	0.705460	0.081540	0.890460
C7391	C739	0.718850	0.098010	0.888850
H4561	H456	0.718500	0.108200	0.899500
C7401	C740	0.690170	0.080040	0.907930
C7411	C741	0.674300	0.095030	0.935220
C7421	C742	0.665370	0.062530	0.925260
C7431	C743	0.653410	0.112830	0.962360
H4571	H457	0.644600	0.101000	0.962600
C7441	C744	0.670380	0.112980	0.948230
C7451	C745	0.682120	0.130860	0.947240
H4581	H458	0.693300	0.131900	0.937700
C7461	C746	0.677510	0.147240	0.960190
H4591	H459	0.685200	0.159800	0.959600
C7471	C747	0.661380	0.144930	0.974130
H4601	H460	0.658800	0.156000	0.983600
C7481	C748	0.628100	0.075520	0.001100
C7491	C749	0.582520	0.137800	0.017530
H4611	H461	0.583500	0.147900	0.006800
C7501	C750	0.565210	0.137260	0.028940
H4621	H462	0.554500	0.147200	0.026700
C7511	C751	0.562950	0.121790	0.044390
H4631	H463	0.550600	0.120700	0.052400
C7521	C752	0.579580	0.108270	0.047440
C7531	C753	0.596960	0.110050	0.034790
H4641	H464	0.607900	0.100300	0.036600
C7541	C754	0.578610	0.092070	0.063230
N2811	N281	0.635100	0.015610	0.909970
N2821	N282	0.773090	0.113250	0.854650
N2831	N283	0.732430	0.100680	0.873280
N2841	N284	0.679080	0.063090	0.909430
N2851	N285	0.688580	0.096580	0.920230
N2861	N286	0.662460	0.077740	0.938490
N2871	N287	0.649260	0.128270	0.975120
N2881	N288	0.599160	0.124520	0.020330
N2891	N289	0.627070	0.092970	0.998980
N2901	N290	0.593430	0.077510	0.063130
S571	S57	0.790170	0.084350	0.827430
S581	S58	0.629210	0.049750	0.003590
C7551	C755	0.648340	0.531780	0.410100
H4651	H465	0.655700	0.534900	0.397600
C7561	C756	0.651890	0.544170	0.427270
C7571	C757	0.641830	0.539510	0.445630
H4661	H466	0.643400	0.548100	0.457600
C7581	C758	0.629380	0.522020	0.446170
H4671	H467	0.623300	0.517600	0.458900
C7591	C759	0.625780	0.510990	0.428290
H4681	H468	0.616300	0.499600	0.428800
C7601	C760	0.781000	0.601510	0.343420
C7611	C761	0.733270	0.585160	0.359330
H4691	H469	0.743600	0.586000	0.348800
C7621	C762	0.720410	0.568300	0.359230
H4701	H470	0.721300	0.558200	0.348500
C7631	C763	0.706110	0.566240	0.375050
H4711	H471	0.696900	0.554700	0.375500
C7641	C764	0.705460	0.581540	0.390460
C7651	C765	0.718850	0.598010	0.388850
H4721	H472	0.718500	0.608200	0.399500
C7661	C766	0.690170	0.580040	0.407930
C7671	C767	0.674300	0.595030	0.435220
C7681	C768	0.665370	0.562530	0.425260
C7691	C769	0.653410	0.612830	0.462360
H4731	H473	0.644600	0.601000	0.462600
C7701	C770	0.670380	0.612980	0.448230
C7711	C771	0.682120	0.630860	0.447240
H4741	H474	0.693300	0.631900	0.437700
C7721	C772	0.677510	0.647240	0.460190
H4751	H475	0.685200	0.659800	0.459600
C7731	C773	0.661380	0.644930	0.474130
H4761	H476	0.658800	0.656000	0.483600
C7741	C774	0.628100	0.575520	0.501100
C7751	C775	0.582520	0.637800	0.517530
H4771	H477	0.583500	0.647900	0.506800
C7761	C776	0.565210	0.637260	0.528940
H4781	H478	0.554500	0.647200	0.526700
C7771	C777	0.562950	0.621790	0.544390
H4791	H479	0.550600	0.620700	0.552400
C7781	C778	0.579580	0.608270	0.547440
C7791	C779	0.596960	0.610050	0.534790
H4801	H480	0.607900	0.600300	0.536600
C7801	C780	0.578610	0.592070	0.563230
N2911	N291	0.635100	0.515610	0.409970
N2921	N292	0.773090	0.613250	0.354650
N2931	N293	0.732430	0.600680	0.373280
N2941	N294	0.679080	0.563090	0.409430
N2951	N295	0.688580	0.596580	0.420230
N2961	N296	0.662460	0.577740	0.438490
N2971	N297	0.649260	0.628270	0.475120
N2981	N298	0.599160	0.624520	0.520330
N2991	N299	0.627070	0.592970	0.498980
N3001	N300	0.593430	0.577510	0.563130
S591	S59	0.790170	0.584350	0.327430
S601	S60	0.629210	0.549750	0.503590
C7811	C781	0.148340	0.031780	0.410100
H4811	H481	0.155700	0.034900	0.397600
C7821	C782	0.151890	0.044170	0.427270
C7831	C783	0.141830	0.039510	0.445630
H4821	H482	0.143400	0.048100	0.457600
C7841	C784	0.129380	0.022020	0.446170
H4831	H483	0.123300	0.017600	0.458900
C7851	C785	0.125780	0.010990	0.428290
H4841	H484	0.116300	0.999600	0.428800
C7861	C786	0.281000	0.101510	0.343420
C7871	C787	0.233270	0.085160	0.359330
H4851	H485	0.243600	0.086000	0.348800
C7881	C788	0.220410	0.068300	0.359230
H4861	H486	0.221300	0.058200	0.348500
C7891	C789	0.206110	0.066240	0.375050
H4871	H487	0.196900	0.054700	0.375500
C7901	C790	0.205460	0.081540	0.390460
C7911	C791	0.218850	0.098010	0.388850
H4881	H488	0.218500	0.108200	0.399500
C7921	C792	0.190170	0.080040	0.407930
C7931	C793	0.174300	0.095030	0.435220
C7941	C794	0.165370	0.062530	0.425260
C7951	C795	0.153410	0.112830	0.462360
H4891	H489	0.144600	0.101000	0.462600
C7961	C796	0.170380	0.112980	0.448230
C7971	C797	0.182120	0.130860	0.447240
H4901	H490	0.193300	0.131900	0.437700
C7981	C798	0.177510	0.147240	0.460190
H4911	H491	0.185200	0.159800	0.459600
C7991	C799	0.161380	0.144930	0.474130
H4921	H492	0.158800	0.156000	0.483600
C8001	C800	0.128100	0.075520	0.501100
C8011	C801	0.082520	0.137800	0.517530
H4931	H493	0.083500	0.147900	0.506800
C8021	C802	0.065210	0.137260	0.528940
H4941	H494	0.054500	0.147200	0.526700
C8031	C803	0.062950	0.121790	0.544390
H4951	H495	0.050600	0.120700	0.552400
C8041	C804	0.079580	0.108270	0.547440
C8051	C805	0.096960	0.110050	0.534790
H4961	H496	0.107900	0.100300	0.536600
C8061	C806	0.078610	0.092070	0.563230
N3011	N301	0.135100	0.015610	0.409970
N3021	N302	0.273090	0.113250	0.354650
N3031	N303	0.232430	0.100680	0.373280
N3041	N304	0.179080	0.063090	0.409430
N3051	N305	0.188580	0.096580	0.420230
N3061	N306	0.162460	0.077740	0.438490
N3071	N307	0.149260	0.128270	0.475120
N3081	N308	0.099160	0.124520	0.520330
N3091	N309	0.127070	0.092970	0.498980
N3101	N310	0.093430	0.077510	0.563130
S611	S61	0.290170	0.084350	0.327430
S621	S62	0.129210	0.049750	0.503590
C8071	C807	0.148340	0.531780	0.910100
H4971	H497	0.155700	0.534900	0.897600
C8081	C808	0.151890	0.544170	0.927270
C8091	C809	0.141830	0.539510	0.945630
H4981	H498	0.143400	0.548100	0.957600
C8101	C810	0.129380	0.522020	0.946170
H4991	H499	0.123300	0.517600	0.958900
C8111	C811	0.125780	0.510990	0.928290
H5001	H500	0.116300	0.499600	0.928800
C8121	C812	0.281000	0.601510	0.843420
C8131	C813	0.233270	0.585160	0.859330
H5011	H501	0.243600	0.586000	0.848800
C8141	C814	0.220410	0.568300	0.859230
H5021	H502	0.221300	0.558200	0.848500
C8151	C815	0.206110	0.566240	0.875050
H5031	H503	0.196900	0.554700	0.875500
C8161	C816	0.205460	0.581540	0.890460
C8171	C817	0.218850	0.598010	0.888850
H5041	H504	0.218500	0.608200	0.899500
C8181	C818	0.190170	0.580040	0.907930
C8191	C819	0.174300	0.595030	0.935220
C8201	C820	0.165370	0.562530	0.925260
C8211	C821	0.153410	0.612830	0.962360
H5051	H505	0.144600	0.601000	0.962600
C8221	C822	0.170380	0.612980	0.948230
C8231	C823	0.182120	0.630860	0.947240
H5061	H506	0.193300	0.631900	0.937700
C8241	C824	0.177510	0.647240	0.960190
H5071	H507	0.185200	0.659800	0.959600
C8251	C825	0.161380	0.644930	0.974130
H5081	H508	0.158800	0.656000	0.983600
C8261	C826	0.128100	0.575520	0.001100
C8271	C827	0.082520	0.637800	0.017530
H5091	H509	0.083500	0.647900	0.006800
C8281	C828	0.065210	0.637260	0.028940
H5101	H510	0.054500	0.647200	0.026700
C8291	C829	0.062950	0.621790	0.044390
H5111	H511	0.050600	0.620700	0.052400
C8301	C830	0.079580	0.608270	0.047440
C8311	C831	0.096960	0.610050	0.034790
H5121	H512	0.107900	0.600300	0.036600
C8321	C832	0.078610	0.592070	0.063230
N3111	N311	0.135100	0.515610	0.909970
N3121	N312	0.273090	0.613250	0.854650
N3131	N313	0.232430	0.600680	0.873280
N3141	N314	0.179080	0.563090	0.909430
N3151	N315	0.188580	0.596580	0.920230
N3161	N316	0.162460	0.577740	0.938490
N3171	N317	0.149260	0.628270	0.975120
N3181	N318	0.099160	0.624520	0.020330
N3191	N319	0.127070	0.592970	0.998980
N3201	N320	0.093430	0.577510	0.063130
S631	S63	0.290170	0.584350	0.827430
S641	S64	0.129210	0.549750	0.003590
C8331	C833	0.339900	0.101660	0.531780
H5131	H513	0.352400	0.094300	0.534900
C8341	C834	0.322730	0.098110	0.544170
C8351	C835	0.304370	0.108170	0.539510
H5141	H514	0.292400	0.106600	0.548100
C8361	C836	0.303830	0.120620	0.522020
H5151	H515	0.291100	0.126700	0.517600
C8371	C837	0.321710	0.124220	0.510990
H5161	H516	0.321200	0.133700	0.499600
C8381	C838	0.406580	0.969000	0.601510
C8391	C839	0.390670	0.016730	0.585160
H5171	H517	0.401200	0.006400	0.586000
C8401	C840	0.390770	0.029590	0.568300
H5181	H518	0.401500	0.028700	0.558200
C8411	C841	0.374950	0.043890	0.566240
H5191	H519	0.374500	0.053100	0.554700
C8421	C842	0.359540	0.044540	0.581540
C8431	C843	0.361150	0.031150	0.598010
H5201	H520	0.350500	0.031500	0.608200
C8441	C844	0.342070	0.059830	0.580040
C8451	C845	0.314780	0.075700	0.595030
C8461	C846	0.324740	0.084630	0.562530
C8471	C847	0.287640	0.096590	0.612830
H5211	H521	0.287400	0.105400	0.601000
C8481	C848	0.301770	0.079620	0.612980
C8491	C849	0.302760	0.067880	0.630860
H5221	H522	0.312300	0.056700	0.631900
C8501	C850	0.289810	0.072490	0.647240
H5231	H523	0.290400	0.064800	0.659800
C8511	C851	0.275870	0.088620	0.644930
H5241	H524	0.266400	0.091200	0.656000
C8521	C852	0.248900	0.121900	0.575520
C8531	C853	0.232470	0.167480	0.637800
H5251	H525	0.243200	0.166500	0.647900
C8541	C854	0.221060	0.184790	0.637260
H5261	H526	0.223300	0.195500	0.647200
C8551	C855	0.205610	0.187050	0.621790
H5271	H527	0.197600	0.199400	0.620700
C8561	C856	0.202560	0.170420	0.608270
C8571	C857	0.215210	0.153040	0.610050
H5281	H528	0.213400	0.142100	0.600300
C8581	C858	0.186770	0.171390	0.592070
N3211	N321	0.340030	0.114900	0.515610
N3221	N322	0.395350	0.976910	0.613250
N3231	N323	0.376720	0.017570	0.600680
N3241	N324	0.340570	0.070920	0.563090
N3251	N325	0.329770	0.061420	0.596580
N3261	N326	0.311510	0.087540	0.577740
N3271	N327	0.274880	0.100740	0.628270
N3281	N328	0.229670	0.150840	0.624520
N3291	N329	0.251020	0.122930	0.592970
N3301	N330	0.186870	0.156570	0.577510
S651	S65	0.422570	0.959830	0.584350
S661	S66	0.246410	0.120790	0.549750
C8591	C859	0.339900	0.601660	0.031780
H5291	H529	0.352400	0.594300	0.034900
C8601	C860	0.322730	0.598110	0.044170
C8611	C861	0.304370	0.608170	0.039510
H5301	H530	0.292400	0.606600	0.048100
C8621	C862	0.303830	0.620620	0.022020
H5311	H531	0.291100	0.626700	0.017600
C8631	C863	0.321710	0.624220	0.010990
H5321	H532	0.321200	0.633700	0.999600
C8641	C864	0.406580	0.469000	0.101510
C8651	C865	0.390670	0.516730	0.085160
H5331	H533	0.401200	0.506400	0.086000
C8661	C866	0.390770	0.529590	0.068300
H5341	H534	0.401500	0.528700	0.058200
C8671	C867	0.374950	0.543890	0.066240
H5351	H535	0.374500	0.553100	0.054700
C8681	C868	0.359540	0.544540	0.081540
C8691	C869	0.361150	0.531150	0.098010
H5361	H536	0.350500	0.531500	0.108200
C8701	C870	0.342070	0.559830	0.080040
C8711	C871	0.314780	0.575700	0.095030
C8721	C872	0.324740	0.584630	0.062530
C8731	C873	0.287640	0.596590	0.112830
H5371	H537	0.287400	0.605400	0.101000
C8741	C874	0.301770	0.579620	0.112980
C8751	C875	0.302760	0.567880	0.130860
H5381	H538	0.312300	0.556700	0.131900
C8761	C876	0.289810	0.572490	0.147240
H5391	H539	0.290400	0.564800	0.159800
C8771	C877	0.275870	0.588620	0.144930
H5401	H540	0.266400	0.591200	0.156000
C8781	C878	0.248900	0.621900	0.075520
C8791	C879	0.232470	0.667480	0.137800
H5411	H541	0.243200	0.666500	0.147900
C8801	C880	0.221060	0.684790	0.137260
H5421	H542	0.223300	0.695500	0.147200
C8811	C881	0.205610	0.687050	0.121790
H5431	H543	0.197600	0.699400	0.120700
C8821	C882	0.202560	0.670420	0.108270
C8831	C883	0.215210	0.653040	0.110050
H5441	H544	0.213400	0.642100	0.100300
C8841	C884	0.186770	0.671390	0.092070
N3311	N331	0.340030	0.614900	0.015610
N3321	N332	0.395350	0.476910	0.113250
N3331	N333	0.376720	0.517570	0.100680
N3341	N334	0.340570	0.570920	0.063090
N3351	N335	0.329770	0.561420	0.096580
N3361	N336	0.311510	0.587540	0.077740
N3371	N337	0.274880	0.600740	0.128270
N3381	N338	0.229670	0.650840	0.124520
N3391	N339	0.251020	0.622930	0.092970
N3401	N340	0.186870	0.656570	0.077510
S671	S67	0.422570	0.459830	0.084350
S681	S68	0.246410	0.620790	0.049750
C8851	C885	0.839900	0.101660	0.031780
H5451	H545	0.852400	0.094300	0.034900
C8861	C886	0.822730	0.098110	0.044170
C8871	C887	0.804370	0.108170	0.039510
H5461	H546	0.792400	0.106600	0.048100
C8881	C888	0.803830	0.120620	0.022020
H5471	H547	0.791100	0.126700	0.017600
C8891	C889	0.821710	0.124220	0.010990
H5481	H548	0.821200	0.133700	0.999600
C8901	C890	0.906580	0.969000	0.101510
C8911	C891	0.890670	0.016730	0.085160
H5491	H549	0.901200	0.006400	0.086000
C8921	C892	0.890770	0.029590	0.068300
H5501	H550	0.901500	0.028700	0.058200
C8931	C893	0.874950	0.043890	0.066240
H5511	H551	0.874500	0.053100	0.054700
C8941	C894	0.859540	0.044540	0.081540
C8951	C895	0.861150	0.031150	0.098010
H5521	H552	0.850500	0.031500	0.108200
C8961	C896	0.842070	0.059830	0.080040
C8971	C897	0.814780	0.075700	0.095030
C8981	C898	0.824740	0.084630	0.062530
C8991	C899	0.787640	0.096590	0.112830
H5531	H553	0.787400	0.105400	0.101000
C9001	C900	0.801770	0.079620	0.112980
C9011	C901	0.802760	0.067880	0.130860
H5541	H554	0.812300	0.056700	0.131900
C9021	C902	0.789810	0.072490	0.147240
H5551	H555	0.790400	0.064800	0.159800
C9031	C903	0.775870	0.088620	0.144930
H5561	H556	0.766400	0.091200	0.156000
C9041	C904	0.748900	0.121900	0.075520
C9051	C905	0.732470	0.167480	0.137800
H5571	H557	0.743200	0.166500	0.147900
C9061	C906	0.721060	0.184790	0.137260
H5581	H558	0.723300	0.195500	0.147200
C9071	C907	0.705610	0.187050	0.121790
H5591	H559	0.697600	0.199400	0.120700
C9081	C908	0.702560	0.170420	0.108270
C9091	C909	0.715210	0.153040	0.110050
H5601	H560	0.713400	0.142100	0.100300
C9101	C910	0.686770	0.171390	0.092070
N3411	N341	0.840030	0.114900	0.015610
N3421	N342	0.895350	0.976910	0.113250
N3431	N343	0.876720	0.017570	0.100680
N3441	N344	0.840570	0.070920	0.063090
N3451	N345	0.829770	0.061420	0.096580
N3461	N346	0.811510	0.087540	0.077740
N3471	N347	0.774880	0.100740	0.128270
N3481	N348	0.729670	0.150840	0.124520
N3491	N349	0.751020	0.122930	0.092970
N3501	N350	0.686870	0.156570	0.077510
S691	S69	0.922570	0.959830	0.084350
S701	S70	0.746410	0.120790	0.049750
C9111	C911	0.839900	0.601660	0.531780
H5611	H561	0.852400	0.594300	0.534900
C9121	C912	0.822730	0.598110	0.544170
C9131	C913	0.804370	0.608170	0.539510
H5621	H562	0.792400	0.606600	0.548100
C9141	C914	0.803830	0.620620	0.522020
H5631	H563	0.791100	0.626700	0.517600
C9151	C915	0.821710	0.624220	0.510990
H5641	H564	0.821200	0.633700	0.499600
C9161	C916	0.906580	0.469000	0.601510
C9171	C917	0.890670	0.516730	0.585160
H5651	H565	0.901200	0.506400	0.586000
C9181	C918	0.890770	0.529590	0.568300
H5661	H566	0.901500	0.528700	0.558200
C9191	C919	0.874950	0.543890	0.566240
H5671	H567	0.874500	0.553100	0.554700
C9201	C920	0.859540	0.544540	0.581540
C9211	C921	0.861150	0.531150	0.598010
H5681	H568	0.850500	0.531500	0.608200
C9221	C922	0.842070	0.559830	0.580040
C9231	C923	0.814780	0.575700	0.595030
C9241	C924	0.824740	0.584630	0.562530
C9251	C925	0.787640	0.596590	0.612830
H5691	H569	0.787400	0.605400	0.601000
C9261	C926	0.801770	0.579620	0.612980
C9271	C927	0.802760	0.567880	0.630860
H5701	H570	0.812300	0.556700	0.631900
C9281	C928	0.789810	0.572490	0.647240
H5711	H571	0.790400	0.564800	0.659800
C9291	C929	0.775870	0.588620	0.644930
H5721	H572	0.766400	0.591200	0.656000
C9301	C930	0.748900	0.621900	0.575520
C9311	C931	0.732470	0.667480	0.637800
H5731	H573	0.743200	0.666500	0.647900
C9321	C932	0.721060	0.684790	0.637260
H5741	H574	0.723300	0.695500	0.647200
C9331	C933	0.705610	0.687050	0.621790
H5751	H575	0.697600	0.699400	0.620700
C9341	C934	0.702560	0.670420	0.608270
C9351	C935	0.715210	0.653040	0.610050
H5761	H576	0.713400	0.642100	0.600300
C9361	C936	0.686770	0.671390	0.592070
N3511	N351	0.840030	0.614900	0.515610
N3521	N352	0.895350	0.476910	0.613250
N3531	N353	0.876720	0.517570	0.600680
N3541	N354	0.840570	0.570920	0.563090
N3551	N355	0.829770	0.561420	0.596580
N3561	N356	0.811510	0.587540	0.577740
N3571	N357	0.774880	0.600740	0.628270
N3581	N358	0.729670	0.650840	0.624520
N3591	N359	0.751020	0.622930	0.592970
N3601	N360	0.686870	0.656570	0.577510
S711	S71	0.922570	0.459830	0.584350
S721	S72	0.746410	0.620790	0.549750
C9371	C937	0.410100	0.601660	0.718220
H5771	H577	0.397600	0.594300	0.715100
C9381	C938	0.427270	0.598110	0.705830
C9391	C939	0.445630	0.608170	0.710490
H5781	H578	0.457600	0.606600	0.701900
C9401	C940	0.446170	0.620620	0.727980
H5791	H579	0.458900	0.626700	0.732400
C9411	C941	0.428290	0.624220	0.739010
H5801	H580	0.428800	0.633700	0.750400
C9421	C942	0.343420	0.469000	0.648490
C9431	C943	0.359330	0.516730	0.664840
H5811	H581	0.348800	0.506400	0.664000
C9441	C944	0.359230	0.529590	0.681700
H5821	H582	0.348500	0.528700	0.691800
C9451	C945	0.375050	0.543890	0.683760
H5831	H583	0.375500	0.553100	0.695300
C9461	C946	0.390460	0.544540	0.668460
C9471	C947	0.388850	0.531150	0.651990
H5841	H584	0.399500	0.531500	0.641800
C9481	C948	0.407930	0.559830	0.669960
C9491	C949	0.435220	0.575700	0.654970
C9501	C950	0.425260	0.584630	0.687470
C9511	C951	0.462360	0.596590	0.637170
H5851	H585	0.462600	0.605400	0.649000
C9521	C952	0.448230	0.579620	0.637020
C9531	C953	0.447240	0.567880	0.619140
H5861	H586	0.437700	0.556700	0.618100
C9541	C954	0.460190	0.572490	0.602760
H5871	H587	0.459600	0.564800	0.590200
C9551	C955	0.474130	0.588620	0.605070
H5881	H588	0.483600	0.591200	0.594000
C9561	C956	0.501100	0.621900	0.674480
C9571	C957	0.517530	0.667480	0.612200
H5891	H589	0.506800	0.666500	0.602100
C9581	C958	0.528940	0.684790	0.612740
H5901	H590	0.526700	0.695500	0.602800
C9591	C959	0.544390	0.687050	0.628210
H5911	H591	0.552400	0.699400	0.629300
C9601	C960	0.547440	0.670420	0.641730
C9611	C961	0.534790	0.653040	0.639950
H5921	H592	0.536600	0.642100	0.649700
C9621	C962	0.563230	0.671390	0.657930
N3611	N361	0.409970	0.614900	0.734390
N3621	N362	0.354650	0.476910	0.636750
N3631	N363	0.373280	0.517570	0.649320
N3641	N364	0.409430	0.570920	0.686910
N3651	N365	0.420230	0.561420	0.653420
N3661	N366	0.438490	0.587540	0.672260
N3671	N367	0.475120	0.600740	0.621730
N3681	N368	0.520330	0.650840	0.625480
N3691	N369	0.498980	0.622930	0.657030
N3701	N370	0.563130	0.656570	0.672490
S731	S73	0.327430	0.459830	0.665650
S741	S74	0.503590	0.620790	0.700250
C9631	C963	0.410100	0.101660	0.218220
H5931	H593	0.397600	0.094300	0.215100
C9641	C964	0.427270	0.098110	0.205830
C9651	C965	0.445630	0.108170	0.210490
H5941	H594	0.457600	0.106600	0.201900
C9661	C966	0.446170	0.120620	0.227980
H5951	H595	0.458900	0.126700	0.232400
C9671	C967	0.428290	0.124220	0.239010
H5961	H596	0.428800	0.133700	0.250400
C9681	C968	0.343420	0.969000	0.148490
C9691	C969	0.359330	0.016730	0.164840
H5971	H597	0.348800	0.006400	0.164000
C9701	C970	0.359230	0.029590	0.181700
H5981	H598	0.348500	0.028700	0.191800
C9711	C971	0.375050	0.043890	0.183760
H5991	H599	0.375500	0.053100	0.195300
C9721	C972	0.390460	0.044540	0.168460
C9731	C973	0.388850	0.031150	0.151990
H6001	H600	0.399500	0.031500	0.141800
C9741	C974	0.407930	0.059830	0.169960
C9751	C975	0.435220	0.075700	0.154970
C9761	C976	0.425260	0.084630	0.187470
C9771	C977	0.462360	0.096590	0.137170
H6011	H601	0.462600	0.105400	0.149000
C9781	C978	0.448230	0.079620	0.137020
C9791	C979	0.447240	0.067880	0.119140
H6021	H602	0.437700	0.056700	0.118100
C9801	C980	0.460190	0.072490	0.102760
H6031	H603	0.459600	0.064800	0.090200
C9811	C981	0.474130	0.088620	0.105070
H6041	H604	0.483600	0.091200	0.094000
C9821	C982	0.501100	0.121900	0.174480
C9831	C983	0.517530	0.167480	0.112200
H6051	H605	0.506800	0.166500	0.102100
C9841	C984	0.528940	0.184790	0.112740
H6061	H606	0.526700	0.195500	0.102800
C9851	C985	0.544390	0.187050	0.128210
H6071	H607	0.552400	0.199400	0.129300
C9861	C986	0.547440	0.170420	0.141730
C9871	C987	0.534790	0.153040	0.139950
H6081	H608	0.536600	0.142100	0.149700
C9881	C988	0.563230	0.171390	0.157930
N3711	N371	0.409970	0.114900	0.234390
N3721	N372	0.354650	0.976910	0.136750
N3731	N373	0.373280	0.017570	0.149320
N3741	N374	0.409430	0.070920	0.186910
N3751	N375	0.420230	0.061420	0.153420
N3761	N376	0.438490	0.087540	0.172260
N3771	N377	0.475120	0.100740	0.121730
N3781	N378	0.520330	0.150840	0.125480
N3791	N379	0.498980	0.122930	0.157030
N3801	N380	0.563130	0.156570	0.172490
S751	S75	0.327430	0.959830	0.165650
S761	S76	0.503590	0.120790	0.200250
C9891	C989	0.910100	0.601660	0.218220
H6091	H609	0.897600	0.594300	0.215100
C9901	C990	0.927270	0.598110	0.205830
C9911	C991	0.945630	0.608170	0.210490
H6101	H610	0.957600	0.606600	0.201900
C9921	C992	0.946170	0.620620	0.227980
H6111	H611	0.958900	0.626700	0.232400
C9931	C993	0.928290	0.624220	0.239010
H6121	H612	0.928800	0.633700	0.250400
C9941	C994	0.843420	0.469000	0.148490
C9951	C995	0.859330	0.516730	0.164840
H6131	H613	0.848800	0.506400	0.164000
C9961	C996	0.859230	0.529590	0.181700
H6141	H614	0.848500	0.528700	0.191800
C9971	C997	0.875050	0.543890	0.183760
H6151	H615	0.875500	0.553100	0.195300
C9981	C998	0.890460	0.544540	0.168460
C9991	C999	0.888850	0.531150	0.151990
H6161	H616	0.899500	0.531500	0.141800
C10001	C1000	0.907930	0.559830	0.169960
C10011	C1001	0.935220	0.575700	0.154970
C10021	C1002	0.925260	0.584630	0.187470
C10031	C1003	0.962360	0.596590	0.137170
H6171	H617	0.962600	0.605400	0.149000
C10041	C1004	0.948230	0.579620	0.137020
C10051	C1005	0.947240	0.567880	0.119140
H6181	H618	0.937700	0.556700	0.118100
C10061	C1006	0.960190	0.572490	0.102760
H6191	H619	0.959600	0.564800	0.090200
C10071	C1007	0.974130	0.588620	0.105070
H6201	H620	0.983600	0.591200	0.094000
C10081	C1008	0.001100	0.621900	0.174480
C10091	C1009	0.017530	0.667480	0.112200
H6211	H621	0.006800	0.666500	0.102100
C10101	C1010	0.028940	0.684790	0.112740
H6221	H622	0.026700	0.695500	0.102800
C10111	C1011	0.044390	0.687050	0.128210
H6231	H623	0.052400	0.699400	0.129300
C10121	C1012	0.047440	0.670420	0.141730
C10131	C1013	0.034790	0.653040	0.139950
H6241	H624	0.036600	0.642100	0.149700
C10141	C1014	0.063230	0.671390	0.157930
N3811	N381	0.909970	0.614900	0.234390
N3821	N382	0.854650	0.476910	0.136750
N3831	N383	0.873280	0.517570	0.149320
N3841	N384	0.909430	0.570920	0.186910
N3851	N385	0.920230	0.561420	0.153420
N3861	N386	0.938490	0.587540	0.172260
N3871	N387	0.975120	0.600740	0.121730
N3881	N388	0.020330	0.650840	0.125480
N3891	N389	0.998980	0.622930	0.157030
N3901	N390	0.063130	0.656570	0.172490
S771	S77	0.827430	0.459830	0.165650
S781	S78	0.003590	0.620790	0.200250
C10151	C1015	0.910100	0.101660	0.718220
H6251	H625	0.897600	0.094300	0.715100
C10161	C1016	0.927270	0.098110	0.705830
C10171	C1017	0.945630	0.108170	0.710490
H6261	H626	0.957600	0.106600	0.701900
C10181	C1018	0.946170	0.120620	0.727980
H6271	H627	0.958900	0.126700	0.732400
C10191	C1019	0.928290	0.124220	0.739010
H6281	H628	0.928800	0.133700	0.750400
C10201	C1020	0.843420	0.969000	0.648490
C10211	C1021	0.859330	0.016730	0.664840
H6291	H629	0.848800	0.006400	0.664000
C10221	C1022	0.859230	0.029590	0.681700
H6301	H630	0.848500	0.028700	0.691800
C10231	C1023	0.875050	0.043890	0.683760
H6311	H631	0.875500	0.053100	0.695300
C10241	C1024	0.890460	0.044540	0.668460
C10251	C1025	0.888850	0.031150	0.651990
H6321	H632	0.899500	0.031500	0.641800
C10261	C1026	0.907930	0.059830	0.669960
C10271	C1027	0.935220	0.075700	0.654970
C10281	C1028	0.925260	0.084630	0.687470
C10291	C1029	0.962360	0.096590	0.637170
H6331	H633	0.962600	0.105400	0.649000
C10301	C1030	0.948230	0.079620	0.637020
C10311	C1031	0.947240	0.067880	0.619140
H6341	H634	0.937700	0.056700	0.618100
C10321	C1032	0.960190	0.072490	0.602760
H6351	H635	0.959600	0.064800	0.590200
C10331	C1033	0.974130	0.088620	0.605070
H6361	H636	0.983600	0.091200	0.594000
C10341	C1034	0.001100	0.121900	0.674480
C10351	C1035	0.017530	0.167480	0.612200
H6371	H637	0.006800	0.166500	0.602100
C10361	C1036	0.028940	0.184790	0.612740
H6381	H638	0.026700	0.195500	0.602800
C10371	C1037	0.044390	0.187050	0.628210
H6391	H639	0.052400	0.199400	0.629300
C10381	C1038	0.047440	0.170420	0.641730
C10391	C1039	0.034790	0.153040	0.639950
H6401	H640	0.036600	0.142100	0.649700
C10401	C1040	0.063230	0.171390	0.657930
N3911	N391	0.909970	0.114900	0.734390
N3921	N392	0.854650	0.976910	0.636750
N3931	N393	0.873280	0.017570	0.649320
N3941	N394	0.909430	0.070920	0.686910
N3951	N395	0.920230	0.061420	0.653420
N3961	N396	0.938490	0.087540	0.672260
N3971	N397	0.975120	0.100740	0.621730
N3981	N398	0.020330	0.150840	0.625480
N3991	N399	0.998980	0.122930	0.657030
N4001	N400	0.063130	0.156570	0.672490
S791	S79	0.827430	0.959830	0.665650
S801	S80	0.003590	0.120790	0.700250
C10411	C1041	0.839900	0.148340	0.218220
H6411	H641	0.852400	0.155700	0.215100
C10421	C1042	0.822730	0.151890	0.205830
C10431	C1043	0.804370	0.141830	0.210490
H6421	H642	0.792400	0.143400	0.201900
C10441	C1044	0.803830	0.129380	0.227980
H6431	H643	0.791100	0.123300	0.232400
C10451	C1045	0.821710	0.125780	0.239010
H6441	H644	0.821200	0.116300	0.250400
C10461	C1046	0.906580	0.281000	0.148490
C10471	C1047	0.890670	0.233270	0.164840
H6451	H645	0.901200	0.243600	0.164000
C10481	C1048	0.890770	0.220410	0.181700
H6461	H646	0.901500	0.221300	0.191800
C10491	C1049	0.874950	0.206110	0.183760
H6471	H647	0.874500	0.196900	0.195300
C10501	C1050	0.859540	0.205460	0.168460
C10511	C1051	0.861150	0.218850	0.151990
H6481	H648	0.850500	0.218500	0.141800
C10521	C1052	0.842070	0.190170	0.169960
C10531	C1053	0.814780	0.174300	0.154970
C10541	C1054	0.824740	0.165370	0.187470
C10551	C1055	0.787640	0.153410	0.137170
H6491	H649	0.787400	0.144600	0.149000
C10561	C1056	0.801770	0.170380	0.137020
C10571	C1057	0.802760	0.182120	0.119140
H6501	H650	0.812300	0.193300	0.118100
C10581	C1058	0.789810	0.177510	0.102760
H6511	H651	0.790400	0.185200	0.090200
C10591	C1059	0.775870	0.161380	0.105070
H6521	H652	0.766400	0.158800	0.094000
C10601	C1060	0.748900	0.128100	0.174480
C10611	C1061	0.732470	0.082520	0.112200
H6531	H653	0.743200	0.083500	0.102100
C10621	C1062	0.721060	0.065210	0.112740
H6541	H654	0.723300	0.054500	0.102800
C10631	C1063	0.705610	0.062950	0.128210
H6551	H655	0.697600	0.050600	0.129300
C10641	C1064	0.702560	0.079580	0.141730
C10651	C1065	0.715210	0.096960	0.139950
H6561	H656	0.713400	0.107900	0.149700
C10661	C1066	0.686770	0.078610	0.157930
N4011	N401	0.840030	0.135100	0.234390
N4021	N402	0.895350	0.273090	0.136750
N4031	N403	0.876720	0.232430	0.149320
N4041	N404	0.840570	0.179080	0.186910
N4051	N405	0.829770	0.188580	0.153420
N4061	N406	0.811510	0.162460	0.172260
N4071	N407	0.774880	0.149260	0.121730
N4081	N408	0.729670	0.099160	0.125480
N4091	N409	0.751020	0.127070	0.157030
N4101	N410	0.686870	0.093430	0.172490
S811	S81	0.922570	0.290170	0.165650
S821	S82	0.746410	0.129210	0.200250
C10671	C1067	0.839900	0.648340	0.718220
H6571	H657	0.852400	0.655700	0.715100
C10681	C1068	0.822730	0.651890	0.705830
C10691	C1069	0.804370	0.641830	0.710490
H6581	H658	0.792400	0.643400	0.701900
C10701	C1070	0.803830	0.629380	0.727980
H6591	H659	0.791100	0.623300	0.732400
C10711	C1071	0.821710	0.625780	0.739010
H6601	H660	0.821200	0.616300	0.750400
C10721	C1072	0.906580	0.781000	0.648490
C10731	C1073	0.890670	0.733270	0.664840
H6611	H661	0.901200	0.743600	0.664000
C10741	C1074	0.890770	0.720410	0.681700
H6621	H662	0.901500	0.721300	0.691800
C10751	C1075	0.874950	0.706110	0.683760
H6631	H663	0.874500	0.696900	0.695300
C10761	C1076	0.859540	0.705460	0.668460
C10771	C1077	0.861150	0.718850	0.651990
H6641	H664	0.850500	0.718500	0.641800
C10781	C1078	0.842070	0.690170	0.669960
C10791	C1079	0.814780	0.674300	0.654970
C10801	C1080	0.824740	0.665370	0.687470
C10811	C1081	0.787640	0.653410	0.637170
H6651	H665	0.787400	0.644600	0.649000
C10821	C1082	0.801770	0.670380	0.637020
C10831	C1083	0.802760	0.682120	0.619140
H6661	H666	0.812300	0.693300	0.618100
C10841	C1084	0.789810	0.677510	0.602760
H6671	H667	0.790400	0.685200	0.590200
C10851	C1085	0.775870	0.661380	0.605070
H6681	H668	0.766400	0.658800	0.594000
C10861	C1086	0.748900	0.628100	0.674480
C10871	C1087	0.732470	0.582520	0.612200
H6691	H669	0.743200	0.583500	0.602100
C10881	C1088	0.721060	0.565210	0.612740
H6701	H670	0.723300	0.554500	0.602800
C10891	C1089	0.705610	0.562950	0.628210
H6711	H671	0.697600	0.550600	0.629300
C10901	C1090	0.702560	0.579580	0.641730
C10911	C1091	0.715210	0.596960	0.639950
H6721	H672	0.713400	0.607900	0.649700
C10921	C1092	0.686770	0.578610	0.657930
N4111	N411	0.840030	0.635100	0.734390
N4121	N412	0.895350	0.773090	0.636750
N4131	N413	0.876720	0.732430	0.649320
N4141	N414	0.840570	0.679080	0.686910
N4151	N415	0.829770	0.688580	0.653420
N4161	N416	0.811510	0.662460	0.672260
N4171	N417	0.774880	0.649260	0.621730
N4181	N418	0.729670	0.599160	0.625480
N4191	N419	0.751020	0.627070	0.657030
N4201	N420	0.686870	0.593430	0.672490
S831	S83	0.922570	0.790170	0.665650
S841	S84	0.746410	0.629210	0.700250
C10931	C1093	0.339900	0.148340	0.718220
H6731	H673	0.352400	0.155700	0.715100
C10941	C1094	0.322730	0.151890	0.705830
C10951	C1095	0.304370	0.141830	0.710490
H6741	H674	0.292400	0.143400	0.701900
C10961	C1096	0.303830	0.129380	0.727980
H6751	H675	0.291100	0.123300	0.732400
C10971	C1097	0.321710	0.125780	0.739010
H6761	H676	0.321200	0.116300	0.750400
C10981	C1098	0.406580	0.281000	0.648490
C10991	C1099	0.390670	0.233270	0.664840
H6771	H677	0.401200	0.243600	0.664000
C11001	C1100	0.390770	0.220410	0.681700
H6781	H678	0.401500	0.221300	0.691800
C11011	C1101	0.374950	0.206110	0.683760
H6791	H679	0.374500	0.196900	0.695300
C11021	C1102	0.359540	0.205460	0.668460
C11031	C1103	0.361150	0.218850	0.651990
H6801	H680	0.350500	0.218500	0.641800
C11041	C1104	0.342070	0.190170	0.669960
C11051	C1105	0.314780	0.174300	0.654970
C11061	C1106	0.324740	0.165370	0.687470
C11071	C1107	0.287640	0.153410	0.637170
H6811	H681	0.287400	0.144600	0.649000
C11081	C1108	0.301770	0.170380	0.637020
C11091	C1109	0.302760	0.182120	0.619140
H6821	H682	0.312300	0.193300	0.618100
C11101	C1110	0.289810	0.177510	0.602760
H6831	H683	0.290400	0.185200	0.590200
C11111	C1111	0.275870	0.161380	0.605070
H6841	H684	0.266400	0.158800	0.594000
C11121	C1112	0.248900	0.128100	0.674480
C11131	C1113	0.232470	0.082520	0.612200
H6851	H685	0.243200	0.083500	0.602100
C11141	C1114	0.221060	0.065210	0.612740
H6861	H686	0.223300	0.054500	0.602800
C11151	C1115	0.205610	0.062950	0.628210
H6871	H687	0.197600	0.050600	0.629300
C11161	C1116	0.202560	0.079580	0.641730
C11171	C1117	0.215210	0.096960	0.639950
H6881	H688	0.213400	0.107900	0.649700
C11181	C1118	0.186770	0.078610	0.657930
N4211	N421	0.340030	0.135100	0.734390
N4221	N422	0.395350	0.273090	0.636750
N4231	N423	0.376720	0.232430	0.649320
N4241	N424	0.340570	0.179080	0.686910
N4251	N425	0.329770	0.188580	0.653420
N4261	N426	0.311510	0.162460	0.672260
N4271	N427	0.274880	0.149260	0.621730
N4281	N428	0.229670	0.099160	0.625480
N4291	N429	0.251020	0.127070	0.657030
N4301	N430	0.186870	0.093430	0.672490
S851	S85	0.422570	0.290170	0.665650
S861	S86	0.246410	0.129210	0.700250
C11191	C1119	0.339900	0.648340	0.218220
H6891	H689	0.352400	0.655700	0.215100
C11201	C1120	0.322730	0.651890	0.205830
C11211	C1121	0.304370	0.641830	0.210490
H6901	H690	0.292400	0.643400	0.201900
C11221	C1122	0.303830	0.629380	0.227980
H6911	H691	0.291100	0.623300	0.232400
C11231	C1123	0.321710	0.625780	0.239010
H6921	H692	0.321200	0.616300	0.250400
C11241	C1124	0.406580	0.781000	0.148490
C11251	C1125	0.390670	0.733270	0.164840
H6931	H693	0.401200	0.743600	0.164000
C11261	C1126	0.390770	0.720410	0.181700
H6941	H694	0.401500	0.721300	0.191800
C11271	C1127	0.374950	0.706110	0.183760
H6951	H695	0.374500	0.696900	0.195300
C11281	C1128	0.359540	0.705460	0.168460
C11291	C1129	0.361150	0.718850	0.151990
H6961	H696	0.350500	0.718500	0.141800
C11301	C1130	0.342070	0.690170	0.169960
C11311	C1131	0.314780	0.674300	0.154970
C11321	C1132	0.324740	0.665370	0.187470
C11331	C1133	0.287640	0.653410	0.137170
H6971	H697	0.287400	0.644600	0.149000
C11341	C1134	0.301770	0.670380	0.137020
C11351	C1135	0.302760	0.682120	0.119140
H6981	H698	0.312300	0.693300	0.118100
C11361	C1136	0.289810	0.677510	0.102760
H6991	H699	0.290400	0.685200	0.090200
C11371	C1137	0.275870	0.661380	0.105070
H7001	H700	0.266400	0.658800	0.094000
C11381	C1138	0.248900	0.628100	0.174480
C11391	C1139	0.232470	0.582520	0.112200
H7011	H701	0.243200	0.583500	0.102100
C11401	C1140	0.221060	0.565210	0.112740
H7021	H702	0.223300	0.554500	0.102800
C11411	C1141	0.205610	0.562950	0.128210
H7031	H703	0.197600	0.550600	0.129300
C11421	C1142	0.202560	0.579580	0.141730
C11431	C1143	0.215210	0.596960	0.139950
H7041	H704	0.213400	0.607900	0.149700
C11441	C1144	0.186770	0.578610	0.157930
N4311	N431	0.340030	0.635100	0.234390
N4321	N432	0.395350	0.773090	0.136750
N4331	N433	0.376720	0.732430	0.149320
N4341	N434	0.340570	0.679080	0.186910
N4351	N435	0.329770	0.688580	0.153420
N4361	N436	0.311510	0.662460	0.172260
N4371	N437	0.274880	0.649260	0.121730
N4381	N438	0.229670	0.599160	0.125480
N4391	N439	0.251020	0.627070	0.157030
N4401	N440	0.186870	0.593430	0.172490
S871	S87	0.422570	0.790170	0.165650
S881	S88	0.246410	0.629210	0.200250
C11451	C1145	0.910100	0.648340	0.031780
H7051	H705	0.897600	0.655700	0.034900
C11461	C1146	0.927270	0.651890	0.044170
C11471	C1147	0.945630	0.641830	0.039510
H7061	H706	0.957600	0.643400	0.048100
C11481	C1148	0.946170	0.629380	0.022020
H7071	H707	0.958900	0.623300	0.017600
C11491	C1149	0.928290	0.625780	0.010990
H7081	H708	0.928800	0.616300	0.999600
C11501	C1150	0.843420	0.781000	0.101510
C11511	C1151	0.859330	0.733270	0.085160
H7091	H709	0.848800	0.743600	0.086000
C11521	C1152	0.859230	0.720410	0.068300
H7101	H710	0.848500	0.721300	0.058200
C11531	C1153	0.875050	0.706110	0.066240
H7111	H711	0.875500	0.696900	0.054700
C11541	C1154	0.890460	0.705460	0.081540
C11551	C1155	0.888850	0.718850	0.098010
H7121	H712	0.899500	0.718500	0.108200
C11561	C1156	0.907930	0.690170	0.080040
C11571	C1157	0.935220	0.674300	0.095030
C11581	C1158	0.925260	0.665370	0.062530
C11591	C1159	0.962360	0.653410	0.112830
H7131	H713	0.962600	0.644600	0.101000
C11601	C1160	0.948230	0.670380	0.112980
C11611	C1161	0.947240	0.682120	0.130860
H7141	H714	0.937700	0.693300	0.131900
C11621	C1162	0.960190	0.677510	0.147240
H7151	H715	0.959600	0.685200	0.159800
C11631	C1163	0.974130	0.661380	0.144930
H7161	H716	0.983600	0.658800	0.156000
C11641	C1164	0.001100	0.628100	0.075520
C11651	C1165	0.017530	0.582520	0.137800
H7171	H717	0.006800	0.583500	0.147900
C11661	C1166	0.028940	0.565210	0.137260
H7181	H718	0.026700	0.554500	0.147200
C11671	C1167	0.044390	0.562950	0.121790
H7191	H719	0.052400	0.550600	0.120700
C11681	C1168	0.047440	0.579580	0.108270
C11691	C1169	0.034790	0.596960	0.110050
H7201	H720	0.036600	0.607900	0.100300
C11701	C1170	0.063230	0.578610	0.092070
N4411	N441	0.909970	0.635100	0.015610
N4421	N442	0.854650	0.773090	0.113250
N4431	N443	0.873280	0.732430	0.100680
N4441	N444	0.909430	0.679080	0.063090
N4451	N445	0.920230	0.688580	0.096580
N4461	N446	0.938490	0.662460	0.077740
N4471	N447	0.975120	0.649260	0.128270
N4481	N448	0.020330	0.599160	0.124520
N4491	N449	0.998980	0.627070	0.092970
N4501	N450	0.063130	0.593430	0.077510
S891	S89	0.827430	0.790170	0.084350
S901	S90	0.003590	0.629210	0.049750
C11711	C1171	0.910100	0.148340	0.531780
H7211	H721	0.897600	0.155700	0.534900
C11721	C1172	0.927270	0.151890	0.544170
C11731	C1173	0.945630	0.141830	0.539510
H7221	H722	0.957600	0.143400	0.548100
C11741	C1174	0.946170	0.129380	0.522020
H7231	H723	0.958900	0.123300	0.517600
C11751	C1175	0.928290	0.125780	0.510990
H7241	H724	0.928800	0.116300	0.499600
C11761	C1176	0.843420	0.281000	0.601510
C11771	C1177	0.859330	0.233270	0.585160
H7251	H725	0.848800	0.243600	0.586000
C11781	C1178	0.859230	0.220410	0.568300
H7261	H726	0.848500	0.221300	0.558200
C11791	C1179	0.875050	0.206110	0.566240
H7271	H727	0.875500	0.196900	0.554700
C11801	C1180	0.890460	0.205460	0.581540
C11811	C1181	0.888850	0.218850	0.598010
H7281	H728	0.899500	0.218500	0.608200
C11821	C1182	0.907930	0.190170	0.580040
C11831	C1183	0.935220	0.174300	0.595030
C11841	C1184	0.925260	0.165370	0.562530
C11851	C1185	0.962360	0.153410	0.612830
H7291	H729	0.962600	0.144600	0.601000
C11861	C1186	0.948230	0.170380	0.612980
C11871	C1187	0.947240	0.182120	0.630860
H7301	H730	0.937700	0.193300	0.631900
C11881	C1188	0.960190	0.177510	0.647240
H7311	H731	0.959600	0.185200	0.659800
C11891	C1189	0.974130	0.161380	0.644930
H7321	H732	0.983600	0.158800	0.656000
C11901	C1190	0.001100	0.128100	0.575520
C11911	C1191	0.017530	0.082520	0.637800
H7331	H733	0.006800	0.083500	0.647900
C11921	C1192	0.028940	0.065210	0.637260
H7341	H734	0.026700	0.054500	0.647200
C11931	C1193	0.044390	0.062950	0.621790
H7351	H735	0.052400	0.050600	0.620700
C11941	C1194	0.047440	0.079580	0.608270
C11951	C1195	0.034790	0.096960	0.610050
H7361	H736	0.036600	0.107900	0.600300
C11961	C1196	0.063230	0.078610	0.592070
N4511	N451	0.909970	0.135100	0.515610
N4521	N452	0.854650	0.273090	0.613250
N4531	N453	0.873280	0.232430	0.600680
N4541	N454	0.909430	0.179080	0.563090
N4551	N455	0.920230	0.188580	0.596580
N4561	N456	0.938490	0.162460	0.577740
N4571	N457	0.975120	0.149260	0.628270
N4581	N458	0.020330	0.099160	0.624520
N4591	N459	0.998980	0.127070	0.592970
N4601	N460	0.063130	0.093430	0.577510
S911	S91	0.827430	0.290170	0.584350
S921	S92	0.003590	0.129210	0.549750
C11971	C1197	0.410100	0.648340	0.531780
H7371	H737	0.397600	0.655700	0.534900
C11981	C1198	0.427270	0.651890	0.544170
C11991	C1199	0.445630	0.641830	0.539510
H7381	H738	0.457600	0.643400	0.548100
C12001	C1200	0.446170	0.629380	0.522020
H7391	H739	0.458900	0.623300	0.517600
C12011	C1201	0.428290	0.625780	0.510990
H7401	H740	0.428800	0.616300	0.499600
C12021	C1202	0.343420	0.781000	0.601510
C12031	C1203	0.359330	0.733270	0.585160
H7411	H741	0.348800	0.743600	0.586000
C12041	C1204	0.359230	0.720410	0.568300
H7421	H742	0.348500	0.721300	0.558200
C12051	C1205	0.375050	0.706110	0.566240
H7431	H743	0.375500	0.696900	0.554700
C12061	C1206	0.390460	0.705460	0.581540
C12071	C1207	0.388850	0.718850	0.598010
H7441	H744	0.399500	0.718500	0.608200
C12081	C1208	0.407930	0.690170	0.580040
C12091	C1209	0.435220	0.674300	0.595030
C12101	C1210	0.425260	0.665370	0.562530
C12111	C1211	0.462360	0.653410	0.612830
H7451	H745	0.462600	0.644600	0.601000
C12121	C1212	0.448230	0.670380	0.612980
C12131	C1213	0.447240	0.682120	0.630860
H7461	H746	0.437700	0.693300	0.631900
C12141	C1214	0.460190	0.677510	0.647240
H7471	H747	0.459600	0.685200	0.659800
C12151	C1215	0.474130	0.661380	0.644930
H7481	H748	0.483600	0.658800	0.656000
C12161	C1216	0.501100	0.628100	0.575520
C12171	C1217	0.517530	0.582520	0.637800
H7491	H749	0.506800	0.583500	0.647900
C12181	C1218	0.528940	0.565210	0.637260
H7501	H750	0.526700	0.554500	0.647200
C12191	C1219	0.544390	0.562950	0.621790
H7511	H751	0.552400	0.550600	0.620700
C12201	C1220	0.547440	0.579580	0.608270
C12211	C1221	0.534790	0.596960	0.610050
H7521	H752	0.536600	0.607900	0.600300
C12221	C1222	0.563230	0.578610	0.592070
N4611	N461	0.409970	0.635100	0.515610
N4621	N462	0.354650	0.773090	0.613250
N4631	N463	0.373280	0.732430	0.600680
N4641	N464	0.409430	0.679080	0.563090
N4651	N465	0.420230	0.688580	0.596580
N4661	N466	0.438490	0.662460	0.577740
N4671	N467	0.475120	0.649260	0.628270
N4681	N468	0.520330	0.599160	0.624520
N4691	N469	0.498980	0.627070	0.592970
N4701	N470	0.563130	0.593430	0.577510
S931	S93	0.327430	0.790170	0.584350
S941	S94	0.503590	0.629210	0.549750
C12231	C1223	0.410100	0.148340	0.031780
H7531	H753	0.397600	0.155700	0.034900
C12241	C1224	0.427270	0.151890	0.044170
C12251	C1225	0.445630	0.141830	0.039510
H7541	H754	0.457600	0.143400	0.048100
C12261	C1226	0.446170	0.129380	0.022020
H7551	H755	0.458900	0.123300	0.017600
C12271	C1227	0.428290	0.125780	0.010990
H7561	H756	0.428800	0.116300	0.999600
C12281	C1228	0.343420	0.281000	0.101510
C12291	C1229	0.359330	0.233270	0.085160
H7571	H757	0.348800	0.243600	0.086000
C12301	C1230	0.359230	0.220410	0.068300
H7581	H758	0.348500	0.221300	0.058200
C12311	C1231	0.375050	0.206110	0.066240
H7591	H759	0.375500	0.196900	0.054700
C12321	C1232	0.390460	0.205460	0.081540
C12331	C1233	0.388850	0.218850	0.098010
H7601	H760	0.399500	0.218500	0.108200
C12341	C1234	0.407930	0.190170	0.080040
C12351	C1235	0.435220	0.174300	0.095030
C12361	C1236	0.425260	0.165370	0.062530
C12371	C1237	0.462360	0.153410	0.112830
H7611	H761	0.462600	0.144600	0.101000
C12381	C1238	0.448230	0.170380	0.112980
C12391	C1239	0.447240	0.182120	0.130860
H7621	H762	0.437700	0.193300	0.131900
C12401	C1240	0.460190	0.177510	0.147240
H7631	H763	0.459600	0.185200	0.159800
C12411	C1241	0.474130	0.161380	0.144930
H7641	H764	0.483600	0.158800	0.156000
C12421	C1242	0.501100	0.128100	0.075520
C12431	C1243	0.517530	0.082520	0.137800
H7651	H765	0.506800	0.083500	0.147900
C12441	C1244	0.528940	0.065210	0.137260
H7661	H766	0.526700	0.054500	0.147200
C12451	C1245	0.544390	0.062950	0.121790
H7671	H767	0.552400	0.050600	0.120700
C12461	C1246	0.547440	0.079580	0.108270
C12471	C1247	0.534790	0.096960	0.110050
H7681	H768	0.536600	0.107900	0.100300
C12481	C1248	0.563230	0.078610	0.092070
N4711	N471	0.409970	0.135100	0.015610
N4721	N472	0.354650	0.273090	0.113250
N4731	N473	0.373280	0.232430	0.100680
N4741	N474	0.409430	0.179080	0.063090
N4751	N475	0.420230	0.188580	0.096580
N4761	N476	0.438490	0.162460	0.077740
N4771	N477	0.475120	0.149260	0.128270
N4781	N478	0.520330	0.099160	0.124520
N4791	N479	0.498980	0.127070	0.092970
N4801	N480	0.563130	0.093430	0.077510
S951	S95	0.327430	0.290170	0.084350
S961	S96	0.503590	0.129210	0.049750
C12491	C1249	0.089900	0.781780	0.898340
H7691	H769	0.102400	0.784900	0.905700
C12501	C1250	0.072730	0.794170	0.901890
C12511	C1251	0.054370	0.789510	0.891830
H7701	H770	0.042400	0.798100	0.893400
C12521	C1252	0.053830	0.772020	0.879380
H7711	H771	0.041100	0.767600	0.873300
C12531	C1253	0.071710	0.760990	0.875780
H7721	H772	0.071200	0.749600	0.866300
C12541	C1254	0.156580	0.851510	0.031000
C12551	C1255	0.140670	0.835160	0.983270
H7731	H773	0.151200	0.836000	0.993600
C12561	C1256	0.140770	0.818300	0.970410
H7741	H774	0.151500	0.808200	0.971300
C12571	C1257	0.124950	0.816240	0.956110
H7751	H775	0.124500	0.804700	0.946900
C12581	C1258	0.109540	0.831540	0.955460
C12591	C1259	0.111150	0.848010	0.968850
H7761	H776	0.100500	0.858200	0.968500
C12601	C1260	0.092070	0.830040	0.940170
C12611	C1261	0.064780	0.845030	0.924300
C12621	C1262	0.074740	0.812530	0.915370
C12631	C1263	0.037640	0.862830	0.903410
H7771	H777	0.037400	0.851000	0.894600
C12641	C1264	0.051770	0.862980	0.920380
C12651	C1265	0.052760	0.880860	0.932120
H7781	H778	0.062300	0.881900	0.943300
C12661	C1266	0.039810	0.897240	0.927510
H7791	H779	0.040400	0.909800	0.935200
C12671	C1267	0.025870	0.894930	0.911380
H7801	H780	0.016400	0.906000	0.908800
C12681	C1268	0.998900	0.825520	0.878100
C12691	C1269	0.982470	0.887800	0.832520
H7811	H781	0.993200	0.897900	0.833500
C12701	C1270	0.971060	0.887260	0.815210
H7821	H782	0.973300	0.897200	0.804500
C12711	C1271	0.955610	0.871790	0.812950
H7831	H783	0.947600	0.870700	0.800600
C12721	C1272	0.952560	0.858270	0.829580
C12731	C1273	0.965210	0.860050	0.846960
H7841	H784	0.963400	0.850300	0.857900
C12741	C1274	0.936770	0.842070	0.828610
N4811	N481	0.090030	0.765610	0.885100
N4821	N482	0.145350	0.863250	0.023090
N4831	N483	0.126720	0.850680	0.982430
N4841	N484	0.090570	0.813090	0.929080
N4851	N485	0.079770	0.846580	0.938580
N4861	N486	0.061510	0.827740	0.912460
N4871	N487	0.024880	0.878270	0.899260
N4881	N488	0.979670	0.874520	0.849160
N4891	N489	0.001020	0.842970	0.877070
N4901	N490	0.936870	0.827510	0.843430
S971	S97	0.172570	0.834350	0.040170
S981	S98	0.996410	0.799750	0.879210
C12751	C1275	0.089900	0.281780	0.398340
H7851	H785	0.102400	0.284900	0.405700
C12761	C1276	0.072730	0.294170	0.401890
C12771	C1277	0.054370	0.289510	0.391830
H7861	H786	0.042400	0.298100	0.393400
C12781	C1278	0.053830	0.272020	0.379380
H7871	H787	0.041100	0.267600	0.373300
C12791	C1279	0.071710	0.260990	0.375780
H7881	H788	0.071200	0.249600	0.366300
C12801	C1280	0.156580	0.351510	0.531000
C12811	C1281	0.140670	0.335160	0.483270
H7891	H789	0.151200	0.336000	0.493600
C12821	C1282	0.140770	0.318300	0.470410
H7901	H790	0.151500	0.308200	0.471300
C12831	C1283	0.124950	0.316240	0.456110
H7911	H791	0.124500	0.304700	0.446900
C12841	C1284	0.109540	0.331540	0.455460
C12851	C1285	0.111150	0.348010	0.468850
H7921	H792	0.100500	0.358200	0.468500
C12861	C1286	0.092070	0.330040	0.440170
C12871	C1287	0.064780	0.345030	0.424300
C12881	C1288	0.074740	0.312530	0.415370
C12891	C1289	0.037640	0.362830	0.403410
H7931	H793	0.037400	0.351000	0.394600
C12901	C1290	0.051770	0.362980	0.420380
C12911	C1291	0.052760	0.380860	0.432120
H7941	H794	0.062300	0.381900	0.443300
C12921	C1292	0.039810	0.397240	0.427510
H7951	H795	0.040400	0.409800	0.435200
C12931	C1293	0.025870	0.394930	0.411380
H7961	H796	0.016400	0.406000	0.408800
C12941	C1294	0.998900	0.325520	0.378100
C12951	C1295	0.982470	0.387800	0.332520
H7971	H797	0.993200	0.397900	0.333500
C12961	C1296	0.971060	0.387260	0.315210
H7981	H798	0.973300	0.397200	0.304500
C12971	C1297	0.955610	0.371790	0.312950
H7991	H799	0.947600	0.370700	0.300600
C12981	C1298	0.952560	0.358270	0.329580
C12991	C1299	0.965210	0.360050	0.346960
H8001	H800	0.963400	0.350300	0.357900
C13001	C1300	0.936770	0.342070	0.328610
N4911	N491	0.090030	0.265610	0.385100
N4921	N492	0.145350	0.363250	0.523090
N4931	N493	0.126720	0.350680	0.482430
N4941	N494	0.090570	0.313090	0.429080
N4951	N495	0.079770	0.346580	0.438580
N4961	N496	0.061510	0.327740	0.412460
N4971	N497	0.024880	0.378270	0.399260
N4981	N498	0.979670	0.374520	0.349160
N4991	N499	0.001020	0.342970	0.377070
N5001	N500	0.936870	0.327510	0.343430
S991	S99	0.172570	0.334350	0.540170
S1001	S100	0.996410	0.299750	0.379210
C13011	C1301	0.589900	0.781780	0.398340
H8011	H801	0.602400	0.784900	0.405700
C13021	C1302	0.572730	0.794170	0.401890
C13031	C1303	0.554370	0.789510	0.391830
H8021	H802	0.542400	0.798100	0.393400
C13041	C1304	0.553830	0.772020	0.379380
H8031	H803	0.541100	0.767600	0.373300
C13051	C1305	0.571710	0.760990	0.375780
H8041	H804	0.571200	0.749600	0.366300
C13061	C1306	0.656580	0.851510	0.531000
C13071	C1307	0.640670	0.835160	0.483270
H8051	H805	0.651200	0.836000	0.493600
C13081	C1308	0.640770	0.818300	0.470410
H8061	H806	0.651500	0.808200	0.471300
C13091	C1309	0.624950	0.816240	0.456110
H8071	H807	0.624500	0.804700	0.446900
C13101	C1310	0.609540	0.831540	0.455460
C13111	C1311	0.611150	0.848010	0.468850
H8081	H808	0.600500	0.858200	0.468500
C13121	C1312	0.592070	0.830040	0.440170
C13131	C1313	0.564780	0.845030	0.424300
C13141	C1314	0.574740	0.812530	0.415370
C13151	C1315	0.537640	0.862830	0.403410
H8091	H809	0.537400	0.851000	0.394600
C13161	C1316	0.551770	0.862980	0.420380
C13171	C1317	0.552760	0.880860	0.432120
H8101	H810	0.562300	0.881900	0.443300
C13181	C1318	0.539810	0.897240	0.427510
H8111	H811	0.540400	0.909800	0.435200
C13191	C1319	0.525870	0.894930	0.411380
H8121	H812	0.516400	0.906000	0.408800
C13201	C1320	0.498900	0.825520	0.378100
C13211	C1321	0.482470	0.887800	0.332520
H8131	H813	0.493200	0.897900	0.333500
C13221	C1322	0.471060	0.887260	0.315210
H8141	H814	0.473300	0.897200	0.304500
C13231	C1323	0.455610	0.871790	0.312950
H8151	H815	0.447600	0.870700	0.300600
C13241	C1324	0.452560	0.858270	0.329580
C13251	C1325	0.465210	0.860050	0.346960
H8161	H816	0.463400	0.850300	0.357900
C13261	C1326	0.436770	0.842070	0.328610
N5011	N501	0.590030	0.765610	0.385100
N5021	N502	0.645350	0.863250	0.523090
N5031	N503	0.626720	0.850680	0.482430
N5041	N504	0.590570	0.813090	0.429080
N5051	N505	0.579770	0.846580	0.438580
N5061	N506	0.561510	0.827740	0.412460
N5071	N507	0.524880	0.878270	0.399260
N5081	N508	0.479670	0.874520	0.349160
N5091	N509	0.501020	0.842970	0.377070
N5101	N510	0.436870	0.827510	0.343430
S1011	S101	0.672570	0.834350	0.540170
S1021	S102	0.496410	0.799750	0.379210
C13271	C1327	0.589900	0.281780	0.898340
H8171	H817	0.602400	0.284900	0.905700
C13281	C1328	0.572730	0.294170	0.901890
C13291	C1329	0.554370	0.289510	0.891830
H8181	H818	0.542400	0.298100	0.893400
C13301	C1330	0.553830	0.272020	0.879380
H8191	H819	0.541100	0.267600	0.873300
C13311	C1331	0.571710	0.260990	0.875780
H8201	H820	0.571200	0.249600	0.866300
C13321	C1332	0.656580	0.351510	0.031000
C13331	C1333	0.640670	0.335160	0.983270
H8211	H821	0.651200	0.336000	0.993600
C13341	C1334	0.640770	0.318300	0.970410
H8221	H822	0.651500	0.308200	0.971300
C13351	C1335	0.624950	0.316240	0.956110
H8231	H823	0.624500	0.304700	0.946900
C13361	C1336	0.609540	0.331540	0.955460
C13371	C1337	0.611150	0.348010	0.968850
H8241	H824	0.600500	0.358200	0.968500
C13381	C1338	0.592070	0.330040	0.940170
C13391	C1339	0.564780	0.345030	0.924300
C13401	C1340	0.574740	0.312530	0.915370
C13411	C1341	0.537640	0.362830	0.903410
H8251	H825	0.537400	0.351000	0.894600
C13421	C1342	0.551770	0.362980	0.920380
C13431	C1343	0.552760	0.380860	0.932120
H8261	H826	0.562300	0.381900	0.943300
C13441	C1344	0.539810	0.397240	0.927510
H8271	H827	0.540400	0.409800	0.935200
C13451	C1345	0.525870	0.394930	0.911380
H8281	H828	0.516400	0.406000	0.908800
C13461	C1346	0.498900	0.325520	0.878100
C13471	C1347	0.482470	0.387800	0.832520
H8291	H829	0.493200	0.397900	0.833500
C13481	C1348	0.471060	0.387260	0.815210
H8301	H830	0.473300	0.397200	0.804500
C13491	C1349	0.455610	0.371790	0.812950
H8311	H831	0.447600	0.370700	0.800600
C13501	C1350	0.452560	0.358270	0.829580
C13511	C1351	0.465210	0.360050	0.846960
H8321	H832	0.463400	0.350300	0.857900
C13521	C1352	0.436770	0.342070	0.828610
N5111	N511	0.590030	0.265610	0.885100
N5121	N512	0.645350	0.363250	0.023090
N5131	N513	0.626720	0.350680	0.982430
N5141	N514	0.590570	0.313090	0.929080
N5151	N515	0.579770	0.346580	0.938580
N5161	N516	0.561510	0.327740	0.912460
N5171	N517	0.524880	0.378270	0.899260
N5181	N518	0.479670	0.374520	0.849160
N5191	N519	0.501020	0.342970	0.877070
N5201	N520	0.436870	0.327510	0.843430
S1031	S103	0.672570	0.334350	0.040170
S1041	S104	0.496410	0.299750	0.879210
C13531	C1353	0.160100	0.968220	0.398340
H8331	H833	0.147600	0.965100	0.405700
C13541	C1354	0.177270	0.955830	0.401890
C13551	C1355	0.195630	0.960490	0.391830
H8341	H834	0.207600	0.951900	0.393400
C13561	C1356	0.196170	0.977980	0.379380
H8351	H835	0.208900	0.982400	0.373300
C13571	C1357	0.178290	0.989010	0.375780
H8361	H836	0.178800	0.000400	0.366300
C13581	C1358	0.093420	0.898490	0.531000
C13591	C1359	0.109330	0.914840	0.483270
H8371	H837	0.098800	0.914000	0.493600
C13601	C1360	0.109230	0.931700	0.470410
H8381	H838	0.098500	0.941800	0.471300
C13611	C1361	0.125050	0.933760	0.456110
H8391	H839	0.125500	0.945300	0.446900
C13621	C1362	0.140460	0.918460	0.455460
C13631	C1363	0.138850	0.901990	0.468850
H8401	H840	0.149500	0.891800	0.468500
C13641	C1364	0.157930	0.919960	0.440170
C13651	C1365	0.185220	0.904970	0.424300
C13661	C1366	0.175260	0.937470	0.415370
C13671	C1367	0.212360	0.887170	0.403410
H8411	H841	0.212600	0.899000	0.394600
C13681	C1368	0.198230	0.887020	0.420380
C13691	C1369	0.197240	0.869140	0.432120
H8421	H842	0.187700	0.868100	0.443300
C13701	C1370	0.210190	0.852760	0.427510
H8431	H843	0.209600	0.840200	0.435200
C13711	C1371	0.224130	0.855070	0.411380
H8441	H844	0.233600	0.844000	0.408800
C13721	C1372	0.251100	0.924480	0.378100
C13731	C1373	0.267530	0.862200	0.332520
H8451	H845	0.256800	0.852100	0.333500
C13741	C1374	0.278940	0.862740	0.315210
H8461	H846	0.276700	0.852800	0.304500
C13751	C1375	0.294390	0.878210	0.312950
H8471	H847	0.302400	0.879300	0.300600
C13761	C1376	0.297440	0.891730	0.329580
C13771	C1377	0.284790	0.889950	0.346960
H8481	H848	0.286600	0.899700	0.357900
C13781	C1378	0.313230	0.907930	0.328610
N5211	N521	0.159970	0.984390	0.385100
N5221	N522	0.104650	0.886750	0.523090
N5231	N523	0.123280	0.899320	0.482430
N5241	N524	0.159430	0.936910	0.429080
N5251	N525	0.170230	0.903420	0.438580
N5261	N526	0.188490	0.922260	0.412460
N5271	N527	0.225120	0.871730	0.399260
N5281	N528	0.270330	0.875480	0.349160
N5291	N529	0.248980	0.907030	0.377070
N5301	N530	0.313130	0.922490	0.343430
S1051	S105	0.077430	0.915650	0.540170
S1061	S106	0.253590	0.950250	0.379210
C13791	C1379	0.160100	0.468220	0.898340
H8491	H849	0.147600	0.465100	0.905700
C13801	C1380	0.177270	0.455830	0.901890
C13811	C1381	0.195630	0.460490	0.891830
H8501	H850	0.207600	0.451900	0.893400
C13821	C1382	0.196170	0.477980	0.879380
H8511	H851	0.208900	0.482400	0.873300
C13831	C1383	0.178290	0.489010	0.875780
H8521	H852	0.178800	0.500400	0.866300
C13841	C1384	0.093420	0.398490	0.031000
C13851	C1385	0.109330	0.414840	0.983270
H8531	H853	0.098800	0.414000	0.993600
C13861	C1386	0.109230	0.431700	0.970410
H8541	H854	0.098500	0.441800	0.971300
C13871	C1387	0.125050	0.433760	0.956110
H8551	H855	0.125500	0.445300	0.946900
C13881	C1388	0.140460	0.418460	0.955460
C13891	C1389	0.138850	0.401990	0.968850
H8561	H856	0.149500	0.391800	0.968500
C13901	C1390	0.157930	0.419960	0.940170
C13911	C1391	0.185220	0.404970	0.924300
C13921	C1392	0.175260	0.437470	0.915370
C13931	C1393	0.212360	0.387170	0.903410
H8571	H857	0.212600	0.399000	0.894600
C13941	C1394	0.198230	0.387020	0.920380
C13951	C1395	0.197240	0.369140	0.932120
H8581	H858	0.187700	0.368100	0.943300
C13961	C1396	0.210190	0.352760	0.927510
H8591	H859	0.209600	0.340200	0.935200
C13971	C1397	0.224130	0.355070	0.911380
H8601	H860	0.233600	0.344000	0.908800
C13981	C1398	0.251100	0.424480	0.878100
C13991	C1399	0.267530	0.362200	0.832520
H8611	H861	0.256800	0.352100	0.833500
C14001	C1400	0.278940	0.362740	0.815210
H8621	H862	0.276700	0.352800	0.804500
C14011	C1401	0.294390	0.378210	0.812950
H8631	H863	0.302400	0.379300	0.800600
C14021	C1402	0.297440	0.391730	0.829580
C14031	C1403	0.284790	0.389950	0.846960
H8641	H864	0.286600	0.399700	0.857900
C14041	C1404	0.313230	0.407930	0.828610
N5311	N531	0.159970	0.484390	0.885100
N5321	N532	0.104650	0.386750	0.023090
N5331	N533	0.123280	0.399320	0.982430
N5341	N534	0.159430	0.436910	0.929080
N5351	N535	0.170230	0.403420	0.938580
N5361	N536	0.188490	0.422260	0.912460
N5371	N537	0.225120	0.371730	0.899260
N5381	N538	0.270330	0.375480	0.849160
N5391	N539	0.248980	0.407030	0.877070
N5401	N540	0.313130	0.422490	0.843430
S1071	S107	0.077430	0.415650	0.040170
S1081	S108	0.253590	0.450250	0.879210
C14051	C1405	0.660100	0.968220	0.898340
H8651	H865	0.647600	0.965100	0.905700
C14061	C1406	0.677270	0.955830	0.901890
C14071	C1407	0.695630	0.960490	0.891830
H8661	H866	0.707600	0.951900	0.893400
C14081	C1408	0.696170	0.977980	0.879380
H8671	H867	0.708900	0.982400	0.873300
C14091	C1409	0.678290	0.989010	0.875780
H8681	H868	0.678800	0.000400	0.866300
C14101	C1410	0.593420	0.898490	0.031000
C14111	C1411	0.609330	0.914840	0.983270
H8691	H869	0.598800	0.914000	0.993600
C14121	C1412	0.609230	0.931700	0.970410
H8701	H870	0.598500	0.941800	0.971300
C14131	C1413	0.625050	0.933760	0.956110
H8711	H871	0.625500	0.945300	0.946900
C14141	C1414	0.640460	0.918460	0.955460
C14151	C1415	0.638850	0.901990	0.968850
H8721	H872	0.649500	0.891800	0.968500
C14161	C1416	0.657930	0.919960	0.940170
C14171	C1417	0.685220	0.904970	0.924300
C14181	C1418	0.675260	0.937470	0.915370
C14191	C1419	0.712360	0.887170	0.903410
H8731	H873	0.712600	0.899000	0.894600
C14201	C1420	0.698230	0.887020	0.920380
C14211	C1421	0.697240	0.869140	0.932120
H8741	H874	0.687700	0.868100	0.943300
C14221	C1422	0.710190	0.852760	0.927510
H8751	H875	0.709600	0.840200	0.935200
C14231	C1423	0.724130	0.855070	0.911380
H8761	H876	0.733600	0.844000	0.908800
C14241	C1424	0.751100	0.924480	0.878100
C14251	C1425	0.767530	0.862200	0.832520
H8771	H877	0.756800	0.852100	0.833500
C14261	C1426	0.778940	0.862740	0.815210
H8781	H878	0.776700	0.852800	0.804500
C14271	C1427	0.794390	0.878210	0.812950
H8791	H879	0.802400	0.879300	0.800600
C14281	C1428	0.797440	0.891730	0.829580
C14291	C1429	0.784790	0.889950	0.846960
H8801	H880	0.786600	0.899700	0.857900
C14301	C1430	0.813230	0.907930	0.828610
N5411	N541	0.659970	0.984390	0.885100
N5421	N542	0.604650	0.886750	0.023090
N5431	N543	0.623280	0.899320	0.982430
N5441	N544	0.659430	0.936910	0.929080
N5451	N545	0.670230	0.903420	0.938580
N5461	N546	0.688490	0.922260	0.912460
N5471	N547	0.725120	0.871730	0.899260
N5481	N548	0.770330	0.875480	0.849160
N5491	N549	0.748980	0.907030	0.877070
N5501	N550	0.813130	0.922490	0.843430
S1091	S109	0.577430	0.915650	0.040170
S1101	S110	0.753590	0.950250	0.879210
C14311	C1431	0.660100	0.468220	0.398340
H8811	H881	0.647600	0.465100	0.405700
C14321	C1432	0.677270	0.455830	0.401890
C14331	C1433	0.695630	0.460490	0.391830
H8821	H882	0.707600	0.451900	0.393400
C14341	C1434	0.696170	0.477980	0.379380
H8831	H883	0.708900	0.482400	0.373300
C14351	C1435	0.678290	0.489010	0.375780
H8841	H884	0.678800	0.500400	0.366300
C14361	C1436	0.593420	0.398490	0.531000
C14371	C1437	0.609330	0.414840	0.483270
H8851	H885	0.598800	0.414000	0.493600
C14381	C1438	0.609230	0.431700	0.470410
H8861	H886	0.598500	0.441800	0.471300
C14391	C1439	0.625050	0.433760	0.456110
H8871	H887	0.625500	0.445300	0.446900
C14401	C1440	0.640460	0.418460	0.455460
C14411	C1441	0.638850	0.401990	0.468850
H8881	H888	0.649500	0.391800	0.468500
C14421	C1442	0.657930	0.419960	0.440170
C14431	C1443	0.685220	0.404970	0.424300
C14441	C1444	0.675260	0.437470	0.415370
C14451	C1445	0.712360	0.387170	0.403410
H8891	H889	0.712600	0.399000	0.394600
C14461	C1446	0.698230	0.387020	0.420380
C14471	C1447	0.697240	0.369140	0.432120
H8901	H890	0.687700	0.368100	0.443300
C14481	C1448	0.710190	0.352760	0.427510
H8911	H891	0.709600	0.340200	0.435200
C14491	C1449	0.724130	0.355070	0.411380
H8921	H892	0.733600	0.344000	0.408800
C14501	C1450	0.751100	0.424480	0.378100
C14511	C1451	0.767530	0.362200	0.332520
H8931	H893	0.756800	0.352100	0.333500
C14521	C1452	0.778940	0.362740	0.315210
H8941	H894	0.776700	0.352800	0.304500
C14531	C1453	0.794390	0.378210	0.312950
H8951	H895	0.802400	0.379300	0.300600
C14541	C1454	0.797440	0.391730	0.329580
C14551	C1455	0.784790	0.389950	0.346960
H8961	H896	0.786600	0.399700	0.357900
C14561	C1456	0.813230	0.407930	0.328610
N5511	N551	0.659970	0.484390	0.385100
N5521	N552	0.604650	0.386750	0.523090
N5531	N553	0.623280	0.399320	0.482430
N5541	N554	0.659430	0.436910	0.429080
N5551	N555	0.670230	0.403420	0.438580
N5561	N556	0.688490	0.422260	0.412460
N5571	N557	0.725120	0.371730	0.399260
N5581	N558	0.770330	0.375480	0.349160
N5591	N559	0.748980	0.407030	0.377070
N5601	N560	0.813130	0.422490	0.343430
S1111	S111	0.577430	0.415650	0.540170
S1121	S112	0.753590	0.450250	0.379210
C14571	C1457	0.589900	0.468220	0.851660
H8971	H897	0.602400	0.465100	0.844300
C14581	C1458	0.572730	0.455830	0.848110
C14591	C1459	0.554370	0.460490	0.858170
H8981	H898	0.542400	0.451900	0.856600
C14601	C1460	0.553830	0.477980	0.870620
H8991	H899	0.541100	0.482400	0.876700
C14611	C1461	0.571710	0.489010	0.874220
H9001	H900	0.571200	0.500400	0.883700
C14621	C1462	0.656580	0.398490	0.719000
C14631	C1463	0.640670	0.414840	0.766730
H9011	H901	0.651200	0.414000	0.756400
C14641	C1464	0.640770	0.431700	0.779590
H9021	H902	0.651500	0.441800	0.778700
C14651	C1465	0.624950	0.433760	0.793890
H9031	H903	0.624500	0.445300	0.803100
C14661	C1466	0.609540	0.418460	0.794540
C14671	C1467	0.611150	0.401990	0.781150
H9041	H904	0.600500	0.391800	0.781500
C14681	C1468	0.592070	0.419960	0.809830
C14691	C1469	0.564780	0.404970	0.825700
C14701	C1470	0.574740	0.437470	0.834630
C14711	C1471	0.537640	0.387170	0.846590
H9051	H905	0.537400	0.399000	0.855400
C14721	C1472	0.551770	0.387020	0.829620
C14731	C1473	0.552760	0.369140	0.817880
H9061	H906	0.562300	0.368100	0.806700
C14741	C1474	0.539810	0.352760	0.822490
H9071	H907	0.540400	0.340200	0.814800
C14751	C1475	0.525870	0.355070	0.838620
H9081	H908	0.516400	0.344000	0.841200
C14761	C1476	0.498900	0.424480	0.871900
C14771	C1477	0.482470	0.362200	0.917480
H9091	H909	0.493200	0.352100	0.916500
C14781	C1478	0.471060	0.362740	0.934790
H9101	H910	0.473300	0.352800	0.945500
C14791	C1479	0.455610	0.378210	0.937050
H9111	H911	0.447600	0.379300	0.949400
C14801	C1480	0.452560	0.391730	0.920420
C14811	C1481	0.465210	0.389950	0.903040
H9121	H912	0.463400	0.399700	0.892100
C14821	C1482	0.436770	0.407930	0.921390
N5611	N561	0.590030	0.484390	0.864900
N5621	N562	0.645350	0.386750	0.726910
N5631	N563	0.626720	0.399320	0.767570
N5641	N564	0.590570	0.436910	0.820920
N5651	N565	0.579770	0.403420	0.811420
N5661	N566	0.561510	0.422260	0.837540
N5671	N567	0.524880	0.371730	0.850740
N5681	N568	0.479670	0.375480	0.900840
N5691	N569	0.501020	0.407030	0.872930
N5701	N570	0.436870	0.422490	0.906570
S1131	S113	0.672570	0.415650	0.709830
S1141	S114	0.496410	0.450250	0.870790
C14831	C1483	0.589900	0.968220	0.351660
H9131	H913	0.602400	0.965100	0.344300
C14841	C1484	0.572730	0.955830	0.348110
C14851	C1485	0.554370	0.960490	0.358170
H9141	H914	0.542400	0.951900	0.356600
C14861	C1486	0.553830	0.977980	0.370620
H9151	H915	0.541100	0.982400	0.376700
C14871	C1487	0.571710	0.989010	0.374220
H9161	H916	0.571200	0.000400	0.383700
C14881	C1488	0.656580	0.898490	0.219000
C14891	C1489	0.640670	0.914840	0.266730
H9171	H917	0.651200	0.914000	0.256400
C14901	C1490	0.640770	0.931700	0.279590
H9181	H918	0.651500	0.941800	0.278700
C14911	C1491	0.624950	0.933760	0.293890
H9191	H919	0.624500	0.945300	0.303100
C14921	C1492	0.609540	0.918460	0.294540
C14931	C1493	0.611150	0.901990	0.281150
H9201	H920	0.600500	0.891800	0.281500
C14941	C1494	0.592070	0.919960	0.309830
C14951	C1495	0.564780	0.904970	0.325700
C14961	C1496	0.574740	0.937470	0.334630
C14971	C1497	0.537640	0.887170	0.346590
H9211	H921	0.537400	0.899000	0.355400
C14981	C1498	0.551770	0.887020	0.329620
C14991	C1499	0.552760	0.869140	0.317880
H9221	H922	0.562300	0.868100	0.306700
C15001	C1500	0.539810	0.852760	0.322490
H9231	H923	0.540400	0.840200	0.314800
C15011	C1501	0.525870	0.855070	0.338620
H9241	H924	0.516400	0.844000	0.341200
C15021	C1502	0.498900	0.924480	0.371900
C15031	C1503	0.482470	0.862200	0.417480
H9251	H925	0.493200	0.852100	0.416500
C15041	C1504	0.471060	0.862740	0.434790
H9261	H926	0.473300	0.852800	0.445500
C15051	C1505	0.455610	0.878210	0.437050
H9271	H927	0.447600	0.879300	0.449400
C15061	C1506	0.452560	0.891730	0.420420
C15071	C1507	0.465210	0.889950	0.403040
H9281	H928	0.463400	0.899700	0.392100
C15081	C1508	0.436770	0.907930	0.421390
N5711	N571	0.590030	0.984390	0.364900
N5721	N572	0.645350	0.886750	0.226910
N5731	N573	0.626720	0.899320	0.267570
N5741	N574	0.590570	0.936910	0.320920
N5751	N575	0.579770	0.903420	0.311420
N5761	N576	0.561510	0.922260	0.337540
N5771	N577	0.524880	0.871730	0.350740
N5781	N578	0.479670	0.875480	0.400840
N5791	N579	0.501020	0.907030	0.372930
N5801	N580	0.436870	0.922490	0.406570
S1151	S115	0.672570	0.915650	0.209830
S1161	S116	0.496410	0.950250	0.370790
C15091	C1509	0.089900	0.468220	0.351660
H9291	H929	0.102400	0.465100	0.344300
C15101	C1510	0.072730	0.455830	0.348110
C15111	C1511	0.054370	0.460490	0.358170
H9301	H930	0.042400	0.451900	0.356600
C15121	C1512	0.053830	0.477980	0.370620
H9311	H931	0.041100	0.482400	0.376700
C15131	C1513	0.071710	0.489010	0.374220
H9321	H932	0.071200	0.500400	0.383700
C15141	C1514	0.156580	0.398490	0.219000
C15151	C1515	0.140670	0.414840	0.266730
H9331	H933	0.151200	0.414000	0.256400
C15161	C1516	0.140770	0.431700	0.279590
H9341	H934	0.151500	0.441800	0.278700
C15171	C1517	0.124950	0.433760	0.293890
H9351	H935	0.124500	0.445300	0.303100
C15181	C1518	0.109540	0.418460	0.294540
C15191	C1519	0.111150	0.401990	0.281150
H9361	H936	0.100500	0.391800	0.281500
C15201	C1520	0.092070	0.419960	0.309830
C15211	C1521	0.064780	0.404970	0.325700
C15221	C1522	0.074740	0.437470	0.334630
C15231	C1523	0.037640	0.387170	0.346590
H9371	H937	0.037400	0.399000	0.355400
C15241	C1524	0.051770	0.387020	0.329620
C15251	C1525	0.052760	0.369140	0.317880
H9381	H938	0.062300	0.368100	0.306700
C15261	C1526	0.039810	0.352760	0.322490
H9391	H939	0.040400	0.340200	0.314800
C15271	C1527	0.025870	0.355070	0.338620
H9401	H940	0.016400	0.344000	0.341200
C15281	C1528	0.998900	0.424480	0.371900
C15291	C1529	0.982470	0.362200	0.417480
H9411	H941	0.993200	0.352100	0.416500
C15301	C1530	0.971060	0.362740	0.434790
H9421	H942	0.973300	0.352800	0.445500
C15311	C1531	0.955610	0.378210	0.437050
H9431	H943	0.947600	0.379300	0.449400
C15321	C1532	0.952560	0.391730	0.420420
C15331	C1533	0.965210	0.389950	0.403040
H9441	H944	0.963400	0.399700	0.392100
C15341	C1534	0.936770	0.407930	0.421390
N5811	N581	0.090030	0.484390	0.364900
N5821	N582	0.145350	0.386750	0.226910
N5831	N583	0.126720	0.399320	0.267570
N5841	N584	0.090570	0.436910	0.320920
N5851	N585	0.079770	0.403420	0.311420
N5861	N586	0.061510	0.422260	0.337540
N5871	N587	0.024880	0.371730	0.350740
N5881	N588	0.979670	0.375480	0.400840
N5891	N589	0.001020	0.407030	0.372930
N5901	N590	0.936870	0.422490	0.406570
S1171	S117	0.172570	0.415650	0.209830
S1181	S118	0.996410	0.450250	0.370790
C15351	C1535	0.089900	0.968220	0.851660
H9451	H945	0.102400	0.965100	0.844300
C15361	C1536	0.072730	0.955830	0.848110
C15371	C1537	0.054370	0.960490	0.858170
H9461	H946	0.042400	0.951900	0.856600
C15381	C1538	0.053830	0.977980	0.870620
H9471	H947	0.041100	0.982400	0.876700
C15391	C1539	0.071710	0.989010	0.874220
H9481	H948	0.071200	0.000400	0.883700
C15401	C1540	0.156580	0.898490	0.719000
C15411	C1541	0.140670	0.914840	0.766730
H9491	H949	0.151200	0.914000	0.756400
C15421	C1542	0.140770	0.931700	0.779590
H9501	H950	0.151500	0.941800	0.778700
C15431	C1543	0.124950	0.933760	0.793890
H9511	H951	0.124500	0.945300	0.803100
C15441	C1544	0.109540	0.918460	0.794540
C15451	C1545	0.111150	0.901990	0.781150
H9521	H952	0.100500	0.891800	0.781500
C15461	C1546	0.092070	0.919960	0.809830
C15471	C1547	0.064780	0.904970	0.825700
C15481	C1548	0.074740	0.937470	0.834630
C15491	C1549	0.037640	0.887170	0.846590
H9531	H953	0.037400	0.899000	0.855400
C15501	C1550	0.051770	0.887020	0.829620
C15511	C1551	0.052760	0.869140	0.817880
H9541	H954	0.062300	0.868100	0.806700
C15521	C1552	0.039810	0.852760	0.822490
H9551	H955	0.040400	0.840200	0.814800
C15531	C1553	0.025870	0.855070	0.838620
H9561	H956	0.016400	0.844000	0.841200
C15541	C1554	0.998900	0.924480	0.871900
C15551	C1555	0.982470	0.862200	0.917480
H9571	H957	0.993200	0.852100	0.916500
C15561	C1556	0.971060	0.862740	0.934790
H9581	H958	0.973300	0.852800	0.945500
C15571	C1557	0.955610	0.878210	0.937050
H9591	H959	0.947600	0.879300	0.949400
C15581	C1558	0.952560	0.891730	0.920420
C15591	C1559	0.965210	0.889950	0.903040
H9601	H960	0.963400	0.899700	0.892100
C15601	C1560	0.936770	0.907930	0.921390
N5911	N591	0.090030	0.984390	0.864900
N5921	N592	0.145350	0.886750	0.726910
N5931	N593	0.126720	0.899320	0.767570
N5941	N594	0.090570	0.936910	0.820920
N5951	N595	0.079770	0.903420	0.811420
N5961	N596	0.061510	0.922260	0.837540
N5971	N597	0.024880	0.871730	0.850740
N5981	N598	0.979670	0.875480	0.900840
N5991	N599	0.001020	0.907030	0.872930
N6001	N600	0.936870	0.922490	0.906570
S1191	S119	0.172570	0.915650	0.709830
S1201	S120	0.996410	0.950250	0.870790
C15611	C1561	0.660100	0.281780	0.351660
H9611	H961	0.647600	0.284900	0.344300
C15621	C1562	0.677270	0.294170	0.348110
C15631	C1563	0.695630	0.289510	0.358170
H9621	H962	0.707600	0.298100	0.356600
C15641	C1564	0.696170	0.272020	0.370620
H9631	H963	0.708900	0.267600	0.376700
C15651	C1565	0.678290	0.260990	0.374220
H9641	H964	0.678800	0.249600	0.383700
C15661	C1566	0.593420	0.351510	0.219000
C15671	C1567	0.609330	0.335160	0.266730
H9651	H965	0.598800	0.336000	0.256400
C15681	C1568	0.609230	0.318300	0.279590
H9661	H966	0.598500	0.308200	0.278700
C15691	C1569	0.625050	0.316240	0.293890
H9671	H967	0.625500	0.304700	0.303100
C15701	C1570	0.640460	0.331540	0.294540
C15711	C1571	0.638850	0.348010	0.281150
H9681	H968	0.649500	0.358200	0.281500
C15721	C1572	0.657930	0.330040	0.309830
C15731	C1573	0.685220	0.345030	0.325700
C15741	C1574	0.675260	0.312530	0.334630
C15751	C1575	0.712360	0.362830	0.346590
H9691	H969	0.712600	0.351000	0.355400
C15761	C1576	0.698230	0.362980	0.329620
C15771	C1577	0.697240	0.380860	0.317880
H9701	H970	0.687700	0.381900	0.306700
C15781	C1578	0.710190	0.397240	0.322490
H9711	H971	0.709600	0.409800	0.314800
C15791	C1579	0.724130	0.394930	0.338620
H9721	H972	0.733600	0.406000	0.341200
C15801	C1580	0.751100	0.325520	0.371900
C15811	C1581	0.767530	0.387800	0.417480
H9731	H973	0.756800	0.397900	0.416500
C15821	C1582	0.778940	0.387260	0.434790
H9741	H974	0.776700	0.397200	0.445500
C15831	C1583	0.794390	0.371790	0.437050
H9751	H975	0.802400	0.370700	0.449400
C15841	C1584	0.797440	0.358270	0.420420
C15851	C1585	0.784790	0.360050	0.403040
H9761	H976	0.786600	0.350300	0.392100
C15861	C1586	0.813230	0.342070	0.421390
N6011	N601	0.659970	0.265610	0.364900
N6021	N602	0.604650	0.363250	0.226910
N6031	N603	0.623280	0.350680	0.267570
N6041	N604	0.659430	0.313090	0.320920
N6051	N605	0.670230	0.346580	0.311420
N6061	N606	0.688490	0.327740	0.337540
N6071	N607	0.725120	0.378270	0.350740
N6081	N608	0.770330	0.374520	0.400840
N6091	N609	0.748980	0.342970	0.372930
N6101	N610	0.813130	0.327510	0.406570
S1211	S121	0.577430	0.334350	0.209830
S1221	S122	0.753590	0.299750	0.370790
C15871	C1587	0.660100	0.781780	0.851660
H9771	H977	0.647600	0.784900	0.844300
C15881	C1588	0.677270	0.794170	0.848110
C15891	C1589	0.695630	0.789510	0.858170
H9781	H978	0.707600	0.798100	0.856600
C15901	C1590	0.696170	0.772020	0.870620
H9791	H979	0.708900	0.767600	0.876700
C15911	C1591	0.678290	0.760990	0.874220
H9801	H980	0.678800	0.749600	0.883700
C15921	C1592	0.593420	0.851510	0.719000
C15931	C1593	0.609330	0.835160	0.766730
H9811	H981	0.598800	0.836000	0.756400
C15941	C1594	0.609230	0.818300	0.779590
H9821	H982	0.598500	0.808200	0.778700
C15951	C1595	0.625050	0.816240	0.793890
H9831	H983	0.625500	0.804700	0.803100
C15961	C1596	0.640460	0.831540	0.794540
C15971	C1597	0.638850	0.848010	0.781150
H9841	H984	0.649500	0.858200	0.781500
C15981	C1598	0.657930	0.830040	0.809830
C15991	C1599	0.685220	0.845030	0.825700
C16001	C1600	0.675260	0.812530	0.834630
C16011	C1601	0.712360	0.862830	0.846590
H9851	H985	0.712600	0.851000	0.855400
C16021	C1602	0.698230	0.862980	0.829620
C16031	C1603	0.697240	0.880860	0.817880
H9861	H986	0.687700	0.881900	0.806700
C16041	C1604	0.710190	0.897240	0.822490
H9871	H987	0.709600	0.909800	0.814800
C16051	C1605	0.724130	0.894930	0.838620
H9881	H988	0.733600	0.906000	0.841200
C16061	C1606	0.751100	0.825520	0.871900
C16071	C1607	0.767530	0.887800	0.917480
H9891	H989	0.756800	0.897900	0.916500
C16081	C1608	0.778940	0.887260	0.934790
H9901	H990	0.776700	0.897200	0.945500
C16091	C1609	0.794390	0.871790	0.937050
H9911	H991	0.802400	0.870700	0.949400
C16101	C1610	0.797440	0.858270	0.920420
C16111	C1611	0.784790	0.860050	0.903040
H9921	H992	0.786600	0.850300	0.892100
C16121	C1612	0.813230	0.842070	0.921390
N6111	N611	0.659970	0.765610	0.864900
N6121	N612	0.604650	0.863250	0.726910
N6131	N613	0.623280	0.850680	0.767570
N6141	N614	0.659430	0.813090	0.820920
N6151	N615	0.670230	0.846580	0.811420
N6161	N616	0.688490	0.827740	0.837540
N6171	N617	0.725120	0.878270	0.850740
N6181	N618	0.770330	0.874520	0.900840
N6191	N619	0.748980	0.842970	0.872930
N6201	N620	0.813130	0.827510	0.906570
S1231	S123	0.577430	0.834350	0.709830
S1241	S124	0.753590	0.799750	0.870790
C16131	C1613	0.160100	0.281780	0.851660
H9931	H993	0.147600	0.284900	0.844300
C16141	C1614	0.177270	0.294170	0.848110
C16151	C1615	0.195630	0.289510	0.858170
H9941	H994	0.207600	0.298100	0.856600
C16161	C1616	0.196170	0.272020	0.870620
H9951	H995	0.208900	0.267600	0.876700
C16171	C1617	0.178290	0.260990	0.874220
H9961	H996	0.178800	0.249600	0.883700
C16181	C1618	0.093420	0.351510	0.719000
C16191	C1619	0.109330	0.335160	0.766730
H9971	H997	0.098800	0.336000	0.756400
C16201	C1620	0.109230	0.318300	0.779590
H9981	H998	0.098500	0.308200	0.778700
C16211	C1621	0.125050	0.316240	0.793890
H9991	H999	0.125500	0.304700	0.803100
C16221	C1622	0.140460	0.331540	0.794540
C16231	C1623	0.138850	0.348010	0.781150
H10001	H1000	0.149500	0.358200	0.781500
C16241	C1624	0.157930	0.330040	0.809830
C16251	C1625	0.185220	0.345030	0.825700
C16261	C1626	0.175260	0.312530	0.834630
C16271	C1627	0.212360	0.362830	0.846590
H10011	H1001	0.212600	0.351000	0.855400
C16281	C1628	0.198230	0.362980	0.829620
C16291	C1629	0.197240	0.380860	0.817880
H10021	H1002	0.187700	0.381900	0.806700
C16301	C1630	0.210190	0.397240	0.822490
H10031	H1003	0.209600	0.409800	0.814800
C16311	C1631	0.224130	0.394930	0.838620
H10041	H1004	0.233600	0.406000	0.841200
C16321	C1632	0.251100	0.325520	0.871900
C16331	C1633	0.267530	0.387800	0.917480
H10051	H1005	0.256800	0.397900	0.916500
C16341	C1634	0.278940	0.387260	0.934790
H10061	H1006	0.276700	0.397200	0.945500
C16351	C1635	0.294390	0.371790	0.937050
H10071	H1007	0.302400	0.370700	0.949400
C16361	C1636	0.297440	0.358270	0.920420
C16371	C1637	0.284790	0.360050	0.903040
H10081	H1008	0.286600	0.350300	0.892100
C16381	C1638	0.313230	0.342070	0.921390
N6211	N621	0.159970	0.265610	0.864900
N6221	N622	0.104650	0.363250	0.726910
N6231	N623	0.123280	0.350680	0.767570
N6241	N624	0.159430	0.313090	0.820920
N6251	N625	0.170230	0.346580	0.811420
N6261	N626	0.188490	0.327740	0.837540
N6271	N627	0.225120	0.378270	0.850740
N6281	N628	0.270330	0.374520	0.900840
N6291	N629	0.248980	0.342970	0.872930
N6301	N630	0.313130	0.327510	0.906570
S1251	S125	0.077430	0.334350	0.709830
S1261	S126	0.253590	0.299750	0.870790
C16391	C1639	0.160100	0.781780	0.351660
H10091	H1009	0.147600	0.784900	0.344300
C16401	C1640	0.177270	0.794170	0.348110
C16411	C1641	0.195630	0.789510	0.358170
H10101	H1010	0.207600	0.798100	0.356600
C16421	C1642	0.196170	0.772020	0.370620
H10111	H1011	0.208900	0.767600	0.376700
C16431	C1643	0.178290	0.760990	0.374220
H10121	H1012	0.178800	0.749600	0.383700
C16441	C1644	0.093420	0.851510	0.219000
C16451	C1645	0.109330	0.835160	0.266730
H10131	H1013	0.098800	0.836000	0.256400
C16461	C1646	0.109230	0.818300	0.279590
H10141	H1014	0.098500	0.808200	0.278700
C16471	C1647	0.125050	0.816240	0.293890
H10151	H1015	0.125500	0.804700	0.303100
C16481	C1648	0.140460	0.831540	0.294540
C16491	C1649	0.138850	0.848010	0.281150
H10161	H1016	0.149500	0.858200	0.281500
C16501	C1650	0.157930	0.830040	0.309830
C16511	C1651	0.185220	0.845030	0.325700
C16521	C1652	0.175260	0.812530	0.334630
C16531	C1653	0.212360	0.862830	0.346590
H10171	H1017	0.212600	0.851000	0.355400
C16541	C1654	0.198230	0.862980	0.329620
C16551	C1655	0.197240	0.880860	0.317880
H10181	H1018	0.187700	0.881900	0.306700
C16561	C1656	0.210190	0.897240	0.322490
H10191	H1019	0.209600	0.909800	0.314800
C16571	C1657	0.224130	0.894930	0.338620
H10201	H1020	0.233600	0.906000	0.341200
C16581	C1658	0.251100	0.825520	0.371900
C16591	C1659	0.267530	0.887800	0.417480
H10211	H1021	0.256800	0.897900	0.416500
C16601	C1660	0.278940	0.887260	0.434790
H10221	H1022	0.276700	0.897200	0.445500
C16611	C1661	0.294390	0.871790	0.437050
H10231	H1023	0.302400	0.870700	0.449400
C16621	C1662	0.297440	0.858270	0.420420
C16631	C1663	0.284790	0.860050	0.403040
H10241	H1024	0.286600	0.850300	0.392100
C16641	C1664	0.313230	0.842070	0.421390
N6311	N631	0.159970	0.765610	0.364900
N6321	N632	0.104650	0.863250	0.226910
N6331	N633	0.123280	0.850680	0.267570
N6341	N634	0.159430	0.813090	0.320920
N6351	N635	0.170230	0.846580	0.311420
N6361	N636	0.188490	0.827740	0.337540
N6371	N637	0.225120	0.878270	0.350740
N6381	N638	0.270330	0.874520	0.400840
N6391	N639	0.248980	0.842970	0.372930
N6401	N640	0.313130	0.827510	0.406570
S1271	S127	0.077430	0.834350	0.209830
S1281	S128	0.253590	0.799750	0.370790
C16651	C1665	0.281780	0.351660	0.660100
H10251	H1025	0.284900	0.344300	0.647600
C16661	C1666	0.294170	0.348110	0.677270
C16671	C1667	0.289510	0.358170	0.695630
H10261	H1026	0.298100	0.356600	0.707600
C16681	C1668	0.272020	0.370620	0.696170
H10271	H1027	0.267600	0.376700	0.708900
C16691	C1669	0.260990	0.374220	0.678290
H10281	H1028	0.249600	0.383700	0.678800
C16701	C1670	0.351510	0.219000	0.593420
C16711	C1671	0.335160	0.266730	0.609330
H10291	H1029	0.336000	0.256400	0.598800
C16721	C1672	0.318300	0.279590	0.609230
H10301	H1030	0.308200	0.278700	0.598500
C16731	C1673	0.316240	0.293890	0.625050
H10311	H1031	0.304700	0.303100	0.625500
C16741	C1674	0.331540	0.294540	0.640460
C16751	C1675	0.348010	0.281150	0.638850
H10321	H1032	0.358200	0.281500	0.649500
C16761	C1676	0.330040	0.309830	0.657930
C16771	C1677	0.345030	0.325700	0.685220
C16781	C1678	0.312530	0.334630	0.675260
C16791	C1679	0.362830	0.346590	0.712360
H10331	H1033	0.351000	0.355400	0.712600
C16801	C1680	0.362980	0.329620	0.698230
C16811	C1681	0.380860	0.317880	0.697240
H10341	H1034	0.381900	0.306700	0.687700
C16821	C1682	0.397240	0.322490	0.710190
H10351	H1035	0.409800	0.314800	0.709600
C16831	C1683	0.394930	0.338620	0.724130
H10361	H1036	0.406000	0.341200	0.733600
C16841	C1684	0.325520	0.371900	0.751100
C16851	C1685	0.387800	0.417480	0.767530
H10371	H1037	0.397900	0.416500	0.756800
C16861	C1686	0.387260	0.434790	0.778940
H10381	H1038	0.397200	0.445500	0.776700
C16871	C1687	0.371790	0.437050	0.794390
H10391	H1039	0.370700	0.449400	0.802400
C16881	C1688	0.358270	0.420420	0.797440
C16891	C1689	0.360050	0.403040	0.784790
H10401	H1040	0.350300	0.392100	0.786600
C16901	C1690	0.342070	0.421390	0.813230
N6411	N641	0.265610	0.364900	0.659970
N6421	N642	0.363250	0.226910	0.604650
N6431	N643	0.350680	0.267570	0.623280
N6441	N644	0.313090	0.320920	0.659430
N6451	N645	0.346580	0.311420	0.670230
N6461	N646	0.327740	0.337540	0.688490
N6471	N647	0.378270	0.350740	0.725120
N6481	N648	0.374520	0.400840	0.770330
N6491	N649	0.342970	0.372930	0.748980
N6501	N650	0.327510	0.406570	0.813130
S1291	S129	0.334350	0.209830	0.577430
S1301	S130	0.299750	0.370790	0.753590
C16911	C1691	0.281780	0.851660	0.160100
H10411	H1041	0.284900	0.844300	0.147600
C16921	C1692	0.294170	0.848110	0.177270
C16931	C1693	0.289510	0.858170	0.195630
H10421	H1042	0.298100	0.856600	0.207600
C16941	C1694	0.272020	0.870620	0.196170
H10431	H1043	0.267600	0.876700	0.208900
C16951	C1695	0.260990	0.874220	0.178290
H10441	H1044	0.249600	0.883700	0.178800
C16961	C1696	0.351510	0.719000	0.093420
C16971	C1697	0.335160	0.766730	0.109330
H10451	H1045	0.336000	0.756400	0.098800
C16981	C1698	0.318300	0.779590	0.109230
H10461	H1046	0.308200	0.778700	0.098500
C16991	C1699	0.316240	0.793890	0.125050
H10471	H1047	0.304700	0.803100	0.125500
C17001	C1700	0.331540	0.794540	0.140460
C17011	C1701	0.348010	0.781150	0.138850
H10481	H1048	0.358200	0.781500	0.149500
C17021	C1702	0.330040	0.809830	0.157930
C17031	C1703	0.345030	0.825700	0.185220
C17041	C1704	0.312530	0.834630	0.175260
C17051	C1705	0.362830	0.846590	0.212360
H10491	H1049	0.351000	0.855400	0.212600
C17061	C1706	0.362980	0.829620	0.198230
C17071	C1707	0.380860	0.817880	0.197240
H10501	H1050	0.381900	0.806700	0.187700
C17081	C1708	0.397240	0.822490	0.210190
H10511	H1051	0.409800	0.814800	0.209600
C17091	C1709	0.394930	0.838620	0.224130
H10521	H1052	0.406000	0.841200	0.233600
C17101	C1710	0.325520	0.871900	0.251100
C17111	C1711	0.387800	0.917480	0.267530
H10531	H1053	0.397900	0.916500	0.256800
C17121	C1712	0.387260	0.934790	0.278940
H10541	H1054	0.397200	0.945500	0.276700
C17131	C1713	0.371790	0.937050	0.294390
H10551	H1055	0.370700	0.949400	0.302400
C17141	C1714	0.358270	0.920420	0.297440
C17151	C1715	0.360050	0.903040	0.284790
H10561	H1056	0.350300	0.892100	0.286600
C17161	C1716	0.342070	0.921390	0.313230
N6511	N651	0.265610	0.864900	0.159970
N6521	N652	0.363250	0.726910	0.104650
N6531	N653	0.350680	0.767570	0.123280
N6541	N654	0.313090	0.820920	0.159430
N6551	N655	0.346580	0.811420	0.170230
N6561	N656	0.327740	0.837540	0.188490
N6571	N657	0.378270	0.850740	0.225120
N6581	N658	0.374520	0.900840	0.270330
N6591	N659	0.342970	0.872930	0.248980
N6601	N660	0.327510	0.906570	0.313130
S1311	S131	0.334350	0.709830	0.077430
S1321	S132	0.299750	0.870790	0.253590
C17171	C1717	0.781780	0.351660	0.160100
H10571	H1057	0.784900	0.344300	0.147600
C17181	C1718	0.794170	0.348110	0.177270
C17191	C1719	0.789510	0.358170	0.195630
H10581	H1058	0.798100	0.356600	0.207600
C17201	C1720	0.772020	0.370620	0.196170
H10591	H1059	0.767600	0.376700	0.208900
C17211	C1721	0.760990	0.374220	0.178290
H10601	H1060	0.749600	0.383700	0.178800
C17221	C1722	0.851510	0.219000	0.093420
C17231	C1723	0.835160	0.266730	0.109330
H10611	H1061	0.836000	0.256400	0.098800
C17241	C1724	0.818300	0.279590	0.109230
H10621	H1062	0.808200	0.278700	0.098500
C17251	C1725	0.816240	0.293890	0.125050
H10631	H1063	0.804700	0.303100	0.125500
C17261	C1726	0.831540	0.294540	0.140460
C17271	C1727	0.848010	0.281150	0.138850
H10641	H1064	0.858200	0.281500	0.149500
C17281	C1728	0.830040	0.309830	0.157930
C17291	C1729	0.845030	0.325700	0.185220
C17301	C1730	0.812530	0.334630	0.175260
C17311	C1731	0.862830	0.346590	0.212360
H10651	H1065	0.851000	0.355400	0.212600
C17321	C1732	0.862980	0.329620	0.198230
C17331	C1733	0.880860	0.317880	0.197240
H10661	H1066	0.881900	0.306700	0.187700
C17341	C1734	0.897240	0.322490	0.210190
H10671	H1067	0.909800	0.314800	0.209600
C17351	C1735	0.894930	0.338620	0.224130
H10681	H1068	0.906000	0.341200	0.233600
C17361	C1736	0.825520	0.371900	0.251100
C17371	C1737	0.887800	0.417480	0.267530
H10691	H1069	0.897900	0.416500	0.256800
C17381	C1738	0.887260	0.434790	0.278940
H10701	H1070	0.897200	0.445500	0.276700
C17391	C1739	0.871790	0.437050	0.294390
H10711	H1071	0.870700	0.449400	0.302400
C17401	C1740	0.858270	0.420420	0.297440
C17411	C1741	0.860050	0.403040	0.284790
H10721	H1072	0.850300	0.392100	0.286600
C17421	C1742	0.842070	0.421390	0.313230
N6611	N661	0.765610	0.364900	0.159970
N6621	N662	0.863250	0.226910	0.104650
N6631	N663	0.850680	0.267570	0.123280
N6641	N664	0.813090	0.320920	0.159430
N6651	N665	0.846580	0.311420	0.170230
N6661	N666	0.827740	0.337540	0.188490
N6671	N667	0.878270	0.350740	0.225120
N6681	N668	0.874520	0.400840	0.270330
N6691	N669	0.842970	0.372930	0.248980
N6701	N670	0.827510	0.406570	0.313130
S1331	S133	0.834350	0.209830	0.077430
S1341	S134	0.799750	0.370790	0.253590
C17431	C1743	0.781780	0.851660	0.660100
H10731	H1073	0.784900	0.844300	0.647600
C17441	C1744	0.794170	0.848110	0.677270
C17451	C1745	0.789510	0.858170	0.695630
H10741	H1074	0.798100	0.856600	0.707600
C17461	C1746	0.772020	0.870620	0.696170
H10751	H1075	0.767600	0.876700	0.708900
C17471	C1747	0.760990	0.874220	0.678290
H10761	H1076	0.749600	0.883700	0.678800
C17481	C1748	0.851510	0.719000	0.593420
C17491	C1749	0.835160	0.766730	0.609330
H10771	H1077	0.836000	0.756400	0.598800
C17501	C1750	0.818300	0.779590	0.609230
H10781	H1078	0.808200	0.778700	0.598500
C17511	C1751	0.816240	0.793890	0.625050
H10791	H1079	0.804700	0.803100	0.625500
C17521	C1752	0.831540	0.794540	0.640460
C17531	C1753	0.848010	0.781150	0.638850
H10801	H1080	0.858200	0.781500	0.649500
C17541	C1754	0.830040	0.809830	0.657930
C17551	C1755	0.845030	0.825700	0.685220
C17561	C1756	0.812530	0.834630	0.675260
C17571	C1757	0.862830	0.846590	0.712360
H10811	H1081	0.851000	0.855400	0.712600
C17581	C1758	0.862980	0.829620	0.698230
C17591	C1759	0.880860	0.817880	0.697240
H10821	H1082	0.881900	0.806700	0.687700
C17601	C1760	0.897240	0.822490	0.710190
H10831	H1083	0.909800	0.814800	0.709600
C17611	C1761	0.894930	0.838620	0.724130
H10841	H1084	0.906000	0.841200	0.733600
C17621	C1762	0.825520	0.871900	0.751100
C17631	C1763	0.887800	0.917480	0.767530
H10851	H1085	0.897900	0.916500	0.756800
C17641	C1764	0.887260	0.934790	0.778940
H10861	H1086	0.897200	0.945500	0.776700
C17651	C1765	0.871790	0.937050	0.794390
H10871	H1087	0.870700	0.949400	0.802400
C17661	C1766	0.858270	0.920420	0.797440
C17671	C1767	0.860050	0.903040	0.784790
H10881	H1088	0.850300	0.892100	0.786600
C17681	C1768	0.842070	0.921390	0.813230
N6711	N671	0.765610	0.864900	0.659970
N6721	N672	0.863250	0.726910	0.604650
N6731	N673	0.850680	0.767570	0.623280
N6741	N674	0.813090	0.820920	0.659430
N6751	N675	0.846580	0.811420	0.670230
N6761	N676	0.827740	0.837540	0.688490
N6771	N677	0.878270	0.850740	0.725120
N6781	N678	0.874520	0.900840	0.770330
N6791	N679	0.842970	0.872930	0.748980
N6801	N680	0.827510	0.906570	0.813130
S1351	S135	0.834350	0.709830	0.577430
S1361	S136	0.799750	0.870790	0.753590
C17691	C1769	0.468220	0.851660	0.589900
H10891	H1089	0.465100	0.844300	0.602400
C17701	C1770	0.455830	0.848110	0.572730
C17711	C1771	0.460490	0.858170	0.554370
H10901	H1090	0.451900	0.856600	0.542400
C17721	C1772	0.477980	0.870620	0.553830
H10911	H1091	0.482400	0.876700	0.541100
C17731	C1773	0.489010	0.874220	0.571710
H10921	H1092	0.500400	0.883700	0.571200
C17741	C1774	0.398490	0.719000	0.656580
C17751	C1775	0.414840	0.766730	0.640670
H10931	H1093	0.414000	0.756400	0.651200
C17761	C1776	0.431700	0.779590	0.640770
H10941	H1094	0.441800	0.778700	0.651500
C17771	C1777	0.433760	0.793890	0.624950
H10951	H1095	0.445300	0.803100	0.624500
C17781	C1778	0.418460	0.794540	0.609540
C17791	C1779	0.401990	0.781150	0.611150
H10961	H1096	0.391800	0.781500	0.600500
C17801	C1780	0.419960	0.809830	0.592070
C17811	C1781	0.404970	0.825700	0.564780
C17821	C1782	0.437470	0.834630	0.574740
C17831	C1783	0.387170	0.846590	0.537640
H10971	H1097	0.399000	0.855400	0.537400
C17841	C1784	0.387020	0.829620	0.551770
C17851	C1785	0.369140	0.817880	0.552760
H10981	H1098	0.368100	0.806700	0.562300
C17861	C1786	0.352760	0.822490	0.539810
H10991	H1099	0.340200	0.814800	0.540400
C17871	C1787	0.355070	0.838620	0.525870
H11001	H1100	0.344000	0.841200	0.516400
C17881	C1788	0.424480	0.871900	0.498900
C17891	C1789	0.362200	0.917480	0.482470
H11011	H1101	0.352100	0.916500	0.493200
C17901	C1790	0.362740	0.934790	0.471060
H11021	H1102	0.352800	0.945500	0.473300
C17911	C1791	0.378210	0.937050	0.455610
H11031	H1103	0.379300	0.949400	0.447600
C17921	C1792	0.391730	0.920420	0.452560
C17931	C1793	0.389950	0.903040	0.465210
H11041	H1104	0.399700	0.892100	0.463400
C17941	C1794	0.407930	0.921390	0.436770
N6811	N681	0.484390	0.864900	0.590030
N6821	N682	0.386750	0.726910	0.645350
N6831	N683	0.399320	0.767570	0.626720
N6841	N684	0.436910	0.820920	0.590570
N6851	N685	0.403420	0.811420	0.579770
N6861	N686	0.422260	0.837540	0.561510
N6871	N687	0.371730	0.850740	0.524880
N6881	N688	0.375480	0.900840	0.479670
N6891	N689	0.407030	0.872930	0.501020
N6901	N690	0.422490	0.906570	0.436870
S1371	S137	0.415650	0.709830	0.672570
S1381	S138	0.450250	0.870790	0.496410
C17951	C1795	0.468220	0.351660	0.089900
H11051	H1105	0.465100	0.344300	0.102400
C17961	C1796	0.455830	0.348110	0.072730
C17971	C1797	0.460490	0.358170	0.054370
H11061	H1106	0.451900	0.356600	0.042400
C17981	C1798	0.477980	0.370620	0.053830
H11071	H1107	0.482400	0.376700	0.041100
C17991	C1799	0.489010	0.374220	0.071710
H11081	H1108	0.500400	0.383700	0.071200
C18001	C1800	0.398490	0.219000	0.156580
C18011	C1801	0.414840	0.266730	0.140670
H11091	H1109	0.414000	0.256400	0.151200
C18021	C1802	0.431700	0.279590	0.140770
H11101	H1110	0.441800	0.278700	0.151500
C18031	C1803	0.433760	0.293890	0.124950
H11111	H1111	0.445300	0.303100	0.124500
C18041	C1804	0.418460	0.294540	0.109540
C18051	C1805	0.401990	0.281150	0.111150
H11121	H1112	0.391800	0.281500	0.100500
C18061	C1806	0.419960	0.309830	0.092070
C18071	C1807	0.404970	0.325700	0.064780
C18081	C1808	0.437470	0.334630	0.074740
C18091	C1809	0.387170	0.346590	0.037640
H11131	H1113	0.399000	0.355400	0.037400
C18101	C1810	0.387020	0.329620	0.051770
C18111	C1811	0.369140	0.317880	0.052760
H11141	H1114	0.368100	0.306700	0.062300
C18121	C1812	0.352760	0.322490	0.039810
H11151	H1115	0.340200	0.314800	0.040400
C18131	C1813	0.355070	0.338620	0.025870
H11161	H1116	0.344000	0.341200	0.016400
C18141	C1814	0.424480	0.371900	0.998900
C18151	C1815	0.362200	0.417480	0.982470
H11171	H1117	0.352100	0.416500	0.993200
C18161	C1816	0.362740	0.434790	0.971060
H11181	H1118	0.352800	0.445500	0.973300
C18171	C1817	0.378210	0.437050	0.955610
H11191	H1119	0.379300	0.449400	0.947600
C18181	C1818	0.391730	0.420420	0.952560
C18191	C1819	0.389950	0.403040	0.965210
H11201	H1120	0.399700	0.392100	0.963400
C18201	C1820	0.407930	0.421390	0.936770
N6911	N691	0.484390	0.364900	0.090030
N6921	N692	0.386750	0.226910	0.145350
N6931	N693	0.399320	0.267570	0.126720
N6941	N694	0.436910	0.320920	0.090570
N6951	N695	0.403420	0.311420	0.079770
N6961	N696	0.422260	0.337540	0.061510
N6971	N697	0.371730	0.350740	0.024880
N6981	N698	0.375480	0.400840	0.979670
N6991	N699	0.407030	0.372930	0.001020
N7001	N700	0.422490	0.406570	0.936870
S1391	S139	0.415650	0.209830	0.172570
S1401	S140	0.450250	0.370790	0.996410
C18211	C1821	0.968220	0.851660	0.089900
H11211	H1121	0.965100	0.844300	0.102400
C18221	C1822	0.955830	0.848110	0.072730
C18231	C1823	0.960490	0.858170	0.054370
H11221	H1122	0.951900	0.856600	0.042400
C18241	C1824	0.977980	0.870620	0.053830
H11231	H1123	0.982400	0.876700	0.041100
C18251	C1825	0.989010	0.874220	0.071710
H11241	H1124	0.000400	0.883700	0.071200
C18261	C1826	0.898490	0.719000	0.156580
C18271	C1827	0.914840	0.766730	0.140670
H11251	H1125	0.914000	0.756400	0.151200
C18281	C1828	0.931700	0.779590	0.140770
H11261	H1126	0.941800	0.778700	0.151500
C18291	C1829	0.933760	0.793890	0.124950
H11271	H1127	0.945300	0.803100	0.124500
C18301	C1830	0.918460	0.794540	0.109540
C18311	C1831	0.901990	0.781150	0.111150
H11281	H1128	0.891800	0.781500	0.100500
C18321	C1832	0.919960	0.809830	0.092070
C18331	C1833	0.904970	0.825700	0.064780
C18341	C1834	0.937470	0.834630	0.074740
C18351	C1835	0.887170	0.846590	0.037640
H11291	H1129	0.899000	0.855400	0.037400
C18361	C1836	0.887020	0.829620	0.051770
C18371	C1837	0.869140	0.817880	0.052760
H11301	H1130	0.868100	0.806700	0.062300
C18381	C1838	0.852760	0.822490	0.039810
H11311	H1131	0.840200	0.814800	0.040400
C18391	C1839	0.855070	0.838620	0.025870
H11321	H1132	0.844000	0.841200	0.016400
C18401	C1840	0.924480	0.871900	0.998900
C18411	C1841	0.862200	0.917480	0.982470
H11331	H1133	0.852100	0.916500	0.993200
C18421	C1842	0.862740	0.934790	0.971060
H11341	H1134	0.852800	0.945500	0.973300
C18431	C1843	0.878210	0.937050	0.955610
H11351	H1135	0.879300	0.949400	0.947600
C18441	C1844	0.891730	0.920420	0.952560
C18451	C1845	0.889950	0.903040	0.965210
H11361	H1136	0.899700	0.892100	0.963400
C18461	C1846	0.907930	0.921390	0.936770
N7011	N701	0.984390	0.864900	0.090030
N7021	N702	0.886750	0.726910	0.145350
N7031	N703	0.899320	0.767570	0.126720
N7041	N704	0.936910	0.820920	0.090570
N7051	N705	0.903420	0.811420	0.079770
N7061	N706	0.922260	0.837540	0.061510
N7071	N707	0.871730	0.850740	0.024880
N7081	N708	0.875480	0.900840	0.979670
N7091	N709	0.907030	0.872930	0.001020
N7101	N710	0.922490	0.906570	0.936870
S1411	S141	0.915650	0.709830	0.172570
S1421	S142	0.950250	0.870790	0.996410
C18471	C1847	0.968220	0.351660	0.589900
H11371	H1137	0.965100	0.344300	0.602400
C18481	C1848	0.955830	0.348110	0.572730
C18491	C1849	0.960490	0.358170	0.554370
H11381	H1138	0.951900	0.356600	0.542400
C18501	C1850	0.977980	0.370620	0.553830
H11391	H1139	0.982400	0.376700	0.541100
C18511	C1851	0.989010	0.374220	0.571710
H11401	H1140	0.000400	0.383700	0.571200
C18521	C1852	0.898490	0.219000	0.656580
C18531	C1853	0.914840	0.266730	0.640670
H11411	H1141	0.914000	0.256400	0.651200
C18541	C1854	0.931700	0.279590	0.640770
H11421	H1142	0.941800	0.278700	0.651500
C18551	C1855	0.933760	0.293890	0.624950
H11431	H1143	0.945300	0.303100	0.624500
C18561	C1856	0.918460	0.294540	0.609540
C18571	C1857	0.901990	0.281150	0.611150
H11441	H1144	0.891800	0.281500	0.600500
C18581	C1858	0.919960	0.309830	0.592070
C18591	C1859	0.904970	0.325700	0.564780
C18601	C1860	0.937470	0.334630	0.574740
C18611	C1861	0.887170	0.346590	0.537640
H11451	H1145	0.899000	0.355400	0.537400
C18621	C1862	0.887020	0.329620	0.551770
C18631	C1863	0.869140	0.317880	0.552760
H11461	H1146	0.868100	0.306700	0.562300
C18641	C1864	0.852760	0.322490	0.539810
H11471	H1147	0.840200	0.314800	0.540400
C18651	C1865	0.855070	0.338620	0.525870
H11481	H1148	0.844000	0.341200	0.516400
C18661	C1866	0.924480	0.371900	0.498900
C18671	C1867	0.862200	0.417480	0.482470
H11491	H1149	0.852100	0.416500	0.493200
C18681	C1868	0.862740	0.434790	0.471060
H11501	H1150	0.852800	0.445500	0.473300
C18691	C1869	0.878210	0.437050	0.455610
H11511	H1151	0.879300	0.449400	0.447600
C18701	C1870	0.891730	0.420420	0.452560
C18711	C1871	0.889950	0.403040	0.465210
H11521	H1152	0.899700	0.392100	0.463400
C18721	C1872	0.907930	0.421390	0.436770
N7111	N711	0.984390	0.364900	0.590030
N7121	N712	0.886750	0.226910	0.645350
N7131	N713	0.899320	0.267570	0.626720
N7141	N714	0.936910	0.320920	0.590570
N7151	N715	0.903420	0.311420	0.579770
N7161	N716	0.922260	0.337540	0.561510
N7171	N717	0.871730	0.350740	0.524880
N7181	N718	0.875480	0.400840	0.479670
N7191	N719	0.907030	0.372930	0.501020
N7201	N720	0.922490	0.406570	0.436870
S1431	S143	0.915650	0.209830	0.672570
S1441	S144	0.950250	0.370790	0.496410
C18731	C1873	0.968220	0.398340	0.160100
H11531	H1153	0.965100	0.405700	0.147600
C18741	C1874	0.955830	0.401890	0.177270
C18751	C1875	0.960490	0.391830	0.195630
H11541	H1154	0.951900	0.393400	0.207600
C18761	C1876	0.977980	0.379380	0.196170
H11551	H1155	0.982400	0.373300	0.208900
C18771	C1877	0.989010	0.375780	0.178290
H11561	H1156	0.000400	0.366300	0.178800
C18781	C1878	0.898490	0.531000	0.093420
C18791	C1879	0.914840	0.483270	0.109330
H11571	H1157	0.914000	0.493600	0.098800
C18801	C1880	0.931700	0.470410	0.109230
H11581	H1158	0.941800	0.471300	0.098500
C18811	C1881	0.933760	0.456110	0.125050
H11591	H1159	0.945300	0.446900	0.125500
C18821	C1882	0.918460	0.455460	0.140460
C18831	C1883	0.901990	0.468850	0.138850
H11601	H1160	0.891800	0.468500	0.149500
C18841	C1884	0.919960	0.440170	0.157930
C18851	C1885	0.904970	0.424300	0.185220
C18861	C1886	0.937470	0.415370	0.175260
C18871	C1887	0.887170	0.403410	0.212360
H11611	H1161	0.899000	0.394600	0.212600
C18881	C1888	0.887020	0.420380	0.198230
C18891	C1889	0.869140	0.432120	0.197240
H11621	H1162	0.868100	0.443300	0.187700
C18901	C1890	0.852760	0.427510	0.210190
H11631	H1163	0.840200	0.435200	0.209600
C18911	C1891	0.855070	0.411380	0.224130
H11641	H1164	0.844000	0.408800	0.233600
C18921	C1892	0.924480	0.378100	0.251100
C18931	C1893	0.862200	0.332520	0.267530
H11651	H1165	0.852100	0.333500	0.256800
C18941	C1894	0.862740	0.315210	0.278940
H11661	H1166	0.852800	0.304500	0.276700
C18951	C1895	0.878210	0.312950	0.294390
H11671	H1167	0.879300	0.300600	0.302400
C18961	C1896	0.891730	0.329580	0.297440
C18971	C1897	0.889950	0.346960	0.284790
H11681	H1168	0.899700	0.357900	0.286600
C18981	C1898	0.907930	0.328610	0.313230
N7211	N721	0.984390	0.385100	0.159970
N7221	N722	0.886750	0.523090	0.104650
N7231	N723	0.899320	0.482430	0.123280
N7241	N724	0.936910	0.429080	0.159430
N7251	N725	0.903420	0.438580	0.170230
N7261	N726	0.922260	0.412460	0.188490
N7271	N727	0.871730	0.399260	0.225120
N7281	N728	0.875480	0.349160	0.270330
N7291	N729	0.907030	0.377070	0.248980
N7301	N730	0.922490	0.343430	0.313130
S1451	S145	0.915650	0.540170	0.077430
S1461	S146	0.950250	0.379210	0.253590
C18991	C1899	0.968220	0.898340	0.660100
H11691	H1169	0.965100	0.905700	0.647600
C19001	C1900	0.955830	0.901890	0.677270
C19011	C1901	0.960490	0.891830	0.695630
H11701	H1170	0.951900	0.893400	0.707600
C19021	C1902	0.977980	0.879380	0.696170
H11711	H1171	0.982400	0.873300	0.708900
C19031	C1903	0.989010	0.875780	0.678290
H11721	H1172	0.000400	0.866300	0.678800
C19041	C1904	0.898490	0.031000	0.593420
C19051	C1905	0.914840	0.983270	0.609330
H11731	H1173	0.914000	0.993600	0.598800
C19061	C1906	0.931700	0.970410	0.609230
H11741	H1174	0.941800	0.971300	0.598500
C19071	C1907	0.933760	0.956110	0.625050
H11751	H1175	0.945300	0.946900	0.625500
C19081	C1908	0.918460	0.955460	0.640460
C19091	C1909	0.901990	0.968850	0.638850
H11761	H1176	0.891800	0.968500	0.649500
C19101	C1910	0.919960	0.940170	0.657930
C19111	C1911	0.904970	0.924300	0.685220
C19121	C1912	0.937470	0.915370	0.675260
C19131	C1913	0.887170	0.903410	0.712360
H11771	H1177	0.899000	0.894600	0.712600
C19141	C1914	0.887020	0.920380	0.698230
C19151	C1915	0.869140	0.932120	0.697240
H11781	H1178	0.868100	0.943300	0.687700
C19161	C1916	0.852760	0.927510	0.710190
H11791	H1179	0.840200	0.935200	0.709600
C19171	C1917	0.855070	0.911380	0.724130
H11801	H1180	0.844000	0.908800	0.733600
C19181	C1918	0.924480	0.878100	0.751100
C19191	C1919	0.862200	0.832520	0.767530
H11811	H1181	0.852100	0.833500	0.756800
C19201	C1920	0.862740	0.815210	0.778940
H11821	H1182	0.852800	0.804500	0.776700
C19211	C1921	0.878210	0.812950	0.794390
H11831	H1183	0.879300	0.800600	0.802400
C19221	C1922	0.891730	0.829580	0.797440
C19231	C1923	0.889950	0.846960	0.784790
H11841	H1184	0.899700	0.857900	0.786600
C19241	C1924	0.907930	0.828610	0.813230
N7311	N731	0.984390	0.885100	0.659970
N7321	N732	0.886750	0.023090	0.604650
N7331	N733	0.899320	0.982430	0.623280
N7341	N734	0.936910	0.929080	0.659430
N7351	N735	0.903420	0.938580	0.670230
N7361	N736	0.922260	0.912460	0.688490
N7371	N737	0.871730	0.899260	0.725120
N7381	N738	0.875480	0.849160	0.770330
N7391	N739	0.907030	0.877070	0.748980
N7401	N740	0.922490	0.843430	0.813130
S1471	S147	0.915650	0.040170	0.577430
S1481	S148	0.950250	0.879210	0.753590
C19251	C1925	0.468220	0.398340	0.660100
H11851	H1185	0.465100	0.405700	0.647600
C19261	C1926	0.455830	0.401890	0.677270
C19271	C1927	0.460490	0.391830	0.695630
H11861	H1186	0.451900	0.393400	0.707600
C19281	C1928	0.477980	0.379380	0.696170
H11871	H1187	0.482400	0.373300	0.708900
C19291	C1929	0.489010	0.375780	0.678290
H11881	H1188	0.500400	0.366300	0.678800
C19301	C1930	0.398490	0.531000	0.593420
C19311	C1931	0.414840	0.483270	0.609330
H11891	H1189	0.414000	0.493600	0.598800
C19321	C1932	0.431700	0.470410	0.609230
H11901	H1190	0.441800	0.471300	0.598500
C19331	C1933	0.433760	0.456110	0.625050
H11911	H1191	0.445300	0.446900	0.625500
C19341	C1934	0.418460	0.455460	0.640460
C19351	C1935	0.401990	0.468850	0.638850
H11921	H1192	0.391800	0.468500	0.649500
C19361	C1936	0.419960	0.440170	0.657930
C19371	C1937	0.404970	0.424300	0.685220
C19381	C1938	0.437470	0.415370	0.675260
C19391	C1939	0.387170	0.403410	0.712360
H11931	H1193	0.399000	0.394600	0.712600
C19401	C1940	0.387020	0.420380	0.698230
C19411	C1941	0.369140	0.432120	0.697240
H11941	H1194	0.368100	0.443300	0.687700
C19421	C1942	0.352760	0.427510	0.710190
H11951	H1195	0.340200	0.435200	0.709600
C19431	C1943	0.355070	0.411380	0.724130
H11961	H1196	0.344000	0.408800	0.733600
C19441	C1944	0.424480	0.378100	0.751100
C19451	C1945	0.362200	0.332520	0.767530
H11971	H1197	0.352100	0.333500	0.756800
C19461	C1946	0.362740	0.315210	0.778940
H11981	H1198	0.352800	0.304500	0.776700
C19471	C1947	0.378210	0.312950	0.794390
H11991	H1199	0.379300	0.300600	0.802400
C19481	C1948	0.391730	0.329580	0.797440
C19491	C1949	0.389950	0.346960	0.784790
H12001	H1200	0.399700	0.357900	0.786600
C19501	C1950	0.407930	0.328610	0.813230
N7411	N741	0.484390	0.385100	0.659970
N7421	N742	0.386750	0.523090	0.604650
N7431	N743	0.399320	0.482430	0.623280
N7441	N744	0.436910	0.429080	0.659430
N7451	N745	0.403420	0.438580	0.670230
N7461	N746	0.422260	0.412460	0.688490
N7471	N747	0.371730	0.399260	0.725120
N7481	N748	0.375480	0.349160	0.770330
N7491	N749	0.407030	0.377070	0.748980
N7501	N750	0.422490	0.343430	0.813130
S1491	S149	0.415650	0.540170	0.577430
S1501	S150	0.450250	0.379210	0.753590
C19511	C1951	0.468220	0.898340	0.160100
H12011	H1201	0.465100	0.905700	0.147600
C19521	C1952	0.455830	0.901890	0.177270
C19531	C1953	0.460490	0.891830	0.195630
H12021	H1202	0.451900	0.893400	0.207600
C19541	C1954	0.477980	0.879380	0.196170
H12031	H1203	0.482400	0.873300	0.208900
C19551	C1955	0.489010	0.875780	0.178290
H12041	H1204	0.500400	0.866300	0.178800
C19561	C1956	0.398490	0.031000	0.093420
C19571	C1957	0.414840	0.983270	0.109330
H12051	H1205	0.414000	0.993600	0.098800
C19581	C1958	0.431700	0.970410	0.109230
H12061	H1206	0.441800	0.971300	0.098500
C19591	C1959	0.433760	0.956110	0.125050
H12071	H1207	0.445300	0.946900	0.125500
C19601	C1960	0.418460	0.955460	0.140460
C19611	C1961	0.401990	0.968850	0.138850
H12081	H1208	0.391800	0.968500	0.149500
C19621	C1962	0.419960	0.940170	0.157930
C19631	C1963	0.404970	0.924300	0.185220
C19641	C1964	0.437470	0.915370	0.175260
C19651	C1965	0.387170	0.903410	0.212360
H12091	H1209	0.399000	0.894600	0.212600
C19661	C1966	0.387020	0.920380	0.198230
C19671	C1967	0.369140	0.932120	0.197240
H12101	H1210	0.368100	0.943300	0.187700
C19681	C1968	0.352760	0.927510	0.210190
H12111	H1211	0.340200	0.935200	0.209600
C19691	C1969	0.355070	0.911380	0.224130
H12121	H1212	0.344000	0.908800	0.233600
C19701	C1970	0.424480	0.878100	0.251100
C19711	C1971	0.362200	0.832520	0.267530
H12131	H1213	0.352100	0.833500	0.256800
C19721	C1972	0.362740	0.815210	0.278940
H12141	H1214	0.352800	0.804500	0.276700
C19731	C1973	0.378210	0.812950	0.294390
H12151	H1215	0.379300	0.800600	0.302400
C19741	C1974	0.391730	0.829580	0.297440
C19751	C1975	0.389950	0.846960	0.284790
H12161	H1216	0.399700	0.857900	0.286600
C19761	C1976	0.407930	0.828610	0.313230
N7511	N751	0.484390	0.885100	0.159970
N7521	N752	0.386750	0.023090	0.104650
N7531	N753	0.399320	0.982430	0.123280
N7541	N754	0.436910	0.929080	0.159430
N7551	N755	0.403420	0.938580	0.170230
N7561	N756	0.422260	0.912460	0.188490
N7571	N757	0.371730	0.899260	0.225120
N7581	N758	0.375480	0.849160	0.270330
N7591	N759	0.407030	0.877070	0.248980
N7601	N760	0.422490	0.843430	0.313130
S1511	S151	0.415650	0.040170	0.077430
S1521	S152	0.450250	0.879210	0.253590
C19771	C1977	0.781780	0.898340	0.089900
H12171	H1217	0.784900	0.905700	0.102400
C19781	C1978	0.794170	0.901890	0.072730
C19791	C1979	0.789510	0.891830	0.054370
H12181	H1218	0.798100	0.893400	0.042400
C19801	C1980	0.772020	0.879380	0.053830
H12191	H1219	0.767600	0.873300	0.041100
C19811	C1981	0.760990	0.875780	0.071710
H12201	H1220	0.749600	0.866300	0.071200
C19821	C1982	0.851510	0.031000	0.156580
C19831	C1983	0.835160	0.983270	0.140670
H12211	H1221	0.836000	0.993600	0.151200
C19841	C1984	0.818300	0.970410	0.140770
H12221	H1222	0.808200	0.971300	0.151500
C19851	C1985	0.816240	0.956110	0.124950
H12231	H1223	0.804700	0.946900	0.124500
C19861	C1986	0.831540	0.955460	0.109540
C19871	C1987	0.848010	0.968850	0.111150
H12241	H1224	0.858200	0.968500	0.100500
C19881	C1988	0.830040	0.940170	0.092070
C19891	C1989	0.845030	0.924300	0.064780
C19901	C1990	0.812530	0.915370	0.074740
C19911	C1991	0.862830	0.903410	0.037640
H12251	H1225	0.851000	0.894600	0.037400
C19921	C1992	0.862980	0.920380	0.051770
C19931	C1993	0.880860	0.932120	0.052760
H12261	H1226	0.881900	0.943300	0.062300
C19941	C1994	0.897240	0.927510	0.039810
H12271	H1227	0.909800	0.935200	0.040400
C19951	C1995	0.894930	0.911380	0.025870
H12281	H1228	0.906000	0.908800	0.016400
C19961	C1996	0.825520	0.878100	0.998900
C19971	C1997	0.887800	0.832520	0.982470
H12291	H1229	0.897900	0.833500	0.993200
C19981	C1998	0.887260	0.815210	0.971060
H12301	H1230	0.897200	0.804500	0.973300
C19991	C1999	0.871790	0.812950	0.955610
H12311	H1231	0.870700	0.800600	0.947600
C20001	C2000	0.858270	0.829580	0.952560
C20011	C2001	0.860050	0.846960	0.965210
H12321	H1232	0.850300	0.857900	0.963400
C20021	C2002	0.842070	0.828610	0.936770
N7611	N761	0.765610	0.885100	0.090030
N7621	N762	0.863250	0.023090	0.145350
N7631	N763	0.850680	0.982430	0.126720
N7641	N764	0.813090	0.929080	0.090570
N7651	N765	0.846580	0.938580	0.079770
N7661	N766	0.827740	0.912460	0.061510
N7671	N767	0.878270	0.899260	0.024880
N7681	N768	0.874520	0.849160	0.979670
N7691	N769	0.842970	0.877070	0.001020
N7701	N770	0.827510	0.843430	0.936870
S1531	S153	0.834350	0.040170	0.172570
S1541	S154	0.799750	0.879210	0.996410
C20031	C2003	0.781780	0.398340	0.589900
H12331	H1233	0.784900	0.405700	0.602400
C20041	C2004	0.794170	0.401890	0.572730
C20051	C2005	0.789510	0.391830	0.554370
H12341	H1234	0.798100	0.393400	0.542400
C20061	C2006	0.772020	0.379380	0.553830
H12351	H1235	0.767600	0.373300	0.541100
C20071	C2007	0.760990	0.375780	0.571710
H12361	H1236	0.749600	0.366300	0.571200
C20081	C2008	0.851510	0.531000	0.656580
C20091	C2009	0.835160	0.483270	0.640670
H12371	H1237	0.836000	0.493600	0.651200
C20101	C2010	0.818300	0.470410	0.640770
H12381	H1238	0.808200	0.471300	0.651500
C20111	C2011	0.816240	0.456110	0.624950
H12391	H1239	0.804700	0.446900	0.624500
C20121	C2012	0.831540	0.455460	0.609540
C20131	C2013	0.848010	0.468850	0.611150
H12401	H1240	0.858200	0.468500	0.600500
C20141	C2014	0.830040	0.440170	0.592070
C20151	C2015	0.845030	0.424300	0.564780
C20161	C2016	0.812530	0.415370	0.574740
C20171	C2017	0.862830	0.403410	0.537640
H12411	H1241	0.851000	0.394600	0.537400
C20181	C2018	0.862980	0.420380	0.551770
C20191	C2019	0.880860	0.432120	0.552760
H12421	H1242	0.881900	0.443300	0.562300
C20201	C2020	0.897240	0.427510	0.539810
H12431	H1243	0.909800	0.435200	0.540400
C20211	C2021	0.894930	0.411380	0.525870
H12441	H1244	0.906000	0.408800	0.516400
C20221	C2022	0.825520	0.378100	0.498900
C20231	C2023	0.887800	0.332520	0.482470
H12451	H1245	0.897900	0.333500	0.493200
C20241	C2024	0.887260	0.315210	0.471060
H12461	H1246	0.897200	0.304500	0.473300
C20251	C2025	0.871790	0.312950	0.455610
H12471	H1247	0.870700	0.300600	0.447600
C20261	C2026	0.858270	0.329580	0.452560
C20271	C2027	0.860050	0.346960	0.465210
H12481	H1248	0.850300	0.357900	0.463400
C20281	C2028	0.842070	0.328610	0.436770
N7711	N771	0.765610	0.385100	0.590030
N7721	N772	0.863250	0.523090	0.645350
N7731	N773	0.850680	0.482430	0.626720
N7741	N774	0.813090	0.429080	0.590570
N7751	N775	0.846580	0.438580	0.579770
N7761	N776	0.827740	0.412460	0.561510
N7771	N777	0.878270	0.399260	0.524880
N7781	N778	0.874520	0.349160	0.479670
N7791	N779	0.842970	0.377070	0.501020
N7801	N780	0.827510	0.343430	0.436870
S1551	S155	0.834350	0.540170	0.672570
S1561	S156	0.799750	0.379210	0.496410
C20291	C2029	0.281780	0.898340	0.589900
H12491	H1249	0.284900	0.905700	0.602400
C20301	C2030	0.294170	0.901890	0.572730
C20311	C2031	0.289510	0.891830	0.554370
H12501	H1250	0.298100	0.893400	0.542400
C20321	C2032	0.272020	0.879380	0.553830
H12511	H1251	0.267600	0.873300	0.541100
C20331	C2033	0.260990	0.875780	0.571710
H12521	H1252	0.249600	0.866300	0.571200
C20341	C2034	0.351510	0.031000	0.656580
C20351	C2035	0.335160	0.983270	0.640670
H12531	H1253	0.336000	0.993600	0.651200
C20361	C2036	0.318300	0.970410	0.640770
H12541	H1254	0.308200	0.971300	0.651500
C20371	C2037	0.316240	0.956110	0.624950
H12551	H1255	0.304700	0.946900	0.624500
C20381	C2038	0.331540	0.955460	0.609540
C20391	C2039	0.348010	0.968850	0.611150
H12561	H1256	0.358200	0.968500	0.600500
C20401	C2040	0.330040	0.940170	0.592070
C20411	C2041	0.345030	0.924300	0.564780
C20421	C2042	0.312530	0.915370	0.574740
C20431	C2043	0.362830	0.903410	0.537640
H12571	H1257	0.351000	0.894600	0.537400
C20441	C2044	0.362980	0.920380	0.551770
C20451	C2045	0.380860	0.932120	0.552760
H12581	H1258	0.381900	0.943300	0.562300
C20461	C2046	0.397240	0.927510	0.539810
H12591	H1259	0.409800	0.935200	0.540400
C20471	C2047	0.394930	0.911380	0.525870
H12601	H1260	0.406000	0.908800	0.516400
C20481	C2048	0.325520	0.878100	0.498900
C20491	C2049	0.387800	0.832520	0.482470
H12611	H1261	0.397900	0.833500	0.493200
C20501	C2050	0.387260	0.815210	0.471060
H12621	H1262	0.397200	0.804500	0.473300
C20511	C2051	0.371790	0.812950	0.455610
H12631	H1263	0.370700	0.800600	0.447600
C20521	C2052	0.358270	0.829580	0.452560
C20531	C2053	0.360050	0.846960	0.465210
H12641	H1264	0.350300	0.857900	0.463400
C20541	C2054	0.342070	0.828610	0.436770
N7811	N781	0.265610	0.885100	0.590030
N7821	N782	0.363250	0.023090	0.645350
N7831	N783	0.350680	0.982430	0.626720
N7841	N784	0.313090	0.929080	0.590570
N7851	N785	0.346580	0.938580	0.579770
N7861	N786	0.327740	0.912460	0.561510
N7871	N787	0.378270	0.899260	0.524880
N7881	N788	0.374520	0.849160	0.479670
N7891	N789	0.342970	0.877070	0.501020
N7901	N790	0.327510	0.843430	0.436870
S1571	S157	0.334350	0.040170	0.672570
S1581	S158	0.299750	0.879210	0.496410
C20551	C2055	0.281780	0.398340	0.089900
H12651	H1265	0.284900	0.405700	0.102400
C20561	C2056	0.294170	0.401890	0.072730
C20571	C2057	0.289510	0.391830	0.054370
H12661	H1266	0.298100	0.393400	0.042400
C20581	C2058	0.272020	0.379380	0.053830
H12671	H1267	0.267600	0.373300	0.041100
C20591	C2059	0.260990	0.375780	0.071710
H12681	H1268	0.249600	0.366300	0.071200
C20601	C2060	0.351510	0.531000	0.156580
C20611	C2061	0.335160	0.483270	0.140670
H12691	H1269	0.336000	0.493600	0.151200
C20621	C2062	0.318300	0.470410	0.140770
H12701	H1270	0.308200	0.471300	0.151500
C20631	C2063	0.316240	0.456110	0.124950
H12711	H1271	0.304700	0.446900	0.124500
C20641	C2064	0.331540	0.455460	0.109540
C20651	C2065	0.348010	0.468850	0.111150
H12721	H1272	0.358200	0.468500	0.100500
C20661	C2066	0.330040	0.440170	0.092070
C20671	C2067	0.345030	0.424300	0.064780
C20681	C2068	0.312530	0.415370	0.074740
C20691	C2069	0.362830	0.403410	0.037640
H12731	H1273	0.351000	0.394600	0.037400
C20701	C2070	0.362980	0.420380	0.051770
C20711	C2071	0.380860	0.432120	0.052760
H12741	H1274	0.381900	0.443300	0.062300
C20721	C2072	0.397240	0.427510	0.039810
H12751	H1275	0.409800	0.435200	0.040400
C20731	C2073	0.394930	0.411380	0.025870
H12761	H1276	0.406000	0.408800	0.016400
C20741	C2074	0.325520	0.378100	0.998900
C20751	C2075	0.387800	0.332520	0.982470
H12771	H1277	0.397900	0.333500	0.993200
C20761	C2076	0.387260	0.315210	0.971060
H12781	H1278	0.397200	0.304500	0.973300
C20771	C2077	0.371790	0.312950	0.955610
H12791	H1279	0.370700	0.300600	0.947600
C20781	C2078	0.358270	0.329580	0.952560
C20791	C2079	0.360050	0.346960	0.965210
H12801	H1280	0.350300	0.357900	0.963400
C20801	C2080	0.342070	0.328610	0.936770
N7911	N791	0.265610	0.385100	0.090030
N7921	N792	0.363250	0.523090	0.145350
N7931	N793	0.350680	0.482430	0.126720
N7941	N794	0.313090	0.429080	0.090570
N7951	N795	0.346580	0.438580	0.079770
N7961	N796	0.327740	0.412460	0.061510
N7971	N797	0.378270	0.399260	0.024880
N7981	N798	0.374520	0.349160	0.979670
N7991	N799	0.342970	0.377070	0.001020
N8001	N800	0.327510	0.343430	0.936870
S1591	S159	0.334350	0.540170	0.172570
S1601	S160	0.299750	0.379210	0.996410
C20811	C2081	0.851660	0.589900	0.468220
H12811	H1281	0.844300	0.602400	0.465100
C20821	C2082	0.848110	0.572730	0.455830
C20831	C2083	0.858170	0.554370	0.460490
H12821	H1282	0.856600	0.542400	0.451900
C20841	C2084	0.870620	0.553830	0.477980
H12831	H1283	0.876700	0.541100	0.482400
C20851	C2085	0.874220	0.571710	0.489010
H12841	H1284	0.883700	0.571200	0.500400
C20861	C2086	0.719000	0.656580	0.398490
C20871	C2087	0.766730	0.640670	0.414840
H12851	H1285	0.756400	0.651200	0.414000
C20881	C2088	0.779590	0.640770	0.431700
H12861	H1286	0.778700	0.651500	0.441800
C20891	C2089	0.793890	0.624950	0.433760
H12871	H1287	0.803100	0.624500	0.445300
C20901	C2090	0.794540	0.609540	0.418460
C20911	C2091	0.781150	0.611150	0.401990
H12881	H1288	0.781500	0.600500	0.391800
C20921	C2092	0.809830	0.592070	0.419960
C20931	C2093	0.825700	0.564780	0.404970
C20941	C2094	0.834630	0.574740	0.437470
C20951	C2095	0.846590	0.537640	0.387170
H12891	H1289	0.855400	0.537400	0.399000
C20961	C2096	0.829620	0.551770	0.387020
C20971	C2097	0.817880	0.552760	0.369140
H12901	H1290	0.806700	0.562300	0.368100
C20981	C2098	0.822490	0.539810	0.352760
H12911	H1291	0.814800	0.540400	0.340200
C20991	C2099	0.838620	0.525870	0.355070
H12921	H1292	0.841200	0.516400	0.344000
C21001	C2100	0.871900	0.498900	0.424480
C21011	C2101	0.917480	0.482470	0.362200
H12931	H1293	0.916500	0.493200	0.352100
C21021	C2102	0.934790	0.471060	0.362740
H12941	H1294	0.945500	0.473300	0.352800
C21031	C2103	0.937050	0.455610	0.378210
H12951	H1295	0.949400	0.447600	0.379300
C21041	C2104	0.920420	0.452560	0.391730
C21051	C2105	0.903040	0.465210	0.389950
H12961	H1296	0.892100	0.463400	0.399700
C21061	C2106	0.921390	0.436770	0.407930
N8011	N801	0.864900	0.590030	0.484390
N8021	N802	0.726910	0.645350	0.386750
N8031	N803	0.767570	0.626720	0.399320
N8041	N804	0.820920	0.590570	0.436910
N8051	N805	0.811420	0.579770	0.403420
N8061	N806	0.837540	0.561510	0.422260
N8071	N807	0.850740	0.524880	0.371730
N8081	N808	0.900840	0.479670	0.375480
N8091	N809	0.872930	0.501020	0.407030
N8101	N810	0.906570	0.436870	0.422490
S1611	S161	0.709830	0.672570	0.415650
S1621	S162	0.870790	0.496410	0.450250
C21071	C2107	0.851660	0.089900	0.968220
H12971	H1297	0.844300	0.102400	0.965100
C21081	C2108	0.848110	0.072730	0.955830
C21091	C2109	0.858170	0.054370	0.960490
H12981	H1298	0.856600	0.042400	0.951900
C21101	C2110	0.870620	0.053830	0.977980
H12991	H1299	0.876700	0.041100	0.982400
C21111	C2111	0.874220	0.071710	0.989010
H13001	H1300	0.883700	0.071200	0.000400
C21121	C2112	0.719000	0.156580	0.898490
C21131	C2113	0.766730	0.140670	0.914840
H13011	H1301	0.756400	0.151200	0.914000
C21141	C2114	0.779590	0.140770	0.931700
H13021	H1302	0.778700	0.151500	0.941800
C21151	C2115	0.793890	0.124950	0.933760
H13031	H1303	0.803100	0.124500	0.945300
C21161	C2116	0.794540	0.109540	0.918460
C21171	C2117	0.781150	0.111150	0.901990
H13041	H1304	0.781500	0.100500	0.891800
C21181	C2118	0.809830	0.092070	0.919960
C21191	C2119	0.825700	0.064780	0.904970
C21201	C2120	0.834630	0.074740	0.937470
C21211	C2121	0.846590	0.037640	0.887170
H13051	H1305	0.855400	0.037400	0.899000
C21221	C2122	0.829620	0.051770	0.887020
C21231	C2123	0.817880	0.052760	0.869140
H13061	H1306	0.806700	0.062300	0.868100
C21241	C2124	0.822490	0.039810	0.852760
H13071	H1307	0.814800	0.040400	0.840200
C21251	C2125	0.838620	0.025870	0.855070
H13081	H1308	0.841200	0.016400	0.844000
C21261	C2126	0.871900	0.998900	0.924480
C21271	C2127	0.917480	0.982470	0.862200
H13091	H1309	0.916500	0.993200	0.852100
C21281	C2128	0.934790	0.971060	0.862740
H13101	H1310	0.945500	0.973300	0.852800
C21291	C2129	0.937050	0.955610	0.878210
H13111	H1311	0.949400	0.947600	0.879300
C21301	C2130	0.920420	0.952560	0.891730
C21311	C2131	0.903040	0.965210	0.889950
H13121	H1312	0.892100	0.963400	0.899700
C21321	C2132	0.921390	0.936770	0.907930
N8111	N811	0.864900	0.090030	0.984390
N8121	N812	0.726910	0.145350	0.886750
N8131	N813	0.767570	0.126720	0.899320
N8141	N814	0.820920	0.090570	0.936910
N8151	N815	0.811420	0.079770	0.903420
N8161	N816	0.837540	0.061510	0.922260
N8171	N817	0.850740	0.024880	0.871730
N8181	N818	0.900840	0.979670	0.875480
N8191	N819	0.872930	0.001020	0.907030
N8201	N820	0.906570	0.936870	0.922490
S1631	S163	0.709830	0.172570	0.915650
S1641	S164	0.870790	0.996410	0.950250
C21331	C2133	0.351660	0.589900	0.968220
H13131	H1313	0.344300	0.602400	0.965100
C21341	C2134	0.348110	0.572730	0.955830
C21351	C2135	0.358170	0.554370	0.960490
H13141	H1314	0.356600	0.542400	0.951900
C21361	C2136	0.370620	0.553830	0.977980
H13151	H1315	0.376700	0.541100	0.982400
C21371	C2137	0.374220	0.571710	0.989010
H13161	H1316	0.383700	0.571200	0.000400
C21381	C2138	0.219000	0.656580	0.898490
C21391	C2139	0.266730	0.640670	0.914840
H13171	H1317	0.256400	0.651200	0.914000
C21401	C2140	0.279590	0.640770	0.931700
H13181	H1318	0.278700	0.651500	0.941800
C21411	C2141	0.293890	0.624950	0.933760
H13191	H1319	0.303100	0.624500	0.945300
C21421	C2142	0.294540	0.609540	0.918460
C21431	C2143	0.281150	0.611150	0.901990
H13201	H1320	0.281500	0.600500	0.891800
C21441	C2144	0.309830	0.592070	0.919960
C21451	C2145	0.325700	0.564780	0.904970
C21461	C2146	0.334630	0.574740	0.937470
C21471	C2147	0.346590	0.537640	0.887170
H13211	H1321	0.355400	0.537400	0.899000
C21481	C2148	0.329620	0.551770	0.887020
C21491	C2149	0.317880	0.552760	0.869140
H13221	H1322	0.306700	0.562300	0.868100
C21501	C2150	0.322490	0.539810	0.852760
H13231	H1323	0.314800	0.540400	0.840200
C21511	C2151	0.338620	0.525870	0.855070
H13241	H1324	0.341200	0.516400	0.844000
C21521	C2152	0.371900	0.498900	0.924480
C21531	C2153	0.417480	0.482470	0.862200
H13251	H1325	0.416500	0.493200	0.852100
C21541	C2154	0.434790	0.471060	0.862740
H13261	H1326	0.445500	0.473300	0.852800
C21551	C2155	0.437050	0.455610	0.878210
H13271	H1327	0.449400	0.447600	0.879300
C21561	C2156	0.420420	0.452560	0.891730
C21571	C2157	0.403040	0.465210	0.889950
H13281	H1328	0.392100	0.463400	0.899700
C21581	C2158	0.421390	0.436770	0.907930
N8211	N821	0.364900	0.590030	0.984390
N8221	N822	0.226910	0.645350	0.886750
N8231	N823	0.267570	0.626720	0.899320
N8241	N824	0.320920	0.590570	0.936910
N8251	N825	0.311420	0.579770	0.903420
N8261	N826	0.337540	0.561510	0.922260
N8271	N827	0.350740	0.524880	0.871730
N8281	N828	0.400840	0.479670	0.875480
N8291	N829	0.372930	0.501020	0.907030
N8301	N830	0.406570	0.436870	0.922490
S1651	S165	0.209830	0.672570	0.915650
S1661	S166	0.370790	0.496410	0.950250
C21591	C2159	0.351660	0.089900	0.468220
H13291	H1329	0.344300	0.102400	0.465100
C21601	C2160	0.348110	0.072730	0.455830
C21611	C2161	0.358170	0.054370	0.460490
H13301	H1330	0.356600	0.042400	0.451900
C21621	C2162	0.370620	0.053830	0.477980
H13311	H1331	0.376700	0.041100	0.482400
C21631	C2163	0.374220	0.071710	0.489010
H13321	H1332	0.383700	0.071200	0.500400
C21641	C2164	0.219000	0.156580	0.398490
C21651	C2165	0.266730	0.140670	0.414840
H13331	H1333	0.256400	0.151200	0.414000
C21661	C2166	0.279590	0.140770	0.431700
H13341	H1334	0.278700	0.151500	0.441800
C21671	C2167	0.293890	0.124950	0.433760
H13351	H1335	0.303100	0.124500	0.445300
C21681	C2168	0.294540	0.109540	0.418460
C21691	C2169	0.281150	0.111150	0.401990
H13361	H1336	0.281500	0.100500	0.391800
C21701	C2170	0.309830	0.092070	0.419960
C21711	C2171	0.325700	0.064780	0.404970
C21721	C2172	0.334630	0.074740	0.437470
C21731	C2173	0.346590	0.037640	0.387170
H13371	H1337	0.355400	0.037400	0.399000
C21741	C2174	0.329620	0.051770	0.387020
C21751	C2175	0.317880	0.052760	0.369140
H13381	H1338	0.306700	0.062300	0.368100
C21761	C2176	0.322490	0.039810	0.352760
H13391	H1339	0.314800	0.040400	0.340200
C21771	C2177	0.338620	0.025870	0.355070
H13401	H1340	0.341200	0.016400	0.344000
C21781	C2178	0.371900	0.998900	0.424480
C21791	C2179	0.417480	0.982470	0.362200
H13411	H1341	0.416500	0.993200	0.352100
C21801	C2180	0.434790	0.971060	0.362740
H13421	H1342	0.445500	0.973300	0.352800
C21811	C2181	0.437050	0.955610	0.378210
H13431	H1343	0.449400	0.947600	0.379300
C21821	C2182	0.420420	0.952560	0.391730
C21831	C2183	0.403040	0.965210	0.389950
H13441	H1344	0.392100	0.963400	0.399700
C21841	C2184	0.421390	0.936770	0.407930
N8311	N831	0.364900	0.090030	0.484390
N8321	N832	0.226910	0.145350	0.386750
N8331	N833	0.267570	0.126720	0.399320
N8341	N834	0.320920	0.090570	0.436910
N8351	N835	0.311420	0.079770	0.403420
N8361	N836	0.337540	0.061510	0.422260
N8371	N837	0.350740	0.024880	0.371730
N8381	N838	0.400840	0.979670	0.375480
N8391	N839	0.372930	0.001020	0.407030
N8401	N840	0.406570	0.936870	0.422490
S1671	S167	0.209830	0.172570	0.415650
S1681	S168	0.370790	0.996410	0.450250
C21851	C2185	0.351660	0.660100	0.281780
H13451	H1345	0.344300	0.647600	0.284900
C21861	C2186	0.348110	0.677270	0.294170
C21871	C2187	0.358170	0.695630	0.289510
H13461	H1346	0.356600	0.707600	0.298100
C21881	C2188	0.370620	0.696170	0.272020
H13471	H1347	0.376700	0.708900	0.267600
C21891	C2189	0.374220	0.678290	0.260990
H13481	H1348	0.383700	0.678800	0.249600
C21901	C2190	0.219000	0.593420	0.351510
C21911	C2191	0.266730	0.609330	0.335160
H13491	H1349	0.256400	0.598800	0.336000
C21921	C2192	0.279590	0.609230	0.318300
H13501	H1350	0.278700	0.598500	0.308200
C21931	C2193	0.293890	0.625050	0.316240
H13511	H1351	0.303100	0.625500	0.304700
C21941	C2194	0.294540	0.640460	0.331540
C21951	C2195	0.281150	0.638850	0.348010
H13521	H1352	0.281500	0.649500	0.358200
C21961	C2196	0.309830	0.657930	0.330040
C21971	C2197	0.325700	0.685220	0.345030
C21981	C2198	0.334630	0.675260	0.312530
C21991	C2199	0.346590	0.712360	0.362830
H13531	H1353	0.355400	0.712600	0.351000
C22001	C2200	0.329620	0.698230	0.362980
C22011	C2201	0.317880	0.697240	0.380860
H13541	H1354	0.306700	0.687700	0.381900
C22021	C2202	0.322490	0.710190	0.397240
H13551	H1355	0.314800	0.709600	0.409800
C22031	C2203	0.338620	0.724130	0.394930
H13561	H1356	0.341200	0.733600	0.406000
C22041	C2204	0.371900	0.751100	0.325520
C22051	C2205	0.417480	0.767530	0.387800
H13571	H1357	0.416500	0.756800	0.397900
C22061	C2206	0.434790	0.778940	0.387260
H13581	H1358	0.445500	0.776700	0.397200
C22071	C2207	0.437050	0.794390	0.371790
H13591	H1359	0.449400	0.802400	0.370700
C22081	C2208	0.420420	0.797440	0.358270
C22091	C2209	0.403040	0.784790	0.360050
H13601	H1360	0.392100	0.786600	0.350300
C22101	C2210	0.421390	0.813230	0.342070
N8411	N841	0.364900	0.659970	0.265610
N8421	N842	0.226910	0.604650	0.363250
N8431	N843	0.267570	0.623280	0.350680
N8441	N844	0.320920	0.659430	0.313090
N8451	N845	0.311420	0.670230	0.346580
N8461	N846	0.337540	0.688490	0.327740
N8471	N847	0.350740	0.725120	0.378270
N8481	N848	0.400840	0.770330	0.374520
N8491	N849	0.372930	0.748980	0.342970
N8501	N850	0.406570	0.813130	0.327510
S1691	S169	0.209830	0.577430	0.334350
S1701	S170	0.370790	0.753590	0.299750
C22111	C2211	0.351660	0.160100	0.781780
H13611	H1361	0.344300	0.147600	0.784900
C22121	C2212	0.348110	0.177270	0.794170
C22131	C2213	0.358170	0.195630	0.789510
H13621	H1362	0.356600	0.207600	0.798100
C22141	C2214	0.370620	0.196170	0.772020
H13631	H1363	0.376700	0.208900	0.767600
C22151	C2215	0.374220	0.178290	0.760990
H13641	H1364	0.383700	0.178800	0.749600
C22161	C2216	0.219000	0.093420	0.851510
C22171	C2217	0.266730	0.109330	0.835160
H13651	H1365	0.256400	0.098800	0.836000
C22181	C2218	0.279590	0.109230	0.818300
H13661	H1366	0.278700	0.098500	0.808200
C22191	C2219	0.293890	0.125050	0.816240
H13671	H1367	0.303100	0.125500	0.804700
C22201	C2220	0.294540	0.140460	0.831540
C22211	C2221	0.281150	0.138850	0.848010
H13681	H1368	0.281500	0.149500	0.858200
C22221	C2222	0.309830	0.157930	0.830040
C22231	C2223	0.325700	0.185220	0.845030
C22241	C2224	0.334630	0.175260	0.812530
C22251	C2225	0.346590	0.212360	0.862830
H13691	H1369	0.355400	0.212600	0.851000
C22261	C2226	0.329620	0.198230	0.862980
C22271	C2227	0.317880	0.197240	0.880860
H13701	H1370	0.306700	0.187700	0.881900
C22281	C2228	0.322490	0.210190	0.897240
H13711	H1371	0.314800	0.209600	0.909800
C22291	C2229	0.338620	0.224130	0.894930
H13721	H1372	0.341200	0.233600	0.906000
C22301	C2230	0.371900	0.251100	0.825520
C22311	C2231	0.417480	0.267530	0.887800
H13731	H1373	0.416500	0.256800	0.897900
C22321	C2232	0.434790	0.278940	0.887260
H13741	H1374	0.445500	0.276700	0.897200
C22331	C2233	0.437050	0.294390	0.871790
H13751	H1375	0.449400	0.302400	0.870700
C22341	C2234	0.420420	0.297440	0.858270
C22351	C2235	0.403040	0.284790	0.860050
H13761	H1376	0.392100	0.286600	0.850300
C22361	C2236	0.421390	0.313230	0.842070
N8511	N851	0.364900	0.159970	0.765610
N8521	N852	0.226910	0.104650	0.863250
N8531	N853	0.267570	0.123280	0.850680
N8541	N854	0.320920	0.159430	0.813090
N8551	N855	0.311420	0.170230	0.846580
N8561	N856	0.337540	0.188490	0.827740
N8571	N857	0.350740	0.225120	0.878270
N8581	N858	0.400840	0.270330	0.874520
N8591	N859	0.372930	0.248980	0.842970
N8601	N860	0.406570	0.313130	0.827510
S1711	S171	0.209830	0.077430	0.834350
S1721	S172	0.370790	0.253590	0.799750
C22371	C2237	0.851660	0.660100	0.781780
H13771	H1377	0.844300	0.647600	0.784900
C22381	C2238	0.848110	0.677270	0.794170
C22391	C2239	0.858170	0.695630	0.789510
H13781	H1378	0.856600	0.707600	0.798100
C22401	C2240	0.870620	0.696170	0.772020
H13791	H1379	0.876700	0.708900	0.767600
C22411	C2241	0.874220	0.678290	0.760990
H13801	H1380	0.883700	0.678800	0.749600
C22421	C2242	0.719000	0.593420	0.851510
C22431	C2243	0.766730	0.609330	0.835160
H13811	H1381	0.756400	0.598800	0.836000
C22441	C2244	0.779590	0.609230	0.818300
H13821	H1382	0.778700	0.598500	0.808200
C22451	C2245	0.793890	0.625050	0.816240
H13831	H1383	0.803100	0.625500	0.804700
C22461	C2246	0.794540	0.640460	0.831540
C22471	C2247	0.781150	0.638850	0.848010
H13841	H1384	0.781500	0.649500	0.858200
C22481	C2248	0.809830	0.657930	0.830040
C22491	C2249	0.825700	0.685220	0.845030
C22501	C2250	0.834630	0.675260	0.812530
C22511	C2251	0.846590	0.712360	0.862830
H13851	H1385	0.855400	0.712600	0.851000
C22521	C2252	0.829620	0.698230	0.862980
C22531	C2253	0.817880	0.697240	0.880860
H13861	H1386	0.806700	0.687700	0.881900
C22541	C2254	0.822490	0.710190	0.897240
H13871	H1387	0.814800	0.709600	0.909800
C22551	C2255	0.838620	0.724130	0.894930
H13881	H1388	0.841200	0.733600	0.906000
C22561	C2256	0.871900	0.751100	0.825520
C22571	C2257	0.917480	0.767530	0.887800
H13891	H1389	0.916500	0.756800	0.897900
C22581	C2258	0.934790	0.778940	0.887260
H13901	H1390	0.945500	0.776700	0.897200
C22591	C2259	0.937050	0.794390	0.871790
H13911	H1391	0.949400	0.802400	0.870700
C22601	C2260	0.920420	0.797440	0.858270
C22611	C2261	0.903040	0.784790	0.860050
H13921	H1392	0.892100	0.786600	0.850300
C22621	C2262	0.921390	0.813230	0.842070
N8611	N861	0.864900	0.659970	0.765610
N8621	N862	0.726910	0.604650	0.863250
N8631	N863	0.767570	0.623280	0.850680
N8641	N864	0.820920	0.659430	0.813090
N8651	N865	0.811420	0.670230	0.846580
N8661	N866	0.837540	0.688490	0.827740
N8671	N867	0.850740	0.725120	0.878270
N8681	N868	0.900840	0.770330	0.874520
N8691	N869	0.872930	0.748980	0.842970
N8701	N870	0.906570	0.813130	0.827510
S1731	S173	0.709830	0.577430	0.834350
S1741	S174	0.870790	0.753590	0.799750
C22631	C2263	0.851660	0.160100	0.281780
H13931	H1393	0.844300	0.147600	0.284900
C22641	C2264	0.848110	0.177270	0.294170
C22651	C2265	0.858170	0.195630	0.289510
H13941	H1394	0.856600	0.207600	0.298100
C22661	C2266	0.870620	0.196170	0.272020
H13951	H1395	0.876700	0.208900	0.267600
C22671	C2267	0.874220	0.178290	0.260990
H13961	H1396	0.883700	0.178800	0.249600
C22681	C2268	0.719000	0.093420	0.351510
C22691	C2269	0.766730	0.109330	0.335160
H13971	H1397	0.756400	0.098800	0.336000
C22701	C2270	0.779590	0.109230	0.318300
H13981	H1398	0.778700	0.098500	0.308200
C22711	C2271	0.793890	0.125050	0.316240
H13991	H1399	0.803100	0.125500	0.304700
C22721	C2272	0.794540	0.140460	0.331540
C22731	C2273	0.781150	0.138850	0.348010
H14001	H1400	0.781500	0.149500	0.358200
C22741	C2274	0.809830	0.157930	0.330040
C22751	C2275	0.825700	0.185220	0.345030
C22761	C2276	0.834630	0.175260	0.312530
C22771	C2277	0.846590	0.212360	0.362830
H14011	H1401	0.855400	0.212600	0.351000
C22781	C2278	0.829620	0.198230	0.362980
C22791	C2279	0.817880	0.197240	0.380860
H14021	H1402	0.806700	0.187700	0.381900
C22801	C2280	0.822490	0.210190	0.397240
H14031	H1403	0.814800	0.209600	0.409800
C22811	C2281	0.838620	0.224130	0.394930
H14041	H1404	0.841200	0.233600	0.406000
C22821	C2282	0.871900	0.251100	0.325520
C22831	C2283	0.917480	0.267530	0.387800
H14051	H1405	0.916500	0.256800	0.397900
C22841	C2284	0.934790	0.278940	0.387260
H14061	H1406	0.945500	0.276700	0.397200
C22851	C2285	0.937050	0.294390	0.371790
H14071	H1407	0.949400	0.302400	0.370700
C22861	C2286	0.920420	0.297440	0.358270
C22871	C2287	0.903040	0.284790	0.360050
H14081	H1408	0.892100	0.286600	0.350300
C22881	C2288	0.921390	0.313230	0.342070
N8711	N871	0.864900	0.159970	0.265610
N8721	N872	0.726910	0.104650	0.363250
N8731	N873	0.767570	0.123280	0.350680
N8741	N874	0.820920	0.159430	0.313090
N8751	N875	0.811420	0.170230	0.346580
N8761	N876	0.837540	0.188490	0.327740
N8771	N877	0.850740	0.225120	0.378270
N8781	N878	0.900840	0.270330	0.374520
N8791	N879	0.872930	0.248980	0.342970
N8801	N880	0.906570	0.313130	0.327510
S1751	S175	0.709830	0.077430	0.334350
S1761	S176	0.870790	0.253590	0.299750
C22891	C2289	0.898340	0.089900	0.781780
H14091	H1409	0.905700	0.102400	0.784900
C22901	C2290	0.901890	0.072730	0.794170
C22911	C2291	0.891830	0.054370	0.789510
H14101	H1410	0.893400	0.042400	0.798100
C22921	C2292	0.879380	0.053830	0.772020
H14111	H1411	0.873300	0.041100	0.767600
C22931	C2293	0.875780	0.071710	0.760990
H14121	H1412	0.866300	0.071200	0.749600
C22941	C2294	0.031000	0.156580	0.851510
C22951	C2295	0.983270	0.140670	0.835160
H14131	H1413	0.993600	0.151200	0.836000
C22961	C2296	0.970410	0.140770	0.818300
H14141	H1414	0.971300	0.151500	0.808200
C22971	C2297	0.956110	0.124950	0.816240
H14151	H1415	0.946900	0.124500	0.804700
C22981	C2298	0.955460	0.109540	0.831540
C22991	C2299	0.968850	0.111150	0.848010
H14161	H1416	0.968500	0.100500	0.858200
C23001	C2300	0.940170	0.092070	0.830040
C23011	C2301	0.924300	0.064780	0.845030
C23021	C2302	0.915370	0.074740	0.812530
C23031	C2303	0.903410	0.037640	0.862830
H14171	H1417	0.894600	0.037400	0.851000
C23041	C2304	0.920380	0.051770	0.862980
C23051	C2305	0.932120	0.052760	0.880860
H14181	H1418	0.943300	0.062300	0.881900
C23061	C2306	0.927510	0.039810	0.897240
H14191	H1419	0.935200	0.040400	0.909800
C23071	C2307	0.911380	0.025870	0.894930
H14201	H1420	0.908800	0.016400	0.906000
C23081	C2308	0.878100	0.998900	0.825520
C23091	C2309	0.832520	0.982470	0.887800
H14211	H1421	0.833500	0.993200	0.897900
C23101	C2310	0.815210	0.971060	0.887260
H14221	H1422	0.804500	0.973300	0.897200
C23111	C2311	0.812950	0.955610	0.871790
H14231	H1423	0.800600	0.947600	0.870700
C23121	C2312	0.829580	0.952560	0.858270
C23131	C2313	0.846960	0.965210	0.860050
H14241	H1424	0.857900	0.963400	0.850300
C23141	C2314	0.828610	0.936770	0.842070
N8811	N881	0.885100	0.090030	0.765610
N8821	N882	0.023090	0.145350	0.863250
N8831	N883	0.982430	0.126720	0.850680
N8841	N884	0.929080	0.090570	0.813090
N8851	N885	0.938580	0.079770	0.846580
N8861	N886	0.912460	0.061510	0.827740
N8871	N887	0.899260	0.024880	0.878270
N8881	N888	0.849160	0.979670	0.874520
N8891	N889	0.877070	0.001020	0.842970
N8901	N890	0.843430	0.936870	0.827510
S1771	S177	0.040170	0.172570	0.834350
S1781	S178	0.879210	0.996410	0.799750
C23151	C2315	0.898340	0.589900	0.281780
H14251	H1425	0.905700	0.602400	0.284900
C23161	C2316	0.901890	0.572730	0.294170
C23171	C2317	0.891830	0.554370	0.289510
H14261	H1426	0.893400	0.542400	0.298100
C23181	C2318	0.879380	0.553830	0.272020
H14271	H1427	0.873300	0.541100	0.267600
C23191	C2319	0.875780	0.571710	0.260990
H14281	H1428	0.866300	0.571200	0.249600
C23201	C2320	0.031000	0.656580	0.351510
C23211	C2321	0.983270	0.640670	0.335160
H14291	H1429	0.993600	0.651200	0.336000
C23221	C2322	0.970410	0.640770	0.318300
H14301	H1430	0.971300	0.651500	0.308200
C23231	C2323	0.956110	0.624950	0.316240
H14311	H1431	0.946900	0.624500	0.304700
C23241	C2324	0.955460	0.609540	0.331540
C23251	C2325	0.968850	0.611150	0.348010
H14321	H1432	0.968500	0.600500	0.358200
C23261	C2326	0.940170	0.592070	0.330040
C23271	C2327	0.924300	0.564780	0.345030
C23281	C2328	0.915370	0.574740	0.312530
C23291	C2329	0.903410	0.537640	0.362830
H14331	H1433	0.894600	0.537400	0.351000
C23301	C2330	0.920380	0.551770	0.362980
C23311	C2331	0.932120	0.552760	0.380860
H14341	H1434	0.943300	0.562300	0.381900
C23321	C2332	0.927510	0.539810	0.397240
H14351	H1435	0.935200	0.540400	0.409800
C23331	C2333	0.911380	0.525870	0.394930
H14361	H1436	0.908800	0.516400	0.406000
C23341	C2334	0.878100	0.498900	0.325520
C23351	C2335	0.832520	0.482470	0.387800
H14371	H1437	0.833500	0.493200	0.397900
C23361	C2336	0.815210	0.471060	0.387260
H14381	H1438	0.804500	0.473300	0.397200
C23371	C2337	0.812950	0.455610	0.371790
H14391	H1439	0.800600	0.447600	0.370700
C23381	C2338	0.829580	0.452560	0.358270
C23391	C2339	0.846960	0.465210	0.360050
H14401	H1440	0.857900	0.463400	0.350300
C23401	C2340	0.828610	0.436770	0.342070
N8911	N891	0.885100	0.590030	0.265610
N8921	N892	0.023090	0.645350	0.363250
N8931	N893	0.982430	0.626720	0.350680
N8941	N894	0.929080	0.590570	0.313090
N8951	N895	0.938580	0.579770	0.346580
N8961	N896	0.912460	0.561510	0.327740
N8971	N897	0.899260	0.524880	0.378270
N8981	N898	0.849160	0.479670	0.374520
N8991	N899	0.877070	0.501020	0.342970
N9001	N900	0.843430	0.436870	0.327510
S1791	S179	0.040170	0.672570	0.334350
S1801	S180	0.879210	0.496410	0.299750
C23411	C2341	0.398340	0.089900	0.281780
H14411	H1441	0.405700	0.102400	0.284900
C23421	C2342	0.401890	0.072730	0.294170
C23431	C2343	0.391830	0.054370	0.289510
H14421	H1442	0.393400	0.042400	0.298100
C23441	C2344	0.379380	0.053830	0.272020
H14431	H1443	0.373300	0.041100	0.267600
C23451	C2345	0.375780	0.071710	0.260990
H14441	H1444	0.366300	0.071200	0.249600
C23461	C2346	0.531000	0.156580	0.351510
C23471	C2347	0.483270	0.140670	0.335160
H14451	H1445	0.493600	0.151200	0.336000
C23481	C2348	0.470410	0.140770	0.318300
H14461	H1446	0.471300	0.151500	0.308200
C23491	C2349	0.456110	0.124950	0.316240
H14471	H1447	0.446900	0.124500	0.304700
C23501	C2350	0.455460	0.109540	0.331540
C23511	C2351	0.468850	0.111150	0.348010
H14481	H1448	0.468500	0.100500	0.358200
C23521	C2352	0.440170	0.092070	0.330040
C23531	C2353	0.424300	0.064780	0.345030
C23541	C2354	0.415370	0.074740	0.312530
C23551	C2355	0.403410	0.037640	0.362830
H14491	H1449	0.394600	0.037400	0.351000
C23561	C2356	0.420380	0.051770	0.362980
C23571	C2357	0.432120	0.052760	0.380860
H14501	H1450	0.443300	0.062300	0.381900
C23581	C2358	0.427510	0.039810	0.397240
H14511	H1451	0.435200	0.040400	0.409800
C23591	C2359	0.411380	0.025870	0.394930
H14521	H1452	0.408800	0.016400	0.406000
C23601	C2360	0.378100	0.998900	0.325520
C23611	C2361	0.332520	0.982470	0.387800
H14531	H1453	0.333500	0.993200	0.397900
C23621	C2362	0.315210	0.971060	0.387260
H14541	H1454	0.304500	0.973300	0.397200
C23631	C2363	0.312950	0.955610	0.371790
H14551	H1455	0.300600	0.947600	0.370700
C23641	C2364	0.329580	0.952560	0.358270
C23651	C2365	0.346960	0.965210	0.360050
H14561	H1456	0.357900	0.963400	0.350300
C23661	C2366	0.328610	0.936770	0.342070
N9011	N901	0.385100	0.090030	0.265610
N9021	N902	0.523090	0.145350	0.363250
N9031	N903	0.482430	0.126720	0.350680
N9041	N904	0.429080	0.090570	0.313090
N9051	N905	0.438580	0.079770	0.346580
N9061	N906	0.412460	0.061510	0.327740
N9071	N907	0.399260	0.024880	0.378270
N9081	N908	0.349160	0.979670	0.374520
N9091	N909	0.377070	0.001020	0.342970
N9101	N910	0.343430	0.936870	0.327510
S1811	S181	0.540170	0.172570	0.334350
S1821	S182	0.379210	0.996410	0.299750
C23671	C2367	0.398340	0.589900	0.781780
H14571	H1457	0.405700	0.602400	0.784900
C23681	C2368	0.401890	0.572730	0.794170
C23691	C2369	0.391830	0.554370	0.789510
H14581	H1458	0.393400	0.542400	0.798100
C23701	C2370	0.379380	0.553830	0.772020
H14591	H1459	0.373300	0.541100	0.767600
C23711	C2371	0.375780	0.571710	0.760990
H14601	H1460	0.366300	0.571200	0.749600
C23721	C2372	0.531000	0.656580	0.851510
C23731	C2373	0.483270	0.640670	0.835160
H14611	H1461	0.493600	0.651200	0.836000
C23741	C2374	0.470410	0.640770	0.818300
H14621	H1462	0.471300	0.651500	0.808200
C23751	C2375	0.456110	0.624950	0.816240
H14631	H1463	0.446900	0.624500	0.804700
C23761	C2376	0.455460	0.609540	0.831540
C23771	C2377	0.468850	0.611150	0.848010
H14641	H1464	0.468500	0.600500	0.858200
C23781	C2378	0.440170	0.592070	0.830040
C23791	C2379	0.424300	0.564780	0.845030
C23801	C2380	0.415370	0.574740	0.812530
C23811	C2381	0.403410	0.537640	0.862830
H14651	H1465	0.394600	0.537400	0.851000
C23821	C2382	0.420380	0.551770	0.862980
C23831	C2383	0.432120	0.552760	0.880860
H14661	H1466	0.443300	0.562300	0.881900
C23841	C2384	0.427510	0.539810	0.897240
H14671	H1467	0.435200	0.540400	0.909800
C23851	C2385	0.411380	0.525870	0.894930
H14681	H1468	0.408800	0.516400	0.906000
C23861	C2386	0.378100	0.498900	0.825520
C23871	C2387	0.332520	0.482470	0.887800
H14691	H1469	0.333500	0.493200	0.897900
C23881	C2388	0.315210	0.471060	0.887260
H14701	H1470	0.304500	0.473300	0.897200
C23891	C2389	0.312950	0.455610	0.871790
H14711	H1471	0.300600	0.447600	0.870700
C23901	C2390	0.329580	0.452560	0.858270
C23911	C2391	0.346960	0.465210	0.860050
H14721	H1472	0.357900	0.463400	0.850300
C23921	C2392	0.328610	0.436770	0.842070
N9111	N911	0.385100	0.590030	0.765610
N9121	N912	0.523090	0.645350	0.863250
N9131	N913	0.482430	0.626720	0.850680
N9141	N914	0.429080	0.590570	0.813090
N9151	N915	0.438580	0.579770	0.846580
N9161	N916	0.412460	0.561510	0.827740
N9171	N917	0.399260	0.524880	0.878270
N9181	N918	0.349160	0.479670	0.874520
N9191	N919	0.377070	0.501020	0.842970
N9201	N920	0.343430	0.436870	0.827510
S1831	S183	0.540170	0.672570	0.834350
S1841	S184	0.379210	0.496410	0.799750
C23931	C2393	0.398340	0.160100	0.968220
H14731	H1473	0.405700	0.147600	0.965100
C23941	C2394	0.401890	0.177270	0.955830
C23951	C2395	0.391830	0.195630	0.960490
H14741	H1474	0.393400	0.207600	0.951900
C23961	C2396	0.379380	0.196170	0.977980
H14751	H1475	0.373300	0.208900	0.982400
C23971	C2397	0.375780	0.178290	0.989010
H14761	H1476	0.366300	0.178800	0.000400
C23981	C2398	0.531000	0.093420	0.898490
C23991	C2399	0.483270	0.109330	0.914840
H14771	H1477	0.493600	0.098800	0.914000
C24001	C2400	0.470410	0.109230	0.931700
H14781	H1478	0.471300	0.098500	0.941800
C24011	C2401	0.456110	0.125050	0.933760
H14791	H1479	0.446900	0.125500	0.945300
C24021	C2402	0.455460	0.140460	0.918460
C24031	C2403	0.468850	0.138850	0.901990
H14801	H1480	0.468500	0.149500	0.891800
C24041	C2404	0.440170	0.157930	0.919960
C24051	C2405	0.424300	0.185220	0.904970
C24061	C2406	0.415370	0.175260	0.937470
C24071	C2407	0.403410	0.212360	0.887170
H14811	H1481	0.394600	0.212600	0.899000
C24081	C2408	0.420380	0.198230	0.887020
C24091	C2409	0.432120	0.197240	0.869140
H14821	H1482	0.443300	0.187700	0.868100
C24101	C2410	0.427510	0.210190	0.852760
H14831	H1483	0.435200	0.209600	0.840200
C24111	C2411	0.411380	0.224130	0.855070
H14841	H1484	0.408800	0.233600	0.844000
C24121	C2412	0.378100	0.251100	0.924480
C24131	C2413	0.332520	0.267530	0.862200
H14851	H1485	0.333500	0.256800	0.852100
C24141	C2414	0.315210	0.278940	0.862740
H14861	H1486	0.304500	0.276700	0.852800
C24151	C2415	0.312950	0.294390	0.878210
H14871	H1487	0.300600	0.302400	0.879300
C24161	C2416	0.329580	0.297440	0.891730
C24171	C2417	0.346960	0.284790	0.889950
H14881	H1488	0.357900	0.286600	0.899700
C24181	C2418	0.328610	0.313230	0.907930
N9211	N921	0.385100	0.159970	0.984390
N9221	N922	0.523090	0.104650	0.886750
N9231	N923	0.482430	0.123280	0.899320
N9241	N924	0.429080	0.159430	0.936910
N9251	N925	0.438580	0.170230	0.903420
N9261	N926	0.412460	0.188490	0.922260
N9271	N927	0.399260	0.225120	0.871730
N9281	N928	0.349160	0.270330	0.875480
N9291	N929	0.377070	0.248980	0.907030
N9301	N930	0.343430	0.313130	0.922490
S1851	S185	0.540170	0.077430	0.915650
S1861	S186	0.379210	0.253590	0.950250
C24191	C2419	0.398340	0.660100	0.468220
H14891	H1489	0.405700	0.647600	0.465100
C24201	C2420	0.401890	0.677270	0.455830
C24211	C2421	0.391830	0.695630	0.460490
H14901	H1490	0.393400	0.707600	0.451900
C24221	C2422	0.379380	0.696170	0.477980
H14911	H1491	0.373300	0.708900	0.482400
C24231	C2423	0.375780	0.678290	0.489010
H14921	H1492	0.366300	0.678800	0.500400
C24241	C2424	0.531000	0.593420	0.398490
C24251	C2425	0.483270	0.609330	0.414840
H14931	H1493	0.493600	0.598800	0.414000
C24261	C2426	0.470410	0.609230	0.431700
H14941	H1494	0.471300	0.598500	0.441800
C24271	C2427	0.456110	0.625050	0.433760
H14951	H1495	0.446900	0.625500	0.445300
C24281	C2428	0.455460	0.640460	0.418460
C24291	C2429	0.468850	0.638850	0.401990
H14961	H1496	0.468500	0.649500	0.391800
C24301	C2430	0.440170	0.657930	0.419960
C24311	C2431	0.424300	0.685220	0.404970
C24321	C2432	0.415370	0.675260	0.437470
C24331	C2433	0.403410	0.712360	0.387170
H14971	H1497	0.394600	0.712600	0.399000
C24341	C2434	0.420380	0.698230	0.387020
C24351	C2435	0.432120	0.697240	0.369140
H14981	H1498	0.443300	0.687700	0.368100
C24361	C2436	0.427510	0.710190	0.352760
H14991	H1499	0.435200	0.709600	0.340200
C24371	C2437	0.411380	0.724130	0.355070
H15001	H1500	0.408800	0.733600	0.344000
C24381	C2438	0.378100	0.751100	0.424480
C24391	C2439	0.332520	0.767530	0.362200
H15011	H1501	0.333500	0.756800	0.352100
C24401	C2440	0.315210	0.778940	0.362740
H15021	H1502	0.304500	0.776700	0.352800
C24411	C2441	0.312950	0.794390	0.378210
H15031	H1503	0.300600	0.802400	0.379300
C24421	C2442	0.329580	0.797440	0.391730
C24431	C2443	0.346960	0.784790	0.389950
H15041	H1504	0.357900	0.786600	0.399700
C24441	C2444	0.328610	0.813230	0.407930
N9311	N931	0.385100	0.659970	0.484390
N9321	N932	0.523090	0.604650	0.386750
N9331	N933	0.482430	0.623280	0.399320
N9341	N934	0.429080	0.659430	0.436910
N9351	N935	0.438580	0.670230	0.403420
N9361	N936	0.412460	0.688490	0.422260
N9371	N937	0.399260	0.725120	0.371730
N9381	N938	0.349160	0.770330	0.375480
N9391	N939	0.377070	0.748980	0.407030
N9401	N940	0.343430	0.813130	0.422490
S1871	S187	0.540170	0.577430	0.415650
S1881	S188	0.379210	0.753590	0.450250
C24451	C2445	0.898340	0.160100	0.468220
H15051	H1505	0.905700	0.147600	0.465100
C24461	C2446	0.901890	0.177270	0.455830
C24471	C2447	0.891830	0.195630	0.460490
H15061	H1506	0.893400	0.207600	0.451900
C24481	C2448	0.879380	0.196170	0.477980
H15071	H1507	0.873300	0.208900	0.482400
C24491	C2449	0.875780	0.178290	0.489010
H15081	H1508	0.866300	0.178800	0.500400
C24501	C2450	0.031000	0.093420	0.398490
C24511	C2451	0.983270	0.109330	0.414840
H15091	H1509	0.993600	0.098800	0.414000
C24521	C2452	0.970410	0.109230	0.431700
H15101	H1510	0.971300	0.098500	0.441800
C24531	C2453	0.956110	0.125050	0.433760
H15111	H1511	0.946900	0.125500	0.445300
C24541	C2454	0.955460	0.140460	0.418460
C24551	C2455	0.968850	0.138850	0.401990
H15121	H1512	0.968500	0.149500	0.391800
C24561	C2456	0.940170	0.157930	0.419960
C24571	C2457	0.924300	0.185220	0.404970
C24581	C2458	0.915370	0.175260	0.437470
C24591	C2459	0.903410	0.212360	0.387170
H15131	H1513	0.894600	0.212600	0.399000
C24601	C2460	0.920380	0.198230	0.387020
C24611	C2461	0.932120	0.197240	0.369140
H15141	H1514	0.943300	0.187700	0.368100
C24621	C2462	0.927510	0.210190	0.352760
H15151	H1515	0.935200	0.209600	0.340200
C24631	C2463	0.911380	0.224130	0.355070
H15161	H1516	0.908800	0.233600	0.344000
C24641	C2464	0.878100	0.251100	0.424480
C24651	C2465	0.832520	0.267530	0.362200
H15171	H1517	0.833500	0.256800	0.352100
C24661	C2466	0.815210	0.278940	0.362740
H15181	H1518	0.804500	0.276700	0.352800
C24671	C2467	0.812950	0.294390	0.378210
H15191	H1519	0.800600	0.302400	0.379300
C24681	C2468	0.829580	0.297440	0.391730
C24691	C2469	0.846960	0.284790	0.389950
H15201	H1520	0.857900	0.286600	0.399700
C24701	C2470	0.828610	0.313230	0.407930
N9411	N941	0.885100	0.159970	0.484390
N9421	N942	0.023090	0.104650	0.386750
N9431	N943	0.982430	0.123280	0.399320
N9441	N944	0.929080	0.159430	0.436910
N9451	N945	0.938580	0.170230	0.403420
N9461	N946	0.912460	0.188490	0.422260
N9471	N947	0.899260	0.225120	0.371730
N9481	N948	0.849160	0.270330	0.375480
N9491	N949	0.877070	0.248980	0.407030
N9501	N950	0.843430	0.313130	0.422490
S1891	S189	0.040170	0.077430	0.415650
S1901	S190	0.879210	0.253590	0.450250
C24711	C2471	0.898340	0.660100	0.968220
H15211	H1521	0.905700	0.647600	0.965100
C24721	C2472	0.901890	0.677270	0.955830
C24731	C2473	0.891830	0.695630	0.960490
H15221	H1522	0.893400	0.707600	0.951900
C24741	C2474	0.879380	0.696170	0.977980
H15231	H1523	0.873300	0.708900	0.982400
C24751	C2475	0.875780	0.678290	0.989010
H15241	H1524	0.866300	0.678800	0.000400
C24761	C2476	0.031000	0.593420	0.898490
C24771	C2477	0.983270	0.609330	0.914840
H15251	H1525	0.993600	0.598800	0.914000
C24781	C2478	0.970410	0.609230	0.931700
H15261	H1526	0.971300	0.598500	0.941800
C24791	C2479	0.956110	0.625050	0.933760
H15271	H1527	0.946900	0.625500	0.945300
C24801	C2480	0.955460	0.640460	0.918460
C24811	C2481	0.968850	0.638850	0.901990
H15281	H1528	0.968500	0.649500	0.891800
C24821	C2482	0.940170	0.657930	0.919960
C24831	C2483	0.924300	0.685220	0.904970
C24841	C2484	0.915370	0.675260	0.937470
C24851	C2485	0.903410	0.712360	0.887170
H15291	H1529	0.894600	0.712600	0.899000
C24861	C2486	0.920380	0.698230	0.887020
C24871	C2487	0.932120	0.697240	0.869140
H15301	H1530	0.943300	0.687700	0.868100
C24881	C2488	0.927510	0.710190	0.852760
H15311	H1531	0.935200	0.709600	0.840200
C24891	C2489	0.911380	0.724130	0.855070
H15321	H1532	0.908800	0.733600	0.844000
C24901	C2490	0.878100	0.751100	0.924480
C24911	C2491	0.832520	0.767530	0.862200
H15331	H1533	0.833500	0.756800	0.852100
C24921	C2492	0.815210	0.778940	0.862740
H15341	H1534	0.804500	0.776700	0.852800
C24931	C2493	0.812950	0.794390	0.878210
H15351	H1535	0.800600	0.802400	0.879300
C24941	C2494	0.829580	0.797440	0.891730
C24951	C2495	0.846960	0.784790	0.889950
H15361	H1536	0.857900	0.786600	0.899700
C24961	C2496	0.828610	0.813230	0.907930
N9511	N951	0.885100	0.659970	0.984390
N9521	N952	0.023090	0.604650	0.886750
N9531	N953	0.982430	0.623280	0.899320
N9541	N954	0.929080	0.659430	0.936910
N9551	N955	0.938580	0.670230	0.903420
N9561	N956	0.912460	0.688490	0.922260
N9571	N957	0.899260	0.725120	0.871730
N9581	N958	0.849160	0.770330	0.875480
N9591	N959	0.877070	0.748980	0.907030
N9601	N960	0.843430	0.813130	0.922490
S1911	S191	0.040170	0.577430	0.915650
S1921	S192	0.879210	0.753590	0.950250
C24971	C2497	0.468220	0.660100	0.898340
H15371	H1537	0.465100	0.647600	0.905700
C24981	C2498	0.455830	0.677270	0.901890
C24991	C2499	0.460490	0.695630	0.891830
H15381	H1538	0.451900	0.707600	0.893400
C25001	C2500	0.477980	0.696170	0.879380
H15391	H1539	0.482400	0.708900	0.873300
C25011	C2501	0.489010	0.678290	0.875780
H15401	H1540	0.500400	0.678800	0.866300
C25021	C2502	0.398490	0.593420	0.031000
C25031	C2503	0.414840	0.609330	0.983270
H15411	H1541	0.414000	0.598800	0.993600
C25041	C2504	0.431700	0.609230	0.970410
H15421	H1542	0.441800	0.598500	0.971300
C25051	C2505	0.433760	0.625050	0.956110
H15431	H1543	0.445300	0.625500	0.946900
C25061	C2506	0.418460	0.640460	0.955460
C25071	C2507	0.401990	0.638850	0.968850
H15441	H1544	0.391800	0.649500	0.968500
C25081	C2508	0.419960	0.657930	0.940170
C25091	C2509	0.404970	0.685220	0.924300
C25101	C2510	0.437470	0.675260	0.915370
C25111	C2511	0.387170	0.712360	0.903410
H15451	H1545	0.399000	0.712600	0.894600
C25121	C2512	0.387020	0.698230	0.920380
C25131	C2513	0.369140	0.697240	0.932120
H15461	H1546	0.368100	0.687700	0.943300
C25141	C2514	0.352760	0.710190	0.927510
H15471	H1547	0.340200	0.709600	0.935200
C25151	C2515	0.355070	0.724130	0.911380
H15481	H1548	0.344000	0.733600	0.908800
C25161	C2516	0.424480	0.751100	0.878100
C25171	C2517	0.362200	0.767530	0.832520
H15491	H1549	0.352100	0.756800	0.833500
C25181	C2518	0.362740	0.778940	0.815210
H15501	H1550	0.352800	0.776700	0.804500
C25191	C2519	0.378210	0.794390	0.812950
H15511	H1551	0.379300	0.802400	0.800600
C25201	C2520	0.391730	0.797440	0.829580
C25211	C2521	0.389950	0.784790	0.846960
H15521	H1552	0.399700	0.786600	0.857900
C25221	C2522	0.407930	0.813230	0.828610
N9611	N961	0.484390	0.659970	0.885100
N9621	N962	0.386750	0.604650	0.023090
N9631	N963	0.399320	0.623280	0.982430
N9641	N964	0.436910	0.659430	0.929080
N9651	N965	0.403420	0.670230	0.938580
N9661	N966	0.422260	0.688490	0.912460
N9671	N967	0.371730	0.725120	0.899260
N9681	N968	0.375480	0.770330	0.849160
N9691	N969	0.407030	0.748980	0.877070
N9701	N970	0.422490	0.813130	0.843430
S1931	S193	0.415650	0.577430	0.040170
S1941	S194	0.450250	0.753590	0.879210
C25231	C2523	0.468220	0.160100	0.398340
H15531	H1553	0.465100	0.147600	0.405700
C25241	C2524	0.455830	0.177270	0.401890
C25251	C2525	0.460490	0.195630	0.391830
H15541	H1554	0.451900	0.207600	0.393400
C25261	C2526	0.477980	0.196170	0.379380
H15551	H1555	0.482400	0.208900	0.373300
C25271	C2527	0.489010	0.178290	0.375780
H15561	H1556	0.500400	0.178800	0.366300
C25281	C2528	0.398490	0.093420	0.531000
C25291	C2529	0.414840	0.109330	0.483270
H15571	H1557	0.414000	0.098800	0.493600
C25301	C2530	0.431700	0.109230	0.470410
H15581	H1558	0.441800	0.098500	0.471300
C25311	C2531	0.433760	0.125050	0.456110
H15591	H1559	0.445300	0.125500	0.446900
C25321	C2532	0.418460	0.140460	0.455460
C25331	C2533	0.401990	0.138850	0.468850
H15601	H1560	0.391800	0.149500	0.468500
C25341	C2534	0.419960	0.157930	0.440170
C25351	C2535	0.404970	0.185220	0.424300
C25361	C2536	0.437470	0.175260	0.415370
C25371	C2537	0.387170	0.212360	0.403410
H15611	H1561	0.399000	0.212600	0.394600
C25381	C2538	0.387020	0.198230	0.420380
C25391	C2539	0.369140	0.197240	0.432120
H15621	H1562	0.368100	0.187700	0.443300
C25401	C2540	0.352760	0.210190	0.427510
H15631	H1563	0.340200	0.209600	0.435200
C25411	C2541	0.355070	0.224130	0.411380
H15641	H1564	0.344000	0.233600	0.408800
C25421	C2542	0.424480	0.251100	0.378100
C25431	C2543	0.362200	0.267530	0.332520
H15651	H1565	0.352100	0.256800	0.333500
C25441	C2544	0.362740	0.278940	0.315210
H15661	H1566	0.352800	0.276700	0.304500
C25451	C2545	0.378210	0.294390	0.312950
H15671	H1567	0.379300	0.302400	0.300600
C25461	C2546	0.391730	0.297440	0.329580
C25471	C2547	0.389950	0.284790	0.346960
H15681	H1568	0.399700	0.286600	0.357900
C25481	C2548	0.407930	0.313230	0.328610
N9711	N971	0.484390	0.159970	0.385100
N9721	N972	0.386750	0.104650	0.523090
N9731	N973	0.399320	0.123280	0.482430
N9741	N974	0.436910	0.159430	0.429080
N9751	N975	0.403420	0.170230	0.438580
N9761	N976	0.422260	0.188490	0.412460
N9771	N977	0.371730	0.225120	0.399260
N9781	N978	0.375480	0.270330	0.349160
N9791	N979	0.407030	0.248980	0.377070
N9801	N980	0.422490	0.313130	0.343430
S1951	S195	0.415650	0.077430	0.540170
S1961	S196	0.450250	0.253590	0.379210
C25491	C2549	0.968220	0.660100	0.398340
H15691	H1569	0.965100	0.647600	0.405700
C25501	C2550	0.955830	0.677270	0.401890
C25511	C2551	0.960490	0.695630	0.391830
H15701	H1570	0.951900	0.707600	0.393400
C25521	C2552	0.977980	0.696170	0.379380
H15711	H1571	0.982400	0.708900	0.373300
C25531	C2553	0.989010	0.678290	0.375780
H15721	H1572	0.000400	0.678800	0.366300
C25541	C2554	0.898490	0.593420	0.531000
C25551	C2555	0.914840	0.609330	0.483270
H15731	H1573	0.914000	0.598800	0.493600
C25561	C2556	0.931700	0.609230	0.470410
H15741	H1574	0.941800	0.598500	0.471300
C25571	C2557	0.933760	0.625050	0.456110
H15751	H1575	0.945300	0.625500	0.446900
C25581	C2558	0.918460	0.640460	0.455460
C25591	C2559	0.901990	0.638850	0.468850
H15761	H1576	0.891800	0.649500	0.468500
C25601	C2560	0.919960	0.657930	0.440170
C25611	C2561	0.904970	0.685220	0.424300
C25621	C2562	0.937470	0.675260	0.415370
C25631	C2563	0.887170	0.712360	0.403410
H15771	H1577	0.899000	0.712600	0.394600
C25641	C2564	0.887020	0.698230	0.420380
C25651	C2565	0.869140	0.697240	0.432120
H15781	H1578	0.868100	0.687700	0.443300
C25661	C2566	0.852760	0.710190	0.427510
H15791	H1579	0.840200	0.709600	0.435200
C25671	C2567	0.855070	0.724130	0.411380
H15801	H1580	0.844000	0.733600	0.408800
C25681	C2568	0.924480	0.751100	0.378100
C25691	C2569	0.862200	0.767530	0.332520
H15811	H1581	0.852100	0.756800	0.333500
C25701	C2570	0.862740	0.778940	0.315210
H15821	H1582	0.852800	0.776700	0.304500
C25711	C2571	0.878210	0.794390	0.312950
H15831	H1583	0.879300	0.802400	0.300600
C25721	C2572	0.891730	0.797440	0.329580
C25731	C2573	0.889950	0.784790	0.346960
H15841	H1584	0.899700	0.786600	0.357900
C25741	C2574	0.907930	0.813230	0.328610
N9811	N981	0.984390	0.659970	0.385100
N9821	N982	0.886750	0.604650	0.523090
N9831	N983	0.899320	0.623280	0.482430
N9841	N984	0.936910	0.659430	0.429080
N9851	N985	0.903420	0.670230	0.438580
N9861	N986	0.922260	0.688490	0.412460
N9871	N987	0.871730	0.725120	0.399260
N9881	N988	0.875480	0.770330	0.349160
N9891	N989	0.907030	0.748980	0.377070
N9901	N990	0.922490	0.813130	0.343430
S1971	S197	0.915650	0.577430	0.540170
S1981	S198	0.950250	0.753590	0.379210
C25751	C2575	0.968220	0.160100	0.898340
H15851	H1585	0.965100	0.147600	0.905700
C25761	C2576	0.955830	0.177270	0.901890
C25771	C2577	0.960490	0.195630	0.891830
H15861	H1586	0.951900	0.207600	0.893400
C25781	C2578	0.977980	0.196170	0.879380
H15871	H1587	0.982400	0.208900	0.873300
C25791	C2579	0.989010	0.178290	0.875780
H15881	H1588	0.000400	0.178800	0.866300
C25801	C2580	0.898490	0.093420	0.031000
C25811	C2581	0.914840	0.109330	0.983270
H15891	H1589	0.914000	0.098800	0.993600
C25821	C2582	0.931700	0.109230	0.970410
H15901	H1590	0.941800	0.098500	0.971300
C25831	C2583	0.933760	0.125050	0.956110
H15911	H1591	0.945300	0.125500	0.946900
C25841	C2584	0.918460	0.140460	0.955460
C25851	C2585	0.901990	0.138850	0.968850
H15921	H1592	0.891800	0.149500	0.968500
C25861	C2586	0.919960	0.157930	0.940170
C25871	C2587	0.904970	0.185220	0.924300
C25881	C2588	0.937470	0.175260	0.915370
C25891	C2589	0.887170	0.212360	0.903410
H15931	H1593	0.899000	0.212600	0.894600
C25901	C2590	0.887020	0.198230	0.920380
C25911	C2591	0.869140	0.197240	0.932120
H15941	H1594	0.868100	0.187700	0.943300
C25921	C2592	0.852760	0.210190	0.927510
H15951	H1595	0.840200	0.209600	0.935200
C25931	C2593	0.855070	0.224130	0.911380
H15961	H1596	0.844000	0.233600	0.908800
C25941	C2594	0.924480	0.251100	0.878100
C25951	C2595	0.862200	0.267530	0.832520
H15971	H1597	0.852100	0.256800	0.833500
C25961	C2596	0.862740	0.278940	0.815210
H15981	H1598	0.852800	0.276700	0.804500
C25971	C2597	0.878210	0.294390	0.812950
H15991	H1599	0.879300	0.302400	0.800600
C25981	C2598	0.891730	0.297440	0.829580
C25991	C2599	0.889950	0.284790	0.846960
H16001	H1600	0.899700	0.286600	0.857900
C26001	C2600	0.907930	0.313230	0.828610
N9911	N991	0.984390	0.159970	0.885100
N9921	N992	0.886750	0.104650	0.023090
N9931	N993	0.899320	0.123280	0.982430
N9941	N994	0.936910	0.159430	0.929080
N9951	N995	0.903420	0.170230	0.938580
N9961	N996	0.922260	0.188490	0.912460
N9971	N997	0.871730	0.225120	0.899260
N9981	N998	0.875480	0.270330	0.849160
N9991	N999	0.907030	0.248980	0.877070
N10001	N1000	0.922490	0.313130	0.843430
S1991	S199	0.915650	0.077430	0.040170
S2001	S200	0.950250	0.253590	0.879210
C26011	C2601	0.281780	0.589900	0.398340
H16011	H1601	0.284900	0.602400	0.405700
C26021	C2602	0.294170	0.572730	0.401890
C26031	C2603	0.289510	0.554370	0.391830
H16021	H1602	0.298100	0.542400	0.393400
C26041	C2604	0.272020	0.553830	0.379380
H16031	H1603	0.267600	0.541100	0.373300
C26051	C2605	0.260990	0.571710	0.375780
H16041	H1604	0.249600	0.571200	0.366300
C26061	C2606	0.351510	0.656580	0.531000
C26071	C2607	0.335160	0.640670	0.483270
H16051	H1605	0.336000	0.651200	0.493600
C26081	C2608	0.318300	0.640770	0.470410
H16061	H1606	0.308200	0.651500	0.471300
C26091	C2609	0.316240	0.624950	0.456110
H16071	H1607	0.304700	0.624500	0.446900
C26101	C2610	0.331540	0.609540	0.455460
C26111	C2611	0.348010	0.611150	0.468850
H16081	H1608	0.358200	0.600500	0.468500
C26121	C2612	0.330040	0.592070	0.440170
C26131	C2613	0.345030	0.564780	0.424300
C26141	C2614	0.312530	0.574740	0.415370
C26151	C2615	0.362830	0.537640	0.403410
H16091	H1609	0.351000	0.537400	0.394600
C26161	C2616	0.362980	0.551770	0.420380
C26171	C2617	0.380860	0.552760	0.432120
H16101	H1610	0.381900	0.562300	0.443300
C26181	C2618	0.397240	0.539810	0.427510
H16111	H1611	0.409800	0.540400	0.435200
C26191	C2619	0.394930	0.525870	0.411380
H16121	H1612	0.406000	0.516400	0.408800
C26201	C2620	0.325520	0.498900	0.378100
C26211	C2621	0.387800	0.482470	0.332520
H16131	H1613	0.397900	0.493200	0.333500
C26221	C2622	0.387260	0.471060	0.315210
H16141	H1614	0.397200	0.473300	0.304500
C26231	C2623	0.371790	0.455610	0.312950
H16151	H1615	0.370700	0.447600	0.300600
C26241	C2624	0.358270	0.452560	0.329580
C26251	C2625	0.360050	0.465210	0.346960
H16161	H1616	0.350300	0.463400	0.357900
C26261	C2626	0.342070	0.436770	0.328610
N10011	N1001	0.265610	0.590030	0.385100
N10021	N1002	0.363250	0.645350	0.523090
N10031	N1003	0.350680	0.626720	0.482430
N10041	N1004	0.313090	0.590570	0.429080
N10051	N1005	0.346580	0.579770	0.438580
N10061	N1006	0.327740	0.561510	0.412460
N10071	N1007	0.378270	0.524880	0.399260
N10081	N1008	0.374520	0.479670	0.349160
N10091	N1009	0.342970	0.501020	0.377070
N10101	N1010	0.327510	0.436870	0.343430
S2011	S201	0.334350	0.672570	0.540170
S2021	S202	0.299750	0.496410	0.379210
C26271	C2627	0.281780	0.089900	0.898340
H16171	H1617	0.284900	0.102400	0.905700
C26281	C2628	0.294170	0.072730	0.901890
C26291	C2629	0.289510	0.054370	0.891830
H16181	H1618	0.298100	0.042400	0.893400
C26301	C2630	0.272020	0.053830	0.879380
H16191	H1619	0.267600	0.041100	0.873300
C26311	C2631	0.260990	0.071710	0.875780
H16201	H1620	0.249600	0.071200	0.866300
C26321	C2632	0.351510	0.156580	0.031000
C26331	C2633	0.335160	0.140670	0.983270
H16211	H1621	0.336000	0.151200	0.993600
C26341	C2634	0.318300	0.140770	0.970410
H16221	H1622	0.308200	0.151500	0.971300
C26351	C2635	0.316240	0.124950	0.956110
H16231	H1623	0.304700	0.124500	0.946900
C26361	C2636	0.331540	0.109540	0.955460
C26371	C2637	0.348010	0.111150	0.968850
H16241	H1624	0.358200	0.100500	0.968500
C26381	C2638	0.330040	0.092070	0.940170
C26391	C2639	0.345030	0.064780	0.924300
C26401	C2640	0.312530	0.074740	0.915370
C26411	C2641	0.362830	0.037640	0.903410
H16251	H1625	0.351000	0.037400	0.894600
C26421	C2642	0.362980	0.051770	0.920380
C26431	C2643	0.380860	0.052760	0.932120
H16261	H1626	0.381900	0.062300	0.943300
C26441	C2644	0.397240	0.039810	0.927510
H16271	H1627	0.409800	0.040400	0.935200
C26451	C2645	0.394930	0.025870	0.911380
H16281	H1628	0.406000	0.016400	0.908800
C26461	C2646	0.325520	0.998900	0.878100
C26471	C2647	0.387800	0.982470	0.832520
H16291	H1629	0.397900	0.993200	0.833500
C26481	C2648	0.387260	0.971060	0.815210
H16301	H1630	0.397200	0.973300	0.804500
C26491	C2649	0.371790	0.955610	0.812950
H16311	H1631	0.370700	0.947600	0.800600
C26501	C2650	0.358270	0.952560	0.829580
C26511	C2651	0.360050	0.965210	0.846960
H16321	H1632	0.350300	0.963400	0.857900
C26521	C2652	0.342070	0.936770	0.828610
N10111	N1011	0.265610	0.090030	0.885100
N10121	N1012	0.363250	0.145350	0.023090
N10131	N1013	0.350680	0.126720	0.982430
N10141	N1014	0.313090	0.090570	0.929080
N10151	N1015	0.346580	0.079770	0.938580
N10161	N1016	0.327740	0.061510	0.912460
N10171	N1017	0.378270	0.024880	0.899260
N10181	N1018	0.374520	0.979670	0.849160
N10191	N1019	0.342970	0.001020	0.877070
N10201	N1020	0.327510	0.936870	0.843430
S2031	S203	0.334350	0.172570	0.040170
S2041	S204	0.299750	0.996410	0.879210
C26531	C2653	0.781780	0.589900	0.898340
H16331	H1633	0.784900	0.602400	0.905700
C26541	C2654	0.794170	0.572730	0.901890
C26551	C2655	0.789510	0.554370	0.891830
H16341	H1634	0.798100	0.542400	0.893400
C26561	C2656	0.772020	0.553830	0.879380
H16351	H1635	0.767600	0.541100	0.873300
C26571	C2657	0.760990	0.571710	0.875780
H16361	H1636	0.749600	0.571200	0.866300
C26581	C2658	0.851510	0.656580	0.031000
C26591	C2659	0.835160	0.640670	0.983270
H16371	H1637	0.836000	0.651200	0.993600
C26601	C2660	0.818300	0.640770	0.970410
H16381	H1638	0.808200	0.651500	0.971300
C26611	C2661	0.816240	0.624950	0.956110
H16391	H1639	0.804700	0.624500	0.946900
C26621	C2662	0.831540	0.609540	0.955460
C26631	C2663	0.848010	0.611150	0.968850
H16401	H1640	0.858200	0.600500	0.968500
C26641	C2664	0.830040	0.592070	0.940170
C26651	C2665	0.845030	0.564780	0.924300
C26661	C2666	0.812530	0.574740	0.915370
C26671	C2667	0.862830	0.537640	0.903410
H16411	H1641	0.851000	0.537400	0.894600
C26681	C2668	0.862980	0.551770	0.920380
C26691	C2669	0.880860	0.552760	0.932120
H16421	H1642	0.881900	0.562300	0.943300
C26701	C2670	0.897240	0.539810	0.927510
H16431	H1643	0.909800	0.540400	0.935200
C26711	C2671	0.894930	0.525870	0.911380
H16441	H1644	0.906000	0.516400	0.908800
C26721	C2672	0.825520	0.498900	0.878100
C26731	C2673	0.887800	0.482470	0.832520
H16451	H1645	0.897900	0.493200	0.833500
C26741	C2674	0.887260	0.471060	0.815210
H16461	H1646	0.897200	0.473300	0.804500
C26751	C2675	0.871790	0.455610	0.812950
H16471	H1647	0.870700	0.447600	0.800600
C26761	C2676	0.858270	0.452560	0.829580
C26771	C2677	0.860050	0.465210	0.846960
H16481	H1648	0.850300	0.463400	0.857900
C26781	C2678	0.842070	0.436770	0.828610
N10211	N1021	0.765610	0.590030	0.885100
N10221	N1022	0.863250	0.645350	0.023090
N10231	N1023	0.850680	0.626720	0.982430
N10241	N1024	0.813090	0.590570	0.929080
N10251	N1025	0.846580	0.579770	0.938580
N10261	N1026	0.827740	0.561510	0.912460
N10271	N1027	0.878270	0.524880	0.899260
N10281	N1028	0.874520	0.479670	0.849160
N10291	N1029	0.842970	0.501020	0.877070
N10301	N1030	0.827510	0.436870	0.843430
S2051	S205	0.834350	0.672570	0.040170
S2061	S206	0.799750	0.496410	0.879210
C26791	C2679	0.781780	0.089900	0.398340
H16491	H1649	0.784900	0.102400	0.405700
C26801	C2680	0.794170	0.072730	0.401890
C26811	C2681	0.789510	0.054370	0.391830
H16501	H1650	0.798100	0.042400	0.393400
C26821	C2682	0.772020	0.053830	0.379380
H16511	H1651	0.767600	0.041100	0.373300
C26831	C2683	0.760990	0.071710	0.375780
H16521	H1652	0.749600	0.071200	0.366300
C26841	C2684	0.851510	0.156580	0.531000
C26851	C2685	0.835160	0.140670	0.483270
H16531	H1653	0.836000	0.151200	0.493600
C26861	C2686	0.818300	0.140770	0.470410
H16541	H1654	0.808200	0.151500	0.471300
C26871	C2687	0.816240	0.124950	0.456110
H16551	H1655	0.804700	0.124500	0.446900
C26881	C2688	0.831540	0.109540	0.455460
C26891	C2689	0.848010	0.111150	0.468850
H16561	H1656	0.858200	0.100500	0.468500
C26901	C2690	0.830040	0.092070	0.440170
C26911	C2691	0.845030	0.064780	0.424300
C26921	C2692	0.812530	0.074740	0.415370
C26931	C2693	0.862830	0.037640	0.403410
H16571	H1657	0.851000	0.037400	0.394600
C26941	C2694	0.862980	0.051770	0.420380
C26951	C2695	0.880860	0.052760	0.432120
H16581	H1658	0.881900	0.062300	0.443300
C26961	C2696	0.897240	0.039810	0.427510
H16591	H1659	0.909800	0.040400	0.435200
C26971	C2697	0.894930	0.025870	0.411380
H16601	H1660	0.906000	0.016400	0.408800
C26981	C2698	0.825520	0.998900	0.378100
C26991	C2699	0.887800	0.982470	0.332520
H16611	H1661	0.897900	0.993200	0.333500
C27001	C2700	0.887260	0.971060	0.315210
H16621	H1662	0.897200	0.973300	0.304500
C27011	C2701	0.871790	0.955610	0.312950
H16631	H1663	0.870700	0.947600	0.300600
C27021	C2702	0.858270	0.952560	0.329580
C27031	C2703	0.860050	0.965210	0.346960
H16641	H1664	0.850300	0.963400	0.357900
C27041	C2704	0.842070	0.936770	0.328610
N10311	N1031	0.765610	0.090030	0.385100
N10321	N1032	0.863250	0.145350	0.523090
N10331	N1033	0.850680	0.126720	0.482430
N10341	N1034	0.813090	0.090570	0.429080
N10351	N1035	0.846580	0.079770	0.438580
N10361	N1036	0.827740	0.061510	0.412460
N10371	N1037	0.878270	0.024880	0.399260
N10381	N1038	0.874520	0.979670	0.349160
N10391	N1039	0.842970	0.001020	0.377070
N10401	N1040	0.827510	0.936870	0.343430
S2071	S207	0.834350	0.172570	0.540170
S2081	S208	0.799750	0.996410	0.379210
C27051	C2705	0.781780	0.160100	0.851660
H16651	H1665	0.784900	0.147600	0.844300
C27061	C2706	0.794170	0.177270	0.848110
C27071	C2707	0.789510	0.195630	0.858170
H16661	H1666	0.798100	0.207600	0.856600
C27081	C2708	0.772020	0.196170	0.870620
H16671	H1667	0.767600	0.208900	0.876700
C27091	C2709	0.760990	0.178290	0.874220
H16681	H1668	0.749600	0.178800	0.883700
C27101	C2710	0.851510	0.093420	0.719000
C27111	C2711	0.835160	0.109330	0.766730
H16691	H1669	0.836000	0.098800	0.756400
C27121	C2712	0.818300	0.109230	0.779590
H16701	H1670	0.808200	0.098500	0.778700
C27131	C2713	0.816240	0.125050	0.793890
H16711	H1671	0.804700	0.125500	0.803100
C27141	C2714	0.831540	0.140460	0.794540
C27151	C2715	0.848010	0.138850	0.781150
H16721	H1672	0.858200	0.149500	0.781500
C27161	C2716	0.830040	0.157930	0.809830
C27171	C2717	0.845030	0.185220	0.825700
C27181	C2718	0.812530	0.175260	0.834630
C27191	C2719	0.862830	0.212360	0.846590
H16731	H1673	0.851000	0.212600	0.855400
C27201	C2720	0.862980	0.198230	0.829620
C27211	C2721	0.880860	0.197240	0.817880
H16741	H1674	0.881900	0.187700	0.806700
C27221	C2722	0.897240	0.210190	0.822490
H16751	H1675	0.909800	0.209600	0.814800
C27231	C2723	0.894930	0.224130	0.838620
H16761	H1676	0.906000	0.233600	0.841200
C27241	C2724	0.825520	0.251100	0.871900
C27251	C2725	0.887800	0.267530	0.917480
H16771	H1677	0.897900	0.256800	0.916500
C27261	C2726	0.887260	0.278940	0.934790
H16781	H1678	0.897200	0.276700	0.945500
C27271	C2727	0.871790	0.294390	0.937050
H16791	H1679	0.870700	0.302400	0.949400
C27281	C2728	0.858270	0.297440	0.920420
C27291	C2729	0.860050	0.284790	0.903040
H16801	H1680	0.850300	0.286600	0.892100
C27301	C2730	0.842070	0.313230	0.921390
N10411	N1041	0.765610	0.159970	0.864900
N10421	N1042	0.863250	0.104650	0.726910
N10431	N1043	0.850680	0.123280	0.767570
N10441	N1044	0.813090	0.159430	0.820920
N10451	N1045	0.846580	0.170230	0.811420
N10461	N1046	0.827740	0.188490	0.837540
N10471	N1047	0.878270	0.225120	0.850740
N10481	N1048	0.874520	0.270330	0.900840
N10491	N1049	0.842970	0.248980	0.872930
N10501	N1050	0.827510	0.313130	0.906570
S2091	S209	0.834350	0.077430	0.709830
S2101	S210	0.799750	0.253590	0.870790
C27311	C2731	0.781780	0.660100	0.351660
H16811	H1681	0.784900	0.647600	0.344300
C27321	C2732	0.794170	0.677270	0.348110
C27331	C2733	0.789510	0.695630	0.358170
H16821	H1682	0.798100	0.707600	0.356600
C27341	C2734	0.772020	0.696170	0.370620
H16831	H1683	0.767600	0.708900	0.376700
C27351	C2735	0.760990	0.678290	0.374220
H16841	H1684	0.749600	0.678800	0.383700
C27361	C2736	0.851510	0.593420	0.219000
C27371	C2737	0.835160	0.609330	0.266730
H16851	H1685	0.836000	0.598800	0.256400
C27381	C2738	0.818300	0.609230	0.279590
H16861	H1686	0.808200	0.598500	0.278700
C27391	C2739	0.816240	0.625050	0.293890
H16871	H1687	0.804700	0.625500	0.303100
C27401	C2740	0.831540	0.640460	0.294540
C27411	C2741	0.848010	0.638850	0.281150
H16881	H1688	0.858200	0.649500	0.281500
C27421	C2742	0.830040	0.657930	0.309830
C27431	C2743	0.845030	0.685220	0.325700
C27441	C2744	0.812530	0.675260	0.334630
C27451	C2745	0.862830	0.712360	0.346590
H16891	H1689	0.851000	0.712600	0.355400
C27461	C2746	0.862980	0.698230	0.329620
C27471	C2747	0.880860	0.697240	0.317880
H16901	H1690	0.881900	0.687700	0.306700
C27481	C2748	0.897240	0.710190	0.322490
H16911	H1691	0.909800	0.709600	0.314800
C27491	C2749	0.894930	0.724130	0.338620
H16921	H1692	0.906000	0.733600	0.341200
C27501	C2750	0.825520	0.751100	0.371900
C27511	C2751	0.887800	0.767530	0.417480
H16931	H1693	0.897900	0.756800	0.416500
C27521	C2752	0.887260	0.778940	0.434790
H16941	H1694	0.897200	0.776700	0.445500
C27531	C2753	0.871790	0.794390	0.437050
H16951	H1695	0.870700	0.802400	0.449400
C27541	C2754	0.858270	0.797440	0.420420
C27551	C2755	0.860050	0.784790	0.403040
H16961	H1696	0.850300	0.786600	0.392100
C27561	C2756	0.842070	0.813230	0.421390
N10511	N1051	0.765610	0.659970	0.364900
N10521	N1052	0.863250	0.604650	0.226910
N10531	N1053	0.850680	0.623280	0.267570
N10541	N1054	0.813090	0.659430	0.320920
N10551	N1055	0.846580	0.670230	0.311420
N10561	N1056	0.827740	0.688490	0.337540
N10571	N1057	0.878270	0.725120	0.350740
N10581	N1058	0.874520	0.770330	0.400840
N10591	N1059	0.842970	0.748980	0.372930
N10601	N1060	0.827510	0.813130	0.406570
S2111	S211	0.834350	0.577430	0.209830
S2121	S212	0.799750	0.753590	0.370790
C27571	C2757	0.281780	0.160100	0.351660
H16971	H1697	0.284900	0.147600	0.344300
C27581	C2758	0.294170	0.177270	0.348110
C27591	C2759	0.289510	0.195630	0.358170
H16981	H1698	0.298100	0.207600	0.356600
C27601	C2760	0.272020	0.196170	0.370620
H16991	H1699	0.267600	0.208900	0.376700
C27611	C2761	0.260990	0.178290	0.374220
H17001	H1700	0.249600	0.178800	0.383700
C27621	C2762	0.351510	0.093420	0.219000
C27631	C2763	0.335160	0.109330	0.266730
H17011	H1701	0.336000	0.098800	0.256400
C27641	C2764	0.318300	0.109230	0.279590
H17021	H1702	0.308200	0.098500	0.278700
C27651	C2765	0.316240	0.125050	0.293890
H17031	H1703	0.304700	0.125500	0.303100
C27661	C2766	0.331540	0.140460	0.294540
C27671	C2767	0.348010	0.138850	0.281150
H17041	H1704	0.358200	0.149500	0.281500
C27681	C2768	0.330040	0.157930	0.309830
C27691	C2769	0.345030	0.185220	0.325700
C27701	C2770	0.312530	0.175260	0.334630
C27711	C2771	0.362830	0.212360	0.346590
H17051	H1705	0.351000	0.212600	0.355400
C27721	C2772	0.362980	0.198230	0.329620
C27731	C2773	0.380860	0.197240	0.317880
H17061	H1706	0.381900	0.187700	0.306700
C27741	C2774	0.397240	0.210190	0.322490
H17071	H1707	0.409800	0.209600	0.314800
C27751	C2775	0.394930	0.224130	0.338620
H17081	H1708	0.406000	0.233600	0.341200
C27761	C2776	0.325520	0.251100	0.371900
C27771	C2777	0.387800	0.267530	0.417480
H17091	H1709	0.397900	0.256800	0.416500
C27781	C2778	0.387260	0.278940	0.434790
H17101	H1710	0.397200	0.276700	0.445500
C27791	C2779	0.371790	0.294390	0.437050
H17111	H1711	0.370700	0.302400	0.449400
C27801	C2780	0.358270	0.297440	0.420420
C27811	C2781	0.360050	0.284790	0.403040
H17121	H1712	0.350300	0.286600	0.392100
C27821	C2782	0.342070	0.313230	0.421390
N10611	N1061	0.265610	0.159970	0.364900
N10621	N1062	0.363250	0.104650	0.226910
N10631	N1063	0.350680	0.123280	0.267570
N10641	N1064	0.313090	0.159430	0.320920
N10651	N1065	0.346580	0.170230	0.311420
N10661	N1066	0.327740	0.188490	0.337540
N10671	N1067	0.378270	0.225120	0.350740
N10681	N1068	0.374520	0.270330	0.400840
N10691	N1069	0.342970	0.248980	0.372930
N10701	N1070	0.327510	0.313130	0.406570
S2131	S213	0.334350	0.077430	0.209830
S2141	S214	0.299750	0.253590	0.370790
C27831	C2783	0.281780	0.660100	0.851660
H17131	H1713	0.284900	0.647600	0.844300
C27841	C2784	0.294170	0.677270	0.848110
C27851	C2785	0.289510	0.695630	0.858170
H17141	H1714	0.298100	0.707600	0.856600
C27861	C2786	0.272020	0.696170	0.870620
H17151	H1715	0.267600	0.708900	0.876700
C27871	C2787	0.260990	0.678290	0.874220
H17161	H1716	0.249600	0.678800	0.883700
C27881	C2788	0.351510	0.593420	0.719000
C27891	C2789	0.335160	0.609330	0.766730
H17171	H1717	0.336000	0.598800	0.756400
C27901	C2790	0.318300	0.609230	0.779590
H17181	H1718	0.308200	0.598500	0.778700
C27911	C2791	0.316240	0.625050	0.793890
H17191	H1719	0.304700	0.625500	0.803100
C27921	C2792	0.331540	0.640460	0.794540
C27931	C2793	0.348010	0.638850	0.781150
H17201	H1720	0.358200	0.649500	0.781500
C27941	C2794	0.330040	0.657930	0.809830
C27951	C2795	0.345030	0.685220	0.825700
C27961	C2796	0.312530	0.675260	0.834630
C27971	C2797	0.362830	0.712360	0.846590
H17211	H1721	0.351000	0.712600	0.855400
C27981	C2798	0.362980	0.698230	0.829620
C27991	C2799	0.380860	0.697240	0.817880
H17221	H1722	0.381900	0.687700	0.806700
C28001	C2800	0.397240	0.710190	0.822490
H17231	H1723	0.409800	0.709600	0.814800
C28011	C2801	0.394930	0.724130	0.838620
H17241	H1724	0.406000	0.733600	0.841200
C28021	C2802	0.325520	0.751100	0.871900
C28031	C2803	0.387800	0.767530	0.917480
H17251	H1725	0.397900	0.756800	0.916500
C28041	C2804	0.387260	0.778940	0.934790
H17261	H1726	0.397200	0.776700	0.945500
C28051	C2805	0.371790	0.794390	0.937050
H17271	H1727	0.370700	0.802400	0.949400
C28061	C2806	0.358270	0.797440	0.920420
C28071	C2807	0.360050	0.784790	0.903040
H17281	H1728	0.350300	0.786600	0.892100
C28081	C2808	0.342070	0.813230	0.921390
N10711	N1071	0.265610	0.659970	0.864900
N10721	N1072	0.363250	0.604650	0.726910
N10731	N1073	0.350680	0.623280	0.767570
N10741	N1074	0.313090	0.659430	0.820920
N10751	N1075	0.346580	0.670230	0.811420
N10761	N1076	0.327740	0.688490	0.837540
N10771	N1077	0.378270	0.725120	0.850740
N10781	N1078	0.374520	0.770330	0.900840
N10791	N1079	0.342970	0.748980	0.872930
N10801	N1080	0.327510	0.813130	0.906570
S2151	S215	0.334350	0.577430	0.709830
S2161	S216	0.299750	0.753590	0.870790
C28091	C2809	0.968220	0.089900	0.351660
H17291	H1729	0.965100	0.102400	0.344300
C28101	C2810	0.955830	0.072730	0.348110
C28111	C2811	0.960490	0.054370	0.358170
H17301	H1730	0.951900	0.042400	0.356600
C28121	C2812	0.977980	0.053830	0.370620
H17311	H1731	0.982400	0.041100	0.376700
C28131	C2813	0.989010	0.071710	0.374220
H17321	H1732	0.000400	0.071200	0.383700
C28141	C2814	0.898490	0.156580	0.219000
C28151	C2815	0.914840	0.140670	0.266730
H17331	H1733	0.914000	0.151200	0.256400
C28161	C2816	0.931700	0.140770	0.279590
H17341	H1734	0.941800	0.151500	0.278700
C28171	C2817	0.933760	0.124950	0.293890
H17351	H1735	0.945300	0.124500	0.303100
C28181	C2818	0.918460	0.109540	0.294540
C28191	C2819	0.901990	0.111150	0.281150
H17361	H1736	0.891800	0.100500	0.281500
C28201	C2820	0.919960	0.092070	0.309830
C28211	C2821	0.904970	0.064780	0.325700
C28221	C2822	0.937470	0.074740	0.334630
C28231	C2823	0.887170	0.037640	0.346590
H17371	H1737	0.899000	0.037400	0.355400
C28241	C2824	0.887020	0.051770	0.329620
C28251	C2825	0.869140	0.052760	0.317880
H17381	H1738	0.868100	0.062300	0.306700
C28261	C2826	0.852760	0.039810	0.322490
H17391	H1739	0.840200	0.040400	0.314800
C28271	C2827	0.855070	0.025870	0.338620
H17401	H1740	0.844000	0.016400	0.341200
C28281	C2828	0.924480	0.998900	0.371900
C28291	C2829	0.862200	0.982470	0.417480
H17411	H1741	0.852100	0.993200	0.416500
C28301	C2830	0.862740	0.971060	0.434790
H17421	H1742	0.852800	0.973300	0.445500
C28311	C2831	0.878210	0.955610	0.437050
H17431	H1743	0.879300	0.947600	0.449400
C28321	C2832	0.891730	0.952560	0.420420
C28331	C2833	0.889950	0.965210	0.403040
H17441	H1744	0.899700	0.963400	0.392100
C28341	C2834	0.907930	0.936770	0.421390
N10811	N1081	0.984390	0.090030	0.364900
N10821	N1082	0.886750	0.145350	0.226910
N10831	N1083	0.899320	0.126720	0.267570
N10841	N1084	0.936910	0.090570	0.320920
N10851	N1085	0.903420	0.079770	0.311420
N10861	N1086	0.922260	0.061510	0.337540
N10871	N1087	0.871730	0.024880	0.350740
N10881	N1088	0.875480	0.979670	0.400840
N10891	N1089	0.907030	0.001020	0.372930
N10901	N1090	0.922490	0.936870	0.406570
S2171	S217	0.915650	0.172570	0.209830
S2181	S218	0.950250	0.996410	0.370790
C28351	C2835	0.968220	0.589900	0.851660
H17451	H1745	0.965100	0.602400	0.844300
C28361	C2836	0.955830	0.572730	0.848110
C28371	C2837	0.960490	0.554370	0.858170
H17461	H1746	0.951900	0.542400	0.856600
C28381	C2838	0.977980	0.553830	0.870620
H17471	H1747	0.982400	0.541100	0.876700
C28391	C2839	0.989010	0.571710	0.874220
H17481	H1748	0.000400	0.571200	0.883700
C28401	C2840	0.898490	0.656580	0.719000
C28411	C2841	0.914840	0.640670	0.766730
H17491	H1749	0.914000	0.651200	0.756400
C28421	C2842	0.931700	0.640770	0.779590
H17501	H1750	0.941800	0.651500	0.778700
C28431	C2843	0.933760	0.624950	0.793890
H17511	H1751	0.945300	0.624500	0.803100
C28441	C2844	0.918460	0.609540	0.794540
C28451	C2845	0.901990	0.611150	0.781150
H17521	H1752	0.891800	0.600500	0.781500
C28461	C2846	0.919960	0.592070	0.809830
C28471	C2847	0.904970	0.564780	0.825700
C28481	C2848	0.937470	0.574740	0.834630
C28491	C2849	0.887170	0.537640	0.846590
H17531	H1753	0.899000	0.537400	0.855400
C28501	C2850	0.887020	0.551770	0.829620
C28511	C2851	0.869140	0.552760	0.817880
H17541	H1754	0.868100	0.562300	0.806700
C28521	C2852	0.852760	0.539810	0.822490
H17551	H1755	0.840200	0.540400	0.814800
C28531	C2853	0.855070	0.525870	0.838620
H17561	H1756	0.844000	0.516400	0.841200
C28541	C2854	0.924480	0.498900	0.871900
C28551	C2855	0.862200	0.482470	0.917480
H17571	H1757	0.852100	0.493200	0.916500
C28561	C2856	0.862740	0.471060	0.934790
H17581	H1758	0.852800	0.473300	0.945500
C28571	C2857	0.878210	0.455610	0.937050
H17591	H1759	0.879300	0.447600	0.949400
C28581	C2858	0.891730	0.452560	0.920420
C28591	C2859	0.889950	0.465210	0.903040
H17601	H1760	0.899700	0.463400	0.892100
C28601	C2860	0.907930	0.436770	0.921390
N10911	N1091	0.984390	0.590030	0.864900
N10921	N1092	0.886750	0.645350	0.726910
N10931	N1093	0.899320	0.626720	0.767570
N10941	N1094	0.936910	0.590570	0.820920
N10951	N1095	0.903420	0.579770	0.811420
N10961	N1096	0.922260	0.561510	0.837540
N10971	N1097	0.871730	0.524880	0.850740
N10981	N1098	0.875480	0.479670	0.900840
N10991	N1099	0.907030	0.501020	0.872930
N11001	N1100	0.922490	0.436870	0.906570
S2191	S219	0.915650	0.672570	0.709830
S2201	S220	0.950250	0.496410	0.870790
C28611	C2861	0.468220	0.089900	0.851660
H17611	H1761	0.465100	0.102400	0.844300
C28621	C2862	0.455830	0.072730	0.848110
C28631	C2863	0.460490	0.054370	0.858170
H17621	H1762	0.451900	0.042400	0.856600
C28641	C2864	0.477980	0.053830	0.870620
H17631	H1763	0.482400	0.041100	0.876700
C28651	C2865	0.489010	0.071710	0.874220
H17641	H1764	0.500400	0.071200	0.883700
C28661	C2866	0.398490	0.156580	0.719000
C28671	C2867	0.414840	0.140670	0.766730
H17651	H1765	0.414000	0.151200	0.756400
C28681	C2868	0.431700	0.140770	0.779590
H17661	H1766	0.441800	0.151500	0.778700
C28691	C2869	0.433760	0.124950	0.793890
H17671	H1767	0.445300	0.124500	0.803100
C28701	C2870	0.418460	0.109540	0.794540
C28711	C2871	0.401990	0.111150	0.781150
H17681	H1768	0.391800	0.100500	0.781500
C28721	C2872	0.419960	0.092070	0.809830
C28731	C2873	0.404970	0.064780	0.825700
C28741	C2874	0.437470	0.074740	0.834630
C28751	C2875	0.387170	0.037640	0.846590
H17691	H1769	0.399000	0.037400	0.855400
C28761	C2876	0.387020	0.051770	0.829620
C28771	C2877	0.369140	0.052760	0.817880
H17701	H1770	0.368100	0.062300	0.806700
C28781	C2878	0.352760	0.039810	0.822490
H17711	H1771	0.340200	0.040400	0.814800
C28791	C2879	0.355070	0.025870	0.838620
H17721	H1772	0.344000	0.016400	0.841200
C28801	C2880	0.424480	0.998900	0.871900
C28811	C2881	0.362200	0.982470	0.917480
H17731	H1773	0.352100	0.993200	0.916500
C28821	C2882	0.362740	0.971060	0.934790
H17741	H1774	0.352800	0.973300	0.945500
C28831	C2883	0.378210	0.955610	0.937050
H17751	H1775	0.379300	0.947600	0.949400
C28841	C2884	0.391730	0.952560	0.920420
C28851	C2885	0.389950	0.965210	0.903040
H17761	H1776	0.399700	0.963400	0.892100
C28861	C2886	0.407930	0.936770	0.921390
N11011	N1101	0.484390	0.090030	0.864900
N11021	N1102	0.386750	0.145350	0.726910
N11031	N1103	0.399320	0.126720	0.767570
N11041	N1104	0.436910	0.090570	0.820920
N11051	N1105	0.403420	0.079770	0.811420
N11061	N1106	0.422260	0.061510	0.837540
N11071	N1107	0.371730	0.024880	0.850740
N11081	N1108	0.375480	0.979670	0.900840
N11091	N1109	0.407030	0.001020	0.872930
N11101	N1110	0.422490	0.936870	0.906570
S2211	S221	0.415650	0.172570	0.709830
S2221	S222	0.450250	0.996410	0.870790
C28871	C2887	0.468220	0.589900	0.351660
H17771	H1777	0.465100	0.602400	0.344300
C28881	C2888	0.455830	0.572730	0.348110
C28891	C2889	0.460490	0.554370	0.358170
H17781	H1778	0.451900	0.542400	0.356600
C28901	C2890	0.477980	0.553830	0.370620
H17791	H1779	0.482400	0.541100	0.376700
C28911	C2891	0.489010	0.571710	0.374220
H17801	H1780	0.500400	0.571200	0.383700
C28921	C2892	0.398490	0.656580	0.219000
C28931	C2893	0.414840	0.640670	0.266730
H17811	H1781	0.414000	0.651200	0.256400
C28941	C2894	0.431700	0.640770	0.279590
H17821	H1782	0.441800	0.651500	0.278700
C28951	C2895	0.433760	0.624950	0.293890
H17831	H1783	0.445300	0.624500	0.303100
C28961	C2896	0.418460	0.609540	0.294540
C28971	C2897	0.401990	0.611150	0.281150
H17841	H1784	0.391800	0.600500	0.281500
C28981	C2898	0.419960	0.592070	0.309830
C28991	C2899	0.404970	0.564780	0.325700
C29001	C2900	0.437470	0.574740	0.334630
C29011	C2901	0.387170	0.537640	0.346590
H17851	H1785	0.399000	0.537400	0.355400
C29021	C2902	0.387020	0.551770	0.329620
C29031	C2903	0.369140	0.552760	0.317880
H17861	H1786	0.368100	0.562300	0.306700
C29041	C2904	0.352760	0.539810	0.322490
H17871	H1787	0.340200	0.540400	0.314800
C29051	C2905	0.355070	0.525870	0.338620
H17881	H1788	0.344000	0.516400	0.341200
C29061	C2906	0.424480	0.498900	0.371900
C29071	C2907	0.362200	0.482470	0.417480
H17891	H1789	0.352100	0.493200	0.416500
C29081	C2908	0.362740	0.471060	0.434790
H17901	H1790	0.352800	0.473300	0.445500
C29091	C2909	0.378210	0.455610	0.437050
H17911	H1791	0.379300	0.447600	0.449400
C29101	C2910	0.391730	0.452560	0.420420
C29111	C2911	0.389950	0.465210	0.403040
H17921	H1792	0.399700	0.463400	0.392100
C29121	C2912	0.407930	0.436770	0.421390
N11111	N1111	0.484390	0.590030	0.364900
N11121	N1112	0.386750	0.645350	0.226910
N11131	N1113	0.399320	0.626720	0.267570
N11141	N1114	0.436910	0.590570	0.320920
N11151	N1115	0.403420	0.579770	0.311420
N11161	N1116	0.422260	0.561510	0.337540
N11171	N1117	0.371730	0.524880	0.350740
N11181	N1118	0.375480	0.479670	0.400840
N11191	N1119	0.407030	0.501020	0.372930
N11201	N1120	0.422490	0.436870	0.406570
S2231	S223	0.415650	0.672570	0.209830
S2241	S224	0.450250	0.496410	0.370790
C29131	C2913	0.898340	0.468220	0.660100
H17931	H1793	0.905700	0.465100	0.647600
C29141	C2914	0.901890	0.455830	0.677270
C29151	C2915	0.891830	0.460490	0.695630
H17941	H1794	0.893400	0.451900	0.707600
C29161	C2916	0.879380	0.477980	0.696170
H17951	H1795	0.873300	0.482400	0.708900
C29171	C2917	0.875780	0.489010	0.678290
H17961	H1796	0.866300	0.500400	0.678800
C29181	C2918	0.031000	0.398490	0.593420
C29191	C2919	0.983270	0.414840	0.609330
H17971	H1797	0.993600	0.414000	0.598800
C29201	C2920	0.970410	0.431700	0.609230
H17981	H1798	0.971300	0.441800	0.598500
C29211	C2921	0.956110	0.433760	0.625050
H17991	H1799	0.946900	0.445300	0.625500
C29221	C2922	0.955460	0.418460	0.640460
C29231	C2923	0.968850	0.401990	0.638850
H18001	H1800	0.968500	0.391800	0.649500
C29241	C2924	0.940170	0.419960	0.657930
C29251	C2925	0.924300	0.404970	0.685220
C29261	C2926	0.915370	0.437470	0.675260
C29271	C2927	0.903410	0.387170	0.712360
H18011	H1801	0.894600	0.399000	0.712600
C29281	C2928	0.920380	0.387020	0.698230
C29291	C2929	0.932120	0.369140	0.697240
H18021	H1802	0.943300	0.368100	0.687700
C29301	C2930	0.927510	0.352760	0.710190
H18031	H1803	0.935200	0.340200	0.709600
C29311	C2931	0.911380	0.355070	0.724130
H18041	H1804	0.908800	0.344000	0.733600
C29321	C2932	0.878100	0.424480	0.751100
C29331	C2933	0.832520	0.362200	0.767530
H18051	H1805	0.833500	0.352100	0.756800
C29341	C2934	0.815210	0.362740	0.778940
H18061	H1806	0.804500	0.352800	0.776700
C29351	C2935	0.812950	0.378210	0.794390
H18071	H1807	0.800600	0.379300	0.802400
C29361	C2936	0.829580	0.391730	0.797440
C29371	C2937	0.846960	0.389950	0.784790
H18081	H1808	0.857900	0.399700	0.786600
C29381	C2938	0.828610	0.407930	0.813230
N11211	N1121	0.885100	0.484390	0.659970
N11221	N1122	0.023090	0.386750	0.604650
N11231	N1123	0.982430	0.399320	0.623280
N11241	N1124	0.929080	0.436910	0.659430
N11251	N1125	0.938580	0.403420	0.670230
N11261	N1126	0.912460	0.422260	0.688490
N11271	N1127	0.899260	0.371730	0.725120
N11281	N1128	0.849160	0.375480	0.770330
N11291	N1129	0.877070	0.407030	0.748980
N11301	N1130	0.843430	0.422490	0.813130
S2251	S225	0.040170	0.415650	0.577430
S2261	S226	0.879210	0.450250	0.753590
C29391	C2939	0.898340	0.968220	0.160100
H18091	H1809	0.905700	0.965100	0.147600
C29401	C2940	0.901890	0.955830	0.177270
C29411	C2941	0.891830	0.960490	0.195630
H18101	H1810	0.893400	0.951900	0.207600
C29421	C2942	0.879380	0.977980	0.196170
H18111	H1811	0.873300	0.982400	0.208900
C29431	C2943	0.875780	0.989010	0.178290
H18121	H1812	0.866300	0.000400	0.178800
C29441	C2944	0.031000	0.898490	0.093420
C29451	C2945	0.983270	0.914840	0.109330
H18131	H1813	0.993600	0.914000	0.098800
C29461	C2946	0.970410	0.931700	0.109230
H18141	H1814	0.971300	0.941800	0.098500
C29471	C2947	0.956110	0.933760	0.125050
H18151	H1815	0.946900	0.945300	0.125500
C29481	C2948	0.955460	0.918460	0.140460
C29491	C2949	0.968850	0.901990	0.138850
H18161	H1816	0.968500	0.891800	0.149500
C29501	C2950	0.940170	0.919960	0.157930
C29511	C2951	0.924300	0.904970	0.185220
C29521	C2952	0.915370	0.937470	0.175260
C29531	C2953	0.903410	0.887170	0.212360
H18171	H1817	0.894600	0.899000	0.212600
C29541	C2954	0.920380	0.887020	0.198230
C29551	C2955	0.932120	0.869140	0.197240
H18181	H1818	0.943300	0.868100	0.187700
C29561	C2956	0.927510	0.852760	0.210190
H18191	H1819	0.935200	0.840200	0.209600
C29571	C2957	0.911380	0.855070	0.224130
H18201	H1820	0.908800	0.844000	0.233600
C29581	C2958	0.878100	0.924480	0.251100
C29591	C2959	0.832520	0.862200	0.267530
H18211	H1821	0.833500	0.852100	0.256800
C29601	C2960	0.815210	0.862740	0.278940
H18221	H1822	0.804500	0.852800	0.276700
C29611	C2961	0.812950	0.878210	0.294390
H18231	H1823	0.800600	0.879300	0.302400
C29621	C2962	0.829580	0.891730	0.297440
C29631	C2963	0.846960	0.889950	0.284790
H18241	H1824	0.857900	0.899700	0.286600
C29641	C2964	0.828610	0.907930	0.313230
N11311	N1131	0.885100	0.984390	0.159970
N11321	N1132	0.023090	0.886750	0.104650
N11331	N1133	0.982430	0.899320	0.123280
N11341	N1134	0.929080	0.936910	0.159430
N11351	N1135	0.938580	0.903420	0.170230
N11361	N1136	0.912460	0.922260	0.188490
N11371	N1137	0.899260	0.871730	0.225120
N11381	N1138	0.849160	0.875480	0.270330
N11391	N1139	0.877070	0.907030	0.248980
N11401	N1140	0.843430	0.922490	0.313130
S2271	S227	0.040170	0.915650	0.077430
S2281	S228	0.879210	0.950250	0.253590
C29651	C2965	0.398340	0.468220	0.160100
H18251	H1825	0.405700	0.465100	0.147600
C29661	C2966	0.401890	0.455830	0.177270
C29671	C2967	0.391830	0.460490	0.195630
H18261	H1826	0.393400	0.451900	0.207600
C29681	C2968	0.379380	0.477980	0.196170
H18271	H1827	0.373300	0.482400	0.208900
C29691	C2969	0.375780	0.489010	0.178290
H18281	H1828	0.366300	0.500400	0.178800
C29701	C2970	0.531000	0.398490	0.093420
C29711	C2971	0.483270	0.414840	0.109330
H18291	H1829	0.493600	0.414000	0.098800
C29721	C2972	0.470410	0.431700	0.109230
H18301	H1830	0.471300	0.441800	0.098500
C29731	C2973	0.456110	0.433760	0.125050
H18311	H1831	0.446900	0.445300	0.125500
C29741	C2974	0.455460	0.418460	0.140460
C29751	C2975	0.468850	0.401990	0.138850
H18321	H1832	0.468500	0.391800	0.149500
C29761	C2976	0.440170	0.419960	0.157930
C29771	C2977	0.424300	0.404970	0.185220
C29781	C2978	0.415370	0.437470	0.175260
C29791	C2979	0.403410	0.387170	0.212360
H18331	H1833	0.394600	0.399000	0.212600
C29801	C2980	0.420380	0.387020	0.198230
C29811	C2981	0.432120	0.369140	0.197240
H18341	H1834	0.443300	0.368100	0.187700
C29821	C2982	0.427510	0.352760	0.210190
H18351	H1835	0.435200	0.340200	0.209600
C29831	C2983	0.411380	0.355070	0.224130
H18361	H1836	0.408800	0.344000	0.233600
C29841	C2984	0.378100	0.424480	0.251100
C29851	C2985	0.332520	0.362200	0.267530
H18371	H1837	0.333500	0.352100	0.256800
C29861	C2986	0.315210	0.362740	0.278940
H18381	H1838	0.304500	0.352800	0.276700
C29871	C2987	0.312950	0.378210	0.294390
H18391	H1839	0.300600	0.379300	0.302400
C29881	C2988	0.329580	0.391730	0.297440
C29891	C2989	0.346960	0.389950	0.284790
H18401	H1840	0.357900	0.399700	0.286600
C29901	C2990	0.328610	0.407930	0.313230
N11411	N1141	0.385100	0.484390	0.159970
N11421	N1142	0.523090	0.386750	0.104650
N11431	N1143	0.482430	0.399320	0.123280
N11441	N1144	0.429080	0.436910	0.159430
N11451	N1145	0.438580	0.403420	0.170230
N11461	N1146	0.412460	0.422260	0.188490
N11471	N1147	0.399260	0.371730	0.225120
N11481	N1148	0.349160	0.375480	0.270330
N11491	N1149	0.377070	0.407030	0.248980
N11501	N1150	0.343430	0.422490	0.313130
S2291	S229	0.540170	0.415650	0.077430
S2301	S230	0.379210	0.450250	0.253590
C29911	C2991	0.398340	0.968220	0.660100
H18411	H1841	0.405700	0.965100	0.647600
C29921	C2992	0.401890	0.955830	0.677270
C29931	C2993	0.391830	0.960490	0.695630
H18421	H1842	0.393400	0.951900	0.707600
C29941	C2994	0.379380	0.977980	0.696170
H18431	H1843	0.373300	0.982400	0.708900
C29951	C2995	0.375780	0.989010	0.678290
H18441	H1844	0.366300	0.000400	0.678800
C29961	C2996	0.531000	0.898490	0.593420
C29971	C2997	0.483270	0.914840	0.609330
H18451	H1845	0.493600	0.914000	0.598800
C29981	C2998	0.470410	0.931700	0.609230
H18461	H1846	0.471300	0.941800	0.598500
C29991	C2999	0.456110	0.933760	0.625050
H18471	H1847	0.446900	0.945300	0.625500
C30001	C3000	0.455460	0.918460	0.640460
C30011	C3001	0.468850	0.901990	0.638850
H18481	H1848	0.468500	0.891800	0.649500
C30021	C3002	0.440170	0.919960	0.657930
C30031	C3003	0.424300	0.904970	0.685220
C30041	C3004	0.415370	0.937470	0.675260
C30051	C3005	0.403410	0.887170	0.712360
H18491	H1849	0.394600	0.899000	0.712600
C30061	C3006	0.420380	0.887020	0.698230
C30071	C3007	0.432120	0.869140	0.697240
H18501	H1850	0.443300	0.868100	0.687700
C30081	C3008	0.427510	0.852760	0.710190
H18511	H1851	0.435200	0.840200	0.709600
C30091	C3009	0.411380	0.855070	0.724130
H18521	H1852	0.408800	0.844000	0.733600
C30101	C3010	0.378100	0.924480	0.751100
C30111	C3011	0.332520	0.862200	0.767530
H18531	H1853	0.333500	0.852100	0.756800
C30121	C3012	0.315210	0.862740	0.778940
H18541	H1854	0.304500	0.852800	0.776700
C30131	C3013	0.312950	0.878210	0.794390
H18551	H1855	0.300600	0.879300	0.802400
C30141	C3014	0.329580	0.891730	0.797440
C30151	C3015	0.346960	0.889950	0.784790
H18561	H1856	0.357900	0.899700	0.786600
C30161	C3016	0.328610	0.907930	0.813230
N11511	N1151	0.385100	0.984390	0.659970
N11521	N1152	0.523090	0.886750	0.604650
N11531	N1153	0.482430	0.899320	0.623280
N11541	N1154	0.429080	0.936910	0.659430
N11551	N1155	0.438580	0.903420	0.670230
N11561	N1156	0.412460	0.922260	0.688490
N11571	N1157	0.399260	0.871730	0.725120
N11581	N1158	0.349160	0.875480	0.770330
N11591	N1159	0.377070	0.907030	0.748980
N11601	N1160	0.343430	0.922490	0.813130
S2311	S231	0.540170	0.915650	0.577430
S2321	S232	0.379210	0.950250	0.753590
C30171	C3017	0.398340	0.281780	0.589900
H18571	H1857	0.405700	0.284900	0.602400
C30181	C3018	0.401890	0.294170	0.572730
C30191	C3019	0.391830	0.289510	0.554370
H18581	H1858	0.393400	0.298100	0.542400
C30201	C3020	0.379380	0.272020	0.553830
H18591	H1859	0.373300	0.267600	0.541100
C30211	C3021	0.375780	0.260990	0.571710
H18601	H1860	0.366300	0.249600	0.571200
C30221	C3022	0.531000	0.351510	0.656580
C30231	C3023	0.483270	0.335160	0.640670
H18611	H1861	0.493600	0.336000	0.651200
C30241	C3024	0.470410	0.318300	0.640770
H18621	H1862	0.471300	0.308200	0.651500
C30251	C3025	0.456110	0.316240	0.624950
H18631	H1863	0.446900	0.304700	0.624500
C30261	C3026	0.455460	0.331540	0.609540
C30271	C3027	0.468850	0.348010	0.611150
H18641	H1864	0.468500	0.358200	0.600500
C30281	C3028	0.440170	0.330040	0.592070
C30291	C3029	0.424300	0.345030	0.564780
C30301	C3030	0.415370	0.312530	0.574740
C30311	C3031	0.403410	0.362830	0.537640
H18651	H1865	0.394600	0.351000	0.537400
C30321	C3032	0.420380	0.362980	0.551770
C30331	C3033	0.432120	0.380860	0.552760
H18661	H1866	0.443300	0.381900	0.562300
C30341	C3034	0.427510	0.397240	0.539810
H18671	H1867	0.435200	0.409800	0.540400
C30351	C3035	0.411380	0.394930	0.525870
H18681	H1868	0.408800	0.406000	0.516400
C30361	C3036	0.378100	0.325520	0.498900
C30371	C3037	0.332520	0.387800	0.482470
H18691	H1869	0.333500	0.397900	0.493200
C30381	C3038	0.315210	0.387260	0.471060
H18701	H1870	0.304500	0.397200	0.473300
C30391	C3039	0.312950	0.371790	0.455610
H18711	H1871	0.300600	0.370700	0.447600
C30401	C3040	0.329580	0.358270	0.452560
C30411	C3041	0.346960	0.360050	0.465210
H18721	H1872	0.357900	0.350300	0.463400
C30421	C3042	0.328610	0.342070	0.436770
N11611	N1161	0.385100	0.265610	0.590030
N11621	N1162	0.523090	0.363250	0.645350
N11631	N1163	0.482430	0.350680	0.626720
N11641	N1164	0.429080	0.313090	0.590570
N11651	N1165	0.438580	0.346580	0.579770
N11661	N1166	0.412460	0.327740	0.561510
N11671	N1167	0.399260	0.378270	0.524880
N11681	N1168	0.349160	0.374520	0.479670
N11691	N1169	0.377070	0.342970	0.501020
N11701	N1170	0.343430	0.327510	0.436870
S2331	S233	0.540170	0.334350	0.672570
S2341	S234	0.379210	0.299750	0.496410
C30431	C3043	0.398340	0.781780	0.089900
H18731	H1873	0.405700	0.784900	0.102400
C30441	C3044	0.401890	0.794170	0.072730
C30451	C3045	0.391830	0.789510	0.054370
H18741	H1874	0.393400	0.798100	0.042400
C30461	C3046	0.379380	0.772020	0.053830
H18751	H1875	0.373300	0.767600	0.041100
C30471	C3047	0.375780	0.760990	0.071710
H18761	H1876	0.366300	0.749600	0.071200
C30481	C3048	0.531000	0.851510	0.156580
C30491	C3049	0.483270	0.835160	0.140670
H18771	H1877	0.493600	0.836000	0.151200
C30501	C3050	0.470410	0.818300	0.140770
H18781	H1878	0.471300	0.808200	0.151500
C30511	C3051	0.456110	0.816240	0.124950
H18791	H1879	0.446900	0.804700	0.124500
C30521	C3052	0.455460	0.831540	0.109540
C30531	C3053	0.468850	0.848010	0.111150
H18801	H1880	0.468500	0.858200	0.100500
C30541	C3054	0.440170	0.830040	0.092070
C30551	C3055	0.424300	0.845030	0.064780
C30561	C3056	0.415370	0.812530	0.074740
C30571	C3057	0.403410	0.862830	0.037640
H18811	H1881	0.394600	0.851000	0.037400
C30581	C3058	0.420380	0.862980	0.051770
C30591	C3059	0.432120	0.880860	0.052760
H18821	H1882	0.443300	0.881900	0.062300
C30601	C3060	0.427510	0.897240	0.039810
H18831	H1883	0.435200	0.909800	0.040400
C30611	C3061	0.411380	0.894930	0.025870
H18841	H1884	0.408800	0.906000	0.016400
C30621	C3062	0.378100	0.825520	0.998900
C30631	C3063	0.332520	0.887800	0.982470
H18851	H1885	0.333500	0.897900	0.993200
C30641	C3064	0.315210	0.887260	0.971060
H18861	H1886	0.304500	0.897200	0.973300
C30651	C3065	0.312950	0.871790	0.955610
H18871	H1887	0.300600	0.870700	0.947600
C30661	C3066	0.329580	0.858270	0.952560
C30671	C3067	0.346960	0.860050	0.965210
H18881	H1888	0.357900	0.850300	0.963400
C30681	C3068	0.328610	0.842070	0.936770
N11711	N1171	0.385100	0.765610	0.090030
N11721	N1172	0.523090	0.863250	0.145350
N11731	N1173	0.482430	0.850680	0.126720
N11741	N1174	0.429080	0.813090	0.090570
N11751	N1175	0.438580	0.846580	0.079770
N11761	N1176	0.412460	0.827740	0.061510
N11771	N1177	0.399260	0.878270	0.024880
N11781	N1178	0.349160	0.874520	0.979670
N11791	N1179	0.377070	0.842970	0.001020
N11801	N1180	0.343430	0.827510	0.936870
S2351	S235	0.540170	0.834350	0.172570
S2361	S236	0.379210	0.799750	0.996410
C30691	C3069	0.898340	0.281780	0.089900
H18891	H1889	0.905700	0.284900	0.102400
C30701	C3070	0.901890	0.294170	0.072730
C30711	C3071	0.891830	0.289510	0.054370
H18901	H1890	0.893400	0.298100	0.042400
C30721	C3072	0.879380	0.272020	0.053830
H18911	H1891	0.873300	0.267600	0.041100
C30731	C3073	0.875780	0.260990	0.071710
H18921	H1892	0.866300	0.249600	0.071200
C30741	C3074	0.031000	0.351510	0.156580
C30751	C3075	0.983270	0.335160	0.140670
H18931	H1893	0.993600	0.336000	0.151200
C30761	C3076	0.970410	0.318300	0.140770
H18941	H1894	0.971300	0.308200	0.151500
C30771	C3077	0.956110	0.316240	0.124950
H18951	H1895	0.946900	0.304700	0.124500
C30781	C3078	0.955460	0.331540	0.109540
C30791	C3079	0.968850	0.348010	0.111150
H18961	H1896	0.968500	0.358200	0.100500
C30801	C3080	0.940170	0.330040	0.092070
C30811	C3081	0.924300	0.345030	0.064780
C30821	C3082	0.915370	0.312530	0.074740
C30831	C3083	0.903410	0.362830	0.037640
H18971	H1897	0.894600	0.351000	0.037400
C30841	C3084	0.920380	0.362980	0.051770
C30851	C3085	0.932120	0.380860	0.052760
H18981	H1898	0.943300	0.381900	0.062300
C30861	C3086	0.927510	0.397240	0.039810
H18991	H1899	0.935200	0.409800	0.040400
C30871	C3087	0.911380	0.394930	0.025870
H19001	H1900	0.908800	0.406000	0.016400
C30881	C3088	0.878100	0.325520	0.998900
C30891	C3089	0.832520	0.387800	0.982470
H19011	H1901	0.833500	0.397900	0.993200
C30901	C3090	0.815210	0.387260	0.971060
H19021	H1902	0.804500	0.397200	0.973300
C30911	C3091	0.812950	0.371790	0.955610
H19031	H1903	0.800600	0.370700	0.947600
C30921	C3092	0.829580	0.358270	0.952560
C30931	C3093	0.846960	0.360050	0.965210
H19041	H1904	0.857900	0.350300	0.963400
C30941	C3094	0.828610	0.342070	0.936770
N11811	N1181	0.885100	0.265610	0.090030
N11821	N1182	0.023090	0.363250	0.145350
N11831	N1183	0.982430	0.350680	0.126720
N11841	N1184	0.929080	0.313090	0.090570
N11851	N1185	0.938580	0.346580	0.079770
N11861	N1186	0.912460	0.327740	0.061510
N11871	N1187	0.899260	0.378270	0.024880
N11881	N1188	0.849160	0.374520	0.979670
N11891	N1189	0.877070	0.342970	0.001020
N11901	N1190	0.843430	0.327510	0.936870
S2371	S237	0.040170	0.334350	0.172570
S2381	S238	0.879210	0.299750	0.996410
C30951	C3095	0.898340	0.781780	0.589900
H19051	H1905	0.905700	0.784900	0.602400
C30961	C3096	0.901890	0.794170	0.572730
C30971	C3097	0.891830	0.789510	0.554370
H19061	H1906	0.893400	0.798100	0.542400
C30981	C3098	0.879380	0.772020	0.553830
H19071	H1907	0.873300	0.767600	0.541100
C30991	C3099	0.875780	0.760990	0.571710
H19081	H1908	0.866300	0.749600	0.571200
C31001	C3100	0.031000	0.851510	0.656580
C31011	C3101	0.983270	0.835160	0.640670
H19091	H1909	0.993600	0.836000	0.651200
C31021	C3102	0.970410	0.818300	0.640770
H19101	H1910	0.971300	0.808200	0.651500
C31031	C3103	0.956110	0.816240	0.624950
H19111	H1911	0.946900	0.804700	0.624500
C31041	C3104	0.955460	0.831540	0.609540
C31051	C3105	0.968850	0.848010	0.611150
H19121	H1912	0.968500	0.858200	0.600500
C31061	C3106	0.940170	0.830040	0.592070
C31071	C3107	0.924300	0.845030	0.564780
C31081	C3108	0.915370	0.812530	0.574740
C31091	C3109	0.903410	0.862830	0.537640
H19131	H1913	0.894600	0.851000	0.537400
C31101	C3110	0.920380	0.862980	0.551770
C31111	C3111	0.932120	0.880860	0.552760
H19141	H1914	0.943300	0.881900	0.562300
C31121	C3112	0.927510	0.897240	0.539810
H19151	H1915	0.935200	0.909800	0.540400
C31131	C3113	0.911380	0.894930	0.525870
H19161	H1916	0.908800	0.906000	0.516400
C31141	C3114	0.878100	0.825520	0.498900
C31151	C3115	0.832520	0.887800	0.482470
H19171	H1917	0.833500	0.897900	0.493200
C31161	C3116	0.815210	0.887260	0.471060
H19181	H1918	0.804500	0.897200	0.473300
C31171	C3117	0.812950	0.871790	0.455610
H19191	H1919	0.800600	0.870700	0.447600
C31181	C3118	0.829580	0.858270	0.452560
C31191	C3119	0.846960	0.860050	0.465210
H19201	H1920	0.857900	0.850300	0.463400
C31201	C3120	0.828610	0.842070	0.436770
N11911	N1191	0.885100	0.765610	0.590030
N11921	N1192	0.023090	0.863250	0.645350
N11931	N1193	0.982430	0.850680	0.626720
N11941	N1194	0.929080	0.813090	0.590570
N11951	N1195	0.938580	0.846580	0.579770
N11961	N1196	0.912460	0.827740	0.561510
N11971	N1197	0.899260	0.878270	0.524880
N11981	N1198	0.849160	0.874520	0.479670
N11991	N1199	0.877070	0.842970	0.501020
N12001	N1200	0.843430	0.827510	0.436870
S2391	S239	0.040170	0.834350	0.672570
S2401	S240	0.879210	0.799750	0.496410
C31211	C3121	0.851660	0.781780	0.160100
H19211	H1921	0.844300	0.784900	0.147600
C31221	C3122	0.848110	0.794170	0.177270
C31231	C3123	0.858170	0.789510	0.195630
H19221	H1922	0.856600	0.798100	0.207600
C31241	C3124	0.870620	0.772020	0.196170
H19231	H1923	0.876700	0.767600	0.208900
C31251	C3125	0.874220	0.760990	0.178290
H19241	H1924	0.883700	0.749600	0.178800
C31261	C3126	0.719000	0.851510	0.093420
C31271	C3127	0.766730	0.835160	0.109330
H19251	H1925	0.756400	0.836000	0.098800
C31281	C3128	0.779590	0.818300	0.109230
H19261	H1926	0.778700	0.808200	0.098500
C31291	C3129	0.793890	0.816240	0.125050
H19271	H1927	0.803100	0.804700	0.125500
C31301	C3130	0.794540	0.831540	0.140460
C31311	C3131	0.781150	0.848010	0.138850
H19281	H1928	0.781500	0.858200	0.149500
C31321	C3132	0.809830	0.830040	0.157930
C31331	C3133	0.825700	0.845030	0.185220
C31341	C3134	0.834630	0.812530	0.175260
C31351	C3135	0.846590	0.862830	0.212360
H19291	H1929	0.855400	0.851000	0.212600
C31361	C3136	0.829620	0.862980	0.198230
C31371	C3137	0.817880	0.880860	0.197240
H19301	H1930	0.806700	0.881900	0.187700
C31381	C3138	0.822490	0.897240	0.210190
H19311	H1931	0.814800	0.909800	0.209600
C31391	C3139	0.838620	0.894930	0.224130
H19321	H1932	0.841200	0.906000	0.233600
C31401	C3140	0.871900	0.825520	0.251100
C31411	C3141	0.917480	0.887800	0.267530
H19331	H1933	0.916500	0.897900	0.256800
C31421	C3142	0.934790	0.887260	0.278940
H19341	H1934	0.945500	0.897200	0.276700
C31431	C3143	0.937050	0.871790	0.294390
H19351	H1935	0.949400	0.870700	0.302400
C31441	C3144	0.920420	0.858270	0.297440
C31451	C3145	0.903040	0.860050	0.284790
H19361	H1936	0.892100	0.850300	0.286600
C31461	C3146	0.921390	0.842070	0.313230
N12011	N1201	0.864900	0.765610	0.159970
N12021	N1202	0.726910	0.863250	0.104650
N12031	N1203	0.767570	0.850680	0.123280
N12041	N1204	0.820920	0.813090	0.159430
N12051	N1205	0.811420	0.846580	0.170230
N12061	N1206	0.837540	0.827740	0.188490
N12071	N1207	0.850740	0.878270	0.225120
N12081	N1208	0.900840	0.874520	0.270330
N12091	N1209	0.872930	0.842970	0.248980
N12101	N1210	0.906570	0.827510	0.313130
S2411	S241	0.709830	0.834350	0.077430
S2421	S242	0.870790	0.799750	0.253590
C31471	C3147	0.851660	0.281780	0.660100
H19371	H1937	0.844300	0.284900	0.647600
C31481	C3148	0.848110	0.294170	0.677270
C31491	C3149	0.858170	0.289510	0.695630
H19381	H1938	0.856600	0.298100	0.707600
C31501	C3150	0.870620	0.272020	0.696170
H19391	H1939	0.876700	0.267600	0.708900
C31511	C3151	0.874220	0.260990	0.678290
H19401	H1940	0.883700	0.249600	0.678800
C31521	C3152	0.719000	0.351510	0.593420
C31531	C3153	0.766730	0.335160	0.609330
H19411	H1941	0.756400	0.336000	0.598800
C31541	C3154	0.779590	0.318300	0.609230
H19421	H1942	0.778700	0.308200	0.598500
C31551	C3155	0.793890	0.316240	0.625050
H19431	H1943	0.803100	0.304700	0.625500
C31561	C3156	0.794540	0.331540	0.640460
C31571	C3157	0.781150	0.348010	0.638850
H19441	H1944	0.781500	0.358200	0.649500
C31581	C3158	0.809830	0.330040	0.657930
C31591	C3159	0.825700	0.345030	0.685220
C31601	C3160	0.834630	0.312530	0.675260
C31611	C3161	0.846590	0.362830	0.712360
H19451	H1945	0.855400	0.351000	0.712600
C31621	C3162	0.829620	0.362980	0.698230
C31631	C3163	0.817880	0.380860	0.697240
H19461	H1946	0.806700	0.381900	0.687700
C31641	C3164	0.822490	0.397240	0.710190
H19471	H1947	0.814800	0.409800	0.709600
C31651	C3165	0.838620	0.394930	0.724130
H19481	H1948	0.841200	0.406000	0.733600
C31661	C3166	0.871900	0.325520	0.751100
C31671	C3167	0.917480	0.387800	0.767530
H19491	H1949	0.916500	0.397900	0.756800
C31681	C3168	0.934790	0.387260	0.778940
H19501	H1950	0.945500	0.397200	0.776700
C31691	C3169	0.937050	0.371790	0.794390
H19511	H1951	0.949400	0.370700	0.802400
C31701	C3170	0.920420	0.358270	0.797440
C31711	C3171	0.903040	0.360050	0.784790
H19521	H1952	0.892100	0.350300	0.786600
C31721	C3172	0.921390	0.342070	0.813230
N12111	N1211	0.864900	0.265610	0.659970
N12121	N1212	0.726910	0.363250	0.604650
N12131	N1213	0.767570	0.350680	0.623280
N12141	N1214	0.820920	0.313090	0.659430
N12151	N1215	0.811420	0.346580	0.670230
N12161	N1216	0.837540	0.327740	0.688490
N12171	N1217	0.850740	0.378270	0.725120
N12181	N1218	0.900840	0.374520	0.770330
N12191	N1219	0.872930	0.342970	0.748980
N12201	N1220	0.906570	0.327510	0.813130
S2431	S243	0.709830	0.334350	0.577430
S2441	S244	0.870790	0.299750	0.753590
C31731	C3173	0.351660	0.781780	0.660100
H19531	H1953	0.344300	0.784900	0.647600
C31741	C3174	0.348110	0.794170	0.677270
C31751	C3175	0.358170	0.789510	0.695630
H19541	H1954	0.356600	0.798100	0.707600
C31761	C3176	0.370620	0.772020	0.696170
H19551	H1955	0.376700	0.767600	0.708900
C31771	C3177	0.374220	0.760990	0.678290
H19561	H1956	0.383700	0.749600	0.678800
C31781	C3178	0.219000	0.851510	0.593420
C31791	C3179	0.266730	0.835160	0.609330
H19571	H1957	0.256400	0.836000	0.598800
C31801	C3180	0.279590	0.818300	0.609230
H19581	H1958	0.278700	0.808200	0.598500
C31811	C3181	0.293890	0.816240	0.625050
H19591	H1959	0.303100	0.804700	0.625500
C31821	C3182	0.294540	0.831540	0.640460
C31831	C3183	0.281150	0.848010	0.638850
H19601	H1960	0.281500	0.858200	0.649500
C31841	C3184	0.309830	0.830040	0.657930
C31851	C3185	0.325700	0.845030	0.685220
C31861	C3186	0.334630	0.812530	0.675260
C31871	C3187	0.346590	0.862830	0.712360
H19611	H1961	0.355400	0.851000	0.712600
C31881	C3188	0.329620	0.862980	0.698230
C31891	C3189	0.317880	0.880860	0.697240
H19621	H1962	0.306700	0.881900	0.687700
C31901	C3190	0.322490	0.897240	0.710190
H19631	H1963	0.314800	0.909800	0.709600
C31911	C3191	0.338620	0.894930	0.724130
H19641	H1964	0.341200	0.906000	0.733600
C31921	C3192	0.371900	0.825520	0.751100
C31931	C3193	0.417480	0.887800	0.767530
H19651	H1965	0.416500	0.897900	0.756800
C31941	C3194	0.434790	0.887260	0.778940
H19661	H1966	0.445500	0.897200	0.776700
C31951	C3195	0.437050	0.871790	0.794390
H19671	H1967	0.449400	0.870700	0.802400
C31961	C3196	0.420420	0.858270	0.797440
C31971	C3197	0.403040	0.860050	0.784790
H19681	H1968	0.392100	0.850300	0.786600
C31981	C3198	0.421390	0.842070	0.813230
N12211	N1221	0.364900	0.765610	0.659970
N12221	N1222	0.226910	0.863250	0.604650
N12231	N1223	0.267570	0.850680	0.623280
N12241	N1224	0.320920	0.813090	0.659430
N12251	N1225	0.311420	0.846580	0.670230
N12261	N1226	0.337540	0.827740	0.688490
N12271	N1227	0.350740	0.878270	0.725120
N12281	N1228	0.400840	0.874520	0.770330
N12291	N1229	0.372930	0.842970	0.748980
N12301	N1230	0.406570	0.827510	0.813130
S2451	S245	0.209830	0.834350	0.577430
S2461	S246	0.370790	0.799750	0.753590
C31991	C3199	0.351660	0.281780	0.160100
H19691	H1969	0.344300	0.284900	0.147600
C32001	C3200	0.348110	0.294170	0.177270
C32011	C3201	0.358170	0.289510	0.195630
H19701	H1970	0.356600	0.298100	0.207600
C32021	C3202	0.370620	0.272020	0.196170
H19711	H1971	0.376700	0.267600	0.208900
C32031	C3203	0.374220	0.260990	0.178290
H19721	H1972	0.383700	0.249600	0.178800
C32041	C3204	0.219000	0.351510	0.093420
C32051	C3205	0.266730	0.335160	0.109330
H19731	H1973	0.256400	0.336000	0.098800
C32061	C3206	0.279590	0.318300	0.109230
H19741	H1974	0.278700	0.308200	0.098500
C32071	C3207	0.293890	0.316240	0.125050
H19751	H1975	0.303100	0.304700	0.125500
C32081	C3208	0.294540	0.331540	0.140460
C32091	C3209	0.281150	0.348010	0.138850
H19761	H1976	0.281500	0.358200	0.149500
C32101	C3210	0.309830	0.330040	0.157930
C32111	C3211	0.325700	0.345030	0.185220
C32121	C3212	0.334630	0.312530	0.175260
C32131	C3213	0.346590	0.362830	0.212360
H19771	H1977	0.355400	0.351000	0.212600
C32141	C3214	0.329620	0.362980	0.198230
C32151	C3215	0.317880	0.380860	0.197240
H19781	H1978	0.306700	0.381900	0.187700
C32161	C3216	0.322490	0.397240	0.210190
H19791	H1979	0.314800	0.409800	0.209600
C32171	C3217	0.338620	0.394930	0.224130
H19801	H1980	0.341200	0.406000	0.233600
C32181	C3218	0.371900	0.325520	0.251100
C32191	C3219	0.417480	0.387800	0.267530
H19811	H1981	0.416500	0.397900	0.256800
C32201	C3220	0.434790	0.387260	0.278940
H19821	H1982	0.445500	0.397200	0.276700
C32211	C3221	0.437050	0.371790	0.294390
H19831	H1983	0.449400	0.370700	0.302400
C32221	C3222	0.420420	0.358270	0.297440
C32231	C3223	0.403040	0.360050	0.284790
H19841	H1984	0.392100	0.350300	0.286600
C32241	C3224	0.421390	0.342070	0.313230
N12311	N1231	0.364900	0.265610	0.159970
N12321	N1232	0.226910	0.363250	0.104650
N12331	N1233	0.267570	0.350680	0.123280
N12341	N1234	0.320920	0.313090	0.159430
N12351	N1235	0.311420	0.346580	0.170230
N12361	N1236	0.337540	0.327740	0.188490
N12371	N1237	0.350740	0.378270	0.225120
N12381	N1238	0.400840	0.374520	0.270330
N12391	N1239	0.372930	0.342970	0.248980
N12401	N1240	0.406570	0.327510	0.313130
S2471	S247	0.209830	0.334350	0.077430
S2481	S248	0.370790	0.299750	0.253590
C32251	C3225	0.351660	0.968220	0.089900
H19851	H1985	0.344300	0.965100	0.102400
C32261	C3226	0.348110	0.955830	0.072730
C32271	C3227	0.358170	0.960490	0.054370
H19861	H1986	0.356600	0.951900	0.042400
C32281	C3228	0.370620	0.977980	0.053830
H19871	H1987	0.376700	0.982400	0.041100
C32291	C3229	0.374220	0.989010	0.071710
H19881	H1988	0.383700	0.000400	0.071200
C32301	C3230	0.219000	0.898490	0.156580
C32311	C3231	0.266730	0.914840	0.140670
H19891	H1989	0.256400	0.914000	0.151200
C32321	C3232	0.279590	0.931700	0.140770
H19901	H1990	0.278700	0.941800	0.151500
C32331	C3233	0.293890	0.933760	0.124950
H19911	H1991	0.303100	0.945300	0.124500
C32341	C3234	0.294540	0.918460	0.109540
C32351	C3235	0.281150	0.901990	0.111150
H19921	H1992	0.281500	0.891800	0.100500
C32361	C3236	0.309830	0.919960	0.092070
C32371	C3237	0.325700	0.904970	0.064780
C32381	C3238	0.334630	0.937470	0.074740
C32391	C3239	0.346590	0.887170	0.037640
H19931	H1993	0.355400	0.899000	0.037400
C32401	C3240	0.329620	0.887020	0.051770
C32411	C3241	0.317880	0.869140	0.052760
H19941	H1994	0.306700	0.868100	0.062300
C32421	C3242	0.322490	0.852760	0.039810
H19951	H1995	0.314800	0.840200	0.040400
C32431	C3243	0.338620	0.855070	0.025870
H19961	H1996	0.341200	0.844000	0.016400
C32441	C3244	0.371900	0.924480	0.998900
C32451	C3245	0.417480	0.862200	0.982470
H19971	H1997	0.416500	0.852100	0.993200
C32461	C3246	0.434790	0.862740	0.971060
H19981	H1998	0.445500	0.852800	0.973300
C32471	C3247	0.437050	0.878210	0.955610
H19991	H1999	0.449400	0.879300	0.947600
C32481	C3248	0.420420	0.891730	0.952560
C32491	C3249	0.403040	0.889950	0.965210
H20001	H2000	0.392100	0.899700	0.963400
C32501	C3250	0.421390	0.907930	0.936770
N12411	N1241	0.364900	0.984390	0.090030
N12421	N1242	0.226910	0.886750	0.145350
N12431	N1243	0.267570	0.899320	0.126720
N12441	N1244	0.320920	0.936910	0.090570
N12451	N1245	0.311420	0.903420	0.079770
N12461	N1246	0.337540	0.922260	0.061510
N12471	N1247	0.350740	0.871730	0.024880
N12481	N1248	0.400840	0.875480	0.979670
N12491	N1249	0.372930	0.907030	0.001020
N12501	N1250	0.406570	0.922490	0.936870
S2491	S249	0.209830	0.915650	0.172570
S2501	S250	0.370790	0.950250	0.996410
C32511	C3251	0.351660	0.468220	0.589900
H20011	H2001	0.344300	0.465100	0.602400
C32521	C3252	0.348110	0.455830	0.572730
C32531	C3253	0.358170	0.460490	0.554370
H20021	H2002	0.356600	0.451900	0.542400
C32541	C3254	0.370620	0.477980	0.553830
H20031	H2003	0.376700	0.482400	0.541100
C32551	C3255	0.374220	0.489010	0.571710
H20041	H2004	0.383700	0.500400	0.571200
C32561	C3256	0.219000	0.398490	0.656580
C32571	C3257	0.266730	0.414840	0.640670
H20051	H2005	0.256400	0.414000	0.651200
C32581	C3258	0.279590	0.431700	0.640770
H20061	H2006	0.278700	0.441800	0.651500
C32591	C3259	0.293890	0.433760	0.624950
H20071	H2007	0.303100	0.445300	0.624500
C32601	C3260	0.294540	0.418460	0.609540
C32611	C3261	0.281150	0.401990	0.611150
H20081	H2008	0.281500	0.391800	0.600500
C32621	C3262	0.309830	0.419960	0.592070
C32631	C3263	0.325700	0.404970	0.564780
C32641	C3264	0.334630	0.437470	0.574740
C32651	C3265	0.346590	0.387170	0.537640
H20091	H2009	0.355400	0.399000	0.537400
C32661	C3266	0.329620	0.387020	0.551770
C32671	C3267	0.317880	0.369140	0.552760
H20101	H2010	0.306700	0.368100	0.562300
C32681	C3268	0.322490	0.352760	0.539810
H20111	H2011	0.314800	0.340200	0.540400
C32691	C3269	0.338620	0.355070	0.525870
H20121	H2012	0.341200	0.344000	0.516400
C32701	C3270	0.371900	0.424480	0.498900
C32711	C3271	0.417480	0.362200	0.482470
H20131	H2013	0.416500	0.352100	0.493200
C32721	C3272	0.434790	0.362740	0.471060
H20141	H2014	0.445500	0.352800	0.473300
C32731	C3273	0.437050	0.378210	0.455610
H20151	H2015	0.449400	0.379300	0.447600
C32741	C3274	0.420420	0.391730	0.452560
C32751	C3275	0.403040	0.389950	0.465210
H20161	H2016	0.392100	0.399700	0.463400
C32761	C3276	0.421390	0.407930	0.436770
N12511	N1251	0.364900	0.484390	0.590030
N12521	N1252	0.226910	0.386750	0.645350
N12531	N1253	0.267570	0.399320	0.626720
N12541	N1254	0.320920	0.436910	0.590570
N12551	N1255	0.311420	0.403420	0.579770
N12561	N1256	0.337540	0.422260	0.561510
N12571	N1257	0.350740	0.371730	0.524880
N12581	N1258	0.400840	0.375480	0.479670
N12591	N1259	0.372930	0.407030	0.501020
N12601	N1260	0.406570	0.422490	0.436870
S2511	S251	0.209830	0.415650	0.672570
S2521	S252	0.370790	0.450250	0.496410
C32771	C3277	0.851660	0.968220	0.589900
H20171	H2017	0.844300	0.965100	0.602400
C32781	C3278	0.848110	0.955830	0.572730
C32791	C3279	0.858170	0.960490	0.554370
H20181	H2018	0.856600	0.951900	0.542400
C32801	C3280	0.870620	0.977980	0.553830
H20191	H2019	0.876700	0.982400	0.541100
C32811	C3281	0.874220	0.989010	0.571710
H20201	H2020	0.883700	0.000400	0.571200
C32821	C3282	0.719000	0.898490	0.656580
C32831	C3283	0.766730	0.914840	0.640670
H20211	H2021	0.756400	0.914000	0.651200
C32841	C3284	0.779590	0.931700	0.640770
H20221	H2022	0.778700	0.941800	0.651500
C32851	C3285	0.793890	0.933760	0.624950
H20231	H2023	0.803100	0.945300	0.624500
C32861	C3286	0.794540	0.918460	0.609540
C32871	C3287	0.781150	0.901990	0.611150
H20241	H2024	0.781500	0.891800	0.600500
C32881	C3288	0.809830	0.919960	0.592070
C32891	C3289	0.825700	0.904970	0.564780
C32901	C3290	0.834630	0.937470	0.574740
C32911	C3291	0.846590	0.887170	0.537640
H20251	H2025	0.855400	0.899000	0.537400
C32921	C3292	0.829620	0.887020	0.551770
C32931	C3293	0.817880	0.869140	0.552760
H20261	H2026	0.806700	0.868100	0.562300
C32941	C3294	0.822490	0.852760	0.539810
H20271	H2027	0.814800	0.840200	0.540400
C32951	C3295	0.838620	0.855070	0.525870
H20281	H2028	0.841200	0.844000	0.516400
C32961	C3296	0.871900	0.924480	0.498900
C32971	C3297	0.917480	0.862200	0.482470
H20291	H2029	0.916500	0.852100	0.493200
C32981	C3298	0.934790	0.862740	0.471060
H20301	H2030	0.945500	0.852800	0.473300
C32991	C3299	0.937050	0.878210	0.455610
H20311	H2031	0.949400	0.879300	0.447600
C33001	C3300	0.920420	0.891730	0.452560
C33011	C3301	0.903040	0.889950	0.465210
H20321	H2032	0.892100	0.899700	0.463400
C33021	C3302	0.921390	0.907930	0.436770
N12611	N1261	0.864900	0.984390	0.590030
N12621	N1262	0.726910	0.886750	0.645350
N12631	N1263	0.767570	0.899320	0.626720
N12641	N1264	0.820920	0.936910	0.590570
N12651	N1265	0.811420	0.903420	0.579770
N12661	N1266	0.837540	0.922260	0.561510
N12671	N1267	0.850740	0.871730	0.524880
N12681	N1268	0.900840	0.875480	0.479670
N12691	N1269	0.872930	0.907030	0.501020
N12701	N1270	0.906570	0.922490	0.436870
S2531	S253	0.709830	0.915650	0.672570
S2541	S254	0.870790	0.950250	0.496410
C33031	C3303	0.851660	0.468220	0.089900
H20331	H2033	0.844300	0.465100	0.102400
C33041	C3304	0.848110	0.455830	0.072730
C33051	C3305	0.858170	0.460490	0.054370
H20341	H2034	0.856600	0.451900	0.042400
C33061	C3306	0.870620	0.477980	0.053830
H20351	H2035	0.876700	0.482400	0.041100
C33071	C3307	0.874220	0.489010	0.071710
H20361	H2036	0.883700	0.500400	0.071200
C33081	C3308	0.719000	0.398490	0.156580
C33091	C3309	0.766730	0.414840	0.140670
H20371	H2037	0.756400	0.414000	0.151200
C33101	C3310	0.779590	0.431700	0.140770
H20381	H2038	0.778700	0.441800	0.151500
C33111	C3311	0.793890	0.433760	0.124950
H20391	H2039	0.803100	0.445300	0.124500
C33121	C3312	0.794540	0.418460	0.109540
C33131	C3313	0.781150	0.401990	0.111150
H20401	H2040	0.781500	0.391800	0.100500
C33141	C3314	0.809830	0.419960	0.092070
C33151	C3315	0.825700	0.404970	0.064780
C33161	C3316	0.834630	0.437470	0.074740
C33171	C3317	0.846590	0.387170	0.037640
H20411	H2041	0.855400	0.399000	0.037400
C33181	C3318	0.829620	0.387020	0.051770
C33191	C3319	0.817880	0.369140	0.052760
H20421	H2042	0.806700	0.368100	0.062300
C33201	C3320	0.822490	0.352760	0.039810
H20431	H2043	0.814800	0.340200	0.040400
C33211	C3321	0.838620	0.355070	0.025870
H20441	H2044	0.841200	0.344000	0.016400
C33221	C3322	0.871900	0.424480	0.998900
C33231	C3323	0.917480	0.362200	0.982470
H20451	H2045	0.916500	0.352100	0.993200
C33241	C3324	0.934790	0.362740	0.971060
H20461	H2046	0.945500	0.352800	0.973300
C33251	C3325	0.937050	0.378210	0.955610
H20471	H2047	0.949400	0.379300	0.947600
C33261	C3326	0.920420	0.391730	0.952560
C33271	C3327	0.903040	0.389950	0.965210
H20481	H2048	0.892100	0.399700	0.963400
C33281	C3328	0.921390	0.407930	0.936770
N12711	N1271	0.864900	0.484390	0.090030
N12721	N1272	0.726910	0.386750	0.145350
N12731	N1273	0.767570	0.399320	0.126720
N12741	N1274	0.820920	0.436910	0.090570
N12751	N1275	0.811420	0.403420	0.079770
N12761	N1276	0.837540	0.422260	0.061510
N12771	N1277	0.850740	0.371730	0.024880
N12781	N1278	0.900840	0.375480	0.979670
N12791	N1279	0.872930	0.407030	0.001020
N12801	N1280	0.906570	0.422490	0.936870
S2551	S255	0.709830	0.415650	0.172570
S2561	S256	0.870790	0.450250	0.996410
C33291	C3329	0.660100	0.898340	0.468220
H20491	H2049	0.647600	0.905700	0.465100
C33301	C3330	0.677270	0.901890	0.455830
C33311	C3331	0.695630	0.891830	0.460490
H20501	H2050	0.707600	0.893400	0.451900
C33321	C3332	0.696170	0.879380	0.477980
H20511	H2051	0.708900	0.873300	0.482400
C33331	C3333	0.678290	0.875780	0.489010
H20521	H2052	0.678800	0.866300	0.500400
C33341	C3334	0.593420	0.031000	0.398490
C33351	C3335	0.609330	0.983270	0.414840
H20531	H2053	0.598800	0.993600	0.414000
C33361	C3336	0.609230	0.970410	0.431700
H20541	H2054	0.598500	0.971300	0.441800
C33371	C3337	0.625050	0.956110	0.433760
H20551	H2055	0.625500	0.946900	0.445300
C33381	C3338	0.640460	0.955460	0.418460
C33391	C3339	0.638850	0.968850	0.401990
H20561	H2056	0.649500	0.968500	0.391800
C33401	C3340	0.657930	0.940170	0.419960
C33411	C3341	0.685220	0.924300	0.404970
C33421	C3342	0.675260	0.915370	0.437470
C33431	C3343	0.712360	0.903410	0.387170
H20571	H2057	0.712600	0.894600	0.399000
C33441	C3344	0.698230	0.920380	0.387020
C33451	C3345	0.697240	0.932120	0.369140
H20581	H2058	0.687700	0.943300	0.368100
C33461	C3346	0.710190	0.927510	0.352760
H20591	H2059	0.709600	0.935200	0.340200
C33471	C3347	0.724130	0.911380	0.355070
H20601	H2060	0.733600	0.908800	0.344000
C33481	C3348	0.751100	0.878100	0.424480
C33491	C3349	0.767530	0.832520	0.362200
H20611	H2061	0.756800	0.833500	0.352100
C33501	C3350	0.778940	0.815210	0.362740
H20621	H2062	0.776700	0.804500	0.352800
C33511	C3351	0.794390	0.812950	0.378210
H20631	H2063	0.802400	0.800600	0.379300
C33521	C3352	0.797440	0.829580	0.391730
C33531	C3353	0.784790	0.846960	0.389950
H20641	H2064	0.786600	0.857900	0.399700
C33541	C3354	0.813230	0.828610	0.407930
N12811	N1281	0.659970	0.885100	0.484390
N12821	N1282	0.604650	0.023090	0.386750
N12831	N1283	0.623280	0.982430	0.399320
N12841	N1284	0.659430	0.929080	0.436910
N12851	N1285	0.670230	0.938580	0.403420
N12861	N1286	0.688490	0.912460	0.422260
N12871	N1287	0.725120	0.899260	0.371730
N12881	N1288	0.770330	0.849160	0.375480
N12891	N1289	0.748980	0.877070	0.407030
N12901	N1290	0.813130	0.843430	0.422490
S2571	S257	0.577430	0.040170	0.415650
S2581	S258	0.753590	0.879210	0.450250
C33551	C3355	0.660100	0.398340	0.968220
H20651	H2065	0.647600	0.405700	0.965100
C33561	C3356	0.677270	0.401890	0.955830
C33571	C3357	0.695630	0.391830	0.960490
H20661	H2066	0.707600	0.393400	0.951900
C33581	C3358	0.696170	0.379380	0.977980
H20671	H2067	0.708900	0.373300	0.982400
C33591	C3359	0.678290	0.375780	0.989010
H20681	H2068	0.678800	0.366300	0.000400
C33601	C3360	0.593420	0.531000	0.898490
C33611	C3361	0.609330	0.483270	0.914840
H20691	H2069	0.598800	0.493600	0.914000
C33621	C3362	0.609230	0.470410	0.931700
H20701	H2070	0.598500	0.471300	0.941800
C33631	C3363	0.625050	0.456110	0.933760
H20711	H2071	0.625500	0.446900	0.945300
C33641	C3364	0.640460	0.455460	0.918460
C33651	C3365	0.638850	0.468850	0.901990
H20721	H2072	0.649500	0.468500	0.891800
C33661	C3366	0.657930	0.440170	0.919960
C33671	C3367	0.685220	0.424300	0.904970
C33681	C3368	0.675260	0.415370	0.937470
C33691	C3369	0.712360	0.403410	0.887170
H20731	H2073	0.712600	0.394600	0.899000
C33701	C3370	0.698230	0.420380	0.887020
C33711	C3371	0.697240	0.432120	0.869140
H20741	H2074	0.687700	0.443300	0.868100
C33721	C3372	0.710190	0.427510	0.852760
H20751	H2075	0.709600	0.435200	0.840200
C33731	C3373	0.724130	0.411380	0.855070
H20761	H2076	0.733600	0.408800	0.844000
C33741	C3374	0.751100	0.378100	0.924480
C33751	C3375	0.767530	0.332520	0.862200
H20771	H2077	0.756800	0.333500	0.852100
C33761	C3376	0.778940	0.315210	0.862740
H20781	H2078	0.776700	0.304500	0.852800
C33771	C3377	0.794390	0.312950	0.878210
H20791	H2079	0.802400	0.300600	0.879300
C33781	C3378	0.797440	0.329580	0.891730
C33791	C3379	0.784790	0.346960	0.889950
H20801	H2080	0.786600	0.357900	0.899700
C33801	C3380	0.813230	0.328610	0.907930
N12911	N1291	0.659970	0.385100	0.984390
N12921	N1292	0.604650	0.523090	0.886750
N12931	N1293	0.623280	0.482430	0.899320
N12941	N1294	0.659430	0.429080	0.936910
N12951	N1295	0.670230	0.438580	0.903420
N12961	N1296	0.688490	0.412460	0.922260
N12971	N1297	0.725120	0.399260	0.871730
N12981	N1298	0.770330	0.349160	0.875480
N12991	N1299	0.748980	0.377070	0.907030
N13001	N1300	0.813130	0.343430	0.922490
S2591	S259	0.577430	0.540170	0.915650
S2601	S260	0.753590	0.379210	0.950250
C33811	C3381	0.160100	0.898340	0.968220
H20811	H2081	0.147600	0.905700	0.965100
C33821	C3382	0.177270	0.901890	0.955830
C33831	C3383	0.195630	0.891830	0.960490
H20821	H2082	0.207600	0.893400	0.951900
C33841	C3384	0.196170	0.879380	0.977980
H20831	H2083	0.208900	0.873300	0.982400
C33851	C3385	0.178290	0.875780	0.989010
H20841	H2084	0.178800	0.866300	0.000400
C33861	C3386	0.093420	0.031000	0.898490
C33871	C3387	0.109330	0.983270	0.914840
H20851	H2085	0.098800	0.993600	0.914000
C33881	C3388	0.109230	0.970410	0.931700
H20861	H2086	0.098500	0.971300	0.941800
C33891	C3389	0.125050	0.956110	0.933760
H20871	H2087	0.125500	0.946900	0.945300
C33901	C3390	0.140460	0.955460	0.918460
C33911	C3391	0.138850	0.968850	0.901990
H20881	H2088	0.149500	0.968500	0.891800
C33921	C3392	0.157930	0.940170	0.919960
C33931	C3393	0.185220	0.924300	0.904970
C33941	C3394	0.175260	0.915370	0.937470
C33951	C3395	0.212360	0.903410	0.887170
H20891	H2089	0.212600	0.894600	0.899000
C33961	C3396	0.198230	0.920380	0.887020
C33971	C3397	0.197240	0.932120	0.869140
H20901	H2090	0.187700	0.943300	0.868100
C33981	C3398	0.210190	0.927510	0.852760
H20911	H2091	0.209600	0.935200	0.840200
C33991	C3399	0.224130	0.911380	0.855070
H20921	H2092	0.233600	0.908800	0.844000
C34001	C3400	0.251100	0.878100	0.924480
C34011	C3401	0.267530	0.832520	0.862200
H20931	H2093	0.256800	0.833500	0.852100
C34021	C3402	0.278940	0.815210	0.862740
H20941	H2094	0.276700	0.804500	0.852800
C34031	C3403	0.294390	0.812950	0.878210
H20951	H2095	0.302400	0.800600	0.879300
C34041	C3404	0.297440	0.829580	0.891730
C34051	C3405	0.284790	0.846960	0.889950
H20961	H2096	0.286600	0.857900	0.899700
C34061	C3406	0.313230	0.828610	0.907930
N13011	N1301	0.159970	0.885100	0.984390
N13021	N1302	0.104650	0.023090	0.886750
N13031	N1303	0.123280	0.982430	0.899320
N13041	N1304	0.159430	0.929080	0.936910
N13051	N1305	0.170230	0.938580	0.903420
N13061	N1306	0.188490	0.912460	0.922260
N13071	N1307	0.225120	0.899260	0.871730
N13081	N1308	0.270330	0.849160	0.875480
N13091	N1309	0.248980	0.877070	0.907030
N13101	N1310	0.313130	0.843430	0.922490
S2611	S261	0.077430	0.040170	0.915650
S2621	S262	0.253590	0.879210	0.950250
C34071	C3407	0.160100	0.398340	0.468220
H20971	H2097	0.147600	0.405700	0.465100
C34081	C3408	0.177270	0.401890	0.455830
C34091	C3409	0.195630	0.391830	0.460490
H20981	H2098	0.207600	0.393400	0.451900
C34101	C3410	0.196170	0.379380	0.477980
H20991	H2099	0.208900	0.373300	0.482400
C34111	C3411	0.178290	0.375780	0.489010
H21001	H2100	0.178800	0.366300	0.500400
C34121	C3412	0.093420	0.531000	0.398490
C34131	C3413	0.109330	0.483270	0.414840
H21011	H2101	0.098800	0.493600	0.414000
C34141	C3414	0.109230	0.470410	0.431700
H21021	H2102	0.098500	0.471300	0.441800
C34151	C3415	0.125050	0.456110	0.433760
H21031	H2103	0.125500	0.446900	0.445300
C34161	C3416	0.140460	0.455460	0.418460
C34171	C3417	0.138850	0.468850	0.401990
H21041	H2104	0.149500	0.468500	0.391800
C34181	C3418	0.157930	0.440170	0.419960
C34191	C3419	0.185220	0.424300	0.404970
C34201	C3420	0.175260	0.415370	0.437470
C34211	C3421	0.212360	0.403410	0.387170
H21051	H2105	0.212600	0.394600	0.399000
C34221	C3422	0.198230	0.420380	0.387020
C34231	C3423	0.197240	0.432120	0.369140
H21061	H2106	0.187700	0.443300	0.368100
C34241	C3424	0.210190	0.427510	0.352760
H21071	H2107	0.209600	0.435200	0.340200
C34251	C3425	0.224130	0.411380	0.355070
H21081	H2108	0.233600	0.408800	0.344000
C34261	C3426	0.251100	0.378100	0.424480
C34271	C3427	0.267530	0.332520	0.362200
H21091	H2109	0.256800	0.333500	0.352100
C34281	C3428	0.278940	0.315210	0.362740
H21101	H2110	0.276700	0.304500	0.352800
C34291	C3429	0.294390	0.312950	0.378210
H21111	H2111	0.302400	0.300600	0.379300
C34301	C3430	0.297440	0.329580	0.391730
C34311	C3431	0.284790	0.346960	0.389950
H21121	H2112	0.286600	0.357900	0.399700
C34321	C3432	0.313230	0.328610	0.407930
N13111	N1311	0.159970	0.385100	0.484390
N13121	N1312	0.104650	0.523090	0.386750
N13131	N1313	0.123280	0.482430	0.399320
N13141	N1314	0.159430	0.429080	0.436910
N13151	N1315	0.170230	0.438580	0.403420
N13161	N1316	0.188490	0.412460	0.422260
N13171	N1317	0.225120	0.399260	0.371730
N13181	N1318	0.270330	0.349160	0.375480
N13191	N1319	0.248980	0.377070	0.407030
N13201	N1320	0.313130	0.343430	0.422490
S2631	S263	0.077430	0.540170	0.415650
S2641	S264	0.253590	0.379210	0.450250
C34331	C3433	0.589900	0.398340	0.281780
H21131	H2113	0.602400	0.405700	0.284900
C34341	C3434	0.572730	0.401890	0.294170
C34351	C3435	0.554370	0.391830	0.289510
H21141	H2114	0.542400	0.393400	0.298100
C34361	C3436	0.553830	0.379380	0.272020
H21151	H2115	0.541100	0.373300	0.267600
C34371	C3437	0.571710	0.375780	0.260990
H21161	H2116	0.571200	0.366300	0.249600
C34381	C3438	0.656580	0.531000	0.351510
C34391	C3439	0.640670	0.483270	0.335160
H21171	H2117	0.651200	0.493600	0.336000
C34401	C3440	0.640770	0.470410	0.318300
H21181	H2118	0.651500	0.471300	0.308200
C34411	C3441	0.624950	0.456110	0.316240
H21191	H2119	0.624500	0.446900	0.304700
C34421	C3442	0.609540	0.455460	0.331540
C34431	C3443	0.611150	0.468850	0.348010
H21201	H2120	0.600500	0.468500	0.358200
C34441	C3444	0.592070	0.440170	0.330040
C34451	C3445	0.564780	0.424300	0.345030
C34461	C3446	0.574740	0.415370	0.312530
C34471	C3447	0.537640	0.403410	0.362830
H21211	H2121	0.537400	0.394600	0.351000
C34481	C3448	0.551770	0.420380	0.362980
C34491	C3449	0.552760	0.432120	0.380860
H21221	H2122	0.562300	0.443300	0.381900
C34501	C3450	0.539810	0.427510	0.397240
H21231	H2123	0.540400	0.435200	0.409800
C34511	C3451	0.525870	0.411380	0.394930
H21241	H2124	0.516400	0.408800	0.406000
C34521	C3452	0.498900	0.378100	0.325520
C34531	C3453	0.482470	0.332520	0.387800
H21251	H2125	0.493200	0.333500	0.397900
C34541	C3454	0.471060	0.315210	0.387260
H21261	H2126	0.473300	0.304500	0.397200
C34551	C3455	0.455610	0.312950	0.371790
H21271	H2127	0.447600	0.300600	0.370700
C34561	C3456	0.452560	0.329580	0.358270
C34571	C3457	0.465210	0.346960	0.360050
H21281	H2128	0.463400	0.357900	0.350300
C34581	C3458	0.436770	0.328610	0.342070
N13211	N1321	0.590030	0.385100	0.265610
N13221	N1322	0.645350	0.523090	0.363250
N13231	N1323	0.626720	0.482430	0.350680
N13241	N1324	0.590570	0.429080	0.313090
N13251	N1325	0.579770	0.438580	0.346580
N13261	N1326	0.561510	0.412460	0.327740
N13271	N1327	0.524880	0.399260	0.378270
N13281	N1328	0.479670	0.349160	0.374520
N13291	N1329	0.501020	0.377070	0.342970
N13301	N1330	0.436870	0.343430	0.327510
S2651	S265	0.672570	0.540170	0.334350
S2661	S266	0.496410	0.379210	0.299750
C34591	C3459	0.589900	0.898340	0.781780
H21291	H2129	0.602400	0.905700	0.784900
C34601	C3460	0.572730	0.901890	0.794170
C34611	C3461	0.554370	0.891830	0.789510
H21301	H2130	0.542400	0.893400	0.798100
C34621	C3462	0.553830	0.879380	0.772020
H21311	H2131	0.541100	0.873300	0.767600
C34631	C3463	0.571710	0.875780	0.760990
H21321	H2132	0.571200	0.866300	0.749600
C34641	C3464	0.656580	0.031000	0.851510
C34651	C3465	0.640670	0.983270	0.835160
H21331	H2133	0.651200	0.993600	0.836000
C34661	C3466	0.640770	0.970410	0.818300
H21341	H2134	0.651500	0.971300	0.808200
C34671	C3467	0.624950	0.956110	0.816240
H21351	H2135	0.624500	0.946900	0.804700
C34681	C3468	0.609540	0.955460	0.831540
C34691	C3469	0.611150	0.968850	0.848010
H21361	H2136	0.600500	0.968500	0.858200
C34701	C3470	0.592070	0.940170	0.830040
C34711	C3471	0.564780	0.924300	0.845030
C34721	C3472	0.574740	0.915370	0.812530
C34731	C3473	0.537640	0.903410	0.862830
H21371	H2137	0.537400	0.894600	0.851000
C34741	C3474	0.551770	0.920380	0.862980
C34751	C3475	0.552760	0.932120	0.880860
H21381	H2138	0.562300	0.943300	0.881900
C34761	C3476	0.539810	0.927510	0.897240
H21391	H2139	0.540400	0.935200	0.909800
C34771	C3477	0.525870	0.911380	0.894930
H21401	H2140	0.516400	0.908800	0.906000
C34781	C3478	0.498900	0.878100	0.825520
C34791	C3479	0.482470	0.832520	0.887800
H21411	H2141	0.493200	0.833500	0.897900
C34801	C3480	0.471060	0.815210	0.887260
H21421	H2142	0.473300	0.804500	0.897200
C34811	C3481	0.455610	0.812950	0.871790
H21431	H2143	0.447600	0.800600	0.870700
C34821	C3482	0.452560	0.829580	0.858270
C34831	C3483	0.465210	0.846960	0.860050
H21441	H2144	0.463400	0.857900	0.850300
C34841	C3484	0.436770	0.828610	0.842070
N13311	N1331	0.590030	0.885100	0.765610
N13321	N1332	0.645350	0.023090	0.863250
N13331	N1333	0.626720	0.982430	0.850680
N13341	N1334	0.590570	0.929080	0.813090
N13351	N1335	0.579770	0.938580	0.846580
N13361	N1336	0.561510	0.912460	0.827740
N13371	N1337	0.524880	0.899260	0.878270
N13381	N1338	0.479670	0.849160	0.874520
N13391	N1339	0.501020	0.877070	0.842970
N13401	N1340	0.436870	0.843430	0.827510
S2671	S267	0.672570	0.040170	0.834350
S2681	S268	0.496410	0.879210	0.799750
C34851	C3485	0.089900	0.398340	0.781780
H21451	H2145	0.102400	0.405700	0.784900
C34861	C3486	0.072730	0.401890	0.794170
C34871	C3487	0.054370	0.391830	0.789510
H21461	H2146	0.042400	0.393400	0.798100
C34881	C3488	0.053830	0.379380	0.772020
H21471	H2147	0.041100	0.373300	0.767600
C34891	C3489	0.071710	0.375780	0.760990
H21481	H2148	0.071200	0.366300	0.749600
C34901	C3490	0.156580	0.531000	0.851510
C34911	C3491	0.140670	0.483270	0.835160
H21491	H2149	0.151200	0.493600	0.836000
C34921	C3492	0.140770	0.470410	0.818300
H21501	H2150	0.151500	0.471300	0.808200
C34931	C3493	0.124950	0.456110	0.816240
H21511	H2151	0.124500	0.446900	0.804700
C34941	C3494	0.109540	0.455460	0.831540
C34951	C3495	0.111150	0.468850	0.848010
H21521	H2152	0.100500	0.468500	0.858200
C34961	C3496	0.092070	0.440170	0.830040
C34971	C3497	0.064780	0.424300	0.845030
C34981	C3498	0.074740	0.415370	0.812530
C34991	C3499	0.037640	0.403410	0.862830
H21531	H2153	0.037400	0.394600	0.851000
C35001	C3500	0.051770	0.420380	0.862980
C35011	C3501	0.052760	0.432120	0.880860
H21541	H2154	0.062300	0.443300	0.881900
C35021	C3502	0.039810	0.427510	0.897240
H21551	H2155	0.040400	0.435200	0.909800
C35031	C3503	0.025870	0.411380	0.894930
H21561	H2156	0.016400	0.408800	0.906000
C35041	C3504	0.998900	0.378100	0.825520
C35051	C3505	0.982470	0.332520	0.887800
H21571	H2157	0.993200	0.333500	0.897900
C35061	C3506	0.971060	0.315210	0.887260
H21581	H2158	0.973300	0.304500	0.897200
C35071	C3507	0.955610	0.312950	0.871790
H21591	H2159	0.947600	0.300600	0.870700
C35081	C3508	0.952560	0.329580	0.858270
C35091	C3509	0.965210	0.346960	0.860050
H21601	H2160	0.963400	0.357900	0.850300
C35101	C3510	0.936770	0.328610	0.842070
N13411	N1341	0.090030	0.385100	0.765610
N13421	N1342	0.145350	0.523090	0.863250
N13431	N1343	0.126720	0.482430	0.850680
N13441	N1344	0.090570	0.429080	0.813090
N13451	N1345	0.079770	0.438580	0.846580
N13461	N1346	0.061510	0.412460	0.827740
N13471	N1347	0.024880	0.399260	0.878270
N13481	N1348	0.979670	0.349160	0.874520
N13491	N1349	0.001020	0.377070	0.842970
N13501	N1350	0.936870	0.343430	0.827510
S2691	S269	0.172570	0.540170	0.834350
S2701	S270	0.996410	0.379210	0.799750
C35111	C3511	0.089900	0.898340	0.281780
H21611	H2161	0.102400	0.905700	0.284900
C35121	C3512	0.072730	0.901890	0.294170
C35131	C3513	0.054370	0.891830	0.289510
H21621	H2162	0.042400	0.893400	0.298100
C35141	C3514	0.053830	0.879380	0.272020
H21631	H2163	0.041100	0.873300	0.267600
C35151	C3515	0.071710	0.875780	0.260990
H21641	H2164	0.071200	0.866300	0.249600
C35161	C3516	0.156580	0.031000	0.351510
C35171	C3517	0.140670	0.983270	0.335160
H21651	H2165	0.151200	0.993600	0.336000
C35181	C3518	0.140770	0.970410	0.318300
H21661	H2166	0.151500	0.971300	0.308200
C35191	C3519	0.124950	0.956110	0.316240
H21671	H2167	0.124500	0.946900	0.304700
C35201	C3520	0.109540	0.955460	0.331540
C35211	C3521	0.111150	0.968850	0.348010
H21681	H2168	0.100500	0.968500	0.358200
C35221	C3522	0.092070	0.940170	0.330040
C35231	C3523	0.064780	0.924300	0.345030
C35241	C3524	0.074740	0.915370	0.312530
C35251	C3525	0.037640	0.903410	0.362830
H21691	H2169	0.037400	0.894600	0.351000
C35261	C3526	0.051770	0.920380	0.362980
C35271	C3527	0.052760	0.932120	0.380860
H21701	H2170	0.062300	0.943300	0.381900
C35281	C3528	0.039810	0.927510	0.397240
H21711	H2171	0.040400	0.935200	0.409800
C35291	C3529	0.025870	0.911380	0.394930
H21721	H2172	0.016400	0.908800	0.406000
C35301	C3530	0.998900	0.878100	0.325520
C35311	C3531	0.982470	0.832520	0.387800
H21731	H2173	0.993200	0.833500	0.397900
C35321	C3532	0.971060	0.815210	0.387260
H21741	H2174	0.973300	0.804500	0.397200
C35331	C3533	0.955610	0.812950	0.371790
H21751	H2175	0.947600	0.800600	0.370700
C35341	C3534	0.952560	0.829580	0.358270
C35351	C3535	0.965210	0.846960	0.360050
H21761	H2176	0.963400	0.857900	0.350300
C35361	C3536	0.936770	0.828610	0.342070
N13511	N1351	0.090030	0.885100	0.265610
N13521	N1352	0.145350	0.023090	0.363250
N13531	N1353	0.126720	0.982430	0.350680
N13541	N1354	0.090570	0.929080	0.313090
N13551	N1355	0.079770	0.938580	0.346580
N13561	N1356	0.061510	0.912460	0.327740
N13571	N1357	0.024880	0.899260	0.378270
N13581	N1358	0.979670	0.849160	0.374520
N13591	N1359	0.001020	0.877070	0.342970
N13601	N1360	0.936870	0.843430	0.327510
S2711	S271	0.172570	0.040170	0.334350
S2721	S272	0.996410	0.879210	0.299750
C35371	C3537	0.160100	0.851660	0.781780
H21771	H2177	0.147600	0.844300	0.784900
C35381	C3538	0.177270	0.848110	0.794170
C35391	C3539	0.195630	0.858170	0.789510
H21781	H2178	0.207600	0.856600	0.798100
C35401	C3540	0.196170	0.870620	0.772020
H21791	H2179	0.208900	0.876700	0.767600
C35411	C3541	0.178290	0.874220	0.760990
H21801	H2180	0.178800	0.883700	0.749600
C35421	C3542	0.093420	0.719000	0.851510
C35431	C3543	0.109330	0.766730	0.835160
H21811	H2181	0.098800	0.756400	0.836000
C35441	C3544	0.109230	0.779590	0.818300
H21821	H2182	0.098500	0.778700	0.808200
C35451	C3545	0.125050	0.793890	0.816240
H21831	H2183	0.125500	0.803100	0.804700
C35461	C3546	0.140460	0.794540	0.831540
C35471	C3547	0.138850	0.781150	0.848010
H21841	H2184	0.149500	0.781500	0.858200
C35481	C3548	0.157930	0.809830	0.830040
C35491	C3549	0.185220	0.825700	0.845030
C35501	C3550	0.175260	0.834630	0.812530
C35511	C3551	0.212360	0.846590	0.862830
H21851	H2185	0.212600	0.855400	0.851000
C35521	C3552	0.198230	0.829620	0.862980
C35531	C3553	0.197240	0.817880	0.880860
H21861	H2186	0.187700	0.806700	0.881900
C35541	C3554	0.210190	0.822490	0.897240
H21871	H2187	0.209600	0.814800	0.909800
C35551	C3555	0.224130	0.838620	0.894930
H21881	H2188	0.233600	0.841200	0.906000
C35561	C3556	0.251100	0.871900	0.825520
C35571	C3557	0.267530	0.917480	0.887800
H21891	H2189	0.256800	0.916500	0.897900
C35581	C3558	0.278940	0.934790	0.887260
H21901	H2190	0.276700	0.945500	0.897200
C35591	C3559	0.294390	0.937050	0.871790
H21911	H2191	0.302400	0.949400	0.870700
C35601	C3560	0.297440	0.920420	0.858270
C35611	C3561	0.284790	0.903040	0.860050
H21921	H2192	0.286600	0.892100	0.850300
C35621	C3562	0.313230	0.921390	0.842070
N13611	N1361	0.159970	0.864900	0.765610
N13621	N1362	0.104650	0.726910	0.863250
N13631	N1363	0.123280	0.767570	0.850680
N13641	N1364	0.159430	0.820920	0.813090
N13651	N1365	0.170230	0.811420	0.846580
N13661	N1366	0.188490	0.837540	0.827740
N13671	N1367	0.225120	0.850740	0.878270
N13681	N1368	0.270330	0.900840	0.874520
N13691	N1369	0.248980	0.872930	0.842970
N13701	N1370	0.313130	0.906570	0.827510
S2731	S273	0.077430	0.709830	0.834350
S2741	S274	0.253590	0.870790	0.799750
C35631	C3563	0.160100	0.351660	0.281780
H21931	H2193	0.147600	0.344300	0.284900
C35641	C3564	0.177270	0.348110	0.294170
C35651	C3565	0.195630	0.358170	0.289510
H21941	H2194	0.207600	0.356600	0.298100
C35661	C3566	0.196170	0.370620	0.272020
H21951	H2195	0.208900	0.376700	0.267600
C35671	C3567	0.178290	0.374220	0.260990
H21961	H2196	0.178800	0.383700	0.249600
C35681	C3568	0.093420	0.219000	0.351510
C35691	C3569	0.109330	0.266730	0.335160
H21971	H2197	0.098800	0.256400	0.336000
C35701	C3570	0.109230	0.279590	0.318300
H21981	H2198	0.098500	0.278700	0.308200
C35711	C3571	0.125050	0.293890	0.316240
H21991	H2199	0.125500	0.303100	0.304700
C35721	C3572	0.140460	0.294540	0.331540
C35731	C3573	0.138850	0.281150	0.348010
H22001	H2200	0.149500	0.281500	0.358200
C35741	C3574	0.157930	0.309830	0.330040
C35751	C3575	0.185220	0.325700	0.345030
C35761	C3576	0.175260	0.334630	0.312530
C35771	C3577	0.212360	0.346590	0.362830
H22011	H2201	0.212600	0.355400	0.351000
C35781	C3578	0.198230	0.329620	0.362980
C35791	C3579	0.197240	0.317880	0.380860
H22021	H2202	0.187700	0.306700	0.381900
C35801	C3580	0.210190	0.322490	0.397240
H22031	H2203	0.209600	0.314800	0.409800
C35811	C3581	0.224130	0.338620	0.394930
H22041	H2204	0.233600	0.341200	0.406000
C35821	C3582	0.251100	0.371900	0.325520
C35831	C3583	0.267530	0.417480	0.387800
H22051	H2205	0.256800	0.416500	0.397900
C35841	C3584	0.278940	0.434790	0.387260
H22061	H2206	0.276700	0.445500	0.397200
C35851	C3585	0.294390	0.437050	0.371790
H22071	H2207	0.302400	0.449400	0.370700
C35861	C3586	0.297440	0.420420	0.358270
C35871	C3587	0.284790	0.403040	0.360050
H22081	H2208	0.286600	0.392100	0.350300
C35881	C3588	0.313230	0.421390	0.342070
N13711	N1371	0.159970	0.364900	0.265610
N13721	N1372	0.104650	0.226910	0.363250
N13731	N1373	0.123280	0.267570	0.350680
N13741	N1374	0.159430	0.320920	0.313090
N13751	N1375	0.170230	0.311420	0.346580
N13761	N1376	0.188490	0.337540	0.327740
N13771	N1377	0.225120	0.350740	0.378270
N13781	N1378	0.270330	0.400840	0.374520
N13791	N1379	0.248980	0.372930	0.342970
N13801	N1380	0.313130	0.406570	0.327510
S2751	S275	0.077430	0.209830	0.334350
S2761	S276	0.253590	0.370790	0.299750
C35891	C3589	0.660100	0.851660	0.281780
H22091	H2209	0.647600	0.844300	0.284900
C35901	C3590	0.677270	0.848110	0.294170
C35911	C3591	0.695630	0.858170	0.289510
H22101	H2210	0.707600	0.856600	0.298100
C35921	C3592	0.696170	0.870620	0.272020
H22111	H2211	0.708900	0.876700	0.267600
C35931	C3593	0.678290	0.874220	0.260990
H22121	H2212	0.678800	0.883700	0.249600
C35941	C3594	0.593420	0.719000	0.351510
C35951	C3595	0.609330	0.766730	0.335160
H22131	H2213	0.598800	0.756400	0.336000
C35961	C3596	0.609230	0.779590	0.318300
H22141	H2214	0.598500	0.778700	0.308200
C35971	C3597	0.625050	0.793890	0.316240
H22151	H2215	0.625500	0.803100	0.304700
C35981	C3598	0.640460	0.794540	0.331540
C35991	C3599	0.638850	0.781150	0.348010
H22161	H2216	0.649500	0.781500	0.358200
C36001	C3600	0.657930	0.809830	0.330040
C36011	C3601	0.685220	0.825700	0.345030
C36021	C3602	0.675260	0.834630	0.312530
C36031	C3603	0.712360	0.846590	0.362830
H22171	H2217	0.712600	0.855400	0.351000
C36041	C3604	0.698230	0.829620	0.362980
C36051	C3605	0.697240	0.817880	0.380860
H22181	H2218	0.687700	0.806700	0.381900
C36061	C3606	0.710190	0.822490	0.397240
H22191	H2219	0.709600	0.814800	0.409800
C36071	C3607	0.724130	0.838620	0.394930
H22201	H2220	0.733600	0.841200	0.406000
C36081	C3608	0.751100	0.871900	0.325520
C36091	C3609	0.767530	0.917480	0.387800
H22211	H2221	0.756800	0.916500	0.397900
C36101	C3610	0.778940	0.934790	0.387260
H22221	H2222	0.776700	0.945500	0.397200
C36111	C3611	0.794390	0.937050	0.371790
H22231	H2223	0.802400	0.949400	0.370700
C36121	C3612	0.797440	0.920420	0.358270
C36131	C3613	0.784790	0.903040	0.360050
H22241	H2224	0.786600	0.892100	0.350300
C36141	C3614	0.813230	0.921390	0.342070
N13811	N1381	0.659970	0.864900	0.265610
N13821	N1382	0.604650	0.726910	0.363250
N13831	N1383	0.623280	0.767570	0.350680
N13841	N1384	0.659430	0.820920	0.313090
N13851	N1385	0.670230	0.811420	0.346580
N13861	N1386	0.688490	0.837540	0.327740
N13871	N1387	0.725120	0.850740	0.378270
N13881	N1388	0.770330	0.900840	0.374520
N13891	N1389	0.748980	0.872930	0.342970
N13901	N1390	0.813130	0.906570	0.327510
S2771	S277	0.577430	0.709830	0.334350
S2781	S278	0.753590	0.870790	0.299750
C36151	C3615	0.660100	0.351660	0.781780
H22251	H2225	0.647600	0.344300	0.784900
C36161	C3616	0.677270	0.348110	0.794170
C36171	C3617	0.695630	0.358170	0.789510
H22261	H2226	0.707600	0.356600	0.798100
C36181	C3618	0.696170	0.370620	0.772020
H22271	H2227	0.708900	0.376700	0.767600
C36191	C3619	0.678290	0.374220	0.760990
H22281	H2228	0.678800	0.383700	0.749600
C36201	C3620	0.593420	0.219000	0.851510
C36211	C3621	0.609330	0.266730	0.835160
H22291	H2229	0.598800	0.256400	0.836000
C36221	C3622	0.609230	0.279590	0.818300
H22301	H2230	0.598500	0.278700	0.808200
C36231	C3623	0.625050	0.293890	0.816240
H22311	H2231	0.625500	0.303100	0.804700
C36241	C3624	0.640460	0.294540	0.831540
C36251	C3625	0.638850	0.281150	0.848010
H22321	H2232	0.649500	0.281500	0.858200
C36261	C3626	0.657930	0.309830	0.830040
C36271	C3627	0.685220	0.325700	0.845030
C36281	C3628	0.675260	0.334630	0.812530
C36291	C3629	0.712360	0.346590	0.862830
H22331	H2233	0.712600	0.355400	0.851000
C36301	C3630	0.698230	0.329620	0.862980
C36311	C3631	0.697240	0.317880	0.880860
H22341	H2234	0.687700	0.306700	0.881900
C36321	C3632	0.710190	0.322490	0.897240
H22351	H2235	0.709600	0.314800	0.909800
C36331	C3633	0.724130	0.338620	0.894930
H22361	H2236	0.733600	0.341200	0.906000
C36341	C3634	0.751100	0.371900	0.825520
C36351	C3635	0.767530	0.417480	0.887800
H22371	H2237	0.756800	0.416500	0.897900
C36361	C3636	0.778940	0.434790	0.887260
H22381	H2238	0.776700	0.445500	0.897200
C36371	C3637	0.794390	0.437050	0.871790
H22391	H2239	0.802400	0.449400	0.870700
C36381	C3638	0.797440	0.420420	0.858270
C36391	C3639	0.784790	0.403040	0.860050
H22401	H2240	0.786600	0.392100	0.850300
C36401	C3640	0.813230	0.421390	0.842070
N13911	N1391	0.659970	0.364900	0.765610
N13921	N1392	0.604650	0.226910	0.863250
N13931	N1393	0.623280	0.267570	0.850680
N13941	N1394	0.659430	0.320920	0.813090
N13951	N1395	0.670230	0.311420	0.846580
N13961	N1396	0.688490	0.337540	0.827740
N13971	N1397	0.725120	0.350740	0.878270
N13981	N1398	0.770330	0.400840	0.874520
N13991	N1399	0.748980	0.372930	0.842970
N14001	N1400	0.813130	0.406570	0.827510
S2791	S279	0.577430	0.209830	0.834350
S2801	S280	0.753590	0.370790	0.799750
C36411	C3641	0.089900	0.351660	0.968220
H22411	H2241	0.102400	0.344300	0.965100
C36421	C3642	0.072730	0.348110	0.955830
C36431	C3643	0.054370	0.358170	0.960490
H22421	H2242	0.042400	0.356600	0.951900
C36441	C3644	0.053830	0.370620	0.977980
H22431	H2243	0.041100	0.376700	0.982400
C36451	C3645	0.071710	0.374220	0.989010
H22441	H2244	0.071200	0.383700	0.000400
C36461	C3646	0.156580	0.219000	0.898490
C36471	C3647	0.140670	0.266730	0.914840
H22451	H2245	0.151200	0.256400	0.914000
C36481	C3648	0.140770	0.279590	0.931700
H22461	H2246	0.151500	0.278700	0.941800
C36491	C3649	0.124950	0.293890	0.933760
H22471	H2247	0.124500	0.303100	0.945300
C36501	C3650	0.109540	0.294540	0.918460
C36511	C3651	0.111150	0.281150	0.901990
H22481	H2248	0.100500	0.281500	0.891800
C36521	C3652	0.092070	0.309830	0.919960
C36531	C3653	0.064780	0.325700	0.904970
C36541	C3654	0.074740	0.334630	0.937470
C36551	C3655	0.037640	0.346590	0.887170
H22491	H2249	0.037400	0.355400	0.899000
C36561	C3656	0.051770	0.329620	0.887020
C36571	C3657	0.052760	0.317880	0.869140
H22501	H2250	0.062300	0.306700	0.868100
C36581	C3658	0.039810	0.322490	0.852760
H22511	H2251	0.040400	0.314800	0.840200
C36591	C3659	0.025870	0.338620	0.855070
H22521	H2252	0.016400	0.341200	0.844000
C36601	C3660	0.998900	0.371900	0.924480
C36611	C3661	0.982470	0.417480	0.862200
H22531	H2253	0.993200	0.416500	0.852100
C36621	C3662	0.971060	0.434790	0.862740
H22541	H2254	0.973300	0.445500	0.852800
C36631	C3663	0.955610	0.437050	0.878210
H22551	H2255	0.947600	0.449400	0.879300
C36641	C3664	0.952560	0.420420	0.891730
C36651	C3665	0.965210	0.403040	0.889950
H22561	H2256	0.963400	0.392100	0.899700
C36661	C3666	0.936770	0.421390	0.907930
N14011	N1401	0.090030	0.364900	0.984390
N14021	N1402	0.145350	0.226910	0.886750
N14031	N1403	0.126720	0.267570	0.899320
N14041	N1404	0.090570	0.320920	0.936910
N14051	N1405	0.079770	0.311420	0.903420
N14061	N1406	0.061510	0.337540	0.922260
N14071	N1407	0.024880	0.350740	0.871730
N14081	N1408	0.979670	0.400840	0.875480
N14091	N1409	0.001020	0.372930	0.907030
N14101	N1410	0.936870	0.406570	0.922490
S2811	S281	0.172570	0.209830	0.915650
S2821	S282	0.996410	0.370790	0.950250
C36671	C3667	0.089900	0.851660	0.468220
H22571	H2257	0.102400	0.844300	0.465100
C36681	C3668	0.072730	0.848110	0.455830
C36691	C3669	0.054370	0.858170	0.460490
H22581	H2258	0.042400	0.856600	0.451900
C36701	C3670	0.053830	0.870620	0.477980
H22591	H2259	0.041100	0.876700	0.482400
C36711	C3671	0.071710	0.874220	0.489010
H22601	H2260	0.071200	0.883700	0.500400
C36721	C3672	0.156580	0.719000	0.398490
C36731	C3673	0.140670	0.766730	0.414840
H22611	H2261	0.151200	0.756400	0.414000
C36741	C3674	0.140770	0.779590	0.431700
H22621	H2262	0.151500	0.778700	0.441800
C36751	C3675	0.124950	0.793890	0.433760
H22631	H2263	0.124500	0.803100	0.445300
C36761	C3676	0.109540	0.794540	0.418460
C36771	C3677	0.111150	0.781150	0.401990
H22641	H2264	0.100500	0.781500	0.391800
C36781	C3678	0.092070	0.809830	0.419960
C36791	C3679	0.064780	0.825700	0.404970
C36801	C3680	0.074740	0.834630	0.437470
C36811	C3681	0.037640	0.846590	0.387170
H22651	H2265	0.037400	0.855400	0.399000
C36821	C3682	0.051770	0.829620	0.387020
C36831	C3683	0.052760	0.817880	0.369140
H22661	H2266	0.062300	0.806700	0.368100
C36841	C3684	0.039810	0.822490	0.352760
H22671	H2267	0.040400	0.814800	0.340200
C36851	C3685	0.025870	0.838620	0.355070
H22681	H2268	0.016400	0.841200	0.344000
C36861	C3686	0.998900	0.871900	0.424480
C36871	C3687	0.982470	0.917480	0.362200
H22691	H2269	0.993200	0.916500	0.352100
C36881	C3688	0.971060	0.934790	0.362740
H22701	H2270	0.973300	0.945500	0.352800
C36891	C3689	0.955610	0.937050	0.378210
H22711	H2271	0.947600	0.949400	0.379300
C36901	C3690	0.952560	0.920420	0.391730
C36911	C3691	0.965210	0.903040	0.389950
H22721	H2272	0.963400	0.892100	0.399700
C36921	C3692	0.936770	0.921390	0.407930
N14111	N1411	0.090030	0.864900	0.484390
N14121	N1412	0.145350	0.726910	0.386750
N14131	N1413	0.126720	0.767570	0.399320
N14141	N1414	0.090570	0.820920	0.436910
N14151	N1415	0.079770	0.811420	0.403420
N14161	N1416	0.061510	0.837540	0.422260
N14171	N1417	0.024880	0.850740	0.371730
N14181	N1418	0.979670	0.900840	0.375480
N14191	N1419	0.001020	0.872930	0.407030
N14201	N1420	0.936870	0.906570	0.422490
S2831	S283	0.172570	0.709830	0.415650
S2841	S284	0.996410	0.870790	0.450250
C36931	C3693	0.589900	0.351660	0.468220
H22731	H2273	0.602400	0.344300	0.465100
C36941	C3694	0.572730	0.348110	0.455830
C36951	C3695	0.554370	0.358170	0.460490
H22741	H2274	0.542400	0.356600	0.451900
C36961	C3696	0.553830	0.370620	0.477980
H22751	H2275	0.541100	0.376700	0.482400
C36971	C3697	0.571710	0.374220	0.489010
H22761	H2276	0.571200	0.383700	0.500400
C36981	C3698	0.656580	0.219000	0.398490
C36991	C3699	0.640670	0.266730	0.414840
H22771	H2277	0.651200	0.256400	0.414000
C37001	C3700	0.640770	0.279590	0.431700
H22781	H2278	0.651500	0.278700	0.441800
C37011	C3701	0.624950	0.293890	0.433760
H22791	H2279	0.624500	0.303100	0.445300
C37021	C3702	0.609540	0.294540	0.418460
C37031	C3703	0.611150	0.281150	0.401990
H22801	H2280	0.600500	0.281500	0.391800
C37041	C3704	0.592070	0.309830	0.419960
C37051	C3705	0.564780	0.325700	0.404970
C37061	C3706	0.574740	0.334630	0.437470
C37071	C3707	0.537640	0.346590	0.387170
H22811	H2281	0.537400	0.355400	0.399000
C37081	C3708	0.551770	0.329620	0.387020
C37091	C3709	0.552760	0.317880	0.369140
H22821	H2282	0.562300	0.306700	0.368100
C37101	C3710	0.539810	0.322490	0.352760
H22831	H2283	0.540400	0.314800	0.340200
C37111	C3711	0.525870	0.338620	0.355070
H22841	H2284	0.516400	0.341200	0.344000
C37121	C3712	0.498900	0.371900	0.424480
C37131	C3713	0.482470	0.417480	0.362200
H22851	H2285	0.493200	0.416500	0.352100
C37141	C3714	0.471060	0.434790	0.362740
H22861	H2286	0.473300	0.445500	0.352800
C37151	C3715	0.455610	0.437050	0.378210
H22871	H2287	0.447600	0.449400	0.379300
C37161	C3716	0.452560	0.420420	0.391730
C37171	C3717	0.465210	0.403040	0.389950
H22881	H2288	0.463400	0.392100	0.399700
C37181	C3718	0.436770	0.421390	0.407930
N14211	N1421	0.590030	0.364900	0.484390
N14221	N1422	0.645350	0.226910	0.386750
N14231	N1423	0.626720	0.267570	0.399320
N14241	N1424	0.590570	0.320920	0.436910
N14251	N1425	0.579770	0.311420	0.403420
N14261	N1426	0.561510	0.337540	0.422260
N14271	N1427	0.524880	0.350740	0.371730
N14281	N1428	0.479670	0.400840	0.375480
N14291	N1429	0.501020	0.372930	0.407030
N14301	N1430	0.436870	0.406570	0.422490
S2851	S285	0.672570	0.209830	0.415650
S2861	S286	0.496410	0.370790	0.450250
C37191	C3719	0.589900	0.851660	0.968220
H22891	H2289	0.602400	0.844300	0.965100
C37201	C3720	0.572730	0.848110	0.955830
C37211	C3721	0.554370	0.858170	0.960490
H22901	H2290	0.542400	0.856600	0.951900
C37221	C3722	0.553830	0.870620	0.977980
H22911	H2291	0.541100	0.876700	0.982400
C37231	C3723	0.571710	0.874220	0.989010
H22921	H2292	0.571200	0.883700	0.000400
C37241	C3724	0.656580	0.719000	0.898490
C37251	C3725	0.640670	0.766730	0.914840
H22931	H2293	0.651200	0.756400	0.914000
C37261	C3726	0.640770	0.779590	0.931700
H22941	H2294	0.651500	0.778700	0.941800
C37271	C3727	0.624950	0.793890	0.933760
H22951	H2295	0.624500	0.803100	0.945300
C37281	C3728	0.609540	0.794540	0.918460
C37291	C3729	0.611150	0.781150	0.901990
H22961	H2296	0.600500	0.781500	0.891800
C37301	C3730	0.592070	0.809830	0.919960
C37311	C3731	0.564780	0.825700	0.904970
C37321	C3732	0.574740	0.834630	0.937470
C37331	C3733	0.537640	0.846590	0.887170
H22971	H2297	0.537400	0.855400	0.899000
C37341	C3734	0.551770	0.829620	0.887020
C37351	C3735	0.552760	0.817880	0.869140
H22981	H2298	0.562300	0.806700	0.868100
C37361	C3736	0.539810	0.822490	0.852760
H22991	H2299	0.540400	0.814800	0.840200
C37371	C3737	0.525870	0.838620	0.855070
H23001	H2300	0.516400	0.841200	0.844000
C37381	C3738	0.498900	0.871900	0.924480
C37391	C3739	0.482470	0.917480	0.862200
H23011	H2301	0.493200	0.916500	0.852100
C37401	C3740	0.471060	0.934790	0.862740
H23021	H2302	0.473300	0.945500	0.852800
C37411	C3741	0.455610	0.937050	0.878210
H23031	H2303	0.447600	0.949400	0.879300
C37421	C3742	0.452560	0.920420	0.891730
C37431	C3743	0.465210	0.903040	0.889950
H23041	H2304	0.463400	0.892100	0.899700
C37441	C3744	0.436770	0.921390	0.907930
N14311	N1431	0.590030	0.864900	0.984390
N14321	N1432	0.645350	0.726910	0.886750
N14331	N1433	0.626720	0.767570	0.899320
N14341	N1434	0.590570	0.820920	0.936910
N14351	N1435	0.579770	0.811420	0.903420
N14361	N1436	0.561510	0.837540	0.922260
N14371	N1437	0.524880	0.850740	0.871730
N14381	N1438	0.479670	0.900840	0.875480
N14391	N1439	0.501020	0.872930	0.907030
N14401	N1440	0.436870	0.906570	0.922490
S2871	S287	0.672570	0.709830	0.915650
S2881	S288	0.496410	0.870790	0.950250
C37451	C3745	0.910100	0.218220	0.101660
H23051	H2305	0.897600	0.215100	0.094300
C37461	C3746	0.927270	0.205830	0.098110
C37471	C3747	0.945630	0.210490	0.108170
H23061	H2306	0.957600	0.201900	0.106600
C37481	C3748	0.946170	0.227980	0.120620
H23071	H2307	0.958900	0.232400	0.126700
C37491	C3749	0.928290	0.239010	0.124220
H23081	H2308	0.928800	0.250400	0.133700
C37501	C3750	0.843420	0.148490	0.969000
C37511	C3751	0.859330	0.164840	0.016730
H23091	H2309	0.848800	0.164000	0.006400
C37521	C3752	0.859230	0.181700	0.029590
H23101	H2310	0.848500	0.191800	0.028700
C37531	C3753	0.875050	0.183760	0.043890
H23111	H2311	0.875500	0.195300	0.053100
C37541	C3754	0.890460	0.168460	0.044540
C37551	C3755	0.888850	0.151990	0.031150
H23121	H2312	0.899500	0.141800	0.031500
C37561	C3756	0.907930	0.169960	0.059830
C37571	C3757	0.935220	0.154970	0.075700
C37581	C3758	0.925260	0.187470	0.084630
C37591	C3759	0.962360	0.137170	0.096590
H23131	H2313	0.962600	0.149000	0.105400
C37601	C3760	0.948230	0.137020	0.079620
C37611	C3761	0.947240	0.119140	0.067880
H23141	H2314	0.937700	0.118100	0.056700
C37621	C3762	0.960190	0.102760	0.072490
H23151	H2315	0.959600	0.090200	0.064800
C37631	C3763	0.974130	0.105070	0.088620
H23161	H2316	0.983600	0.094000	0.091200
C37641	C3764	0.001100	0.174480	0.121900
C37651	C3765	0.017530	0.112200	0.167480
H23171	H2317	0.006800	0.102100	0.166500
C37661	C3766	0.028940	0.112740	0.184790
H23181	H2318	0.026700	0.102800	0.195500
C37671	C3767	0.044390	0.128210	0.187050
H23191	H2319	0.052400	0.129300	0.199400
C37681	C3768	0.047440	0.141730	0.170420
C37691	C3769	0.034790	0.139950	0.153040
H23201	H2320	0.036600	0.149700	0.142100
C37701	C3770	0.063230	0.157930	0.171390
N14411	N1441	0.909970	0.234390	0.114900
N14421	N1442	0.854650	0.136750	0.976910
N14431	N1443	0.873280	0.149320	0.017570
N14441	N1444	0.909430	0.186910	0.070920
N14451	N1445	0.920230	0.153420	0.061420
N14461	N1446	0.938490	0.172260	0.087540
N14471	N1447	0.975120	0.121730	0.100740
N14481	N1448	0.020330	0.125480	0.150840
N14491	N1449	0.998980	0.157030	0.122930
N14501	N1450	0.063130	0.172490	0.156570
S2891	S289	0.827430	0.165650	0.959830
S2901	S290	0.003590	0.200250	0.120790
C37711	C3771	0.910100	0.718220	0.601660
H23211	H2321	0.897600	0.715100	0.594300
C37721	C3772	0.927270	0.705830	0.598110
C37731	C3773	0.945630	0.710490	0.608170
H23221	H2322	0.957600	0.701900	0.606600
C37741	C3774	0.946170	0.727980	0.620620
H23231	H2323	0.958900	0.732400	0.626700
C37751	C3775	0.928290	0.739010	0.624220
H23241	H2324	0.928800	0.750400	0.633700
C37761	C3776	0.843420	0.648490	0.469000
C37771	C3777	0.859330	0.664840	0.516730
H23251	H2325	0.848800	0.664000	0.506400
C37781	C3778	0.859230	0.681700	0.529590
H23261	H2326	0.848500	0.691800	0.528700
C37791	C3779	0.875050	0.683760	0.543890
H23271	H2327	0.875500	0.695300	0.553100
C37801	C3780	0.890460	0.668460	0.544540
C37811	C3781	0.888850	0.651990	0.531150
H23281	H2328	0.899500	0.641800	0.531500
C37821	C3782	0.907930	0.669960	0.559830
C37831	C3783	0.935220	0.654970	0.575700
C37841	C3784	0.925260	0.687470	0.584630
C37851	C3785	0.962360	0.637170	0.596590
H23291	H2329	0.962600	0.649000	0.605400
C37861	C3786	0.948230	0.637020	0.579620
C37871	C3787	0.947240	0.619140	0.567880
H23301	H2330	0.937700	0.618100	0.556700
C37881	C3788	0.960190	0.602760	0.572490
H23311	H2331	0.959600	0.590200	0.564800
C37891	C3789	0.974130	0.605070	0.588620
H23321	H2332	0.983600	0.594000	0.591200
C37901	C3790	0.001100	0.674480	0.621900
C37911	C3791	0.017530	0.612200	0.667480
H23331	H2333	0.006800	0.602100	0.666500
C37921	C3792	0.028940	0.612740	0.684790
H23341	H2334	0.026700	0.602800	0.695500
C37931	C3793	0.044390	0.628210	0.687050
H23351	H2335	0.052400	0.629300	0.699400
C37941	C3794	0.047440	0.641730	0.670420
C37951	C3795	0.034790	0.639950	0.653040
H23361	H2336	0.036600	0.649700	0.642100
C37961	C3796	0.063230	0.657930	0.671390
N14511	N1451	0.909970	0.734390	0.614900
N14521	N1452	0.854650	0.636750	0.476910
N14531	N1453	0.873280	0.649320	0.517570
N14541	N1454	0.909430	0.686910	0.570920
N14551	N1455	0.920230	0.653420	0.561420
N14561	N1456	0.938490	0.672260	0.587540
N14571	N1457	0.975120	0.621730	0.600740
N14581	N1458	0.020330	0.625480	0.650840
N14591	N1459	0.998980	0.657030	0.622930
N14601	N1460	0.063130	0.672490	0.656570
S2911	S291	0.827430	0.665650	0.459830
S2921	S292	0.003590	0.700250	0.620790
C37971	C3797	0.410100	0.218220	0.601660
H23371	H2337	0.397600	0.215100	0.594300
C37981	C3798	0.427270	0.205830	0.598110
C37991	C3799	0.445630	0.210490	0.608170
H23381	H2338	0.457600	0.201900	0.606600
C38001	C3800	0.446170	0.227980	0.620620
H23391	H2339	0.458900	0.232400	0.626700
C38011	C3801	0.428290	0.239010	0.624220
H23401	H2340	0.428800	0.250400	0.633700
C38021	C3802	0.343420	0.148490	0.469000
C38031	C3803	0.359330	0.164840	0.516730
H23411	H2341	0.348800	0.164000	0.506400
C38041	C3804	0.359230	0.181700	0.529590
H23421	H2342	0.348500	0.191800	0.528700
C38051	C3805	0.375050	0.183760	0.543890
H23431	H2343	0.375500	0.195300	0.553100
C38061	C3806	0.390460	0.168460	0.544540
C38071	C3807	0.388850	0.151990	0.531150
H23441	H2344	0.399500	0.141800	0.531500
C38081	C3808	0.407930	0.169960	0.559830
C38091	C3809	0.435220	0.154970	0.575700
C38101	C3810	0.425260	0.187470	0.584630
C38111	C3811	0.462360	0.137170	0.596590
H23451	H2345	0.462600	0.149000	0.605400
C38121	C3812	0.448230	0.137020	0.579620
C38131	C3813	0.447240	0.119140	0.567880
H23461	H2346	0.437700	0.118100	0.556700
C38141	C3814	0.460190	0.102760	0.572490
H23471	H2347	0.459600	0.090200	0.564800
C38151	C3815	0.474130	0.105070	0.588620
H23481	H2348	0.483600	0.094000	0.591200
C38161	C3816	0.501100	0.174480	0.621900
C38171	C3817	0.517530	0.112200	0.667480
H23491	H2349	0.506800	0.102100	0.666500
C38181	C3818	0.528940	0.112740	0.684790
H23501	H2350	0.526700	0.102800	0.695500
C38191	C3819	0.544390	0.128210	0.687050
H23511	H2351	0.552400	0.129300	0.699400
C38201	C3820	0.547440	0.141730	0.670420
C38211	C3821	0.534790	0.139950	0.653040
H23521	H2352	0.536600	0.149700	0.642100
C38221	C3822	0.563230	0.157930	0.671390
N14611	N1461	0.409970	0.234390	0.614900
N14621	N1462	0.354650	0.136750	0.476910
N14631	N1463	0.373280	0.149320	0.517570
N14641	N1464	0.409430	0.186910	0.570920
N14651	N1465	0.420230	0.153420	0.561420
N14661	N1466	0.438490	0.172260	0.587540
N14671	N1467	0.475120	0.121730	0.600740
N14681	N1468	0.520330	0.125480	0.650840
N14691	N1469	0.498980	0.157030	0.622930
N14701	N1470	0.563130	0.172490	0.656570
S2931	S293	0.327430	0.165650	0.459830
S2941	S294	0.503590	0.200250	0.620790
C38231	C3823	0.410100	0.718220	0.101660
H23531	H2353	0.397600	0.715100	0.094300
C38241	C3824	0.427270	0.705830	0.098110
C38251	C3825	0.445630	0.710490	0.108170
H23541	H2354	0.457600	0.701900	0.106600
C38261	C3826	0.446170	0.727980	0.120620
H23551	H2355	0.458900	0.732400	0.126700
C38271	C3827	0.428290	0.739010	0.124220
H23561	H2356	0.428800	0.750400	0.133700
C38281	C3828	0.343420	0.648490	0.969000
C38291	C3829	0.359330	0.664840	0.016730
H23571	H2357	0.348800	0.664000	0.006400
C38301	C3830	0.359230	0.681700	0.029590
H23581	H2358	0.348500	0.691800	0.028700
C38311	C3831	0.375050	0.683760	0.043890
H23591	H2359	0.375500	0.695300	0.053100
C38321	C3832	0.390460	0.668460	0.044540
C38331	C3833	0.388850	0.651990	0.031150
H23601	H2360	0.399500	0.641800	0.031500
C38341	C3834	0.407930	0.669960	0.059830
C38351	C3835	0.435220	0.654970	0.075700
C38361	C3836	0.425260	0.687470	0.084630
C38371	C3837	0.462360	0.637170	0.096590
H23611	H2361	0.462600	0.649000	0.105400
C38381	C3838	0.448230	0.637020	0.079620
C38391	C3839	0.447240	0.619140	0.067880
H23621	H2362	0.437700	0.618100	0.056700
C38401	C3840	0.460190	0.602760	0.072490
H23631	H2363	0.459600	0.590200	0.064800
C38411	C3841	0.474130	0.605070	0.088620
H23641	H2364	0.483600	0.594000	0.091200
C38421	C3842	0.501100	0.674480	0.121900
C38431	C3843	0.517530	0.612200	0.167480
H23651	H2365	0.506800	0.602100	0.166500
C38441	C3844	0.528940	0.612740	0.184790
H23661	H2366	0.526700	0.602800	0.195500
C38451	C3845	0.544390	0.628210	0.187050
H23671	H2367	0.552400	0.629300	0.199400
C38461	C3846	0.547440	0.641730	0.170420
C38471	C3847	0.534790	0.639950	0.153040
H23681	H2368	0.536600	0.649700	0.142100
C38481	C3848	0.563230	0.657930	0.171390
N14711	N1471	0.409970	0.734390	0.114900
N14721	N1472	0.354650	0.636750	0.976910
N14731	N1473	0.373280	0.649320	0.017570
N14741	N1474	0.409430	0.686910	0.070920
N14751	N1475	0.420230	0.653420	0.061420
N14761	N1476	0.438490	0.672260	0.087540
N14771	N1477	0.475120	0.621730	0.100740
N14781	N1478	0.520330	0.625480	0.150840
N14791	N1479	0.498980	0.657030	0.122930
N14801	N1480	0.563130	0.672490	0.156570
S2951	S295	0.327430	0.665650	0.959830
S2961	S296	0.503590	0.700250	0.120790
C38491	C3849	0.839900	0.031780	0.601660
H23691	H2369	0.852400	0.034900	0.594300
C38501	C3850	0.822730	0.044170	0.598110
C38511	C3851	0.804370	0.039510	0.608170
H23701	H2370	0.792400	0.048100	0.606600
C38521	C3852	0.803830	0.022020	0.620620
H23711	H2371	0.791100	0.017600	0.626700
C38531	C3853	0.821710	0.010990	0.624220
H23721	H2372	0.821200	0.999600	0.633700
C38541	C3854	0.906580	0.101510	0.469000
C38551	C3855	0.890670	0.085160	0.516730
H23731	H2373	0.901200	0.086000	0.506400
C38561	C3856	0.890770	0.068300	0.529590
H23741	H2374	0.901500	0.058200	0.528700
C38571	C3857	0.874950	0.066240	0.543890
H23751	H2375	0.874500	0.054700	0.553100
C38581	C3858	0.859540	0.081540	0.544540
C38591	C3859	0.861150	0.098010	0.531150
H23761	H2376	0.850500	0.108200	0.531500
C38601	C3860	0.842070	0.080040	0.559830
C38611	C3861	0.814780	0.095030	0.575700
C38621	C3862	0.824740	0.062530	0.584630
C38631	C3863	0.787640	0.112830	0.596590
H23771	H2377	0.787400	0.101000	0.605400
C38641	C3864	0.801770	0.112980	0.579620
C38651	C3865	0.802760	0.130860	0.567880
H23781	H2378	0.812300	0.131900	0.556700
C38661	C3866	0.789810	0.147240	0.572490
H23791	H2379	0.790400	0.159800	0.564800
C38671	C3867	0.775870	0.144930	0.588620
H23801	H2380	0.766400	0.156000	0.591200
C38681	C3868	0.748900	0.075520	0.621900
C38691	C3869	0.732470	0.137800	0.667480
H23811	H2381	0.743200	0.147900	0.666500
C38701	C3870	0.721060	0.137260	0.684790
H23821	H2382	0.723300	0.147200	0.695500
C38711	C3871	0.705610	0.121790	0.687050
H23831	H2383	0.697600	0.120700	0.699400
C38721	C3872	0.702560	0.108270	0.670420
C38731	C3873	0.715210	0.110050	0.653040
H23841	H2384	0.713400	0.100300	0.642100
C38741	C3874	0.686770	0.092070	0.671390
N14811	N1481	0.840030	0.015610	0.614900
N14821	N1482	0.895350	0.113250	0.476910
N14831	N1483	0.876720	0.100680	0.517570
N14841	N1484	0.840570	0.063090	0.570920
N14851	N1485	0.829770	0.096580	0.561420
N14861	N1486	0.811510	0.077740	0.587540
N14871	N1487	0.774880	0.128270	0.600740
N14881	N1488	0.729670	0.124520	0.650840
N14891	N1489	0.751020	0.092970	0.622930
N14901	N1490	0.686870	0.077510	0.656570
S2971	S297	0.922570	0.084350	0.459830
S2981	S298	0.746410	0.049750	0.620790
C38751	C3875	0.839900	0.531780	0.101660
H23851	H2385	0.852400	0.534900	0.094300
C38761	C3876	0.822730	0.544170	0.098110
C38771	C3877	0.804370	0.539510	0.108170
H23861	H2386	0.792400	0.548100	0.106600
C38781	C3878	0.803830	0.522020	0.120620
H23871	H2387	0.791100	0.517600	0.126700
C38791	C3879	0.821710	0.510990	0.124220
H23881	H2388	0.821200	0.499600	0.133700
C38801	C3880	0.906580	0.601510	0.969000
C38811	C3881	0.890670	0.585160	0.016730
H23891	H2389	0.901200	0.586000	0.006400
C38821	C3882	0.890770	0.568300	0.029590
H23901	H2390	0.901500	0.558200	0.028700
C38831	C3883	0.874950	0.566240	0.043890
H23911	H2391	0.874500	0.554700	0.053100
C38841	C3884	0.859540	0.581540	0.044540
C38851	C3885	0.861150	0.598010	0.031150
H23921	H2392	0.850500	0.608200	0.031500
C38861	C3886	0.842070	0.580040	0.059830
C38871	C3887	0.814780	0.595030	0.075700
C38881	C3888	0.824740	0.562530	0.084630
C38891	C3889	0.787640	0.612830	0.096590
H23931	H2393	0.787400	0.601000	0.105400
C38901	C3890	0.801770	0.612980	0.079620
C38911	C3891	0.802760	0.630860	0.067880
H23941	H2394	0.812300	0.631900	0.056700
C38921	C3892	0.789810	0.647240	0.072490
H23951	H2395	0.790400	0.659800	0.064800
C38931	C3893	0.775870	0.644930	0.088620
H23961	H2396	0.766400	0.656000	0.091200
C38941	C3894	0.748900	0.575520	0.121900
C38951	C3895	0.732470	0.637800	0.167480
H23971	H2397	0.743200	0.647900	0.166500
C38961	C3896	0.721060	0.637260	0.184790
H23981	H2398	0.723300	0.647200	0.195500
C38971	C3897	0.705610	0.621790	0.187050
H23991	H2399	0.697600	0.620700	0.199400
C38981	C3898	0.702560	0.608270	0.170420
C38991	C3899	0.715210	0.610050	0.153040
H24001	H2400	0.713400	0.600300	0.142100
C39001	C3900	0.686770	0.592070	0.171390
N14911	N1491	0.840030	0.515610	0.114900
N14921	N1492	0.895350	0.613250	0.976910
N14931	N1493	0.876720	0.600680	0.017570
N14941	N1494	0.840570	0.563090	0.070920
N14951	N1495	0.829770	0.596580	0.061420
N14961	N1496	0.811510	0.577740	0.087540
N14971	N1497	0.774880	0.628270	0.100740
N14981	N1498	0.729670	0.624520	0.150840
N14991	N1499	0.751020	0.592970	0.122930
N15001	N1500	0.686870	0.577510	0.156570
S2991	S299	0.922570	0.584350	0.959830
S3001	S300	0.746410	0.549750	0.120790
C39011	C3901	0.339900	0.031780	0.101660
H24011	H2401	0.352400	0.034900	0.094300
C39021	C3902	0.322730	0.044170	0.098110
C39031	C3903	0.304370	0.039510	0.108170
H24021	H2402	0.292400	0.048100	0.106600
C39041	C3904	0.303830	0.022020	0.120620
H24031	H2403	0.291100	0.017600	0.126700
C39051	C3905	0.321710	0.010990	0.124220
H24041	H2404	0.321200	0.999600	0.133700
C39061	C3906	0.406580	0.101510	0.969000
C39071	C3907	0.390670	0.085160	0.016730
H24051	H2405	0.401200	0.086000	0.006400
C39081	C3908	0.390770	0.068300	0.029590
H24061	H2406	0.401500	0.058200	0.028700
C39091	C3909	0.374950	0.066240	0.043890
H24071	H2407	0.374500	0.054700	0.053100
C39101	C3910	0.359540	0.081540	0.044540
C39111	C3911	0.361150	0.098010	0.031150
H24081	H2408	0.350500	0.108200	0.031500
C39121	C3912	0.342070	0.080040	0.059830
C39131	C3913	0.314780	0.095030	0.075700
C39141	C3914	0.324740	0.062530	0.084630
C39151	C3915	0.287640	0.112830	0.096590
H24091	H2409	0.287400	0.101000	0.105400
C39161	C3916	0.301770	0.112980	0.079620
C39171	C3917	0.302760	0.130860	0.067880
H24101	H2410	0.312300	0.131900	0.056700
C39181	C3918	0.289810	0.147240	0.072490
H24111	H2411	0.290400	0.159800	0.064800
C39191	C3919	0.275870	0.144930	0.088620
H24121	H2412	0.266400	0.156000	0.091200
C39201	C3920	0.248900	0.075520	0.121900
C39211	C3921	0.232470	0.137800	0.167480
H24131	H2413	0.243200	0.147900	0.166500
C39221	C3922	0.221060	0.137260	0.184790
H24141	H2414	0.223300	0.147200	0.195500
C39231	C3923	0.205610	0.121790	0.187050
H24151	H2415	0.197600	0.120700	0.199400
C39241	C3924	0.202560	0.108270	0.170420
C39251	C3925	0.215210	0.110050	0.153040
H24161	H2416	0.213400	0.100300	0.142100
C39261	C3926	0.186770	0.092070	0.171390
N15011	N1501	0.340030	0.015610	0.114900
N15021	N1502	0.395350	0.113250	0.976910
N15031	N1503	0.376720	0.100680	0.017570
N15041	N1504	0.340570	0.063090	0.070920
N15051	N1505	0.329770	0.096580	0.061420
N15061	N1506	0.311510	0.077740	0.087540
N15071	N1507	0.274880	0.128270	0.100740
N15081	N1508	0.229670	0.124520	0.150840
N15091	N1509	0.251020	0.092970	0.122930
N15101	N1510	0.186870	0.077510	0.156570
S3011	S301	0.422570	0.084350	0.959830
S3021	S302	0.246410	0.049750	0.120790
C39271	C3927	0.339900	0.531780	0.601660
H24171	H2417	0.352400	0.534900	0.594300
C39281	C3928	0.322730	0.544170	0.598110
C39291	C3929	0.304370	0.539510	0.608170
H24181	H2418	0.292400	0.548100	0.606600
C39301	C3930	0.303830	0.522020	0.620620
H24191	H2419	0.291100	0.517600	0.626700
C39311	C3931	0.321710	0.510990	0.624220
H24201	H2420	0.321200	0.499600	0.633700
C39321	C3932	0.406580	0.601510	0.469000
C39331	C3933	0.390670	0.585160	0.516730
H24211	H2421	0.401200	0.586000	0.506400
C39341	C3934	0.390770	0.568300	0.529590
H24221	H2422	0.401500	0.558200	0.528700
C39351	C3935	0.374950	0.566240	0.543890
H24231	H2423	0.374500	0.554700	0.553100
C39361	C3936	0.359540	0.581540	0.544540
C39371	C3937	0.361150	0.598010	0.531150
H24241	H2424	0.350500	0.608200	0.531500
C39381	C3938	0.342070	0.580040	0.559830
C39391	C3939	0.314780	0.595030	0.575700
C39401	C3940	0.324740	0.562530	0.584630
C39411	C3941	0.287640	0.612830	0.596590
H24251	H2425	0.287400	0.601000	0.605400
C39421	C3942	0.301770	0.612980	0.579620
C39431	C3943	0.302760	0.630860	0.567880
H24261	H2426	0.312300	0.631900	0.556700
C39441	C3944	0.289810	0.647240	0.572490
H24271	H2427	0.290400	0.659800	0.564800
C39451	C3945	0.275870	0.644930	0.588620
H24281	H2428	0.266400	0.656000	0.591200
C39461	C3946	0.248900	0.575520	0.621900
C39471	C3947	0.232470	0.637800	0.667480
H24291	H2429	0.243200	0.647900	0.666500
C39481	C3948	0.221060	0.637260	0.684790
H24301	H2430	0.223300	0.647200	0.695500
C39491	C3949	0.205610	0.621790	0.687050
H24311	H2431	0.197600	0.620700	0.699400
C39501	C3950	0.202560	0.608270	0.670420
C39511	C3951	0.215210	0.610050	0.653040
H24321	H2432	0.213400	0.600300	0.642100
C39521	C3952	0.186770	0.592070	0.671390
N15111	N1511	0.340030	0.515610	0.614900
N15121	N1512	0.395350	0.613250	0.476910
N15131	N1513	0.376720	0.600680	0.517570
N15141	N1514	0.340570	0.563090	0.570920
N15151	N1515	0.329770	0.596580	0.561420
N15161	N1516	0.311510	0.577740	0.587540
N15171	N1517	0.274880	0.628270	0.600740
N15181	N1518	0.229670	0.624520	0.650840
N15191	N1519	0.251020	0.592970	0.622930
N15201	N1520	0.186870	0.577510	0.656570
S3031	S303	0.422570	0.584350	0.459830
S3041	S304	0.246410	0.549750	0.620790
C39531	C3953	0.410100	0.531780	0.148340
H24331	H2433	0.397600	0.534900	0.155700
C39541	C3954	0.427270	0.544170	0.151890
C39551	C3955	0.445630	0.539510	0.141830
H24341	H2434	0.457600	0.548100	0.143400
C39561	C3956	0.446170	0.522020	0.129380
H24351	H2435	0.458900	0.517600	0.123300
C39571	C3957	0.428290	0.510990	0.125780
H24361	H2436	0.428800	0.499600	0.116300
C39581	C3958	0.343420	0.601510	0.281000
C39591	C3959	0.359330	0.585160	0.233270
H24371	H2437	0.348800	0.586000	0.243600
C39601	C3960	0.359230	0.568300	0.220410
H24381	H2438	0.348500	0.558200	0.221300
C39611	C3961	0.375050	0.566240	0.206110
H24391	H2439	0.375500	0.554700	0.196900
C39621	C3962	0.390460	0.581540	0.205460
C39631	C3963	0.388850	0.598010	0.218850
H24401	H2440	0.399500	0.608200	0.218500
C39641	C3964	0.407930	0.580040	0.190170
C39651	C3965	0.435220	0.595030	0.174300
C39661	C3966	0.425260	0.562530	0.165370
C39671	C3967	0.462360	0.612830	0.153410
H24411	H2441	0.462600	0.601000	0.144600
C39681	C3968	0.448230	0.612980	0.170380
C39691	C3969	0.447240	0.630860	0.182120
H24421	H2442	0.437700	0.631900	0.193300
C39701	C3970	0.460190	0.647240	0.177510
H24431	H2443	0.459600	0.659800	0.185200
C39711	C3971	0.474130	0.644930	0.161380
H24441	H2444	0.483600	0.656000	0.158800
C39721	C3972	0.501100	0.575520	0.128100
C39731	C3973	0.517530	0.637800	0.082520
H24451	H2445	0.506800	0.647900	0.083500
C39741	C3974	0.528940	0.637260	0.065210
H24461	H2446	0.526700	0.647200	0.054500
C39751	C3975	0.544390	0.621790	0.062950
H24471	H2447	0.552400	0.620700	0.050600
C39761	C3976	0.547440	0.608270	0.079580
C39771	C3977	0.534790	0.610050	0.096960
H24481	H2448	0.536600	0.600300	0.107900
C39781	C3978	0.563230	0.592070	0.078610
N15211	N1521	0.409970	0.515610	0.135100
N15221	N1522	0.354650	0.613250	0.273090
N15231	N1523	0.373280	0.600680	0.232430
N15241	N1524	0.409430	0.563090	0.179080
N15251	N1525	0.420230	0.596580	0.188580
N15261	N1526	0.438490	0.577740	0.162460
N15271	N1527	0.475120	0.628270	0.149260
N15281	N1528	0.520330	0.624520	0.099160
N15291	N1529	0.498980	0.592970	0.127070
N15301	N1530	0.563130	0.577510	0.093430
S3051	S305	0.327430	0.584350	0.290170
S3061	S306	0.503590	0.549750	0.129210
C39791	C3979	0.410100	0.031780	0.648340
H24491	H2449	0.397600	0.034900	0.655700
C39801	C3980	0.427270	0.044170	0.651890
C39811	C3981	0.445630	0.039510	0.641830
H24501	H2450	0.457600	0.048100	0.643400
C39821	C3982	0.446170	0.022020	0.629380
H24511	H2451	0.458900	0.017600	0.623300
C39831	C3983	0.428290	0.010990	0.625780
H24521	H2452	0.428800	0.999600	0.616300
C39841	C3984	0.343420	0.101510	0.781000
C39851	C3985	0.359330	0.085160	0.733270
H24531	H2453	0.348800	0.086000	0.743600
C39861	C3986	0.359230	0.068300	0.720410
H24541	H2454	0.348500	0.058200	0.721300
C39871	C3987	0.375050	0.066240	0.706110
H24551	H2455	0.375500	0.054700	0.696900
C39881	C3988	0.390460	0.081540	0.705460
C39891	C3989	0.388850	0.098010	0.718850
H24561	H2456	0.399500	0.108200	0.718500
C39901	C3990	0.407930	0.080040	0.690170
C39911	C3991	0.435220	0.095030	0.674300
C39921	C3992	0.425260	0.062530	0.665370
C39931	C3993	0.462360	0.112830	0.653410
H24571	H2457	0.462600	0.101000	0.644600
C39941	C3994	0.448230	0.112980	0.670380
C39951	C3995	0.447240	0.130860	0.682120
H24581	H2458	0.437700	0.131900	0.693300
C39961	C3996	0.460190	0.147240	0.677510
H24591	H2459	0.459600	0.159800	0.685200
C39971	C3997	0.474130	0.144930	0.661380
H24601	H2460	0.483600	0.156000	0.658800
C39981	C3998	0.501100	0.075520	0.628100
C39991	C3999	0.517530	0.137800	0.582520
H24611	H2461	0.506800	0.147900	0.583500
C40001	C4000	0.528940	0.137260	0.565210
H24621	H2462	0.526700	0.147200	0.554500
C40011	C4001	0.544390	0.121790	0.562950
H24631	H2463	0.552400	0.120700	0.550600
C40021	C4002	0.547440	0.108270	0.579580
C40031	C4003	0.534790	0.110050	0.596960
H24641	H2464	0.536600	0.100300	0.607900
C40041	C4004	0.563230	0.092070	0.578610
N15311	N1531	0.409970	0.015610	0.635100
N15321	N1532	0.354650	0.113250	0.773090
N15331	N1533	0.373280	0.100680	0.732430
N15341	N1534	0.409430	0.063090	0.679080
N15351	N1535	0.420230	0.096580	0.688580
N15361	N1536	0.438490	0.077740	0.662460
N15371	N1537	0.475120	0.128270	0.649260
N15381	N1538	0.520330	0.124520	0.599160
N15391	N1539	0.498980	0.092970	0.627070
N15401	N1540	0.563130	0.077510	0.593430
S3071	S307	0.327430	0.084350	0.790170
S3081	S308	0.503590	0.049750	0.629210
C40051	C4005	0.910100	0.531780	0.648340
H24651	H2465	0.897600	0.534900	0.655700
C40061	C4006	0.927270	0.544170	0.651890
C40071	C4007	0.945630	0.539510	0.641830
H24661	H2466	0.957600	0.548100	0.643400
C40081	C4008	0.946170	0.522020	0.629380
H24671	H2467	0.958900	0.517600	0.623300
C40091	C4009	0.928290	0.510990	0.625780
H24681	H2468	0.928800	0.499600	0.616300
C40101	C4010	0.843420	0.601510	0.781000
C40111	C4011	0.859330	0.585160	0.733270
H24691	H2469	0.848800	0.586000	0.743600
C40121	C4012	0.859230	0.568300	0.720410
H24701	H2470	0.848500	0.558200	0.721300
C40131	C4013	0.875050	0.566240	0.706110
H24711	H2471	0.875500	0.554700	0.696900
C40141	C4014	0.890460	0.581540	0.705460
C40151	C4015	0.888850	0.598010	0.718850
H24721	H2472	0.899500	0.608200	0.718500
C40161	C4016	0.907930	0.580040	0.690170
C40171	C4017	0.935220	0.595030	0.674300
C40181	C4018	0.925260	0.562530	0.665370
C40191	C4019	0.962360	0.612830	0.653410
H24731	H2473	0.962600	0.601000	0.644600
C40201	C4020	0.948230	0.612980	0.670380
C40211	C4021	0.947240	0.630860	0.682120
H24741	H2474	0.937700	0.631900	0.693300
C40221	C4022	0.960190	0.647240	0.677510
H24751	H2475	0.959600	0.659800	0.685200
C40231	C4023	0.974130	0.644930	0.661380
H24761	H2476	0.983600	0.656000	0.658800
C40241	C4024	0.001100	0.575520	0.628100
C40251	C4025	0.017530	0.637800	0.582520
H24771	H2477	0.006800	0.647900	0.583500
C40261	C4026	0.028940	0.637260	0.565210
H24781	H2478	0.026700	0.647200	0.554500
C40271	C4027	0.044390	0.621790	0.562950
H24791	H2479	0.052400	0.620700	0.550600
C40281	C4028	0.047440	0.608270	0.579580
C40291	C4029	0.034790	0.610050	0.596960
H24801	H2480	0.036600	0.600300	0.607900
C40301	C4030	0.063230	0.592070	0.578610
N15411	N1541	0.909970	0.515610	0.635100
N15421	N1542	0.854650	0.613250	0.773090
N15431	N1543	0.873280	0.600680	0.732430
N15441	N1544	0.909430	0.563090	0.679080
N15451	N1545	0.920230	0.596580	0.688580
N15461	N1546	0.938490	0.577740	0.662460
N15471	N1547	0.975120	0.628270	0.649260
N15481	N1548	0.020330	0.624520	0.599160
N15491	N1549	0.998980	0.592970	0.627070
N15501	N1550	0.063130	0.577510	0.593430
S3091	S309	0.827430	0.584350	0.790170
S3101	S310	0.003590	0.549750	0.629210
C40311	C4031	0.910100	0.031780	0.148340
H24811	H2481	0.897600	0.034900	0.155700
C40321	C4032	0.927270	0.044170	0.151890
C40331	C4033	0.945630	0.039510	0.141830
H24821	H2482	0.957600	0.048100	0.143400
C40341	C4034	0.946170	0.022020	0.129380
H24831	H2483	0.958900	0.017600	0.123300
C40351	C4035	0.928290	0.010990	0.125780
H24841	H2484	0.928800	0.999600	0.116300
C40361	C4036	0.843420	0.101510	0.281000
C40371	C4037	0.859330	0.085160	0.233270
H24851	H2485	0.848800	0.086000	0.243600
C40381	C4038	0.859230	0.068300	0.220410
H24861	H2486	0.848500	0.058200	0.221300
C40391	C4039	0.875050	0.066240	0.206110
H24871	H2487	0.875500	0.054700	0.196900
C40401	C4040	0.890460	0.081540	0.205460
C40411	C4041	0.888850	0.098010	0.218850
H24881	H2488	0.899500	0.108200	0.218500
C40421	C4042	0.907930	0.080040	0.190170
C40431	C4043	0.935220	0.095030	0.174300
C40441	C4044	0.925260	0.062530	0.165370
C40451	C4045	0.962360	0.112830	0.153410
H24891	H2489	0.962600	0.101000	0.144600
C40461	C4046	0.948230	0.112980	0.170380
C40471	C4047	0.947240	0.130860	0.182120
H24901	H2490	0.937700	0.131900	0.193300
C40481	C4048	0.960190	0.147240	0.177510
H24911	H2491	0.959600	0.159800	0.185200
C40491	C4049	0.974130	0.144930	0.161380
H24921	H2492	0.983600	0.156000	0.158800
C40501	C4050	0.001100	0.075520	0.128100
C40511	C4051	0.017530	0.137800	0.082520
H24931	H2493	0.006800	0.147900	0.083500
C40521	C4052	0.028940	0.137260	0.065210
H24941	H2494	0.026700	0.147200	0.054500
C40531	C4053	0.044390	0.121790	0.062950
H24951	H2495	0.052400	0.120700	0.050600
C40541	C4054	0.047440	0.108270	0.079580
C40551	C4055	0.034790	0.110050	0.096960
H24961	H2496	0.036600	0.100300	0.107900
C40561	C4056	0.063230	0.092070	0.078610
N15511	N1551	0.909970	0.015610	0.135100
N15521	N1552	0.854650	0.113250	0.273090
N15531	N1553	0.873280	0.100680	0.232430
N15541	N1554	0.909430	0.063090	0.179080
N15551	N1555	0.920230	0.096580	0.188580
N15561	N1556	0.938490	0.077740	0.162460
N15571	N1557	0.975120	0.128270	0.149260
N15581	N1558	0.020330	0.124520	0.099160
N15591	N1559	0.998980	0.092970	0.127070
N15601	N1560	0.063130	0.077510	0.093430
S3111	S311	0.827430	0.084350	0.290170
S3121	S312	0.003590	0.049750	0.129210
C40571	C4057	0.339900	0.718220	0.648340
H24971	H2497	0.352400	0.715100	0.655700
C40581	C4058	0.322730	0.705830	0.651890
C40591	C4059	0.304370	0.710490	0.641830
H24981	H2498	0.292400	0.701900	0.643400
C40601	C4060	0.303830	0.727980	0.629380
H24991	H2499	0.291100	0.732400	0.623300
C40611	C4061	0.321710	0.739010	0.625780
H25001	H2500	0.321200	0.750400	0.616300
C40621	C4062	0.406580	0.648490	0.781000
C40631	C4063	0.390670	0.664840	0.733270
H25011	H2501	0.401200	0.664000	0.743600
C40641	C4064	0.390770	0.681700	0.720410
H25021	H2502	0.401500	0.691800	0.721300
C40651	C4065	0.374950	0.683760	0.706110
H25031	H2503	0.374500	0.695300	0.696900
C40661	C4066	0.359540	0.668460	0.705460
C40671	C4067	0.361150	0.651990	0.718850
H25041	H2504	0.350500	0.641800	0.718500
C40681	C4068	0.342070	0.669960	0.690170
C40691	C4069	0.314780	0.654970	0.674300
C40701	C4070	0.324740	0.687470	0.665370
C40711	C4071	0.287640	0.637170	0.653410
H25051	H2505	0.287400	0.649000	0.644600
C40721	C4072	0.301770	0.637020	0.670380
C40731	C4073	0.302760	0.619140	0.682120
H25061	H2506	0.312300	0.618100	0.693300
C40741	C4074	0.289810	0.602760	0.677510
H25071	H2507	0.290400	0.590200	0.685200
C40751	C4075	0.275870	0.605070	0.661380
H25081	H2508	0.266400	0.594000	0.658800
C40761	C4076	0.248900	0.674480	0.628100
C40771	C4077	0.232470	0.612200	0.582520
H25091	H2509	0.243200	0.602100	0.583500
C40781	C4078	0.221060	0.612740	0.565210
H25101	H2510	0.223300	0.602800	0.554500
C40791	C4079	0.205610	0.628210	0.562950
H25111	H2511	0.197600	0.629300	0.550600
C40801	C4080	0.202560	0.641730	0.579580
C40811	C4081	0.215210	0.639950	0.596960
H25121	H2512	0.213400	0.649700	0.607900
C40821	C4082	0.186770	0.657930	0.578610
N15611	N1561	0.340030	0.734390	0.635100
N15621	N1562	0.395350	0.636750	0.773090
N15631	N1563	0.376720	0.649320	0.732430
N15641	N1564	0.340570	0.686910	0.679080
N15651	N1565	0.329770	0.653420	0.688580
N15661	N1566	0.311510	0.672260	0.662460
N15671	N1567	0.274880	0.621730	0.649260
N15681	N1568	0.229670	0.625480	0.599160
N15691	N1569	0.251020	0.657030	0.627070
N15701	N1570	0.186870	0.672490	0.593430
S3131	S313	0.422570	0.665650	0.790170
S3141	S314	0.246410	0.700250	0.629210
C40831	C4083	0.339900	0.218220	0.148340
H25131	H2513	0.352400	0.215100	0.155700
C40841	C4084	0.322730	0.205830	0.151890
C40851	C4085	0.304370	0.210490	0.141830
H25141	H2514	0.292400	0.201900	0.143400
C40861	C4086	0.303830	0.227980	0.129380
H25151	H2515	0.291100	0.232400	0.123300
C40871	C4087	0.321710	0.239010	0.125780
H25161	H2516	0.321200	0.250400	0.116300
C40881	C4088	0.406580	0.148490	0.281000
C40891	C4089	0.390670	0.164840	0.233270
H25171	H2517	0.401200	0.164000	0.243600
C40901	C4090	0.390770	0.181700	0.220410
H25181	H2518	0.401500	0.191800	0.221300
C40911	C4091	0.374950	0.183760	0.206110
H25191	H2519	0.374500	0.195300	0.196900
C40921	C4092	0.359540	0.168460	0.205460
C40931	C4093	0.361150	0.151990	0.218850
H25201	H2520	0.350500	0.141800	0.218500
C40941	C4094	0.342070	0.169960	0.190170
C40951	C4095	0.314780	0.154970	0.174300
C40961	C4096	0.324740	0.187470	0.165370
C40971	C4097	0.287640	0.137170	0.153410
H25211	H2521	0.287400	0.149000	0.144600
C40981	C4098	0.301770	0.137020	0.170380
C40991	C4099	0.302760	0.119140	0.182120
H25221	H2522	0.312300	0.118100	0.193300
C41001	C4100	0.289810	0.102760	0.177510
H25231	H2523	0.290400	0.090200	0.185200
C41011	C4101	0.275870	0.105070	0.161380
H25241	H2524	0.266400	0.094000	0.158800
C41021	C4102	0.248900	0.174480	0.128100
C41031	C4103	0.232470	0.112200	0.082520
H25251	H2525	0.243200	0.102100	0.083500
C41041	C4104	0.221060	0.112740	0.065210
H25261	H2526	0.223300	0.102800	0.054500
C41051	C4105	0.205610	0.128210	0.062950
H25271	H2527	0.197600	0.129300	0.050600
C41061	C4106	0.202560	0.141730	0.079580
C41071	C4107	0.215210	0.139950	0.096960
H25281	H2528	0.213400	0.149700	0.107900
C41081	C4108	0.186770	0.157930	0.078610
N15711	N1571	0.340030	0.234390	0.135100
N15721	N1572	0.395350	0.136750	0.273090
N15731	N1573	0.376720	0.149320	0.232430
N15741	N1574	0.340570	0.186910	0.179080
N15751	N1575	0.329770	0.153420	0.188580
N15761	N1576	0.311510	0.172260	0.162460
N15771	N1577	0.274880	0.121730	0.149260
N15781	N1578	0.229670	0.125480	0.099160
N15791	N1579	0.251020	0.157030	0.127070
N15801	N1580	0.186870	0.172490	0.093430
S3151	S315	0.422570	0.165650	0.290170
S3161	S316	0.246410	0.200250	0.129210
C41091	C4109	0.839900	0.718220	0.148340
H25291	H2529	0.852400	0.715100	0.155700
C41101	C4110	0.822730	0.705830	0.151890
C41111	C4111	0.804370	0.710490	0.141830
H25301	H2530	0.792400	0.701900	0.143400
C41121	C4112	0.803830	0.727980	0.129380
H25311	H2531	0.791100	0.732400	0.123300
C41131	C4113	0.821710	0.739010	0.125780
H25321	H2532	0.821200	0.750400	0.116300
C41141	C4114	0.906580	0.648490	0.281000
C41151	C4115	0.890670	0.664840	0.233270
H25331	H2533	0.901200	0.664000	0.243600
C41161	C4116	0.890770	0.681700	0.220410
H25341	H2534	0.901500	0.691800	0.221300
C41171	C4117	0.874950	0.683760	0.206110
H25351	H2535	0.874500	0.695300	0.196900
C41181	C4118	0.859540	0.668460	0.205460
C41191	C4119	0.861150	0.651990	0.218850
H25361	H2536	0.850500	0.641800	0.218500
C41201	C4120	0.842070	0.669960	0.190170
C41211	C4121	0.814780	0.654970	0.174300
C41221	C4122	0.824740	0.687470	0.165370
C41231	C4123	0.787640	0.637170	0.153410
H25371	H2537	0.787400	0.649000	0.144600
C41241	C4124	0.801770	0.637020	0.170380
C41251	C4125	0.802760	0.619140	0.182120
H25381	H2538	0.812300	0.618100	0.193300
C41261	C4126	0.789810	0.602760	0.177510
H25391	H2539	0.790400	0.590200	0.185200
C41271	C4127	0.775870	0.605070	0.161380
H25401	H2540	0.766400	0.594000	0.158800
C41281	C4128	0.748900	0.674480	0.128100
C41291	C4129	0.732470	0.612200	0.082520
H25411	H2541	0.743200	0.602100	0.083500
C41301	C4130	0.721060	0.612740	0.065210
H25421	H2542	0.723300	0.602800	0.054500
C41311	C4131	0.705610	0.628210	0.062950
H25431	H2543	0.697600	0.629300	0.050600
C41321	C4132	0.702560	0.641730	0.079580
C41331	C4133	0.715210	0.639950	0.096960
H25441	H2544	0.713400	0.649700	0.107900
C41341	C4134	0.686770	0.657930	0.078610
N15811	N1581	0.840030	0.734390	0.135100
N15821	N1582	0.895350	0.636750	0.273090
N15831	N1583	0.876720	0.649320	0.232430
N15841	N1584	0.840570	0.686910	0.179080
N15851	N1585	0.829770	0.653420	0.188580
N15861	N1586	0.811510	0.672260	0.162460
N15871	N1587	0.774880	0.621730	0.149260
N15881	N1588	0.729670	0.625480	0.099160
N15891	N1589	0.751020	0.657030	0.127070
N15901	N1590	0.686870	0.672490	0.093430
S3171	S317	0.922570	0.665650	0.290170
S3181	S318	0.746410	0.700250	0.129210
C41351	C4135	0.839900	0.218220	0.648340
H25451	H2545	0.852400	0.215100	0.655700
C41361	C4136	0.822730	0.205830	0.651890
C41371	C4137	0.804370	0.210490	0.641830
H25461	H2546	0.792400	0.201900	0.643400
C41381	C4138	0.803830	0.227980	0.629380
H25471	H2547	0.791100	0.232400	0.623300
C41391	C4139	0.821710	0.239010	0.625780
H25481	H2548	0.821200	0.250400	0.616300
C41401	C4140	0.906580	0.148490	0.781000
C41411	C4141	0.890670	0.164840	0.733270
H25491	H2549	0.901200	0.164000	0.743600
C41421	C4142	0.890770	0.181700	0.720410
H25501	H2550	0.901500	0.191800	0.721300
C41431	C4143	0.874950	0.183760	0.706110
H25511	H2551	0.874500	0.195300	0.696900
C41441	C4144	0.859540	0.168460	0.705460
C41451	C4145	0.861150	0.151990	0.718850
H25521	H2552	0.850500	0.141800	0.718500
C41461	C4146	0.842070	0.169960	0.690170
C41471	C4147	0.814780	0.154970	0.674300
C41481	C4148	0.824740	0.187470	0.665370
C41491	C4149	0.787640	0.137170	0.653410
H25531	H2553	0.787400	0.149000	0.644600
C41501	C4150	0.801770	0.137020	0.670380
C41511	C4151	0.802760	0.119140	0.682120
H25541	H2554	0.812300	0.118100	0.693300
C41521	C4152	0.789810	0.102760	0.677510
H25551	H2555	0.790400	0.090200	0.685200
C41531	C4153	0.775870	0.105070	0.661380
H25561	H2556	0.766400	0.094000	0.658800
C41541	C4154	0.748900	0.174480	0.628100
C41551	C4155	0.732470	0.112200	0.582520
H25571	H2557	0.743200	0.102100	0.583500
C41561	C4156	0.721060	0.112740	0.565210
H25581	H2558	0.723300	0.102800	0.554500
C41571	C4157	0.705610	0.128210	0.562950
H25591	H2559	0.697600	0.129300	0.550600
C41581	C4158	0.702560	0.141730	0.579580
C41591	C4159	0.715210	0.139950	0.596960
H25601	H2560	0.713400	0.149700	0.607900
C41601	C4160	0.686770	0.157930	0.578610
N15911	N1591	0.840030	0.234390	0.635100
N15921	N1592	0.895350	0.136750	0.773090
N15931	N1593	0.876720	0.149320	0.732430
N15941	N1594	0.840570	0.186910	0.679080
N15951	N1595	0.829770	0.153420	0.688580
N15961	N1596	0.811510	0.172260	0.662460
N15971	N1597	0.774880	0.121730	0.649260
N15981	N1598	0.729670	0.125480	0.599160
N15991	N1599	0.751020	0.157030	0.627070
N16001	N1600	0.686870	0.172490	0.593430
S3191	S319	0.922570	0.165650	0.790170
S3201	S320	0.746410	0.200250	0.629210
C41611	C4161	0.718220	0.648340	0.339900
H25611	H2561	0.715100	0.655700	0.352400
C41621	C4162	0.705830	0.651890	0.322730
C41631	C4163	0.710490	0.641830	0.304370
H25621	H2562	0.701900	0.643400	0.292400
C41641	C4164	0.727980	0.629380	0.303830
H25631	H2563	0.732400	0.623300	0.291100
C41651	C4165	0.739010	0.625780	0.321710
H25641	H2564	0.750400	0.616300	0.321200
C41661	C4166	0.648490	0.781000	0.406580
C41671	C4167	0.664840	0.733270	0.390670
H25651	H2565	0.664000	0.743600	0.401200
C41681	C4168	0.681700	0.720410	0.390770
H25661	H2566	0.691800	0.721300	0.401500
C41691	C4169	0.683760	0.706110	0.374950
H25671	H2567	0.695300	0.696900	0.374500
C41701	C4170	0.668460	0.705460	0.359540
C41711	C4171	0.651990	0.718850	0.361150
H25681	H2568	0.641800	0.718500	0.350500
C41721	C4172	0.669960	0.690170	0.342070
C41731	C4173	0.654970	0.674300	0.314780
C41741	C4174	0.687470	0.665370	0.324740
C41751	C4175	0.637170	0.653410	0.287640
H25691	H2569	0.649000	0.644600	0.287400
C41761	C4176	0.637020	0.670380	0.301770
C41771	C4177	0.619140	0.682120	0.302760
H25701	H2570	0.618100	0.693300	0.312300
C41781	C4178	0.602760	0.677510	0.289810
H25711	H2571	0.590200	0.685200	0.290400
C41791	C4179	0.605070	0.661380	0.275870
H25721	H2572	0.594000	0.658800	0.266400
C41801	C4180	0.674480	0.628100	0.248900
C41811	C4181	0.612200	0.582520	0.232470
H25731	H2573	0.602100	0.583500	0.243200
C41821	C4182	0.612740	0.565210	0.221060
H25741	H2574	0.602800	0.554500	0.223300
C41831	C4183	0.628210	0.562950	0.205610
H25751	H2575	0.629300	0.550600	0.197600
C41841	C4184	0.641730	0.579580	0.202560
C41851	C4185	0.639950	0.596960	0.215210
H25761	H2576	0.649700	0.607900	0.213400
C41861	C4186	0.657930	0.578610	0.186770
N16011	N1601	0.734390	0.635100	0.340030
N16021	N1602	0.636750	0.773090	0.395350
N16031	N1603	0.649320	0.732430	0.376720
N16041	N1604	0.686910	0.679080	0.340570
N16051	N1605	0.653420	0.688580	0.329770
N16061	N1606	0.672260	0.662460	0.311510
N16071	N1607	0.621730	0.649260	0.274880
N16081	N1608	0.625480	0.599160	0.229670
N16091	N1609	0.657030	0.627070	0.251020
N16101	N1610	0.672490	0.593430	0.186870
S3211	S321	0.665650	0.790170	0.422570
S3221	S322	0.700250	0.629210	0.246410
C41871	C4187	0.718220	0.148340	0.839900
H25771	H2577	0.715100	0.155700	0.852400
C41881	C4188	0.705830	0.151890	0.822730
C41891	C4189	0.710490	0.141830	0.804370
H25781	H2578	0.701900	0.143400	0.792400
C41901	C4190	0.727980	0.129380	0.803830
H25791	H2579	0.732400	0.123300	0.791100
C41911	C4191	0.739010	0.125780	0.821710
H25801	H2580	0.750400	0.116300	0.821200
C41921	C4192	0.648490	0.281000	0.906580
C41931	C4193	0.664840	0.233270	0.890670
H25811	H2581	0.664000	0.243600	0.901200
C41941	C4194	0.681700	0.220410	0.890770
H25821	H2582	0.691800	0.221300	0.901500
C41951	C4195	0.683760	0.206110	0.874950
H25831	H2583	0.695300	0.196900	0.874500
C41961	C4196	0.668460	0.205460	0.859540
C41971	C4197	0.651990	0.218850	0.861150
H25841	H2584	0.641800	0.218500	0.850500
C41981	C4198	0.669960	0.190170	0.842070
C41991	C4199	0.654970	0.174300	0.814780
C42001	C4200	0.687470	0.165370	0.824740
C42011	C4201	0.637170	0.153410	0.787640
H25851	H2585	0.649000	0.144600	0.787400
C42021	C4202	0.637020	0.170380	0.801770
C42031	C4203	0.619140	0.182120	0.802760
H25861	H2586	0.618100	0.193300	0.812300
C42041	C4204	0.602760	0.177510	0.789810
H25871	H2587	0.590200	0.185200	0.790400
C42051	C4205	0.605070	0.161380	0.775870
H25881	H2588	0.594000	0.158800	0.766400
C42061	C4206	0.674480	0.128100	0.748900
C42071	C4207	0.612200	0.082520	0.732470
H25891	H2589	0.602100	0.083500	0.743200
C42081	C4208	0.612740	0.065210	0.721060
H25901	H2590	0.602800	0.054500	0.723300
C42091	C4209	0.628210	0.062950	0.705610
H25911	H2591	0.629300	0.050600	0.697600
C42101	C4210	0.641730	0.079580	0.702560
C42111	C4211	0.639950	0.096960	0.715210
H25921	H2592	0.649700	0.107900	0.713400
C42121	C4212	0.657930	0.078610	0.686770
N16111	N1611	0.734390	0.135100	0.840030
N16121	N1612	0.636750	0.273090	0.895350
N16131	N1613	0.649320	0.232430	0.876720
N16141	N1614	0.686910	0.179080	0.840570
N16151	N1615	0.653420	0.188580	0.829770
N16161	N1616	0.672260	0.162460	0.811510
N16171	N1617	0.621730	0.149260	0.774880
N16181	N1618	0.625480	0.099160	0.729670
N16191	N1619	0.657030	0.127070	0.751020
N16201	N1620	0.672490	0.093430	0.686870
S3231	S323	0.665650	0.290170	0.922570
S3241	S324	0.700250	0.129210	0.746410
C42131	C4213	0.218220	0.648340	0.839900
H25931	H2593	0.215100	0.655700	0.852400
C42141	C4214	0.205830	0.651890	0.822730
C42151	C4215	0.210490	0.641830	0.804370
H25941	H2594	0.201900	0.643400	0.792400
C42161	C4216	0.227980	0.629380	0.803830
H25951	H2595	0.232400	0.623300	0.791100
C42171	C4217	0.239010	0.625780	0.821710
H25961	H2596	0.250400	0.616300	0.821200
C42181	C4218	0.148490	0.781000	0.906580
C42191	C4219	0.164840	0.733270	0.890670
H25971	H2597	0.164000	0.743600	0.901200
C42201	C4220	0.181700	0.720410	0.890770
H25981	H2598	0.191800	0.721300	0.901500
C42211	C4221	0.183760	0.706110	0.874950
H25991	H2599	0.195300	0.696900	0.874500
C42221	C4222	0.168460	0.705460	0.859540
C42231	C4223	0.151990	0.718850	0.861150
H26001	H2600	0.141800	0.718500	0.850500
C42241	C4224	0.169960	0.690170	0.842070
C42251	C4225	0.154970	0.674300	0.814780
C42261	C4226	0.187470	0.665370	0.824740
C42271	C4227	0.137170	0.653410	0.787640
H26011	H2601	0.149000	0.644600	0.787400
C42281	C4228	0.137020	0.670380	0.801770
C42291	C4229	0.119140	0.682120	0.802760
H26021	H2602	0.118100	0.693300	0.812300
C42301	C4230	0.102760	0.677510	0.789810
H26031	H2603	0.090200	0.685200	0.790400
C42311	C4231	0.105070	0.661380	0.775870
H26041	H2604	0.094000	0.658800	0.766400
C42321	C4232	0.174480	0.628100	0.748900
C42331	C4233	0.112200	0.582520	0.732470
H26051	H2605	0.102100	0.583500	0.743200
C42341	C4234	0.112740	0.565210	0.721060
H26061	H2606	0.102800	0.554500	0.723300
C42351	C4235	0.128210	0.562950	0.705610
H26071	H2607	0.129300	0.550600	0.697600
C42361	C4236	0.141730	0.579580	0.702560
C42371	C4237	0.139950	0.596960	0.715210
H26081	H2608	0.149700	0.607900	0.713400
C42381	C4238	0.157930	0.578610	0.686770
N16211	N1621	0.234390	0.635100	0.840030
N16221	N1622	0.136750	0.773090	0.895350
N16231	N1623	0.149320	0.732430	0.876720
N16241	N1624	0.186910	0.679080	0.840570
N16251	N1625	0.153420	0.688580	0.829770
N16261	N1626	0.172260	0.662460	0.811510
N16271	N1627	0.121730	0.649260	0.774880
N16281	N1628	0.125480	0.599160	0.729670
N16291	N1629	0.157030	0.627070	0.751020
N16301	N1630	0.172490	0.593430	0.686870
S3251	S325	0.165650	0.790170	0.922570
S3261	S326	0.200250	0.629210	0.746410
C42391	C4239	0.218220	0.148340	0.339900
H26091	H2609	0.215100	0.155700	0.352400
C42401	C4240	0.205830	0.151890	0.322730
C42411	C4241	0.210490	0.141830	0.304370
H26101	H2610	0.201900	0.143400	0.292400
C42421	C4242	0.227980	0.129380	0.303830
H26111	H2611	0.232400	0.123300	0.291100
C42431	C4243	0.239010	0.125780	0.321710
H26121	H2612	0.250400	0.116300	0.321200
C42441	C4244	0.148490	0.281000	0.406580
C42451	C4245	0.164840	0.233270	0.390670
H26131	H2613	0.164000	0.243600	0.401200
C42461	C4246	0.181700	0.220410	0.390770
H26141	H2614	0.191800	0.221300	0.401500
C42471	C4247	0.183760	0.206110	0.374950
H26151	H2615	0.195300	0.196900	0.374500
C42481	C4248	0.168460	0.205460	0.359540
C42491	C4249	0.151990	0.218850	0.361150
H26161	H2616	0.141800	0.218500	0.350500
C42501	C4250	0.169960	0.190170	0.342070
C42511	C4251	0.154970	0.174300	0.314780
C42521	C4252	0.187470	0.165370	0.324740
C42531	C4253	0.137170	0.153410	0.287640
H26171	H2617	0.149000	0.144600	0.287400
C42541	C4254	0.137020	0.170380	0.301770
C42551	C4255	0.119140	0.182120	0.302760
H26181	H2618	0.118100	0.193300	0.312300
C42561	C4256	0.102760	0.177510	0.289810
H26191	H2619	0.090200	0.185200	0.290400
C42571	C4257	0.105070	0.161380	0.275870
H26201	H2620	0.094000	0.158800	0.266400
C42581	C4258	0.174480	0.128100	0.248900
C42591	C4259	0.112200	0.082520	0.232470
H26211	H2621	0.102100	0.083500	0.243200
C42601	C4260	0.112740	0.065210	0.221060
H26221	H2622	0.102800	0.054500	0.223300
C42611	C4261	0.128210	0.062950	0.205610
H26231	H2623	0.129300	0.050600	0.197600
C42621	C4262	0.141730	0.079580	0.202560
C42631	C4263	0.139950	0.096960	0.215210
H26241	H2624	0.149700	0.107900	0.213400
C42641	C4264	0.157930	0.078610	0.186770
N16311	N1631	0.234390	0.135100	0.340030
N16321	N1632	0.136750	0.273090	0.395350
N16331	N1633	0.149320	0.232430	0.376720
N16341	N1634	0.186910	0.179080	0.340570
N16351	N1635	0.153420	0.188580	0.329770
N16361	N1636	0.172260	0.162460	0.311510
N16371	N1637	0.121730	0.149260	0.274880
N16381	N1638	0.125480	0.099160	0.229670
N16391	N1639	0.157030	0.127070	0.251020
N16401	N1640	0.172490	0.093430	0.186870
S3271	S327	0.165650	0.290170	0.422570
S3281	S328	0.200250	0.129210	0.246410
C42651	C4265	0.531780	0.148340	0.410100
H26251	H2625	0.534900	0.155700	0.397600
C42661	C4266	0.544170	0.151890	0.427270
C42671	C4267	0.539510	0.141830	0.445630
H26261	H2626	0.548100	0.143400	0.457600
C42681	C4268	0.522020	0.129380	0.446170
H26271	H2627	0.517600	0.123300	0.458900
C42691	C4269	0.510990	0.125780	0.428290
H26281	H2628	0.499600	0.116300	0.428800
C42701	C4270	0.601510	0.281000	0.343420
C42711	C4271	0.585160	0.233270	0.359330
H26291	H2629	0.586000	0.243600	0.348800
C42721	C4272	0.568300	0.220410	0.359230
H26301	H2630	0.558200	0.221300	0.348500
C42731	C4273	0.566240	0.206110	0.375050
H26311	H2631	0.554700	0.196900	0.375500
C42741	C4274	0.581540	0.205460	0.390460
C42751	C4275	0.598010	0.218850	0.388850
H26321	H2632	0.608200	0.218500	0.399500
C42761	C4276	0.580040	0.190170	0.407930
C42771	C4277	0.595030	0.174300	0.435220
C42781	C4278	0.562530	0.165370	0.425260
C42791	C4279	0.612830	0.153410	0.462360
H26331	H2633	0.601000	0.144600	0.462600
C42801	C4280	0.612980	0.170380	0.448230
C42811	C4281	0.630860	0.182120	0.447240
H26341	H2634	0.631900	0.193300	0.437700
C42821	C4282	0.647240	0.177510	0.460190
H26351	H2635	0.659800	0.185200	0.459600
C42831	C4283	0.644930	0.161380	0.474130
H26361	H2636	0.656000	0.158800	0.483600
C42841	C4284	0.575520	0.128100	0.501100
C42851	C4285	0.637800	0.082520	0.517530
H26371	H2637	0.647900	0.083500	0.506800
C42861	C4286	0.637260	0.065210	0.528940
H26381	H2638	0.647200	0.054500	0.526700
C42871	C4287	0.621790	0.062950	0.544390
H26391	H2639	0.620700	0.050600	0.552400
C42881	C4288	0.608270	0.079580	0.547440
C42891	C4289	0.610050	0.096960	0.534790
H26401	H2640	0.600300	0.107900	0.536600
C42901	C4290	0.592070	0.078610	0.563230
N16411	N1641	0.515610	0.135100	0.409970
N16421	N1642	0.613250	0.273090	0.354650
N16431	N1643	0.600680	0.232430	0.373280
N16441	N1644	0.563090	0.179080	0.409430
N16451	N1645	0.596580	0.188580	0.420230
N16461	N1646	0.577740	0.162460	0.438490
N16471	N1647	0.628270	0.149260	0.475120
N16481	N1648	0.624520	0.099160	0.520330
N16491	N1649	0.592970	0.127070	0.498980
N16501	N1650	0.577510	0.093430	0.563130
S3291	S329	0.584350	0.290170	0.327430
S3301	S330	0.549750	0.129210	0.503590
C42911	C4291	0.531780	0.648340	0.910100
H26411	H2641	0.534900	0.655700	0.897600
C42921	C4292	0.544170	0.651890	0.927270
C42931	C4293	0.539510	0.641830	0.945630
H26421	H2642	0.548100	0.643400	0.957600
C42941	C4294	0.522020	0.629380	0.946170
H26431	H2643	0.517600	0.623300	0.958900
C42951	C4295	0.510990	0.625780	0.928290
H26441	H2644	0.499600	0.616300	0.928800
C42961	C4296	0.601510	0.781000	0.843420
C42971	C4297	0.585160	0.733270	0.859330
H26451	H2645	0.586000	0.743600	0.848800
C42981	C4298	0.568300	0.720410	0.859230
H26461	H2646	0.558200	0.721300	0.848500
C42991	C4299	0.566240	0.706110	0.875050
H26471	H2647	0.554700	0.696900	0.875500
C43001	C4300	0.581540	0.705460	0.890460
C43011	C4301	0.598010	0.718850	0.888850
H26481	H2648	0.608200	0.718500	0.899500
C43021	C4302	0.580040	0.690170	0.907930
C43031	C4303	0.595030	0.674300	0.935220
C43041	C4304	0.562530	0.665370	0.925260
C43051	C4305	0.612830	0.653410	0.962360
H26491	H2649	0.601000	0.644600	0.962600
C43061	C4306	0.612980	0.670380	0.948230
C43071	C4307	0.630860	0.682120	0.947240
H26501	H2650	0.631900	0.693300	0.937700
C43081	C4308	0.647240	0.677510	0.960190
H26511	H2651	0.659800	0.685200	0.959600
C43091	C4309	0.644930	0.661380	0.974130
H26521	H2652	0.656000	0.658800	0.983600
C43101	C4310	0.575520	0.628100	0.001100
C43111	C4311	0.637800	0.582520	0.017530
H26531	H2653	0.647900	0.583500	0.006800
C43121	C4312	0.637260	0.565210	0.028940
H26541	H2654	0.647200	0.554500	0.026700
C43131	C4313	0.621790	0.562950	0.044390
H26551	H2655	0.620700	0.550600	0.052400
C43141	C4314	0.608270	0.579580	0.047440
C43151	C4315	0.610050	0.596960	0.034790
H26561	H2656	0.600300	0.607900	0.036600
C43161	C4316	0.592070	0.578610	0.063230
N16511	N1651	0.515610	0.635100	0.909970
N16521	N1652	0.613250	0.773090	0.854650
N16531	N1653	0.600680	0.732430	0.873280
N16541	N1654	0.563090	0.679080	0.909430
N16551	N1655	0.596580	0.688580	0.920230
N16561	N1656	0.577740	0.662460	0.938490
N16571	N1657	0.628270	0.649260	0.975120
N16581	N1658	0.624520	0.599160	0.020330
N16591	N1659	0.592970	0.627070	0.998980
N16601	N1660	0.577510	0.593430	0.063130
S3311	S331	0.584350	0.790170	0.827430
S3321	S332	0.549750	0.629210	0.003590
C43171	C4317	0.031780	0.148340	0.910100
H26571	H2657	0.034900	0.155700	0.897600
C43181	C4318	0.044170	0.151890	0.927270
C43191	C4319	0.039510	0.141830	0.945630
H26581	H2658	0.048100	0.143400	0.957600
C43201	C4320	0.022020	0.129380	0.946170
H26591	H2659	0.017600	0.123300	0.958900
C43211	C4321	0.010990	0.125780	0.928290
H26601	H2660	0.999600	0.116300	0.928800
C43221	C4322	0.101510	0.281000	0.843420
C43231	C4323	0.085160	0.233270	0.859330
H26611	H2661	0.086000	0.243600	0.848800
C43241	C4324	0.068300	0.220410	0.859230
H26621	H2662	0.058200	0.221300	0.848500
C43251	C4325	0.066240	0.206110	0.875050
H26631	H2663	0.054700	0.196900	0.875500
C43261	C4326	0.081540	0.205460	0.890460
C43271	C4327	0.098010	0.218850	0.888850
H26641	H2664	0.108200	0.218500	0.899500
C43281	C4328	0.080040	0.190170	0.907930
C43291	C4329	0.095030	0.174300	0.935220
C43301	C4330	0.062530	0.165370	0.925260
C43311	C4331	0.112830	0.153410	0.962360
H26651	H2665	0.101000	0.144600	0.962600
C43321	C4332	0.112980	0.170380	0.948230
C43331	C4333	0.130860	0.182120	0.947240
H26661	H2666	0.131900	0.193300	0.937700
C43341	C4334	0.147240	0.177510	0.960190
H26671	H2667	0.159800	0.185200	0.959600
C43351	C4335	0.144930	0.161380	0.974130
H26681	H2668	0.156000	0.158800	0.983600
C43361	C4336	0.075520	0.128100	0.001100
C43371	C4337	0.137800	0.082520	0.017530
H26691	H2669	0.147900	0.083500	0.006800
C43381	C4338	0.137260	0.065210	0.028940
H26701	H2670	0.147200	0.054500	0.026700
C43391	C4339	0.121790	0.062950	0.044390
H26711	H2671	0.120700	0.050600	0.052400
C43401	C4340	0.108270	0.079580	0.047440
C43411	C4341	0.110050	0.096960	0.034790
H26721	H2672	0.100300	0.107900	0.036600
C43421	C4342	0.092070	0.078610	0.063230
N16611	N1661	0.015610	0.135100	0.909970
N16621	N1662	0.113250	0.273090	0.854650
N16631	N1663	0.100680	0.232430	0.873280
N16641	N1664	0.063090	0.179080	0.909430
N16651	N1665	0.096580	0.188580	0.920230
N16661	N1666	0.077740	0.162460	0.938490
N16671	N1667	0.128270	0.149260	0.975120
N16681	N1668	0.124520	0.099160	0.020330
N16691	N1669	0.092970	0.127070	0.998980
N16701	N1670	0.077510	0.093430	0.063130
S3331	S333	0.084350	0.290170	0.827430
S3341	S334	0.049750	0.129210	0.003590
C43431	C4343	0.031780	0.648340	0.410100
H26731	H2673	0.034900	0.655700	0.397600
C43441	C4344	0.044170	0.651890	0.427270
C43451	C4345	0.039510	0.641830	0.445630
H26741	H2674	0.048100	0.643400	0.457600
C43461	C4346	0.022020	0.629380	0.446170
H26751	H2675	0.017600	0.623300	0.458900
C43471	C4347	0.010990	0.625780	0.428290
H26761	H2676	0.999600	0.616300	0.428800
C43481	C4348	0.101510	0.781000	0.343420
C43491	C4349	0.085160	0.733270	0.359330
H26771	H2677	0.086000	0.743600	0.348800
C43501	C4350	0.068300	0.720410	0.359230
H26781	H2678	0.058200	0.721300	0.348500
C43511	C4351	0.066240	0.706110	0.375050
H26791	H2679	0.054700	0.696900	0.375500
C43521	C4352	0.081540	0.705460	0.390460
C43531	C4353	0.098010	0.718850	0.388850
H26801	H2680	0.108200	0.718500	0.399500
C43541	C4354	0.080040	0.690170	0.407930
C43551	C4355	0.095030	0.674300	0.435220
C43561	C4356	0.062530	0.665370	0.425260
C43571	C4357	0.112830	0.653410	0.462360
H26811	H2681	0.101000	0.644600	0.462600
C43581	C4358	0.112980	0.670380	0.448230
C43591	C4359	0.130860	0.682120	0.447240
H26821	H2682	0.131900	0.693300	0.437700
C43601	C4360	0.147240	0.677510	0.460190
H26831	H2683	0.159800	0.685200	0.459600
C43611	C4361	0.144930	0.661380	0.474130
H26841	H2684	0.156000	0.658800	0.483600
C43621	C4362	0.075520	0.628100	0.501100
C43631	C4363	0.137800	0.582520	0.517530
H26851	H2685	0.147900	0.583500	0.506800
C43641	C4364	0.137260	0.565210	0.528940
H26861	H2686	0.147200	0.554500	0.526700
C43651	C4365	0.121790	0.562950	0.544390
H26871	H2687	0.120700	0.550600	0.552400
C43661	C4366	0.108270	0.579580	0.547440
C43671	C4367	0.110050	0.596960	0.534790
H26881	H2688	0.100300	0.607900	0.536600
C43681	C4368	0.092070	0.578610	0.563230
N16711	N1671	0.015610	0.635100	0.409970
N16721	N1672	0.113250	0.773090	0.354650
N16731	N1673	0.100680	0.732430	0.373280
N16741	N1674	0.063090	0.679080	0.409430
N16751	N1675	0.096580	0.688580	0.420230
N16761	N1676	0.077740	0.662460	0.438490
N16771	N1677	0.128270	0.649260	0.475120
N16781	N1678	0.124520	0.599160	0.520330
N16791	N1679	0.092970	0.627070	0.498980
N16801	N1680	0.077510	0.593430	0.563130
S3351	S335	0.084350	0.790170	0.327430
S3361	S336	0.049750	0.629210	0.503590
C43691	C4369	0.031780	0.601660	0.839900
H26891	H2689	0.034900	0.594300	0.852400
C43701	C4370	0.044170	0.598110	0.822730
C43711	C4371	0.039510	0.608170	0.804370
H26901	H2690	0.048100	0.606600	0.792400
C43721	C4372	0.022020	0.620620	0.803830
H26911	H2691	0.017600	0.626700	0.791100
C43731	C4373	0.010990	0.624220	0.821710
H26921	H2692	0.999600	0.633700	0.821200
C43741	C4374	0.101510	0.469000	0.906580
C43751	C4375	0.085160	0.516730	0.890670
H26931	H2693	0.086000	0.506400	0.901200
C43761	C4376	0.068300	0.529590	0.890770
H26941	H2694	0.058200	0.528700	0.901500
C43771	C4377	0.066240	0.543890	0.874950
H26951	H2695	0.054700	0.553100	0.874500
C43781	C4378	0.081540	0.544540	0.859540
C43791	C4379	0.098010	0.531150	0.861150
H26961	H2696	0.108200	0.531500	0.850500
C43801	C4380	0.080040	0.559830	0.842070
C43811	C4381	0.095030	0.575700	0.814780
C43821	C4382	0.062530	0.584630	0.824740
C43831	C4383	0.112830	0.596590	0.787640
H26971	H2697	0.101000	0.605400	0.787400
C43841	C4384	0.112980	0.579620	0.801770
C43851	C4385	0.130860	0.567880	0.802760
H26981	H2698	0.131900	0.556700	0.812300
C43861	C4386	0.147240	0.572490	0.789810
H26991	H2699	0.159800	0.564800	0.790400
C43871	C4387	0.144930	0.588620	0.775870
H27001	H2700	0.156000	0.591200	0.766400
C43881	C4388	0.075520	0.621900	0.748900
C43891	C4389	0.137800	0.667480	0.732470
H27011	H2701	0.147900	0.666500	0.743200
C43901	C4390	0.137260	0.684790	0.721060
H27021	H2702	0.147200	0.695500	0.723300
C43911	C4391	0.121790	0.687050	0.705610
H27031	H2703	0.120700	0.699400	0.697600
C43921	C4392	0.108270	0.670420	0.702560
C43931	C4393	0.110050	0.653040	0.715210
H27041	H2704	0.100300	0.642100	0.713400
C43941	C4394	0.092070	0.671390	0.686770
N16811	N1681	0.015610	0.614900	0.840030
N16821	N1682	0.113250	0.476910	0.895350
N16831	N1683	0.100680	0.517570	0.876720
N16841	N1684	0.063090	0.570920	0.840570
N16851	N1685	0.096580	0.561420	0.829770
N16861	N1686	0.077740	0.587540	0.811510
N16871	N1687	0.128270	0.600740	0.774880
N16881	N1688	0.124520	0.650840	0.729670
N16891	N1689	0.092970	0.622930	0.751020
N16901	N1690	0.077510	0.656570	0.686870
S3371	S337	0.084350	0.459830	0.922570
S3381	S338	0.049750	0.620790	0.746410
C43951	C4395	0.031780	0.101660	0.339900
H27051	H2705	0.034900	0.094300	0.352400
C43961	C4396	0.044170	0.098110	0.322730
C43971	C4397	0.039510	0.108170	0.304370
H27061	H2706	0.048100	0.106600	0.292400
C43981	C4398	0.022020	0.120620	0.303830
H27071	H2707	0.017600	0.126700	0.291100
C43991	C4399	0.010990	0.124220	0.321710
H27081	H2708	0.999600	0.133700	0.321200
C44001	C4400	0.101510	0.969000	0.406580
C44011	C4401	0.085160	0.016730	0.390670
H27091	H2709	0.086000	0.006400	0.401200
C44021	C4402	0.068300	0.029590	0.390770
H27101	H2710	0.058200	0.028700	0.401500
C44031	C4403	0.066240	0.043890	0.374950
H27111	H2711	0.054700	0.053100	0.374500
C44041	C4404	0.081540	0.044540	0.359540
C44051	C4405	0.098010	0.031150	0.361150
H27121	H2712	0.108200	0.031500	0.350500
C44061	C4406	0.080040	0.059830	0.342070
C44071	C4407	0.095030	0.075700	0.314780
C44081	C4408	0.062530	0.084630	0.324740
C44091	C4409	0.112830	0.096590	0.287640
H27131	H2713	0.101000	0.105400	0.287400
C44101	C4410	0.112980	0.079620	0.301770
C44111	C4411	0.130860	0.067880	0.302760
H27141	H2714	0.131900	0.056700	0.312300
C44121	C4412	0.147240	0.072490	0.289810
H27151	H2715	0.159800	0.064800	0.290400
C44131	C4413	0.144930	0.088620	0.275870
H27161	H2716	0.156000	0.091200	0.266400
C44141	C4414	0.075520	0.121900	0.248900
C44151	C4415	0.137800	0.167480	0.232470
H27171	H2717	0.147900	0.166500	0.243200
C44161	C4416	0.137260	0.184790	0.221060
H27181	H2718	0.147200	0.195500	0.223300
C44171	C4417	0.121790	0.187050	0.205610
H27191	H2719	0.120700	0.199400	0.197600
C44181	C4418	0.108270	0.170420	0.202560
C44191	C4419	0.110050	0.153040	0.215210
H27201	H2720	0.100300	0.142100	0.213400
C44201	C4420	0.092070	0.171390	0.186770
N16911	N1691	0.015610	0.114900	0.340030
N16921	N1692	0.113250	0.976910	0.395350
N16931	N1693	0.100680	0.017570	0.376720
N16941	N1694	0.063090	0.070920	0.340570
N16951	N1695	0.096580	0.061420	0.329770
N16961	N1696	0.077740	0.087540	0.311510
N16971	N1697	0.128270	0.100740	0.274880
N16981	N1698	0.124520	0.150840	0.229670
N16991	N1699	0.092970	0.122930	0.251020
N17001	N1700	0.077510	0.156570	0.186870
S3391	S339	0.084350	0.959830	0.422570
S3401	S340	0.049750	0.120790	0.246410
C44211	C4421	0.531780	0.601660	0.339900
H27211	H2721	0.534900	0.594300	0.352400
C44221	C4422	0.544170	0.598110	0.322730
C44231	C4423	0.539510	0.608170	0.304370
H27221	H2722	0.548100	0.606600	0.292400
C44241	C4424	0.522020	0.620620	0.303830
H27231	H2723	0.517600	0.626700	0.291100
C44251	C4425	0.510990	0.624220	0.321710
H27241	H2724	0.499600	0.633700	0.321200
C44261	C4426	0.601510	0.469000	0.406580
C44271	C4427	0.585160	0.516730	0.390670
H27251	H2725	0.586000	0.506400	0.401200
C44281	C4428	0.568300	0.529590	0.390770
H27261	H2726	0.558200	0.528700	0.401500
C44291	C4429	0.566240	0.543890	0.374950
H27271	H2727	0.554700	0.553100	0.374500
C44301	C4430	0.581540	0.544540	0.359540
C44311	C4431	0.598010	0.531150	0.361150
H27281	H2728	0.608200	0.531500	0.350500
C44321	C4432	0.580040	0.559830	0.342070
C44331	C4433	0.595030	0.575700	0.314780
C44341	C4434	0.562530	0.584630	0.324740
C44351	C4435	0.612830	0.596590	0.287640
H27291	H2729	0.601000	0.605400	0.287400
C44361	C4436	0.612980	0.579620	0.301770
C44371	C4437	0.630860	0.567880	0.302760
H27301	H2730	0.631900	0.556700	0.312300
C44381	C4438	0.647240	0.572490	0.289810
H27311	H2731	0.659800	0.564800	0.290400
C44391	C4439	0.644930	0.588620	0.275870
H27321	H2732	0.656000	0.591200	0.266400
C44401	C4440	0.575520	0.621900	0.248900
C44411	C4441	0.637800	0.667480	0.232470
H27331	H2733	0.647900	0.666500	0.243200
C44421	C4442	0.637260	0.684790	0.221060
H27341	H2734	0.647200	0.695500	0.223300
C44431	C4443	0.621790	0.687050	0.205610
H27351	H2735	0.620700	0.699400	0.197600
C44441	C4444	0.608270	0.670420	0.202560
C44451	C4445	0.610050	0.653040	0.215210
H27361	H2736	0.600300	0.642100	0.213400
C44461	C4446	0.592070	0.671390	0.186770
N17011	N1701	0.515610	0.614900	0.340030
N17021	N1702	0.613250	0.476910	0.395350
N17031	N1703	0.600680	0.517570	0.376720
N17041	N1704	0.563090	0.570920	0.340570
N17051	N1705	0.596580	0.561420	0.329770
N17061	N1706	0.577740	0.587540	0.311510
N17071	N1707	0.628270	0.600740	0.274880
N17081	N1708	0.624520	0.650840	0.229670
N17091	N1709	0.592970	0.622930	0.251020
N17101	N1710	0.577510	0.656570	0.186870
S3411	S341	0.584350	0.459830	0.422570
S3421	S342	0.549750	0.620790	0.246410
C44471	C4447	0.531780	0.101660	0.839900
H27371	H2737	0.534900	0.094300	0.852400
C44481	C4448	0.544170	0.098110	0.822730
C44491	C4449	0.539510	0.108170	0.804370
H27381	H2738	0.548100	0.106600	0.792400
C44501	C4450	0.522020	0.120620	0.803830
H27391	H2739	0.517600	0.126700	0.791100
C44511	C4451	0.510990	0.124220	0.821710
H27401	H2740	0.499600	0.133700	0.821200
C44521	C4452	0.601510	0.969000	0.906580
C44531	C4453	0.585160	0.016730	0.890670
H27411	H2741	0.586000	0.006400	0.901200
C44541	C4454	0.568300	0.029590	0.890770
H27421	H2742	0.558200	0.028700	0.901500
C44551	C4455	0.566240	0.043890	0.874950
H27431	H2743	0.554700	0.053100	0.874500
C44561	C4456	0.581540	0.044540	0.859540
C44571	C4457	0.598010	0.031150	0.861150
H27441	H2744	0.608200	0.031500	0.850500
C44581	C4458	0.580040	0.059830	0.842070
C44591	C4459	0.595030	0.075700	0.814780
C44601	C4460	0.562530	0.084630	0.824740
C44611	C4461	0.612830	0.096590	0.787640
H27451	H2745	0.601000	0.105400	0.787400
C44621	C4462	0.612980	0.079620	0.801770
C44631	C4463	0.630860	0.067880	0.802760
H27461	H2746	0.631900	0.056700	0.812300
C44641	C4464	0.647240	0.072490	0.789810
H27471	H2747	0.659800	0.064800	0.790400
C44651	C4465	0.644930	0.088620	0.775870
H27481	H2748	0.656000	0.091200	0.766400
C44661	C4466	0.575520	0.121900	0.748900
C44671	C4467	0.637800	0.167480	0.732470
H27491	H2749	0.647900	0.166500	0.743200
C44681	C4468	0.637260	0.184790	0.721060
H27501	H2750	0.647200	0.195500	0.723300
C44691	C4469	0.621790	0.187050	0.705610
H27511	H2751	0.620700	0.199400	0.697600
C44701	C4470	0.608270	0.170420	0.702560
C44711	C4471	0.610050	0.153040	0.715210
H27521	H2752	0.600300	0.142100	0.713400
C44721	C4472	0.592070	0.171390	0.686770
N17111	N1711	0.515610	0.114900	0.840030
N17121	N1712	0.613250	0.976910	0.895350
N17131	N1713	0.600680	0.017570	0.876720
N17141	N1714	0.563090	0.070920	0.840570
N17151	N1715	0.596580	0.061420	0.829770
N17161	N1716	0.577740	0.087540	0.811510
N17171	N1717	0.628270	0.100740	0.774880
N17181	N1718	0.624520	0.150840	0.729670
N17191	N1719	0.592970	0.122930	0.751020
N17201	N1720	0.577510	0.156570	0.686870
S3431	S343	0.584350	0.959830	0.922570
S3441	S344	0.549750	0.120790	0.746410
C44731	C4473	0.218220	0.101660	0.910100
H27531	H2753	0.215100	0.094300	0.897600
C44741	C4474	0.205830	0.098110	0.927270
C44751	C4475	0.210490	0.108170	0.945630
H27541	H2754	0.201900	0.106600	0.957600
C44761	C4476	0.227980	0.120620	0.946170
H27551	H2755	0.232400	0.126700	0.958900
C44771	C4477	0.239010	0.124220	0.928290
H27561	H2756	0.250400	0.133700	0.928800
C44781	C4478	0.148490	0.969000	0.843420
C44791	C4479	0.164840	0.016730	0.859330
H27571	H2757	0.164000	0.006400	0.848800
C44801	C4480	0.181700	0.029590	0.859230
H27581	H2758	0.191800	0.028700	0.848500
C44811	C4481	0.183760	0.043890	0.875050
H27591	H2759	0.195300	0.053100	0.875500
C44821	C4482	0.168460	0.044540	0.890460
C44831	C4483	0.151990	0.031150	0.888850
H27601	H2760	0.141800	0.031500	0.899500
C44841	C4484	0.169960	0.059830	0.907930
C44851	C4485	0.154970	0.075700	0.935220
C44861	C4486	0.187470	0.084630	0.925260
C44871	C4487	0.137170	0.096590	0.962360
H27611	H2761	0.149000	0.105400	0.962600
C44881	C4488	0.137020	0.079620	0.948230
C44891	C4489	0.119140	0.067880	0.947240
H27621	H2762	0.118100	0.056700	0.937700
C44901	C4490	0.102760	0.072490	0.960190
H27631	H2763	0.090200	0.064800	0.959600
C44911	C4491	0.105070	0.088620	0.974130
H27641	H2764	0.094000	0.091200	0.983600
C44921	C4492	0.174480	0.121900	0.001100
C44931	C4493	0.112200	0.167480	0.017530
H27651	H2765	0.102100	0.166500	0.006800
C44941	C4494	0.112740	0.184790	0.028940
H27661	H2766	0.102800	0.195500	0.026700
C44951	C4495	0.128210	0.187050	0.044390
H27671	H2767	0.129300	0.199400	0.052400
C44961	C4496	0.141730	0.170420	0.047440
C44971	C4497	0.139950	0.153040	0.034790
H27681	H2768	0.149700	0.142100	0.036600
C44981	C4498	0.157930	0.171390	0.063230
N17211	N1721	0.234390	0.114900	0.909970
N17221	N1722	0.136750	0.976910	0.854650
N17231	N1723	0.149320	0.017570	0.873280
N17241	N1724	0.186910	0.070920	0.909430
N17251	N1725	0.153420	0.061420	0.920230
N17261	N1726	0.172260	0.087540	0.938490
N17271	N1727	0.121730	0.100740	0.975120
N17281	N1728	0.125480	0.150840	0.020330
N17291	N1729	0.157030	0.122930	0.998980
N17301	N1730	0.172490	0.156570	0.063130
S3451	S345	0.165650	0.959830	0.827430
S3461	S346	0.200250	0.120790	0.003590
C44991	C4499	0.218220	0.601660	0.410100
H27691	H2769	0.215100	0.594300	0.397600
C45001	C4500	0.205830	0.598110	0.427270
C45011	C4501	0.210490	0.608170	0.445630
H27701	H2770	0.201900	0.606600	0.457600
C45021	C4502	0.227980	0.620620	0.446170
H27711	H2771	0.232400	0.626700	0.458900
C45031	C4503	0.239010	0.624220	0.428290
H27721	H2772	0.250400	0.633700	0.428800
C45041	C4504	0.148490	0.469000	0.343420
C45051	C4505	0.164840	0.516730	0.359330
H27731	H2773	0.164000	0.506400	0.348800
C45061	C4506	0.181700	0.529590	0.359230
H27741	H2774	0.191800	0.528700	0.348500
C45071	C4507	0.183760	0.543890	0.375050
H27751	H2775	0.195300	0.553100	0.375500
C45081	C4508	0.168460	0.544540	0.390460
C45091	C4509	0.151990	0.531150	0.388850
H27761	H2776	0.141800	0.531500	0.399500
C45101	C4510	0.169960	0.559830	0.407930
C45111	C4511	0.154970	0.575700	0.435220
C45121	C4512	0.187470	0.584630	0.425260
C45131	C4513	0.137170	0.596590	0.462360
H27771	H2777	0.149000	0.605400	0.462600
C45141	C4514	0.137020	0.579620	0.448230
C45151	C4515	0.119140	0.567880	0.447240
H27781	H2778	0.118100	0.556700	0.437700
C45161	C4516	0.102760	0.572490	0.460190
H27791	H2779	0.090200	0.564800	0.459600
C45171	C4517	0.105070	0.588620	0.474130
H27801	H2780	0.094000	0.591200	0.483600
C45181	C4518	0.174480	0.621900	0.501100
C45191	C4519	0.112200	0.667480	0.517530
H27811	H2781	0.102100	0.666500	0.506800
C45201	C4520	0.112740	0.684790	0.528940
H27821	H2782	0.102800	0.695500	0.526700
C45211	C4521	0.128210	0.687050	0.544390
H27831	H2783	0.129300	0.699400	0.552400
C45221	C4522	0.141730	0.670420	0.547440
C45231	C4523	0.139950	0.653040	0.534790
H27841	H2784	0.149700	0.642100	0.536600
C45241	C4524	0.157930	0.671390	0.563230
N17311	N1731	0.234390	0.614900	0.409970
N17321	N1732	0.136750	0.476910	0.354650
N17331	N1733	0.149320	0.517570	0.373280
N17341	N1734	0.186910	0.570920	0.409430
N17351	N1735	0.153420	0.561420	0.420230
N17361	N1736	0.172260	0.587540	0.438490
N17371	N1737	0.121730	0.600740	0.475120
N17381	N1738	0.125480	0.650840	0.520330
N17391	N1739	0.157030	0.622930	0.498980
N17401	N1740	0.172490	0.656570	0.563130
S3471	S347	0.165650	0.459830	0.327430
S3481	S348	0.200250	0.620790	0.503590
C45251	C4525	0.718220	0.101660	0.410100
H27851	H2785	0.715100	0.094300	0.397600
C45261	C4526	0.705830	0.098110	0.427270
C45271	C4527	0.710490	0.108170	0.445630
H27861	H2786	0.701900	0.106600	0.457600
C45281	C4528	0.727980	0.120620	0.446170
H27871	H2787	0.732400	0.126700	0.458900
C45291	C4529	0.739010	0.124220	0.428290
H27881	H2788	0.750400	0.133700	0.428800
C45301	C4530	0.648490	0.969000	0.343420
C45311	C4531	0.664840	0.016730	0.359330
H27891	H2789	0.664000	0.006400	0.348800
C45321	C4532	0.681700	0.029590	0.359230
H27901	H2790	0.691800	0.028700	0.348500
C45331	C4533	0.683760	0.043890	0.375050
H27911	H2791	0.695300	0.053100	0.375500
C45341	C4534	0.668460	0.044540	0.390460
C45351	C4535	0.651990	0.031150	0.388850
H27921	H2792	0.641800	0.031500	0.399500
C45361	C4536	0.669960	0.059830	0.407930
C45371	C4537	0.654970	0.075700	0.435220
C45381	C4538	0.687470	0.084630	0.425260
C45391	C4539	0.637170	0.096590	0.462360
H27931	H2793	0.649000	0.105400	0.462600
C45401	C4540	0.637020	0.079620	0.448230
C45411	C4541	0.619140	0.067880	0.447240
H27941	H2794	0.618100	0.056700	0.437700
C45421	C4542	0.602760	0.072490	0.460190
H27951	H2795	0.590200	0.064800	0.459600
C45431	C4543	0.605070	0.088620	0.474130
H27961	H2796	0.594000	0.091200	0.483600
C45441	C4544	0.674480	0.121900	0.501100
C45451	C4545	0.612200	0.167480	0.517530
H27971	H2797	0.602100	0.166500	0.506800
C45461	C4546	0.612740	0.184790	0.528940
H27981	H2798	0.602800	0.195500	0.526700
C45471	C4547	0.628210	0.187050	0.544390
H27991	H2799	0.629300	0.199400	0.552400
C45481	C4548	0.641730	0.170420	0.547440
C45491	C4549	0.639950	0.153040	0.534790
H28001	H2800	0.649700	0.142100	0.536600
C45501	C4550	0.657930	0.171390	0.563230
N17411	N1741	0.734390	0.114900	0.409970
N17421	N1742	0.636750	0.976910	0.354650
N17431	N1743	0.649320	0.017570	0.373280
N17441	N1744	0.686910	0.070920	0.409430
N17451	N1745	0.653420	0.061420	0.420230
N17461	N1746	0.672260	0.087540	0.438490
N17471	N1747	0.621730	0.100740	0.475120
N17481	N1748	0.625480	0.150840	0.520330
N17491	N1749	0.657030	0.122930	0.498980
N17501	N1750	0.672490	0.156570	0.563130
S3491	S349	0.665650	0.959830	0.327430
S3501	S350	0.700250	0.120790	0.503590
C45511	C4551	0.718220	0.601660	0.910100
H28011	H2801	0.715100	0.594300	0.897600
C45521	C4552	0.705830	0.598110	0.927270
C45531	C4553	0.710490	0.608170	0.945630
H28021	H2802	0.701900	0.606600	0.957600
C45541	C4554	0.727980	0.620620	0.946170
H28031	H2803	0.732400	0.626700	0.958900
C45551	C4555	0.739010	0.624220	0.928290
H28041	H2804	0.750400	0.633700	0.928800
C45561	C4556	0.648490	0.469000	0.843420
C45571	C4557	0.664840	0.516730	0.859330
H28051	H2805	0.664000	0.506400	0.848800
C45581	C4558	0.681700	0.529590	0.859230
H28061	H2806	0.691800	0.528700	0.848500
C45591	C4559	0.683760	0.543890	0.875050
H28071	H2807	0.695300	0.553100	0.875500
C45601	C4560	0.668460	0.544540	0.890460
C45611	C4561	0.651990	0.531150	0.888850
H28081	H2808	0.641800	0.531500	0.899500
C45621	C4562	0.669960	0.559830	0.907930
C45631	C4563	0.654970	0.575700	0.935220
C45641	C4564	0.687470	0.584630	0.925260
C45651	C4565	0.637170	0.596590	0.962360
H28091	H2809	0.649000	0.605400	0.962600
C45661	C4566	0.637020	0.579620	0.948230
C45671	C4567	0.619140	0.567880	0.947240
H28101	H2810	0.618100	0.556700	0.937700
C45681	C4568	0.602760	0.572490	0.960190
H28111	H2811	0.590200	0.564800	0.959600
C45691	C4569	0.605070	0.588620	0.974130
H28121	H2812	0.594000	0.591200	0.983600
C45701	C4570	0.674480	0.621900	0.001100
C45711	C4571	0.612200	0.667480	0.017530
H28131	H2813	0.602100	0.666500	0.006800
C45721	C4572	0.612740	0.684790	0.028940
H28141	H2814	0.602800	0.695500	0.026700
C45731	C4573	0.628210	0.687050	0.044390
H28151	H2815	0.629300	0.699400	0.052400
C45741	C4574	0.641730	0.670420	0.047440
C45751	C4575	0.639950	0.653040	0.034790
H28161	H2816	0.649700	0.642100	0.036600
C45761	C4576	0.657930	0.671390	0.063230
N17511	N1751	0.734390	0.614900	0.909970
N17521	N1752	0.636750	0.476910	0.854650
N17531	N1753	0.649320	0.517570	0.873280
N17541	N1754	0.686910	0.570920	0.909430
N17551	N1755	0.653420	0.561420	0.920230
N17561	N1756	0.672260	0.587540	0.938490
N17571	N1757	0.621730	0.600740	0.975120
N17581	N1758	0.625480	0.650840	0.020330
N17591	N1759	0.657030	0.622930	0.998980
N17601	N1760	0.672490	0.656570	0.063130
S3511	S351	0.665650	0.459830	0.827430
S3521	S352	0.700250	0.620790	0.003590
C45771	C4577	0.148340	0.410100	0.531780
H28171	H2817	0.155700	0.397600	0.534900
C45781	C4578	0.151890	0.427270	0.544170
C45791	C4579	0.141830	0.445630	0.539510
H28181	H2818	0.143400	0.457600	0.548100
C45801	C4580	0.129380	0.446170	0.522020
H28191	H2819	0.123300	0.458900	0.517600
C45811	C4581	0.125780	0.428290	0.510990
H28201	H2820	0.116300	0.428800	0.499600
C45821	C4582	0.281000	0.343420	0.601510
C45831	C4583	0.233270	0.359330	0.585160
H28211	H2821	0.243600	0.348800	0.586000
C45841	C4584	0.220410	0.359230	0.568300
H28221	H2822	0.221300	0.348500	0.558200
C45851	C4585	0.206110	0.375050	0.566240
H28231	H2823	0.196900	0.375500	0.554700
C45861	C4586	0.205460	0.390460	0.581540
C45871	C4587	0.218850	0.388850	0.598010
H28241	H2824	0.218500	0.399500	0.608200
C45881	C4588	0.190170	0.407930	0.580040
C45891	C4589	0.174300	0.435220	0.595030
C45901	C4590	0.165370	0.425260	0.562530
C45911	C4591	0.153410	0.462360	0.612830
H28251	H2825	0.144600	0.462600	0.601000
C45921	C4592	0.170380	0.448230	0.612980
C45931	C4593	0.182120	0.447240	0.630860
H28261	H2826	0.193300	0.437700	0.631900
C45941	C4594	0.177510	0.460190	0.647240
H28271	H2827	0.185200	0.459600	0.659800
C45951	C4595	0.161380	0.474130	0.644930
H28281	H2828	0.158800	0.483600	0.656000
C45961	C4596	0.128100	0.501100	0.575520
C45971	C4597	0.082520	0.517530	0.637800
H28291	H2829	0.083500	0.506800	0.647900
C45981	C4598	0.065210	0.528940	0.637260
H28301	H2830	0.054500	0.526700	0.647200
C45991	C4599	0.062950	0.544390	0.621790
H28311	H2831	0.050600	0.552400	0.620700
C46001	C4600	0.079580	0.547440	0.608270
C46011	C4601	0.096960	0.534790	0.610050
H28321	H2832	0.107900	0.536600	0.600300
C46021	C4602	0.078610	0.563230	0.592070
N17611	N1761	0.135100	0.409970	0.515610
N17621	N1762	0.273090	0.354650	0.613250
N17631	N1763	0.232430	0.373280	0.600680
N17641	N1764	0.179080	0.409430	0.563090
N17651	N1765	0.188580	0.420230	0.596580
N17661	N1766	0.162460	0.438490	0.577740
N17671	N1767	0.149260	0.475120	0.628270
N17681	N1768	0.099160	0.520330	0.624520
N17691	N1769	0.127070	0.498980	0.592970
N17701	N1770	0.093430	0.563130	0.577510
S3531	S353	0.290170	0.327430	0.584350
S3541	S354	0.129210	0.503590	0.549750
C46031	C4603	0.148340	0.910100	0.031780
H28331	H2833	0.155700	0.897600	0.034900
C46041	C4604	0.151890	0.927270	0.044170
C46051	C4605	0.141830	0.945630	0.039510
H28341	H2834	0.143400	0.957600	0.048100
C46061	C4606	0.129380	0.946170	0.022020
H28351	H2835	0.123300	0.958900	0.017600
C46071	C4607	0.125780	0.928290	0.010990
H28361	H2836	0.116300	0.928800	0.999600
C46081	C4608	0.281000	0.843420	0.101510
C46091	C4609	0.233270	0.859330	0.085160
H28371	H2837	0.243600	0.848800	0.086000
C46101	C4610	0.220410	0.859230	0.068300
H28381	H2838	0.221300	0.848500	0.058200
C46111	C4611	0.206110	0.875050	0.066240
H28391	H2839	0.196900	0.875500	0.054700
C46121	C4612	0.205460	0.890460	0.081540
C46131	C4613	0.218850	0.888850	0.098010
H28401	H2840	0.218500	0.899500	0.108200
C46141	C4614	0.190170	0.907930	0.080040
C46151	C4615	0.174300	0.935220	0.095030
C46161	C4616	0.165370	0.925260	0.062530
C46171	C4617	0.153410	0.962360	0.112830
H28411	H2841	0.144600	0.962600	0.101000
C46181	C4618	0.170380	0.948230	0.112980
C46191	C4619	0.182120	0.947240	0.130860
H28421	H2842	0.193300	0.937700	0.131900
C46201	C4620	0.177510	0.960190	0.147240
H28431	H2843	0.185200	0.959600	0.159800
C46211	C4621	0.161380	0.974130	0.144930
H28441	H2844	0.158800	0.983600	0.156000
C46221	C4622	0.128100	0.001100	0.075520
C46231	C4623	0.082520	0.017530	0.137800
H28451	H2845	0.083500	0.006800	0.147900
C46241	C4624	0.065210	0.028940	0.137260
H28461	H2846	0.054500	0.026700	0.147200
C46251	C4625	0.062950	0.044390	0.121790
H28471	H2847	0.050600	0.052400	0.120700
C46261	C4626	0.079580	0.047440	0.108270
C46271	C4627	0.096960	0.034790	0.110050
H28481	H2848	0.107900	0.036600	0.100300
C46281	C4628	0.078610	0.063230	0.092070
N17711	N1771	0.135100	0.909970	0.015610
N17721	N1772	0.273090	0.854650	0.113250
N17731	N1773	0.232430	0.873280	0.100680
N17741	N1774	0.179080	0.909430	0.063090
N17751	N1775	0.188580	0.920230	0.096580
N17761	N1776	0.162460	0.938490	0.077740
N17771	N1777	0.149260	0.975120	0.128270
N17781	N1778	0.099160	0.020330	0.124520
N17791	N1779	0.127070	0.998980	0.092970
N17801	N1780	0.093430	0.063130	0.077510
S3551	S355	0.290170	0.827430	0.084350
S3561	S356	0.129210	0.003590	0.049750
C46291	C4629	0.648340	0.410100	0.031780
H28491	H2849	0.655700	0.397600	0.034900
C46301	C4630	0.651890	0.427270	0.044170
C46311	C4631	0.641830	0.445630	0.039510
H28501	H2850	0.643400	0.457600	0.048100
C46321	C4632	0.629380	0.446170	0.022020
H28511	H2851	0.623300	0.458900	0.017600
C46331	C4633	0.625780	0.428290	0.010990
H28521	H2852	0.616300	0.428800	0.999600
C46341	C4634	0.781000	0.343420	0.101510
C46351	C4635	0.733270	0.359330	0.085160
H28531	H2853	0.743600	0.348800	0.086000
C46361	C4636	0.720410	0.359230	0.068300
H28541	H2854	0.721300	0.348500	0.058200
C46371	C4637	0.706110	0.375050	0.066240
H28551	H2855	0.696900	0.375500	0.054700
C46381	C4638	0.705460	0.390460	0.081540
C46391	C4639	0.718850	0.388850	0.098010
H28561	H2856	0.718500	0.399500	0.108200
C46401	C4640	0.690170	0.407930	0.080040
C46411	C4641	0.674300	0.435220	0.095030
C46421	C4642	0.665370	0.425260	0.062530
C46431	C4643	0.653410	0.462360	0.112830
H28571	H2857	0.644600	0.462600	0.101000
C46441	C4644	0.670380	0.448230	0.112980
C46451	C4645	0.682120	0.447240	0.130860
H28581	H2858	0.693300	0.437700	0.131900
C46461	C4646	0.677510	0.460190	0.147240
H28591	H2859	0.685200	0.459600	0.159800
C46471	C4647	0.661380	0.474130	0.144930
H28601	H2860	0.658800	0.483600	0.156000
C46481	C4648	0.628100	0.501100	0.075520
C46491	C4649	0.582520	0.517530	0.137800
H28611	H2861	0.583500	0.506800	0.147900
C46501	C4650	0.565210	0.528940	0.137260
H28621	H2862	0.554500	0.526700	0.147200
C46511	C4651	0.562950	0.544390	0.121790
H28631	H2863	0.550600	0.552400	0.120700
C46521	C4652	0.579580	0.547440	0.108270
C46531	C4653	0.596960	0.534790	0.110050
H28641	H2864	0.607900	0.536600	0.100300
C46541	C4654	0.578610	0.563230	0.092070
N17811	N1781	0.635100	0.409970	0.015610
N17821	N1782	0.773090	0.354650	0.113250
N17831	N1783	0.732430	0.373280	0.100680
N17841	N1784	0.679080	0.409430	0.063090
N17851	N1785	0.688580	0.420230	0.096580
N17861	N1786	0.662460	0.438490	0.077740
N17871	N1787	0.649260	0.475120	0.128270
N17881	N1788	0.599160	0.520330	0.124520
N17891	N1789	0.627070	0.498980	0.092970
N17901	N1790	0.593430	0.563130	0.077510
S3571	S357	0.790170	0.327430	0.084350
S3581	S358	0.629210	0.503590	0.049750
C46551	C4655	0.648340	0.910100	0.531780
H28651	H2865	0.655700	0.897600	0.534900
C46561	C4656	0.651890	0.927270	0.544170
C46571	C4657	0.641830	0.945630	0.539510
H28661	H2866	0.643400	0.957600	0.548100
C46581	C4658	0.629380	0.946170	0.522020
H28671	H2867	0.623300	0.958900	0.517600
C46591	C4659	0.625780	0.928290	0.510990
H28681	H2868	0.616300	0.928800	0.499600
C46601	C4660	0.781000	0.843420	0.601510
C46611	C4661	0.733270	0.859330	0.585160
H28691	H2869	0.743600	0.848800	0.586000
C46621	C4662	0.720410	0.859230	0.568300
H28701	H2870	0.721300	0.848500	0.558200
C46631	C4663	0.706110	0.875050	0.566240
H28711	H2871	0.696900	0.875500	0.554700
C46641	C4664	0.705460	0.890460	0.581540
C46651	C4665	0.718850	0.888850	0.598010
H28721	H2872	0.718500	0.899500	0.608200
C46661	C4666	0.690170	0.907930	0.580040
C46671	C4667	0.674300	0.935220	0.595030
C46681	C4668	0.665370	0.925260	0.562530
C46691	C4669	0.653410	0.962360	0.612830
H28731	H2873	0.644600	0.962600	0.601000
C46701	C4670	0.670380	0.948230	0.612980
C46711	C4671	0.682120	0.947240	0.630860
H28741	H2874	0.693300	0.937700	0.631900
C46721	C4672	0.677510	0.960190	0.647240
H28751	H2875	0.685200	0.959600	0.659800
C46731	C4673	0.661380	0.974130	0.644930
H28761	H2876	0.658800	0.983600	0.656000
C46741	C4674	0.628100	0.001100	0.575520
C46751	C4675	0.582520	0.017530	0.637800
H28771	H2877	0.583500	0.006800	0.647900
C46761	C4676	0.565210	0.028940	0.637260
H28781	H2878	0.554500	0.026700	0.647200
C46771	C4677	0.562950	0.044390	0.621790
H28791	H2879	0.550600	0.052400	0.620700
C46781	C4678	0.579580	0.047440	0.608270
C46791	C4679	0.596960	0.034790	0.610050
H28801	H2880	0.607900	0.036600	0.600300
C46801	C4680	0.578610	0.063230	0.592070
N17911	N1791	0.635100	0.909970	0.515610
N17921	N1792	0.773090	0.854650	0.613250
N17931	N1793	0.732430	0.873280	0.600680
N17941	N1794	0.679080	0.909430	0.563090
N17951	N1795	0.688580	0.920230	0.596580
N17961	N1796	0.662460	0.938490	0.577740
N17971	N1797	0.649260	0.975120	0.628270
N17981	N1798	0.599160	0.020330	0.624520
N17991	N1799	0.627070	0.998980	0.592970
N18001	N1800	0.593430	0.063130	0.577510
S3591	S359	0.790170	0.827430	0.584350
S3601	S360	0.629210	0.003590	0.549750
C46811	C4681	0.648340	0.339900	0.718220
H28811	H2881	0.655700	0.352400	0.715100
C46821	C4682	0.651890	0.322730	0.705830
C46831	C4683	0.641830	0.304370	0.710490
H28821	H2882	0.643400	0.292400	0.701900
C46841	C4684	0.629380	0.303830	0.727980
H28831	H2883	0.623300	0.291100	0.732400
C46851	C4685	0.625780	0.321710	0.739010
H28841	H2884	0.616300	0.321200	0.750400
C46861	C4686	0.781000	0.406580	0.648490
C46871	C4687	0.733270	0.390670	0.664840
H28851	H2885	0.743600	0.401200	0.664000
C46881	C4688	0.720410	0.390770	0.681700
H28861	H2886	0.721300	0.401500	0.691800
C46891	C4689	0.706110	0.374950	0.683760
H28871	H2887	0.696900	0.374500	0.695300
C46901	C4690	0.705460	0.359540	0.668460
C46911	C4691	0.718850	0.361150	0.651990
H28881	H2888	0.718500	0.350500	0.641800
C46921	C4692	0.690170	0.342070	0.669960
C46931	C4693	0.674300	0.314780	0.654970
C46941	C4694	0.665370	0.324740	0.687470
C46951	C4695	0.653410	0.287640	0.637170
H28891	H2889	0.644600	0.287400	0.649000
C46961	C4696	0.670380	0.301770	0.637020
C46971	C4697	0.682120	0.302760	0.619140
H28901	H2890	0.693300	0.312300	0.618100
C46981	C4698	0.677510	0.289810	0.602760
H28911	H2891	0.685200	0.290400	0.590200
C46991	C4699	0.661380	0.275870	0.605070
H28921	H2892	0.658800	0.266400	0.594000
C47001	C4700	0.628100	0.248900	0.674480
C47011	C4701	0.582520	0.232470	0.612200
H28931	H2893	0.583500	0.243200	0.602100
C47021	C4702	0.565210	0.221060	0.612740
H28941	H2894	0.554500	0.223300	0.602800
C47031	C4703	0.562950	0.205610	0.628210
H28951	H2895	0.550600	0.197600	0.629300
C47041	C4704	0.579580	0.202560	0.641730
C47051	C4705	0.596960	0.215210	0.639950
H28961	H2896	0.607900	0.213400	0.649700
C47061	C4706	0.578610	0.186770	0.657930
N18011	N1801	0.635100	0.340030	0.734390
N18021	N1802	0.773090	0.395350	0.636750
N18031	N1803	0.732430	0.376720	0.649320
N18041	N1804	0.679080	0.340570	0.686910
N18051	N1805	0.688580	0.329770	0.653420
N18061	N1806	0.662460	0.311510	0.672260
N18071	N1807	0.649260	0.274880	0.621730
N18081	N1808	0.599160	0.229670	0.625480
N18091	N1809	0.627070	0.251020	0.657030
N18101	N1810	0.593430	0.186870	0.672490
S3611	S361	0.790170	0.422570	0.665650
S3621	S362	0.629210	0.246410	0.700250
C47071	C4707	0.648340	0.839900	0.218220
H28971	H2897	0.655700	0.852400	0.215100
C47081	C4708	0.651890	0.822730	0.205830
C47091	C4709	0.641830	0.804370	0.210490
H28981	H2898	0.643400	0.792400	0.201900
C47101	C4710	0.629380	0.803830	0.227980
H28991	H2899	0.623300	0.791100	0.232400
C47111	C4711	0.625780	0.821710	0.239010
H29001	H2900	0.616300	0.821200	0.250400
C47121	C4712	0.781000	0.906580	0.148490
C47131	C4713	0.733270	0.890670	0.164840
H29011	H2901	0.743600	0.901200	0.164000
C47141	C4714	0.720410	0.890770	0.181700
H29021	H2902	0.721300	0.901500	0.191800
C47151	C4715	0.706110	0.874950	0.183760
H29031	H2903	0.696900	0.874500	0.195300
C47161	C4716	0.705460	0.859540	0.168460
C47171	C4717	0.718850	0.861150	0.151990
H29041	H2904	0.718500	0.850500	0.141800
C47181	C4718	0.690170	0.842070	0.169960
C47191	C4719	0.674300	0.814780	0.154970
C47201	C4720	0.665370	0.824740	0.187470
C47211	C4721	0.653410	0.787640	0.137170
H29051	H2905	0.644600	0.787400	0.149000
C47221	C4722	0.670380	0.801770	0.137020
C47231	C4723	0.682120	0.802760	0.119140
H29061	H2906	0.693300	0.812300	0.118100
C47241	C4724	0.677510	0.789810	0.102760
H29071	H2907	0.685200	0.790400	0.090200
C47251	C4725	0.661380	0.775870	0.105070
H29081	H2908	0.658800	0.766400	0.094000
C47261	C4726	0.628100	0.748900	0.174480
C47271	C4727	0.582520	0.732470	0.112200
H29091	H2909	0.583500	0.743200	0.102100
C47281	C4728	0.565210	0.721060	0.112740
H29101	H2910	0.554500	0.723300	0.102800
C47291	C4729	0.562950	0.705610	0.128210
H29111	H2911	0.550600	0.697600	0.129300
C47301	C4730	0.579580	0.702560	0.141730
C47311	C4731	0.596960	0.715210	0.139950
H29121	H2912	0.607900	0.713400	0.149700
C47321	C4732	0.578610	0.686770	0.157930
N18111	N1811	0.635100	0.840030	0.234390
N18121	N1812	0.773090	0.895350	0.136750
N18131	N1813	0.732430	0.876720	0.149320
N18141	N1814	0.679080	0.840570	0.186910
N18151	N1815	0.688580	0.829770	0.153420
N18161	N1816	0.662460	0.811510	0.172260
N18171	N1817	0.649260	0.774880	0.121730
N18181	N1818	0.599160	0.729670	0.125480
N18191	N1819	0.627070	0.751020	0.157030
N18201	N1820	0.593430	0.686870	0.172490
S3631	S363	0.790170	0.922570	0.165650
S3641	S364	0.629210	0.746410	0.200250
C47331	C4733	0.148340	0.339900	0.218220
H29131	H2913	0.155700	0.352400	0.215100
C47341	C4734	0.151890	0.322730	0.205830
C47351	C4735	0.141830	0.304370	0.210490
H29141	H2914	0.143400	0.292400	0.201900
C47361	C4736	0.129380	0.303830	0.227980
H29151	H2915	0.123300	0.291100	0.232400
C47371	C4737	0.125780	0.321710	0.239010
H29161	H2916	0.116300	0.321200	0.250400
C47381	C4738	0.281000	0.406580	0.148490
C47391	C4739	0.233270	0.390670	0.164840
H29171	H2917	0.243600	0.401200	0.164000
C47401	C4740	0.220410	0.390770	0.181700
H29181	H2918	0.221300	0.401500	0.191800
C47411	C4741	0.206110	0.374950	0.183760
H29191	H2919	0.196900	0.374500	0.195300
C47421	C4742	0.205460	0.359540	0.168460
C47431	C4743	0.218850	0.361150	0.151990
H29201	H2920	0.218500	0.350500	0.141800
C47441	C4744	0.190170	0.342070	0.169960
C47451	C4745	0.174300	0.314780	0.154970
C47461	C4746	0.165370	0.324740	0.187470
C47471	C4747	0.153410	0.287640	0.137170
H29211	H2921	0.144600	0.287400	0.149000
C47481	C4748	0.170380	0.301770	0.137020
C47491	C4749	0.182120	0.302760	0.119140
H29221	H2922	0.193300	0.312300	0.118100
C47501	C4750	0.177510	0.289810	0.102760
H29231	H2923	0.185200	0.290400	0.090200
C47511	C4751	0.161380	0.275870	0.105070
H29241	H2924	0.158800	0.266400	0.094000
C47521	C4752	0.128100	0.248900	0.174480
C47531	C4753	0.082520	0.232470	0.112200
H29251	H2925	0.083500	0.243200	0.102100
C47541	C4754	0.065210	0.221060	0.112740
H29261	H2926	0.054500	0.223300	0.102800
C47551	C4755	0.062950	0.205610	0.128210
H29271	H2927	0.050600	0.197600	0.129300
C47561	C4756	0.079580	0.202560	0.141730
C47571	C4757	0.096960	0.215210	0.139950
H29281	H2928	0.107900	0.213400	0.149700
C47581	C4758	0.078610	0.186770	0.157930
N18211	N1821	0.135100	0.340030	0.234390
N18221	N1822	0.273090	0.395350	0.136750
N18231	N1823	0.232430	0.376720	0.149320
N18241	N1824	0.179080	0.340570	0.186910
N18251	N1825	0.188580	0.329770	0.153420
N18261	N1826	0.162460	0.311510	0.172260
N18271	N1827	0.149260	0.274880	0.121730
N18281	N1828	0.099160	0.229670	0.125480
N18291	N1829	0.127070	0.251020	0.157030
N18301	N1830	0.093430	0.186870	0.172490
S3651	S365	0.290170	0.422570	0.165650
S3661	S366	0.129210	0.246410	0.200250
C47591	C4759	0.148340	0.839900	0.718220
H29291	H2929	0.155700	0.852400	0.715100
C47601	C4760	0.151890	0.822730	0.705830
C47611	C4761	0.141830	0.804370	0.710490
H29301	H2930	0.143400	0.792400	0.701900
C47621	C4762	0.129380	0.803830	0.727980
H29311	H2931	0.123300	0.791100	0.732400
C47631	C4763	0.125780	0.821710	0.739010
H29321	H2932	0.116300	0.821200	0.750400
C47641	C4764	0.281000	0.906580	0.648490
C47651	C4765	0.233270	0.890670	0.664840
H29331	H2933	0.243600	0.901200	0.664000
C47661	C4766	0.220410	0.890770	0.681700
H29341	H2934	0.221300	0.901500	0.691800
C47671	C4767	0.206110	0.874950	0.683760
H29351	H2935	0.196900	0.874500	0.695300
C47681	C4768	0.205460	0.859540	0.668460
C47691	C4769	0.218850	0.861150	0.651990
H29361	H2936	0.218500	0.850500	0.641800
C47701	C4770	0.190170	0.842070	0.669960
C47711	C4771	0.174300	0.814780	0.654970
C47721	C4772	0.165370	0.824740	0.687470
C47731	C4773	0.153410	0.787640	0.637170
H29371	H2937	0.144600	0.787400	0.649000
C47741	C4774	0.170380	0.801770	0.637020
C47751	C4775	0.182120	0.802760	0.619140
H29381	H2938	0.193300	0.812300	0.618100
C47761	C4776	0.177510	0.789810	0.602760
H29391	H2939	0.185200	0.790400	0.590200
C47771	C4777	0.161380	0.775870	0.605070
H29401	H2940	0.158800	0.766400	0.594000
C47781	C4778	0.128100	0.748900	0.674480
C47791	C4779	0.082520	0.732470	0.612200
H29411	H2941	0.083500	0.743200	0.602100
C47801	C4780	0.065210	0.721060	0.612740
H29421	H2942	0.054500	0.723300	0.602800
C47811	C4781	0.062950	0.705610	0.628210
H29431	H2943	0.050600	0.697600	0.629300
C47821	C4782	0.079580	0.702560	0.641730
C47831	C4783	0.096960	0.715210	0.639950
H29441	H2944	0.107900	0.713400	0.649700
C47841	C4784	0.078610	0.686770	0.657930
N18311	N1831	0.135100	0.840030	0.734390
N18321	N1832	0.273090	0.895350	0.636750
N18331	N1833	0.232430	0.876720	0.649320
N18341	N1834	0.179080	0.840570	0.686910
N18351	N1835	0.188580	0.829770	0.653420
N18361	N1836	0.162460	0.811510	0.672260
N18371	N1837	0.149260	0.774880	0.621730
N18381	N1838	0.099160	0.729670	0.625480
N18391	N1839	0.127070	0.751020	0.657030
N18401	N1840	0.093430	0.686870	0.672490
S3671	S367	0.290170	0.922570	0.665650
S3681	S368	0.129210	0.746410	0.700250
C47851	C4785	0.101660	0.910100	0.218220
H29451	H2945	0.094300	0.897600	0.215100
C47861	C4786	0.098110	0.927270	0.205830
C47871	C4787	0.108170	0.945630	0.210490
H29461	H2946	0.106600	0.957600	0.201900
C47881	C4788	0.120620	0.946170	0.227980
H29471	H2947	0.126700	0.958900	0.232400
C47891	C4789	0.124220	0.928290	0.239010
H29481	H2948	0.133700	0.928800	0.250400
C47901	C4790	0.969000	0.843420	0.148490
C47911	C4791	0.016730	0.859330	0.164840
H29491	H2949	0.006400	0.848800	0.164000
C47921	C4792	0.029590	0.859230	0.181700
H29501	H2950	0.028700	0.848500	0.191800
C47931	C4793	0.043890	0.875050	0.183760
H29511	H2951	0.053100	0.875500	0.195300
C47941	C4794	0.044540	0.890460	0.168460
C47951	C4795	0.031150	0.888850	0.151990
H29521	H2952	0.031500	0.899500	0.141800
C47961	C4796	0.059830	0.907930	0.169960
C47971	C4797	0.075700	0.935220	0.154970
C47981	C4798	0.084630	0.925260	0.187470
C47991	C4799	0.096590	0.962360	0.137170
H29531	H2953	0.105400	0.962600	0.149000
C48001	C4800	0.079620	0.948230	0.137020
C48011	C4801	0.067880	0.947240	0.119140
H29541	H2954	0.056700	0.937700	0.118100
C48021	C4802	0.072490	0.960190	0.102760
H29551	H2955	0.064800	0.959600	0.090200
C48031	C4803	0.088620	0.974130	0.105070
H29561	H2956	0.091200	0.983600	0.094000
C48041	C4804	0.121900	0.001100	0.174480
C48051	C4805	0.167480	0.017530	0.112200
H29571	H2957	0.166500	0.006800	0.102100
C48061	C4806	0.184790	0.028940	0.112740
H29581	H2958	0.195500	0.026700	0.102800
C48071	C4807	0.187050	0.044390	0.128210
H29591	H2959	0.199400	0.052400	0.129300
C48081	C4808	0.170420	0.047440	0.141730
C48091	C4809	0.153040	0.034790	0.139950
H29601	H2960	0.142100	0.036600	0.149700
C48101	C4810	0.171390	0.063230	0.157930
N18411	N1841	0.114900	0.909970	0.234390
N18421	N1842	0.976910	0.854650	0.136750
N18431	N1843	0.017570	0.873280	0.149320
N18441	N1844	0.070920	0.909430	0.186910
N18451	N1845	0.061420	0.920230	0.153420
N18461	N1846	0.087540	0.938490	0.172260
N18471	N1847	0.100740	0.975120	0.121730
N18481	N1848	0.150840	0.020330	0.125480
N18491	N1849	0.122930	0.998980	0.157030
N18501	N1850	0.156570	0.063130	0.172490
S3691	S369	0.959830	0.827430	0.165650
S3701	S370	0.120790	0.003590	0.200250
C48111	C4811	0.101660	0.410100	0.718220
H29611	H2961	0.094300	0.397600	0.715100
C48121	C4812	0.098110	0.427270	0.705830
C48131	C4813	0.108170	0.445630	0.710490
H29621	H2962	0.106600	0.457600	0.701900
C48141	C4814	0.120620	0.446170	0.727980
H29631	H2963	0.126700	0.458900	0.732400
C48151	C4815	0.124220	0.428290	0.739010
H29641	H2964	0.133700	0.428800	0.750400
C48161	C4816	0.969000	0.343420	0.648490
C48171	C4817	0.016730	0.359330	0.664840
H29651	H2965	0.006400	0.348800	0.664000
C48181	C4818	0.029590	0.359230	0.681700
H29661	H2966	0.028700	0.348500	0.691800
C48191	C4819	0.043890	0.375050	0.683760
H29671	H2967	0.053100	0.375500	0.695300
C48201	C4820	0.044540	0.390460	0.668460
C48211	C4821	0.031150	0.388850	0.651990
H29681	H2968	0.031500	0.399500	0.641800
C48221	C4822	0.059830	0.407930	0.669960
C48231	C4823	0.075700	0.435220	0.654970
C48241	C4824	0.084630	0.425260	0.687470
C48251	C4825	0.096590	0.462360	0.637170
H29691	H2969	0.105400	0.462600	0.649000
C48261	C4826	0.079620	0.448230	0.637020
C48271	C4827	0.067880	0.447240	0.619140
H29701	H2970	0.056700	0.437700	0.618100
C48281	C4828	0.072490	0.460190	0.602760
H29711	H2971	0.064800	0.459600	0.590200
C48291	C4829	0.088620	0.474130	0.605070
H29721	H2972	0.091200	0.483600	0.594000
C48301	C4830	0.121900	0.501100	0.674480
C48311	C4831	0.167480	0.517530	0.612200
H29731	H2973	0.166500	0.506800	0.602100
C48321	C4832	0.184790	0.528940	0.612740
H29741	H2974	0.195500	0.526700	0.602800
C48331	C4833	0.187050	0.544390	0.628210
H29751	H2975	0.199400	0.552400	0.629300
C48341	C4834	0.170420	0.547440	0.641730
C48351	C4835	0.153040	0.534790	0.639950
H29761	H2976	0.142100	0.536600	0.649700
C48361	C4836	0.171390	0.563230	0.657930
N18511	N1851	0.114900	0.409970	0.734390
N18521	N1852	0.976910	0.354650	0.636750
N18531	N1853	0.017570	0.373280	0.649320
N18541	N1854	0.070920	0.409430	0.686910
N18551	N1855	0.061420	0.420230	0.653420
N18561	N1856	0.087540	0.438490	0.672260
N18571	N1857	0.100740	0.475120	0.621730
N18581	N1858	0.150840	0.520330	0.625480
N18591	N1859	0.122930	0.498980	0.657030
N18601	N1860	0.156570	0.563130	0.672490
S3711	S371	0.959830	0.327430	0.665650
S3721	S372	0.120790	0.503590	0.700250
C48371	C4837	0.601660	0.910100	0.718220
H29771	H2977	0.594300	0.897600	0.715100
C48381	C4838	0.598110	0.927270	0.705830
C48391	C4839	0.608170	0.945630	0.710490
H29781	H2978	0.606600	0.957600	0.701900
C48401	C4840	0.620620	0.946170	0.727980
H29791	H2979	0.626700	0.958900	0.732400
C48411	C4841	0.624220	0.928290	0.739010
H29801	H2980	0.633700	0.928800	0.750400
C48421	C4842	0.469000	0.843420	0.648490
C48431	C4843	0.516730	0.859330	0.664840
H29811	H2981	0.506400	0.848800	0.664000
C48441	C4844	0.529590	0.859230	0.681700
H29821	H2982	0.528700	0.848500	0.691800
C48451	C4845	0.543890	0.875050	0.683760
H29831	H2983	0.553100	0.875500	0.695300
C48461	C4846	0.544540	0.890460	0.668460
C48471	C4847	0.531150	0.888850	0.651990
H29841	H2984	0.531500	0.899500	0.641800
C48481	C4848	0.559830	0.907930	0.669960
C48491	C4849	0.575700	0.935220	0.654970
C48501	C4850	0.584630	0.925260	0.687470
C48511	C4851	0.596590	0.962360	0.637170
H29851	H2985	0.605400	0.962600	0.649000
C48521	C4852	0.579620	0.948230	0.637020
C48531	C4853	0.567880	0.947240	0.619140
H29861	H2986	0.556700	0.937700	0.618100
C48541	C4854	0.572490	0.960190	0.602760
H29871	H2987	0.564800	0.959600	0.590200
C48551	C4855	0.588620	0.974130	0.605070
H29881	H2988	0.591200	0.983600	0.594000
C48561	C4856	0.621900	0.001100	0.674480
C48571	C4857	0.667480	0.017530	0.612200
H29891	H2989	0.666500	0.006800	0.602100
C48581	C4858	0.684790	0.028940	0.612740
H29901	H2990	0.695500	0.026700	0.602800
C48591	C4859	0.687050	0.044390	0.628210
H29911	H2991	0.699400	0.052400	0.629300
C48601	C4860	0.670420	0.047440	0.641730
C48611	C4861	0.653040	0.034790	0.639950
H29921	H2992	0.642100	0.036600	0.649700
C48621	C4862	0.671390	0.063230	0.657930
N18611	N1861	0.614900	0.909970	0.734390
N18621	N1862	0.476910	0.854650	0.636750
N18631	N1863	0.517570	0.873280	0.649320
N18641	N1864	0.570920	0.909430	0.686910
N18651	N1865	0.561420	0.920230	0.653420
N18661	N1866	0.587540	0.938490	0.672260
N18671	N1867	0.600740	0.975120	0.621730
N18681	N1868	0.650840	0.020330	0.625480
N18691	N1869	0.622930	0.998980	0.657030
N18701	N1870	0.656570	0.063130	0.672490
S3731	S373	0.459830	0.827430	0.665650
S3741	S374	0.620790	0.003590	0.700250
C48631	C4863	0.601660	0.410100	0.218220
H29931	H2993	0.594300	0.397600	0.215100
C48641	C4864	0.598110	0.427270	0.205830
C48651	C4865	0.608170	0.445630	0.210490
H29941	H2994	0.606600	0.457600	0.201900
C48661	C4866	0.620620	0.446170	0.227980
H29951	H2995	0.626700	0.458900	0.232400
C48671	C4867	0.624220	0.428290	0.239010
H29961	H2996	0.633700	0.428800	0.250400
C48681	C4868	0.469000	0.343420	0.148490
C48691	C4869	0.516730	0.359330	0.164840
H29971	H2997	0.506400	0.348800	0.164000
C48701	C4870	0.529590	0.359230	0.181700
H29981	H2998	0.528700	0.348500	0.191800
C48711	C4871	0.543890	0.375050	0.183760
H29991	H2999	0.553100	0.375500	0.195300
C48721	C4872	0.544540	0.390460	0.168460
C48731	C4873	0.531150	0.388850	0.151990
H30001	H3000	0.531500	0.399500	0.141800
C48741	C4874	0.559830	0.407930	0.169960
C48751	C4875	0.575700	0.435220	0.154970
C48761	C4876	0.584630	0.425260	0.187470
C48771	C4877	0.596590	0.462360	0.137170
H30011	H3001	0.605400	0.462600	0.149000
C48781	C4878	0.579620	0.448230	0.137020
C48791	C4879	0.567880	0.447240	0.119140
H30021	H3002	0.556700	0.437700	0.118100
C48801	C4880	0.572490	0.460190	0.102760
H30031	H3003	0.564800	0.459600	0.090200
C48811	C4881	0.588620	0.474130	0.105070
H30041	H3004	0.591200	0.483600	0.094000
C48821	C4882	0.621900	0.501100	0.174480
C48831	C4883	0.667480	0.517530	0.112200
H30051	H3005	0.666500	0.506800	0.102100
C48841	C4884	0.684790	0.528940	0.112740
H30061	H3006	0.695500	0.526700	0.102800
C48851	C4885	0.687050	0.544390	0.128210
H30071	H3007	0.699400	0.552400	0.129300
C48861	C4886	0.670420	0.547440	0.141730
C48871	C4887	0.653040	0.534790	0.139950
H30081	H3008	0.642100	0.536600	0.149700
C48881	C4888	0.671390	0.563230	0.157930
N18711	N1871	0.614900	0.409970	0.234390
N18721	N1872	0.476910	0.354650	0.136750
N18731	N1873	0.517570	0.373280	0.149320
N18741	N1874	0.570920	0.409430	0.186910
N18751	N1875	0.561420	0.420230	0.153420
N18761	N1876	0.587540	0.438490	0.172260
N18771	N1877	0.600740	0.475120	0.121730
N18781	N1878	0.650840	0.520330	0.125480
N18791	N1879	0.622930	0.498980	0.157030
N18801	N1880	0.656570	0.563130	0.172490
S3751	S375	0.459830	0.327430	0.165650
S3761	S376	0.620790	0.503590	0.200250
C48891	C4889	0.601660	0.839900	0.031780
H30091	H3009	0.594300	0.852400	0.034900
C48901	C4890	0.598110	0.822730	0.044170
C48911	C4891	0.608170	0.804370	0.039510
H30101	H3010	0.606600	0.792400	0.048100
C48921	C4892	0.620620	0.803830	0.022020
H30111	H3011	0.626700	0.791100	0.017600
C48931	C4893	0.624220	0.821710	0.010990
H30121	H3012	0.633700	0.821200	0.999600
C48941	C4894	0.469000	0.906580	0.101510
C48951	C4895	0.516730	0.890670	0.085160
H30131	H3013	0.506400	0.901200	0.086000
C48961	C4896	0.529590	0.890770	0.068300
H30141	H3014	0.528700	0.901500	0.058200
C48971	C4897	0.543890	0.874950	0.066240
H30151	H3015	0.553100	0.874500	0.054700
C48981	C4898	0.544540	0.859540	0.081540
C48991	C4899	0.531150	0.861150	0.098010
H30161	H3016	0.531500	0.850500	0.108200
C49001	C4900	0.559830	0.842070	0.080040
C49011	C4901	0.575700	0.814780	0.095030
C49021	C4902	0.584630	0.824740	0.062530
C49031	C4903	0.596590	0.787640	0.112830
H30171	H3017	0.605400	0.787400	0.101000
C49041	C4904	0.579620	0.801770	0.112980
C49051	C4905	0.567880	0.802760	0.130860
H30181	H3018	0.556700	0.812300	0.131900
C49061	C4906	0.572490	0.789810	0.147240
H30191	H3019	0.564800	0.790400	0.159800
C49071	C4907	0.588620	0.775870	0.144930
H30201	H3020	0.591200	0.766400	0.156000
C49081	C4908	0.621900	0.748900	0.075520
C49091	C4909	0.667480	0.732470	0.137800
H30211	H3021	0.666500	0.743200	0.147900
C49101	C4910	0.684790	0.721060	0.137260
H30221	H3022	0.695500	0.723300	0.147200
C49111	C4911	0.687050	0.705610	0.121790
H30231	H3023	0.699400	0.697600	0.120700
C49121	C4912	0.670420	0.702560	0.108270
C49131	C4913	0.653040	0.715210	0.110050
H30241	H3024	0.642100	0.713400	0.100300
C49141	C4914	0.671390	0.686770	0.092070
N18811	N1881	0.614900	0.840030	0.015610
N18821	N1882	0.476910	0.895350	0.113250
N18831	N1883	0.517570	0.876720	0.100680
N18841	N1884	0.570920	0.840570	0.063090
N18851	N1885	0.561420	0.829770	0.096580
N18861	N1886	0.587540	0.811510	0.077740
N18871	N1887	0.600740	0.774880	0.128270
N18881	N1888	0.650840	0.729670	0.124520
N18891	N1889	0.622930	0.751020	0.092970
N18901	N1890	0.656570	0.686870	0.077510
S3771	S377	0.459830	0.922570	0.084350
S3781	S378	0.620790	0.746410	0.049750
C49151	C4915	0.601660	0.339900	0.531780
H30251	H3025	0.594300	0.352400	0.534900
C49161	C4916	0.598110	0.322730	0.544170
C49171	C4917	0.608170	0.304370	0.539510
H30261	H3026	0.606600	0.292400	0.548100
C49181	C4918	0.620620	0.303830	0.522020
H30271	H3027	0.626700	0.291100	0.517600
C49191	C4919	0.624220	0.321710	0.510990
H30281	H3028	0.633700	0.321200	0.499600
C49201	C4920	0.469000	0.406580	0.601510
C49211	C4921	0.516730	0.390670	0.585160
H30291	H3029	0.506400	0.401200	0.586000
C49221	C4922	0.529590	0.390770	0.568300
H30301	H3030	0.528700	0.401500	0.558200
C49231	C4923	0.543890	0.374950	0.566240
H30311	H3031	0.553100	0.374500	0.554700
C49241	C4924	0.544540	0.359540	0.581540
C49251	C4925	0.531150	0.361150	0.598010
H30321	H3032	0.531500	0.350500	0.608200
C49261	C4926	0.559830	0.342070	0.580040
C49271	C4927	0.575700	0.314780	0.595030
C49281	C4928	0.584630	0.324740	0.562530
C49291	C4929	0.596590	0.287640	0.612830
H30331	H3033	0.605400	0.287400	0.601000
C49301	C4930	0.579620	0.301770	0.612980
C49311	C4931	0.567880	0.302760	0.630860
H30341	H3034	0.556700	0.312300	0.631900
C49321	C4932	0.572490	0.289810	0.647240
H30351	H3035	0.564800	0.290400	0.659800
C49331	C4933	0.588620	0.275870	0.644930
H30361	H3036	0.591200	0.266400	0.656000
C49341	C4934	0.621900	0.248900	0.575520
C49351	C4935	0.667480	0.232470	0.637800
H30371	H3037	0.666500	0.243200	0.647900
C49361	C4936	0.684790	0.221060	0.637260
H30381	H3038	0.695500	0.223300	0.647200
C49371	C4937	0.687050	0.205610	0.621790
H30391	H3039	0.699400	0.197600	0.620700
C49381	C4938	0.670420	0.202560	0.608270
C49391	C4939	0.653040	0.215210	0.610050
H30401	H3040	0.642100	0.213400	0.600300
C49401	C4940	0.671390	0.186770	0.592070
N18911	N1891	0.614900	0.340030	0.515610
N18921	N1892	0.476910	0.395350	0.613250
N18931	N1893	0.517570	0.376720	0.600680
N18941	N1894	0.570920	0.340570	0.563090
N18951	N1895	0.561420	0.329770	0.596580
N18961	N1896	0.587540	0.311510	0.577740
N18971	N1897	0.600740	0.274880	0.628270
N18981	N1898	0.650840	0.229670	0.624520
N18991	N1899	0.622930	0.251020	0.592970
N19001	N1900	0.656570	0.186870	0.577510
S3791	S379	0.459830	0.422570	0.584350
S3801	S380	0.620790	0.246410	0.549750
C49411	C4941	0.101660	0.839900	0.531780
H30411	H3041	0.094300	0.852400	0.534900
C49421	C4942	0.098110	0.822730	0.544170
C49431	C4943	0.108170	0.804370	0.539510
H30421	H3042	0.106600	0.792400	0.548100
C49441	C4944	0.120620	0.803830	0.522020
H30431	H3043	0.126700	0.791100	0.517600
C49451	C4945	0.124220	0.821710	0.510990
H30441	H3044	0.133700	0.821200	0.499600
C49461	C4946	0.969000	0.906580	0.601510
C49471	C4947	0.016730	0.890670	0.585160
H30451	H3045	0.006400	0.901200	0.586000
C49481	C4948	0.029590	0.890770	0.568300
H30461	H3046	0.028700	0.901500	0.558200
C49491	C4949	0.043890	0.874950	0.566240
H30471	H3047	0.053100	0.874500	0.554700
C49501	C4950	0.044540	0.859540	0.581540
C49511	C4951	0.031150	0.861150	0.598010
H30481	H3048	0.031500	0.850500	0.608200
C49521	C4952	0.059830	0.842070	0.580040
C49531	C4953	0.075700	0.814780	0.595030
C49541	C4954	0.084630	0.824740	0.562530
C49551	C4955	0.096590	0.787640	0.612830
H30491	H3049	0.105400	0.787400	0.601000
C49561	C4956	0.079620	0.801770	0.612980
C49571	C4957	0.067880	0.802760	0.630860
H30501	H3050	0.056700	0.812300	0.631900
C49581	C4958	0.072490	0.789810	0.647240
H30511	H3051	0.064800	0.790400	0.659800
C49591	C4959	0.088620	0.775870	0.644930
H30521	H3052	0.091200	0.766400	0.656000
C49601	C4960	0.121900	0.748900	0.575520
C49611	C4961	0.167480	0.732470	0.637800
H30531	H3053	0.166500	0.743200	0.647900
C49621	C4962	0.184790	0.721060	0.637260
H30541	H3054	0.195500	0.723300	0.647200
C49631	C4963	0.187050	0.705610	0.621790
H30551	H3055	0.199400	0.697600	0.620700
C49641	C4964	0.170420	0.702560	0.608270
C49651	C4965	0.153040	0.715210	0.610050
H30561	H3056	0.142100	0.713400	0.600300
C49661	C4966	0.171390	0.686770	0.592070
N19011	N1901	0.114900	0.840030	0.515610
N19021	N1902	0.976910	0.895350	0.613250
N19031	N1903	0.017570	0.876720	0.600680
N19041	N1904	0.070920	0.840570	0.563090
N19051	N1905	0.061420	0.829770	0.596580
N19061	N1906	0.087540	0.811510	0.577740
N19071	N1907	0.100740	0.774880	0.628270
N19081	N1908	0.150840	0.729670	0.624520
N19091	N1909	0.122930	0.751020	0.592970
N19101	N1910	0.156570	0.686870	0.577510
S3811	S381	0.959830	0.922570	0.584350
S3821	S382	0.120790	0.746410	0.549750
C49671	C4967	0.101660	0.339900	0.031780
H30571	H3057	0.094300	0.352400	0.034900
C49681	C4968	0.098110	0.322730	0.044170
C49691	C4969	0.108170	0.304370	0.039510
H30581	H3058	0.106600	0.292400	0.048100
C49701	C4970	0.120620	0.303830	0.022020
H30591	H3059	0.126700	0.291100	0.017600
C49711	C4971	0.124220	0.321710	0.010990
H30601	H3060	0.133700	0.321200	0.999600
C49721	C4972	0.969000	0.406580	0.101510
C49731	C4973	0.016730	0.390670	0.085160
H30611	H3061	0.006400	0.401200	0.086000
C49741	C4974	0.029590	0.390770	0.068300
H30621	H3062	0.028700	0.401500	0.058200
C49751	C4975	0.043890	0.374950	0.066240
H30631	H3063	0.053100	0.374500	0.054700
C49761	C4976	0.044540	0.359540	0.081540
C49771	C4977	0.031150	0.361150	0.098010
H30641	H3064	0.031500	0.350500	0.108200
C49781	C4978	0.059830	0.342070	0.080040
C49791	C4979	0.075700	0.314780	0.095030
C49801	C4980	0.084630	0.324740	0.062530
C49811	C4981	0.096590	0.287640	0.112830
H30651	H3065	0.105400	0.287400	0.101000
C49821	C4982	0.079620	0.301770	0.112980
C49831	C4983	0.067880	0.302760	0.130860
H30661	H3066	0.056700	0.312300	0.131900
C49841	C4984	0.072490	0.289810	0.147240
H30671	H3067	0.064800	0.290400	0.159800
C49851	C4985	0.088620	0.275870	0.144930
H30681	H3068	0.091200	0.266400	0.156000
C49861	C4986	0.121900	0.248900	0.075520
C49871	C4987	0.167480	0.232470	0.137800
H30691	H3069	0.166500	0.243200	0.147900
C49881	C4988	0.184790	0.221060	0.137260
H30701	H3070	0.195500	0.223300	0.147200
C49891	C4989	0.187050	0.205610	0.121790
H30711	H3071	0.199400	0.197600	0.120700
C49901	C4990	0.170420	0.202560	0.108270
C49911	C4991	0.153040	0.215210	0.110050
H30721	H3072	0.142100	0.213400	0.100300
C49921	C4992	0.171390	0.186770	0.092070
N19111	N1911	0.114900	0.340030	0.015610
N19121	N1912	0.976910	0.395350	0.113250
N19131	N1913	0.017570	0.376720	0.100680
N19141	N1914	0.070920	0.340570	0.063090
N19151	N1915	0.061420	0.329770	0.096580
N19161	N1916	0.087540	0.311510	0.077740
N19171	N1917	0.100740	0.274880	0.128270
N19181	N1918	0.150840	0.229670	0.124520
N19191	N1919	0.122930	0.251020	0.092970
N19201	N1920	0.156570	0.186870	0.077510
S3831	S383	0.959830	0.422570	0.084350
S3841	S384	0.120790	0.246410	0.049750
Co11	Co1	0.629860	0.379860	0.000000
Co21	Co2	0.629860	0.879860	0.500000
Co31	Co3	0.129860	0.879860	0.000000
Co41	Co4	0.620140	0.370140	0.500000
Co51	Co5	0.620140	0.870140	0.000000
Co61	Co6	0.120140	0.370140	0.000000
Co71	Co7	0.120140	0.879860	0.250000
Co81	Co8	0.120140	0.379860	0.750000
Co91	Co9	0.129860	0.870140	0.750000
Co101	Co10	0.129860	0.370140	0.250000
Co111	Co11	0.000000	0.629860	0.379860
Co121	Co12	0.000000	0.129860	0.879860
Co131	Co13	0.500000	0.629860	0.879860
Co141	Co14	0.500000	0.620140	0.370140
Co151	Co15	0.000000	0.620140	0.870140
Co161	Co16	0.000000	0.120140	0.370140
Co171	Co17	0.250000	0.120140	0.879860
Co181	Co18	0.750000	0.120140	0.379860
Co191	Co19	0.750000	0.129860	0.870140
Co201	Co20	0.250000	0.129860	0.370140
Co211	Co21	0.379860	0.000000	0.629860
Co221	Co22	0.379860	0.500000	0.129860
Co231	Co23	0.879860	0.000000	0.129860
Co241	Co24	0.370140	0.500000	0.620140
Co251	Co25	0.370140	0.000000	0.120140
Co261	Co26	0.879860	0.250000	0.120140
Co271	Co27	0.879860	0.750000	0.620140
Co281	Co28	0.379860	0.750000	0.120140
Co291	Co29	0.870140	0.750000	0.129860
Co301	Co30	0.870140	0.250000	0.629860
Co311	Co31	0.129860	0.379860	0.500000
Co321	Co32	0.120140	0.870140	0.500000
Co331	Co33	0.629860	0.370140	0.750000
Co341	Co34	0.629860	0.870140	0.250000
Co351	Co35	0.620140	0.379860	0.250000
Co361	Co36	0.620140	0.879860	0.750000
Co371	Co37	0.379860	0.250000	0.620140
Co381	Co38	0.370140	0.750000	0.629860
Co391	Co39	0.370140	0.250000	0.129860
Co401	Co40	0.870140	0.500000	0.120140
Co411	Co41	0.870140	0.000000	0.620140
Co421	Co42	0.879860	0.500000	0.629860
Co431	Co43	0.750000	0.629860	0.370140
Co441	Co44	0.250000	0.629860	0.870140
Co451	Co45	0.250000	0.620140	0.379860
Co461	Co46	0.750000	0.620140	0.879860
Co471	Co47	0.500000	0.129860	0.379860
Co481	Co48	0.500000	0.120140	0.870140
Co491	Co49	0.370140	0.620140	0.000000
Co501	Co50	0.370140	0.120140	0.500000
Co511	Co51	0.870140	0.120140	0.000000
Co521	Co52	0.379860	0.629860	0.500000
Co531	Co53	0.379860	0.129860	0.000000
Co541	Co54	0.879860	0.120140	0.750000
Co551	Co55	0.879860	0.620140	0.250000
Co561	Co56	0.870140	0.129860	0.250000
Co571	Co57	0.870140	0.629860	0.750000
Co581	Co58	0.370140	0.129860	0.750000
Co591	Co59	0.000000	0.370140	0.620140
Co601	Co60	0.000000	0.870140	0.120140
Co611	Co61	0.500000	0.370140	0.120140
Co621	Co62	0.500000	0.379860	0.629860
Co631	Co63	0.000000	0.379860	0.129860
Co641	Co64	0.750000	0.879860	0.120140
Co651	Co65	0.250000	0.879860	0.620140
Co661	Co66	0.250000	0.870140	0.129860
Co671	Co67	0.750000	0.870140	0.629860
Co681	Co68	0.750000	0.370140	0.129860
Co691	Co69	0.620140	0.000000	0.370140
Co701	Co70	0.620140	0.500000	0.870140
Co711	Co71	0.120140	0.000000	0.870140
Co721	Co72	0.629860	0.500000	0.379860
Co731	Co73	0.629860	0.000000	0.879860
Co741	Co74	0.129860	0.000000	0.379860
Co751	Co75	0.120140	0.750000	0.879860
Co761	Co76	0.120140	0.250000	0.379860
Co771	Co77	0.129860	0.250000	0.870140
Co781	Co78	0.129860	0.750000	0.370140
Co791	Co79	0.870140	0.620140	0.500000
Co801	Co80	0.879860	0.129860	0.500000
Co811	Co81	0.879860	0.629860	0.000000
Co821	Co82	0.370140	0.629860	0.250000
Co831	Co83	0.379860	0.620140	0.750000
Co841	Co84	0.379860	0.120140	0.250000
Co851	Co85	0.620140	0.750000	0.379860
Co861	Co86	0.620140	0.250000	0.879860
Co871	Co87	0.629860	0.250000	0.370140
Co881	Co88	0.629860	0.750000	0.870140
Co891	Co89	0.129860	0.500000	0.879860
Co901	Co90	0.120140	0.500000	0.370140
Co911	Co91	0.250000	0.370140	0.629860
Co921	Co92	0.750000	0.379860	0.620140
Co931	Co93	0.250000	0.379860	0.120140
Co941	Co94	0.500000	0.870140	0.620140
Co951	Co95	0.500000	0.879860	0.129860
Co961	Co96	0.000000	0.879860	0.629860
Co971	Co97	0.625000	0.251800	0.125000
Co981	Co98	0.625000	0.751800	0.625000
Co991	Co99	0.625000	0.498200	0.625000
Co1001	Co100	0.625000	0.998200	0.125000
Co1011	Co101	0.125000	0.751800	0.125000
Co1021	Co102	0.125000	0.251800	0.625000
Co1031	Co103	0.125000	0.998200	0.625000
Co1041	Co104	0.125000	0.498200	0.125000
Co1051	Co105	0.125000	0.625000	0.251800
Co1061	Co106	0.625000	0.625000	0.751800
Co1071	Co107	0.625000	0.625000	0.498200
Co1081	Co108	0.125000	0.625000	0.998200
Co1091	Co109	0.125000	0.125000	0.751800
Co1101	Co110	0.625000	0.125000	0.251800
Co1111	Co111	0.625000	0.125000	0.998200
Co1121	Co112	0.125000	0.125000	0.498200
Co1131	Co113	0.251800	0.125000	0.625000
Co1141	Co114	0.251800	0.625000	0.125000
Co1151	Co115	0.751800	0.625000	0.625000
Co1161	Co116	0.498200	0.625000	0.625000
Co1171	Co117	0.498200	0.125000	0.125000
Co1181	Co118	0.751800	0.125000	0.125000
Co1191	Co119	0.998200	0.625000	0.125000
Co1201	Co120	0.998200	0.125000	0.625000
Co1211	Co121	0.001800	0.875000	0.875000
Co1221	Co122	0.001800	0.375000	0.375000
Co1231	Co123	0.248200	0.875000	0.375000
Co1241	Co124	0.248200	0.375000	0.875000
Co1251	Co125	0.501800	0.375000	0.875000
Co1261	Co126	0.501800	0.875000	0.375000
Co1271	Co127	0.748200	0.375000	0.375000
Co1281	Co128	0.748200	0.875000	0.875000
Co1291	Co129	0.375000	0.375000	0.748200
Co1301	Co130	0.375000	0.875000	0.248200
Co1311	Co131	0.375000	0.875000	0.501800
Co1321	Co132	0.375000	0.375000	0.001800
Co1331	Co133	0.875000	0.375000	0.248200
Co1341	Co134	0.875000	0.875000	0.748200
Co1351	Co135	0.875000	0.875000	0.001800
Co1361	Co136	0.875000	0.375000	0.501800
Co1371	Co137	0.875000	0.501800	0.375000
Co1381	Co138	0.375000	0.501800	0.875000
Co1391	Co139	0.375000	0.748200	0.375000
Co1401	Co140	0.875000	0.748200	0.875000
Co1411	Co141	0.875000	0.001800	0.875000
Co1421	Co142	0.375000	0.001800	0.375000
Co1431	Co143	0.375000	0.248200	0.875000
Co1441	Co144	0.875000	0.248200	0.375000
Co1451	Co145	0.375000	0.748200	0.875000
Co1461	Co146	0.375000	0.248200	0.375000
Co1471	Co147	0.375000	0.501800	0.375000
Co1481	Co148	0.375000	0.001800	0.875000
Co1491	Co149	0.875000	0.248200	0.875000
Co1501	Co150	0.875000	0.748200	0.375000
Co1511	Co151	0.875000	0.001800	0.375000
Co1521	Co152	0.875000	0.501800	0.875000
Co1531	Co153	0.875000	0.375000	0.748200
Co1541	Co154	0.375000	0.375000	0.248200
Co1551	Co155	0.375000	0.375000	0.501800
Co1561	Co156	0.875000	0.375000	0.001800
Co1571	Co157	0.875000	0.875000	0.248200
Co1581	Co158	0.375000	0.875000	0.748200
Co1591	Co159	0.375000	0.875000	0.001800
Co1601	Co160	0.875000	0.875000	0.501800
Co1611	Co161	0.748200	0.875000	0.375000
Co1621	Co162	0.748200	0.375000	0.875000
Co1631	Co163	0.501800	0.375000	0.375000
Co1641	Co164	0.501800	0.875000	0.875000
Co1651	Co165	0.248200	0.875000	0.875000
Co1661	Co166	0.248200	0.375000	0.375000
Co1671	Co167	0.001800	0.375000	0.875000
Co1681	Co168	0.001800	0.875000	0.375000
Co1691	Co169	0.998200	0.125000	0.125000
Co1701	Co170	0.998200	0.625000	0.625000
Co1711	Co171	0.498200	0.625000	0.125000
Co1721	Co172	0.751800	0.125000	0.625000
Co1731	Co173	0.751800	0.625000	0.125000
Co1741	Co174	0.498200	0.125000	0.625000
Co1751	Co175	0.251800	0.625000	0.625000
Co1761	Co176	0.251800	0.125000	0.125000
Co1771	Co177	0.625000	0.625000	0.251800
Co1781	Co178	0.625000	0.125000	0.751800
Co1791	Co179	0.625000	0.125000	0.498200
Co1801	Co180	0.625000	0.625000	0.998200
Co1811	Co181	0.125000	0.625000	0.751800
Co1821	Co182	0.125000	0.125000	0.251800
Co1831	Co183	0.125000	0.125000	0.998200
Co1841	Co184	0.125000	0.625000	0.498200
Co1851	Co185	0.125000	0.498200	0.625000
Co1861	Co186	0.625000	0.498200	0.125000
Co1871	Co187	0.625000	0.251800	0.625000
Co1881	Co188	0.125000	0.251800	0.125000
Co1891	Co189	0.125000	0.998200	0.125000
Co1901	Co190	0.625000	0.998200	0.625000
Co1911	Co191	0.625000	0.751800	0.125000
Co1921	Co192	0.125000	0.751800	0.625000
