data_RIYBOS_freeONLY_PM
_symmetry_space_group_name_H-M	'P1'
_cell_length_a	13.835300
_cell_length_b	27.550400
_cell_length_c	44.539800
_cell_angle_alpha	90.000000
_cell_angle_beta	90.000000
_cell_angle_gamma	90.000000
_symmetry_Int_Tables_number 1

loop_
_symmetry_equiv_pos_as_xyz
'x,y,z'

loop_
_atom_site_label
_atom_site_type_symbol
_atom_site_fract_x
_atom_site_fract_y
_atom_site_fract_z
Zn11	Zn1	0.124550	0.477720	0.584770
Zn21	Zn2	0.155560	0.953980	0.584340
Zn31	Zn3	0.844440	0.546020	0.084340
Zn41	Zn4	0.655560	0.046020	0.915660
Zn51	Zn5	0.674070	0.239910	0.178790
Zn61	Zn6	0.174070	0.760090	0.321210
Zn71	Zn7	0.375450	0.977720	0.415230
Zn81	Zn8	0.344440	0.453980	0.415660
Zn91	Zn9	0.825930	0.739910	0.821210
Zn101	Zn10	0.325930	0.260090	0.678790
Zn111	Zn11	0.875450	0.022280	0.084770
Zn121	Zn12	0.624550	0.522280	0.915230
H11	H1	0.436200	0.198200	0.723000
H21	H2	0.080200	0.657800	0.594200
H31	H3	0.474500	0.581800	0.884500
H41	H4	0.626600	0.085300	0.024200
H51	H5	0.319000	0.610800	0.892100
H61	H6	0.181000	0.110800	0.107900
H71	H7	0.704300	0.064100	0.981200
H81	H8	0.534300	0.149800	0.832700
H91	H9	0.617600	0.160800	0.221800
H101	H10	0.896800	0.916400	0.070200
H111	H11	0.629900	0.153600	0.931400
H121	H12	0.378200	0.365600	0.590000
H131	H13	0.097000	0.775000	0.591600
H141	H14	0.430500	0.014100	0.353200
H151	H15	0.554000	0.151700	0.269000
H161	H16	0.025500	0.081800	0.115500
H171	H17	0.795700	0.564100	0.018800
H181	H18	0.465700	0.350200	0.332700
H191	H19	0.054000	0.848300	0.231000
H201	H20	0.946000	0.651700	0.731000
H211	H21	0.206200	0.831400	0.370900
H221	H22	0.541600	0.467200	0.441300
H231	H23	0.458400	0.032800	0.941300
H241	H24	0.819000	0.389200	0.607900
H251	H25	0.965700	0.649800	0.167300
H261	H26	0.434900	0.420400	0.358400
H271	H27	0.373500	0.181000	0.126100
H281	H28	0.621800	0.134400	0.090000
H291	H29	0.103200	0.583600	0.570200
H301	H30	0.873500	0.819000	0.373900
H311	H31	0.065100	0.920400	0.641600
H321	H32	0.958400	0.967200	0.558700
H331	H33	0.372000	0.055000	0.983700
H341	H34	0.497600	0.203700	0.771400
H351	H35	0.525500	0.918200	0.384500
H361	H36	0.461300	0.085300	0.328800
H371	H37	0.961300	0.914700	0.171200
H381	H38	0.563800	0.301800	0.223000
H391	H39	0.018500	0.029200	0.033400
H401	H40	0.569500	0.485900	0.853200
H411	H41	0.997600	0.796300	0.728600
H421	H42	0.204300	0.935900	0.518800
H431	H43	0.706200	0.168600	0.129100
H441	H44	0.870100	0.653600	0.068600
H451	H45	0.121800	0.865600	0.410000
H461	H46	0.930500	0.985900	0.146800
H471	H47	0.981500	0.470800	0.533400
H481	H48	0.465000	0.220800	0.163800
H491	H49	0.628000	0.445000	0.483700
H501	H50	0.446000	0.348300	0.769000
H511	H51	0.965000	0.779200	0.336200
H521	H52	0.481500	0.529200	0.966600
H531	H53	0.295700	0.435900	0.481200
H541	H54	0.117600	0.839200	0.278200
H551	H55	0.069500	0.514100	0.646800
H561	H56	0.826200	0.445900	0.524600
H571	H57	0.518500	0.970800	0.466600
H581	H58	0.873400	0.585300	0.975800
H591	H59	0.126500	0.681000	0.873900
H601	H60	0.603200	0.416400	0.929800
H611	H61	0.382400	0.339200	0.721800
H621	H62	0.403000	0.275000	0.408400
H631	H63	0.626500	0.319000	0.626100
H641	H64	0.038700	0.585300	0.671200
H651	H65	0.919800	0.842200	0.094200
H661	H66	0.129900	0.846400	0.568600
H671	H67	0.128000	0.555000	0.016300
H681	H68	0.126600	0.914700	0.475800
H691	H69	0.370100	0.346400	0.431400
H701	H70	0.597000	0.225000	0.908400
H711	H71	0.673800	0.945900	0.475400
H721	H72	0.502400	0.296300	0.271400
H731	H73	0.373400	0.414700	0.524200
H741	H74	0.396800	0.083600	0.429800
H751	H75	0.419800	0.157800	0.405800
H761	H76	0.173800	0.054100	0.024600
H771	H77	0.903000	0.725000	0.091600
H781	H78	0.034300	0.850200	0.667300
H791	H79	0.934900	0.579600	0.141600
H801	H80	0.326200	0.554100	0.975400
H811	H81	0.002400	0.703700	0.228600
H821	H82	0.878200	0.634400	0.910000
H831	H83	0.872000	0.945000	0.516300
H841	H84	0.580200	0.342200	0.905800
H851	H85	0.063800	0.698200	0.277000
H861	H86	0.936200	0.801800	0.777000
H871	H87	0.681000	0.889200	0.392100
H881	H88	0.793800	0.668600	0.870900
H891	H89	0.041600	0.532800	0.058700
H901	H90	0.974500	0.418200	0.615500
H911	H91	0.293800	0.331400	0.629100
H921	H92	0.538700	0.414700	0.828800
H931	H93	0.535000	0.279200	0.663800
H941	H94	0.565100	0.079600	0.858400
H951	H95	0.882400	0.660800	0.778200
H961	H96	0.035000	0.720800	0.836200
C11	C1	0.562700	0.196100	0.867260
C21	C2	0.389300	0.346800	0.410890
C31	C3	0.546900	0.241500	0.850780
C41	C4	0.937300	0.696100	0.132740
C51	C5	0.056000	0.076500	0.096700
C61	C6	0.059400	0.629800	0.635550
C71	C7	0.954700	0.823200	0.151190
C81	C8	0.045300	0.676800	0.651190
C91	C9	0.445800	0.085900	0.349570
C101	C10	0.422600	0.128500	0.394530
C111	C11	0.091700	0.583900	0.591230
C121	C12	0.946000	0.651400	0.146860
C131	C13	0.991400	0.780100	0.192140
C141	C14	0.635700	0.063100	0.981510
C151	C15	0.110700	0.846800	0.589110
C161	C16	0.638100	0.172800	0.128100
C171	C17	0.591700	0.416100	0.908770
C181	C18	0.437000	0.229000	0.732720
C191	C19	0.408300	0.083900	0.408770
C201	C20	0.545300	0.323200	0.848810
C211	C21	0.577400	0.371500	0.894530
C221	C22	0.693600	0.915100	0.434570
C231	C23	0.064300	0.628800	0.919990
C241	C24	0.937200	0.910900	0.464330
C251	C25	0.590100	0.075300	0.007200
C261	C26	0.492300	0.045000	0.958250
C271	C27	0.059500	0.557400	0.016460
C281	C28	0.861900	0.672800	0.871900
C291	C29	0.558000	0.321000	0.626100
C301	C30	0.944000	0.423500	0.596700
C311	C31	0.435700	0.128800	0.080010
C321	C32	0.361900	0.327200	0.628100
C331	C33	0.437300	0.303900	0.367260
C341	C34	0.593600	0.188500	0.232120
C351	C35	0.046900	0.758500	0.649220
C361	C36	0.937000	0.771000	0.767280
C371	C37	0.591400	0.195500	0.897530
C381	C38	0.908600	0.695500	0.102470
C391	C39	0.062700	0.803900	0.632740
C401	C40	0.297400	0.097200	0.061410
C411	C41	0.929000	0.956300	0.135700
C421	C42	0.510600	0.346600	0.604440
C431	C43	0.442700	0.317000	0.760170
C441	C44	0.851300	0.406500	0.592440
C451	C45	0.071000	0.543700	0.635700
C461	C46	0.491400	0.219900	0.307860
C471	C47	0.573700	0.109700	0.868410
C481	C48	0.926300	0.609700	0.131590
C491	C49	0.024100	0.775900	0.223740
C501	C50	0.444000	0.576500	0.903300
C511	C51	0.610700	0.153200	0.910890
C521	C52	0.408600	0.304500	0.397530
C531	C53	0.202600	0.597200	0.938590
C541	C54	0.351300	0.593500	0.907560
C551	C55	0.797400	0.902800	0.438590
C561	C56	0.010600	0.653400	0.895560
C571	C57	0.940600	0.870200	0.135550
C581	C58	0.554200	0.414100	0.849570
C591	C59	0.563000	0.271000	0.232720
C601	C60	0.364300	0.436900	0.481510
C611	C61	0.002400	0.702700	0.851310
C621	C62	0.412100	0.348800	0.605300
C631	C63	0.475900	0.275900	0.776260
C641	C64	0.906400	0.688500	0.767880
C651	C65	0.997600	0.797300	0.351310
C661	C66	0.473800	0.232000	0.761690
C671	C67	0.953100	0.741500	0.149220
C681	C68	0.446000	0.348600	0.353140
C691	C69	0.564300	0.371200	0.580010
C701	C70	0.077400	0.628500	0.605470
C711	C71	0.447500	0.545600	0.951000
C721	C72	0.052500	0.045600	0.049000
C731	C73	0.489600	0.073500	0.008860
C741	C74	0.556000	0.923500	0.403300
C751	C75	0.947500	0.454400	0.549000
C761	C76	0.453100	0.258500	0.350780
C771	C77	0.554000	0.151400	0.853140
C781	C78	0.942000	0.821000	0.373900
C791	C79	0.922600	0.871500	0.105470
C801	C80	0.935700	0.871200	0.419990
C811	C81	0.144200	0.060500	0.043400
C821	C82	0.062800	0.589100	0.964330
C831	C83	0.912100	0.651200	0.894700
C841	C84	0.193600	0.084900	0.065430
C851	C85	0.497600	0.202700	0.148690
C861	C86	0.054000	0.848600	0.646860
C871	C87	0.702600	0.402800	0.561410
C881	C88	0.648700	0.906500	0.407560
C891	C89	0.559500	0.442600	0.483540
C901	C90	0.426300	0.390300	0.368410
C911	C91	0.093600	0.811500	0.267880
C921	C92	0.409900	0.424700	0.507200
C931	C93	0.940500	0.942600	0.516460
C941	C94	0.057300	0.817000	0.239830
C951	C95	0.087900	0.848800	0.394700
C961	C96	0.855800	0.439500	0.543400
C971	C97	0.502400	0.297300	0.648690
C981	C98	0.054200	0.585900	0.650430
C991	C99	0.135700	0.936900	0.518490
C1001	C100	0.864300	0.563100	0.018490
C1011	C101	0.562800	0.410900	0.535670
C1021	C102	0.073700	0.890300	0.631590
C1031	C103	0.437200	0.089100	0.035670
C1041	C104	0.989600	0.926500	0.491140
C1051	C105	0.406400	0.311500	0.732120
C1061	C106	0.008600	0.719900	0.692140
C1071	C107	0.091400	0.804500	0.602470
C1081	C108	0.148700	0.093500	0.092440
C1091	C109	0.454700	0.176800	0.348810
C1101	C110	0.524100	0.224100	0.276260
C1111	C111	0.442000	0.179000	0.126100
C1121	C112	0.510400	0.426500	0.508860
C1131	C113	0.507700	0.455000	0.458250
C1141	C114	0.355800	0.560500	0.956600
C1151	C115	0.889300	0.653200	0.089110
C1161	C116	0.945800	0.914100	0.150430
C1171	C117	0.063000	0.729000	0.267280
C1181	C118	0.429000	0.043700	0.364300
C1191	C119	0.552500	0.954400	0.451000
C1201	C120	0.975900	0.724100	0.723740
C1211	C121	0.992300	0.955000	0.541750
C1221	C122	0.026200	0.732000	0.238310
C1231	C123	0.440600	0.129800	0.364450
C1241	C124	0.806400	0.415100	0.565430
C1251	C125	0.010400	0.573500	0.991140
C1261	C126	0.489400	0.153400	0.104440
C1271	C127	0.909900	0.575300	0.992800
C1281	C128	0.508600	0.280100	0.807860
C1291	C129	0.138100	0.827200	0.371900
C1301	C130	0.058000	0.679000	0.873900
C1311	C131	0.989400	0.846600	0.395560
C1321	C132	0.007700	0.545000	0.041750
C1331	C133	0.557300	0.183000	0.260170
C1341	C134	0.942700	0.683000	0.739830
C1351	C135	0.571000	0.456300	0.864300
C1361	C136	0.644200	0.939500	0.456600
C1371	C137	0.973800	0.768000	0.738310
C1381	C138	0.908300	0.916100	0.091230
C1391	C139	0.587900	0.151200	0.105300
C1401	C140	0.306400	0.584900	0.934570
C1411	C141	0.440500	0.057400	0.983540
C1421	C142	0.559400	0.370200	0.864450
C1431	C143	0.526200	0.268000	0.261690
C1441	C144	0.090100	0.924700	0.492800
I11	I1	0.799900	0.072310	0.122460
I21	I2	0.175900	0.674870	0.335740
I31	I3	0.330150	0.802260	0.315490
I41	I4	0.830150	0.197740	0.184510
I51	I5	0.580910	0.983800	0.887060
I61	I6	0.919090	0.483800	0.112940
I71	I7	0.669850	0.697740	0.815490
I81	I8	0.824100	0.825130	0.835740
I91	I9	0.828640	0.059830	0.922180
I101	I10	0.299600	0.997600	0.462910
I111	I11	0.700100	0.572310	0.877540
I121	I12	0.799600	0.002400	0.037090
I131	I13	0.324100	0.174870	0.664260
I141	I14	0.419090	0.516200	0.387060
I151	I15	0.169850	0.302260	0.684510
I161	I16	0.700400	0.502400	0.962910
I171	I17	0.171360	0.440170	0.422180
I181	I18	0.328640	0.940170	0.577820
I191	I19	0.675900	0.325130	0.164260
I201	I20	0.299900	0.927690	0.377540
I211	I21	0.671360	0.559830	0.077820
I221	I22	0.200400	0.497600	0.537090
I231	I23	0.200100	0.427690	0.622460
I241	I24	0.080910	0.016200	0.612940
N11	N1	0.440600	0.216300	0.365410
N21	N2	0.007400	0.052800	0.075190
N31	N3	0.407100	0.299500	0.649410
N41	N4	0.839900	0.876400	0.416700
N51	N5	0.096800	0.767100	0.281920
N61	N6	0.157400	0.579500	0.962590
N71	N7	0.104600	0.890700	0.603170
N81	N8	0.907100	0.700500	0.850590
N91	N9	0.604600	0.109300	0.896830
N101	N10	0.903200	0.732900	0.781920
N111	N11	0.520200	0.237500	0.821790
N121	N12	0.520100	0.323600	0.819910
N131	N13	0.979900	0.823600	0.180090
N141	N14	0.660100	0.376400	0.583300
N151	N15	0.657400	0.420500	0.537410
N161	N16	0.092900	0.799500	0.350590
N171	N17	0.395400	0.390700	0.396830
N181	N18	0.590000	0.458100	0.894280
N191	N19	0.592900	0.200500	0.149410
N201	N20	0.992600	0.447200	0.575190
N211	N21	0.979800	0.737500	0.178210
N221	N22	0.559400	0.283700	0.865410
N231	N23	0.410000	0.041900	0.394280
N241	N24	0.403200	0.267100	0.718080
N251	N25	0.012400	0.612400	0.943430
N261	N26	0.410100	0.450500	0.456630
N271	N27	0.842600	0.920500	0.462590
N281	N28	0.160100	0.623600	0.916700
N291	N29	0.492600	0.552800	0.924810
N301	N30	0.089900	0.950500	0.543370
N311	N31	0.596800	0.232900	0.218080
N321	N32	0.020100	0.676400	0.680090
N331	N33	0.940600	0.783700	0.134590
N341	N34	0.910100	0.549500	0.043370
N351	N35	0.479900	0.176400	0.319910
N361	N36	0.339900	0.123600	0.083300
N371	N37	0.487600	0.112400	0.056570
N381	N38	0.987600	0.887600	0.443430
N391	N39	0.512400	0.387600	0.556570
N401	N40	0.342600	0.079500	0.037410
N411	N41	0.020200	0.762500	0.678210
N421	N42	0.589900	0.049500	0.956630
N431	N43	0.910000	0.958100	0.105720
N441	N44	0.507400	0.947200	0.424810
N451	N45	0.059400	0.716300	0.634590
N461	N46	0.895400	0.609300	0.103170
N471	N47	0.090000	0.541900	0.605720
N481	N48	0.479800	0.262500	0.321790
Zn131	Zn13	0.674070	0.739910	0.321210
Zn141	Zn14	0.124550	0.977720	0.915230
Zn151	Zn15	0.155560	0.453980	0.915660
Zn161	Zn16	0.655560	0.546020	0.584340
Zn171	Zn17	0.875450	0.522280	0.415230
Zn181	Zn18	0.344440	0.953980	0.084340
Zn191	Zn19	0.174070	0.260090	0.178790
Zn201	Zn20	0.825930	0.239910	0.678790
Zn211	Zn21	0.325930	0.760090	0.821210
Zn221	Zn22	0.624550	0.022280	0.584770
Zn231	Zn23	0.844440	0.046020	0.415660
Zn241	Zn24	0.375450	0.477720	0.084770
H971	H97	0.038700	0.085300	0.828800
H981	H98	0.793800	0.168600	0.629100
H991	H99	0.018500	0.529200	0.466600
H1001	H100	0.034300	0.350200	0.832700
H1011	H101	0.293800	0.831400	0.870900
H1021	H102	0.126600	0.414700	0.024200
H1031	H103	0.378200	0.865600	0.910000
H1041	H104	0.554000	0.651700	0.231000
H1051	H105	0.121800	0.365600	0.090000
H1061	H106	0.706200	0.668600	0.370900
H1071	H107	0.974500	0.918200	0.884500
H1081	H108	0.065100	0.420400	0.858400
H1091	H109	0.872000	0.445000	0.983700
H1101	H110	0.069500	0.014100	0.853200
H1111	H111	0.502400	0.796300	0.228600
H1121	H112	0.961300	0.414700	0.328800
H1131	H113	0.603200	0.916400	0.570200
H1141	H114	0.597000	0.725000	0.591600
H1151	H115	0.795700	0.064100	0.481200
H1161	H116	0.465700	0.850200	0.167300
H1171	H117	0.002400	0.203700	0.271400
H1181	H118	0.295700	0.935900	0.018800
H1191	H119	0.878200	0.134400	0.590000
H1201	H120	0.403000	0.775000	0.091600
H1211	H121	0.461300	0.585300	0.171200
H1221	H122	0.382400	0.839200	0.778200
H1231	H123	0.103200	0.083600	0.929800
H1241	H124	0.569500	0.985900	0.646800
H1251	H125	0.981500	0.970800	0.966600
H1261	H126	0.097000	0.275000	0.908400
H1271	H127	0.873500	0.319000	0.126100
H1281	H128	0.936200	0.301800	0.723000
H1291	H129	0.373500	0.681000	0.373900
H1301	H130	0.563800	0.801800	0.277000
H1311	H131	0.965000	0.279200	0.163800
H1321	H132	0.396800	0.583600	0.070200
H1331	H133	0.129900	0.346400	0.931400
H1341	H134	0.319000	0.110800	0.607900
H1351	H135	0.474500	0.081800	0.615500
H1361	H136	0.946000	0.151700	0.769000
H1371	H137	0.080200	0.157800	0.905800
H1381	H138	0.681000	0.389200	0.107900
H1391	H139	0.370100	0.846400	0.068600
H1401	H140	0.035000	0.220800	0.663800
H1411	H141	0.541600	0.967200	0.058700
H1421	H142	0.446000	0.848300	0.731000
H1431	H143	0.628000	0.945000	0.016300
H1441	H144	0.126500	0.181000	0.626100
H1451	H145	0.054000	0.348300	0.269000
H1461	H146	0.063800	0.198200	0.223000
H1471	H147	0.525500	0.418200	0.115500
H1481	H148	0.626500	0.819000	0.873900
H1491	H149	0.621800	0.634400	0.410000
H1501	H150	0.534300	0.649800	0.667300
H1511	H151	0.617600	0.660800	0.278200
H1521	H152	0.372000	0.555000	0.516300
H1531	H153	0.930500	0.485900	0.353200
H1541	H154	0.481500	0.029200	0.533400
H1551	H155	0.535000	0.779200	0.836200
H1561	H156	0.882400	0.160800	0.721800
H1571	H157	0.430500	0.514100	0.146800
H1581	H158	0.580200	0.842200	0.594200
H1591	H159	0.518500	0.470800	0.033400
H1601	H160	0.206200	0.331400	0.129100
H1611	H161	0.626600	0.585300	0.475800
H1621	H162	0.919800	0.342200	0.405800
H1631	H163	0.870100	0.153600	0.431400
H1641	H164	0.373400	0.914700	0.975800
H1651	H165	0.826200	0.945900	0.975400
H1661	H166	0.673800	0.445900	0.024600
H1671	H167	0.434900	0.920400	0.141600
H1681	H168	0.025500	0.581800	0.384500
H1691	H169	0.041600	0.032800	0.441300
H1701	H170	0.497600	0.703700	0.728600
H1711	H171	0.458400	0.532800	0.558700
H1721	H172	0.128000	0.055000	0.483700
H1731	H173	0.896800	0.416400	0.429800
H1741	H174	0.181000	0.610800	0.392100
H1751	H175	0.173800	0.554100	0.475400
H1761	H176	0.873400	0.085300	0.524200
H1771	H177	0.903000	0.225000	0.408400
H1781	H178	0.204300	0.435900	0.981200
H1791	H179	0.565100	0.579600	0.641600
H1801	H180	0.326200	0.054100	0.524600
H1811	H181	0.629900	0.653600	0.568600
H1821	H182	0.538700	0.914700	0.671200
H1831	H183	0.958400	0.467200	0.941300
H1841	H184	0.934900	0.079600	0.358400
H1851	H185	0.997600	0.296300	0.771400
H1861	H186	0.117600	0.339200	0.221800
H1871	H187	0.419800	0.657800	0.094200
H1881	H188	0.704300	0.564100	0.518800
H1891	H189	0.819000	0.889200	0.892100
H1901	H190	0.965700	0.149800	0.332700
H1911	H191	0.436200	0.698200	0.777000
H1921	H192	0.465000	0.720800	0.336200
C1451	C145	0.058000	0.179000	0.626100
C1461	C146	0.453100	0.758500	0.149220
C1471	C147	0.942000	0.321000	0.126100
C1481	C148	0.077400	0.128500	0.894530
C1491	C149	0.059500	0.057400	0.483540
C1501	C150	0.412100	0.848800	0.894700
C1511	C151	0.202600	0.097200	0.561410
C1521	C152	0.591400	0.695500	0.602470
C1531	C153	0.010400	0.073500	0.508860
C1541	C154	0.062800	0.089100	0.535670
C1551	C155	0.563000	0.771000	0.267280
C1561	C156	0.364300	0.936900	0.018490
C1571	C157	0.002400	0.202700	0.648690
C1581	C158	0.491400	0.719900	0.192140
C1591	C159	0.954700	0.323200	0.348810
C1601	C160	0.054000	0.348600	0.853140
C1611	C161	0.937300	0.196100	0.367260
C1621	C162	0.351300	0.093500	0.592440
C1631	C163	0.940500	0.442600	0.983540
C1641	C164	0.406400	0.811500	0.767880
C1651	C165	0.437200	0.589100	0.464330
C1661	C166	0.946000	0.151400	0.353140
C1671	C167	0.587900	0.651200	0.394700
C1681	C168	0.889300	0.153200	0.410890
C1691	C169	0.445800	0.585900	0.150430
C1701	C170	0.454700	0.676800	0.151190
C1711	C171	0.492300	0.545000	0.541750
C1721	C172	0.577400	0.871500	0.605470
C1731	C173	0.010600	0.153400	0.604440
C1741	C174	0.110700	0.346800	0.910890
C1751	C175	0.556000	0.423500	0.096700
C1761	C176	0.940600	0.370200	0.364450
C1771	C177	0.929000	0.456300	0.364300
C1781	C178	0.922600	0.371500	0.394530
C1791	C179	0.045300	0.176800	0.848810
C1801	C180	0.024100	0.275900	0.276260
C1811	C181	0.937000	0.271000	0.732720
C1821	C182	0.059400	0.129800	0.864450
C1831	C183	0.473800	0.732000	0.738310
C1841	C184	0.447500	0.045600	0.549000
C1851	C185	0.442000	0.679000	0.373900
C1861	C186	0.306400	0.084900	0.565430
C1871	C187	0.489600	0.573500	0.491140
C1881	C188	0.635700	0.563100	0.518490
C1891	C189	0.908300	0.416100	0.408770
C1901	C190	0.989400	0.346600	0.104440
C1911	C191	0.559400	0.870200	0.635550
C1921	C192	0.997600	0.297300	0.148690
C1931	C193	0.007700	0.045000	0.458250
C1941	C194	0.644200	0.439500	0.043400
C1951	C195	0.475900	0.775900	0.723740
C1961	C196	0.546900	0.741500	0.649220
C1971	C197	0.693600	0.415100	0.065430
C1981	C198	0.947500	0.954400	0.951000
C1991	C199	0.554200	0.914100	0.650430
C2001	C200	0.906400	0.188500	0.732120
C2011	C201	0.057300	0.317000	0.260170
C2021	C202	0.935700	0.371200	0.080010
C2031	C203	0.087900	0.348800	0.105300
C2041	C204	0.429000	0.543700	0.135700
C2051	C205	0.926300	0.109700	0.368410
C2061	C206	0.545300	0.823200	0.651190
C2071	C207	0.444000	0.076500	0.596700
C2081	C208	0.440500	0.557400	0.516460
C2091	C209	0.989600	0.426500	0.008860
C2101	C210	0.554000	0.651400	0.646860
C2111	C211	0.944000	0.923500	0.903300
C2121	C212	0.442700	0.817000	0.739830
C2131	C213	0.992300	0.455000	0.958250
C2141	C214	0.355800	0.060500	0.543400
C2151	C215	0.564300	0.871200	0.919990
C2161	C216	0.702600	0.902800	0.938590
C2171	C217	0.440600	0.629800	0.135550
C2181	C218	0.909900	0.075300	0.507200
C2191	C219	0.508600	0.780100	0.692140
C2201	C220	0.908600	0.195500	0.397530
C2211	C221	0.144200	0.560500	0.456600
C2221	C222	0.559500	0.942600	0.016460
C2231	C223	0.064300	0.128800	0.580010
C2241	C224	0.489400	0.653400	0.395560
C2251	C225	0.437300	0.803900	0.132740
C2261	C226	0.510400	0.926500	0.991140
C2271	C227	0.638100	0.672800	0.371900
C2281	C228	0.861900	0.172800	0.628100
C2291	C229	0.510600	0.846600	0.895560
C2301	C230	0.864300	0.063100	0.481510
C2311	C231	0.091700	0.083900	0.908770
C2321	C232	0.361900	0.827200	0.871900
C2331	C233	0.562700	0.696100	0.632740
C2341	C234	0.437000	0.729000	0.767280
C2351	C235	0.502400	0.797300	0.851310
C2361	C236	0.552500	0.454400	0.049000
C2371	C237	0.422600	0.628500	0.105470
C2381	C238	0.524100	0.724100	0.223740
C2391	C239	0.573700	0.609700	0.631590
C2401	C240	0.973800	0.268000	0.761690
C2411	C241	0.052500	0.545600	0.451000
C2421	C242	0.648700	0.406500	0.092440
C2431	C243	0.409900	0.924700	0.992800
C2441	C244	0.426300	0.890300	0.131590
C2451	C245	0.851300	0.906500	0.907560
C2461	C246	0.571000	0.956300	0.635700
C2471	C247	0.557300	0.683000	0.239830
C2481	C248	0.991400	0.280100	0.307860
C2491	C249	0.054200	0.085900	0.849570
C2501	C250	0.056000	0.576500	0.403300
C2511	C251	0.008600	0.219900	0.807860
C2521	C252	0.507700	0.955000	0.041750
C2531	C253	0.046900	0.258500	0.850780
C2541	C254	0.593600	0.688500	0.267880
C2551	C255	0.135700	0.436900	0.981510
C2561	C256	0.091400	0.304500	0.897530
C2571	C257	0.590100	0.575300	0.492800
C2581	C258	0.937200	0.410900	0.035670
C2591	C259	0.975900	0.224100	0.776260
C2601	C260	0.610700	0.653200	0.589110
C2611	C261	0.855800	0.939500	0.956600
C2621	C262	0.090100	0.424700	0.007200
C2631	C263	0.093600	0.311500	0.232120
C2641	C264	0.497600	0.702700	0.351310
C2651	C265	0.526200	0.768000	0.238310
C2661	C266	0.073700	0.390300	0.868410
C2671	C267	0.408600	0.804500	0.102470
C2681	C268	0.953100	0.241500	0.350780
C2691	C269	0.026200	0.232000	0.261690
C2701	C270	0.138100	0.327200	0.128100
C2711	C271	0.797400	0.402800	0.061410
C2721	C272	0.063000	0.229000	0.232720
C2731	C273	0.408300	0.583900	0.091230
C2741	C274	0.912100	0.151200	0.605300
C2751	C275	0.945800	0.414100	0.349570
C2761	C276	0.389300	0.846800	0.089110
C2771	C277	0.297400	0.597200	0.438590
C2781	C278	0.062700	0.303900	0.867260
C2791	C279	0.591700	0.916100	0.591230
C2801	C280	0.942700	0.183000	0.760170
C2811	C281	0.193600	0.584900	0.434570
C2821	C282	0.558000	0.821000	0.873900
C2831	C283	0.148700	0.593500	0.407560
C2841	C284	0.071000	0.043700	0.864300
C2851	C285	0.446000	0.848600	0.146860
C2861	C286	0.806400	0.915100	0.934570
C2871	C287	0.562800	0.910900	0.964330
C2881	C288	0.435700	0.628800	0.419990
I251	I25	0.824100	0.325130	0.664260
I261	I26	0.324100	0.674870	0.835740
I271	I27	0.799900	0.572310	0.377540
I281	I28	0.830150	0.697740	0.315490
I291	I29	0.171360	0.940170	0.077820
I301	I30	0.330150	0.302260	0.184510
I311	I31	0.669850	0.197740	0.684510
I321	I32	0.700400	0.002400	0.537090
I331	I33	0.675900	0.825130	0.335740
I341	I34	0.299900	0.427690	0.122460
I351	I35	0.700100	0.072310	0.622460
I361	I36	0.080910	0.516200	0.887060
I371	I37	0.200100	0.927690	0.877540
I381	I38	0.799600	0.502400	0.462910
I391	I39	0.671360	0.059830	0.422180
I401	I40	0.299600	0.497600	0.037090
I411	I41	0.919090	0.983800	0.387060
I421	I42	0.169850	0.802260	0.815490
I431	I43	0.200400	0.997600	0.962910
I441	I44	0.828640	0.559830	0.577820
I451	I45	0.580910	0.483800	0.612940
I461	I46	0.328640	0.440170	0.922180
I471	I47	0.175900	0.174870	0.164260
I481	I48	0.419090	0.016200	0.112940
N491	N49	0.020200	0.262500	0.821790
N501	N50	0.940600	0.283700	0.365410
N511	N51	0.604600	0.609300	0.603170
N521	N52	0.979900	0.323600	0.319910
N531	N53	0.907100	0.200500	0.649410
N541	N54	0.512400	0.887600	0.943430
N551	N55	0.596800	0.732900	0.281920
N561	N56	0.589900	0.549500	0.543370
N571	N57	0.657400	0.920500	0.962590
N581	N58	0.590000	0.958100	0.605720
N591	N59	0.910000	0.458100	0.394280
N601	N60	0.895400	0.109300	0.396830
N611	N61	0.660100	0.876400	0.916700
N621	N62	0.090000	0.041900	0.894280
N631	N63	0.979800	0.237500	0.321790
N641	N64	0.903200	0.232900	0.718080
N651	N65	0.092900	0.299500	0.149410
N661	N66	0.592900	0.700500	0.350590
N671	N67	0.992600	0.947200	0.924810
N681	N68	0.910100	0.049500	0.456630
N691	N69	0.020100	0.176400	0.819910
N701	N70	0.059400	0.216300	0.865410
N711	N71	0.520100	0.823600	0.680090
N721	N72	0.492600	0.052800	0.575190
N731	N73	0.839900	0.376400	0.083300
N741	N74	0.007400	0.552800	0.424810
N751	N75	0.012400	0.112400	0.556570
N761	N76	0.440600	0.716300	0.134590
N771	N77	0.987600	0.387600	0.056570
N781	N78	0.157400	0.079500	0.537410
N791	N79	0.089900	0.450500	0.956630
N801	N80	0.410000	0.541900	0.105720
N811	N81	0.403200	0.767100	0.781920
N821	N82	0.559400	0.783700	0.634590
N831	N83	0.479900	0.676400	0.180090
N841	N84	0.479800	0.762500	0.178210
N851	N85	0.507400	0.447200	0.075190
N861	N86	0.842600	0.420500	0.037410
N871	N87	0.407100	0.799500	0.850590
N881	N88	0.342600	0.579500	0.462590
N891	N89	0.487600	0.612400	0.443430
N901	N90	0.410100	0.950500	0.043370
N911	N91	0.520200	0.737500	0.678210
N921	N92	0.339900	0.623600	0.416700
N931	N93	0.160100	0.123600	0.583300
N941	N94	0.104600	0.390700	0.896830
N951	N95	0.096800	0.267100	0.218080
N961	N96	0.395400	0.890700	0.103170
