data_RIYWED_freeONLY_PM
_symmetry_space_group_name_H-M	'P1'
_cell_length_a	23.112000
_cell_length_b	6.953400
_cell_length_c	22.638000
_cell_angle_alpha	90.000000
_cell_angle_beta	90.000000
_cell_angle_gamma	90.000000
_symmetry_Int_Tables_number 1

loop_
_symmetry_equiv_pos_as_xyz
'x,y,z'

loop_
_atom_site_label
_atom_site_type_symbol
_atom_site_fract_x
_atom_site_fract_y
_atom_site_fract_z
Ca11	Ca1	0.468470	0.935700	0.501130
Ca21	Ca2	0.457070	0.563200	0.990930
P11	P1	0.414840	0.437500	0.525880
P21	P2	0.465570	0.918400	0.342650
P31	P3	0.404790	0.064000	0.962940
O11	O1	0.451300	0.611900	0.514800
O21	O2	0.450800	0.258600	0.513500
O31	O3	0.391100	0.442900	0.590800
H11	H1	0.380300	0.332200	0.600800
O41	O4	0.350700	0.302700	0.301600
H21	H2	0.346600	0.261500	0.266900
O51	O5	0.253000	0.317900	0.296800
O61	O6	0.498700	0.919500	0.600400
H31	H3	0.493700	0.025300	0.623500
H41	H4	0.485700	0.819100	0.619200
O71	O7	0.477700	0.554600	0.890100
H51	H5	0.458100	0.475500	0.869700
H61	H6	0.507100	0.614300	0.877200
O81	O8	0.190800	0.581700	0.556800
H71	H7	0.156900	0.594900	0.569400
O91	O9	0.145100	0.561500	0.469300
O101	O10	0.434100	0.913600	0.401600
O111	O11	0.523400	0.810900	0.339900
O121	O12	0.474000	0.136100	0.328700
H81	H8	0.476300	0.151500	0.291900
O131	O13	0.416100	0.586600	0.087000
O141	O14	0.482300	0.462800	0.146600
O151	O15	0.239400	0.818900	0.300300
H91	H9	0.203100	0.811300	0.300600
O161	O16	0.230100	0.685200	0.209100
O171	O17	0.440000	0.234600	0.980900
O181	O18	0.441500	0.883900	0.973200
O191	O19	0.383200	0.077400	0.897400
H101	H10	0.410000	0.120300	0.876000
O201	O20	0.245000	0.173200	0.189800
H111	H11	0.249500	0.156000	0.226200
O211	O21	0.342100	0.205700	0.186400
O221	O22	0.176200	0.926100	0.932300
H121	H12	0.141600	0.916000	0.921300
O231	O23	0.134600	0.950800	0.021400
C11	C1	0.349700	0.440200	0.481300
C21	C2	0.351800	0.392100	0.421400
H131	H13	0.387300	0.355000	0.403800
C31	C3	0.301000	0.398700	0.387500
C41	C4	0.300500	0.338000	0.324200
C51	C5	0.248500	0.450000	0.413600
H141	H14	0.214100	0.450900	0.390600
C61	C6	0.246200	0.499800	0.472900
C71	C7	0.189600	0.551700	0.498900
C81	C8	0.297500	0.496000	0.506200
H151	H15	0.296400	0.532600	0.546600
C91	C9	0.419300	0.819000	0.285800
C101	C10	0.444100	0.736000	0.236000
H161	H16	0.485100	0.729500	0.232800
C111	C11	0.410400	0.663000	0.191500
C121	C12	0.441600	0.569000	0.138400
C131	C13	0.350800	0.672900	0.194600
H171	H17	0.327500	0.626500	0.163100
C141	C14	0.324500	0.756000	0.246800
C151	C15	0.259600	0.748000	0.249800
C161	C16	0.359400	0.825000	0.290300
H181	H18	0.342300	0.877400	0.324900
C171	C17	0.339300	0.054100	0.004700
C181	C18	0.341200	0.098100	0.064500
H191	H19	0.377600	0.127600	0.081800
C191	C19	0.292000	0.101000	0.100100
C201	C20	0.295400	0.166000	0.163200
C211	C21	0.239300	0.048900	0.074900
H201	H20	0.205400	0.046000	0.098700
C221	C22	0.235600	0.000800	0.014800
C231	C23	0.177900	0.957300	0.991300
C241	C24	0.285900	0.007500	0.980300
H211	H21	0.283400	0.979500	0.939300
Ca31	Ca3	0.531530	0.064300	0.001130
Ca41	Ca4	0.542930	0.436800	0.490930
P41	P4	0.585160	0.562500	0.025880
P51	P5	0.534430	0.081600	0.842650
P61	P6	0.595210	0.936000	0.462940
O241	O24	0.548700	0.388100	0.014800
O251	O25	0.549200	0.741400	0.013500
O261	O26	0.608900	0.557100	0.090800
H221	H22	0.619700	0.667800	0.100800
O271	O27	0.649300	0.697300	0.801600
H231	H23	0.653400	0.738500	0.766900
O281	O28	0.747000	0.682100	0.796800
O291	O29	0.501300	0.080500	0.100400
H241	H24	0.506300	0.974700	0.123500
H251	H25	0.514300	0.180900	0.119200
O301	O30	0.522300	0.445400	0.390100
H261	H26	0.541900	0.524500	0.369700
H271	H27	0.492900	0.385700	0.377200
O311	O31	0.809200	0.418300	0.056800
H281	H28	0.843100	0.405100	0.069400
O321	O32	0.854900	0.438500	0.969300
O331	O33	0.565900	0.086400	0.901600
O341	O34	0.476600	0.189100	0.839900
O351	O35	0.526000	0.863900	0.828700
H291	H29	0.523700	0.848500	0.791900
O361	O36	0.583900	0.413400	0.587000
O371	O37	0.517700	0.537200	0.646600
O381	O38	0.760600	0.181100	0.800300
H301	H30	0.796900	0.188700	0.800600
O391	O39	0.769900	0.314800	0.709100
O401	O40	0.560000	0.765400	0.480900
O411	O41	0.558500	0.116100	0.473200
O421	O42	0.616800	0.922600	0.397400
H311	H31	0.590000	0.879700	0.376000
O431	O43	0.755000	0.826800	0.689800
H321	H32	0.750500	0.844000	0.726200
O441	O44	0.657900	0.794300	0.686400
O451	O45	0.823800	0.073900	0.432300
H331	H33	0.858400	0.084000	0.421300
O461	O46	0.865400	0.049200	0.521400
C251	C25	0.650300	0.559800	0.981300
C261	C26	0.648200	0.607900	0.921400
H341	H34	0.612700	0.645000	0.903800
C271	C27	0.699000	0.601300	0.887500
C281	C28	0.699500	0.662000	0.824200
C291	C29	0.751500	0.550000	0.913600
H351	H35	0.785900	0.549100	0.890600
C301	C30	0.753800	0.500200	0.972900
C311	C31	0.810400	0.448300	0.998900
C321	C32	0.702500	0.504000	0.006200
H361	H36	0.703600	0.467400	0.046600
C331	C33	0.580700	0.181000	0.785800
C341	C34	0.555900	0.264000	0.736000
H371	H37	0.514900	0.270500	0.732800
C351	C35	0.589600	0.337000	0.691500
C361	C36	0.558400	0.431000	0.638400
C371	C37	0.649200	0.327100	0.694600
H381	H38	0.672500	0.373500	0.663100
C381	C38	0.675500	0.244000	0.746800
C391	C39	0.740400	0.252000	0.749800
C401	C40	0.640600	0.175000	0.790300
H391	H39	0.657700	0.122600	0.824900
C411	C41	0.660700	0.945900	0.504700
C421	C42	0.658800	0.901900	0.564500
H401	H40	0.622400	0.872400	0.581800
C431	C43	0.708000	0.899000	0.600100
C441	C44	0.704600	0.834000	0.663200
C451	C45	0.760700	0.951100	0.574900
H411	H41	0.794600	0.954000	0.598700
C461	C46	0.764400	0.999200	0.514800
C471	C47	0.822100	0.042700	0.491300
C481	C48	0.714100	0.992500	0.480300
H421	H42	0.716600	0.020500	0.439300
Ca51	Ca5	0.968470	0.064300	0.501130
Ca61	Ca6	0.957070	0.436800	0.990930
P71	P7	0.914840	0.562500	0.525880
P81	P8	0.965570	0.081600	0.342650
P91	P9	0.904790	0.936000	0.962940
O471	O47	0.951300	0.388100	0.514800
O481	O48	0.950800	0.741400	0.513500
O491	O49	0.891100	0.557100	0.590800
H431	H43	0.880300	0.667800	0.600800
O501	O50	0.850700	0.697300	0.301600
H441	H44	0.846600	0.738500	0.266900
O511	O51	0.753000	0.682100	0.296800
O521	O52	0.998700	0.080500	0.600400
H451	H45	0.993700	0.974700	0.623500
H461	H46	0.985700	0.180900	0.619200
O531	O53	0.977700	0.445400	0.890100
H471	H47	0.958100	0.524500	0.869700
H481	H48	0.007100	0.385700	0.877200
O541	O54	0.690800	0.418300	0.556800
H491	H49	0.656900	0.405100	0.569400
O551	O55	0.645100	0.438500	0.469300
O561	O56	0.934100	0.086400	0.401600
O571	O57	0.023400	0.189100	0.339900
O581	O58	0.974000	0.863900	0.328700
H501	H50	0.976300	0.848500	0.291900
O591	O59	0.916100	0.413400	0.087000
O601	O60	0.982300	0.537200	0.146600
O611	O61	0.739400	0.181100	0.300300
H511	H51	0.703100	0.188700	0.300600
O621	O62	0.730100	0.314800	0.209100
O631	O63	0.940000	0.765400	0.980900
O641	O64	0.941500	0.116100	0.973200
O651	O65	0.883200	0.922600	0.897400
H521	H52	0.910000	0.879700	0.876000
O661	O66	0.745000	0.826800	0.189800
H531	H53	0.749500	0.844000	0.226200
O671	O67	0.842100	0.794300	0.186400
O681	O68	0.676200	0.073900	0.932300
H541	H54	0.641600	0.084000	0.921300
O691	O69	0.634600	0.049200	0.021400
C491	C49	0.849700	0.559800	0.481300
C501	C50	0.851800	0.607900	0.421400
H551	H55	0.887300	0.645000	0.403800
C511	C51	0.801000	0.601300	0.387500
C521	C52	0.800500	0.662000	0.324200
C531	C53	0.748500	0.550000	0.413600
H561	H56	0.714100	0.549100	0.390600
C541	C54	0.746200	0.500200	0.472900
C551	C55	0.689600	0.448300	0.498900
C561	C56	0.797500	0.504000	0.506200
H571	H57	0.796400	0.467400	0.546600
C571	C57	0.919300	0.181000	0.285800
C581	C58	0.944100	0.264000	0.236000
H581	H58	0.985100	0.270500	0.232800
C591	C59	0.910400	0.337000	0.191500
C601	C60	0.941600	0.431000	0.138400
C611	C61	0.850800	0.327100	0.194600
H591	H59	0.827500	0.373500	0.163100
C621	C62	0.824500	0.244000	0.246800
C631	C63	0.759600	0.252000	0.249800
C641	C64	0.859400	0.175000	0.290300
H601	H60	0.842300	0.122600	0.324900
C651	C65	0.839300	0.945900	0.004700
C661	C66	0.841200	0.901900	0.064500
H611	H61	0.877600	0.872400	0.081800
C671	C67	0.792000	0.899000	0.100100
C681	C68	0.795400	0.834000	0.163200
C691	C69	0.739300	0.951100	0.074900
H621	H62	0.705400	0.954000	0.098700
C701	C70	0.735600	0.999200	0.014800
C711	C71	0.677900	0.042700	0.991300
C721	C72	0.785900	0.992500	0.980300
H631	H63	0.783400	0.020500	0.939300
Ca71	Ca7	0.031530	0.935700	0.001130
Ca81	Ca8	0.042930	0.563200	0.490930
P101	P10	0.085160	0.437500	0.025880
P111	P11	0.034430	0.918400	0.842650
P121	P12	0.095210	0.064000	0.462940
O701	O70	0.048700	0.611900	0.014800
O711	O71	0.049200	0.258600	0.013500
O721	O72	0.108900	0.442900	0.090800
H641	H64	0.119700	0.332200	0.100800
O731	O73	0.149300	0.302700	0.801600
H651	H65	0.153400	0.261500	0.766900
O741	O74	0.247000	0.317900	0.796800
O751	O75	0.001300	0.919500	0.100400
H661	H66	0.006300	0.025300	0.123500
H671	H67	0.014300	0.819100	0.119200
O761	O76	0.022300	0.554600	0.390100
H681	H68	0.041900	0.475500	0.369700
H691	H69	0.992900	0.614300	0.377200
O771	O77	0.309200	0.581700	0.056800
H701	H70	0.343100	0.594900	0.069400
O781	O78	0.354900	0.561500	0.969300
O791	O79	0.065900	0.913600	0.901600
O801	O80	0.976600	0.810900	0.839900
O811	O81	0.026000	0.136100	0.828700
H711	H71	0.023700	0.151500	0.791900
O821	O82	0.083900	0.586600	0.587000
O831	O83	0.017700	0.462800	0.646600
O841	O84	0.260600	0.818900	0.800300
H721	H72	0.296900	0.811300	0.800600
O851	O85	0.269900	0.685200	0.709100
O861	O86	0.060000	0.234600	0.480900
O871	O87	0.058500	0.883900	0.473200
O881	O88	0.116800	0.077400	0.397400
H731	H73	0.090000	0.120300	0.376000
O891	O89	0.255000	0.173200	0.689800
H741	H74	0.250500	0.156000	0.726200
O901	O90	0.157900	0.205700	0.686400
O911	O91	0.323800	0.926100	0.432300
H751	H75	0.358400	0.916000	0.421300
O921	O92	0.365400	0.950800	0.521400
C731	C73	0.150300	0.440200	0.981300
C741	C74	0.148200	0.392100	0.921400
H761	H76	0.112700	0.355000	0.903800
C751	C75	0.199000	0.398700	0.887500
C761	C76	0.199500	0.338000	0.824200
C771	C77	0.251500	0.450000	0.913600
H771	H77	0.285900	0.450900	0.890600
C781	C78	0.253800	0.499800	0.972900
C791	C79	0.310400	0.551700	0.998900
C801	C80	0.202500	0.496000	0.006200
H781	H78	0.203600	0.532600	0.046600
C811	C81	0.080700	0.819000	0.785800
C821	C82	0.055900	0.736000	0.736000
H791	H79	0.014900	0.729500	0.732800
C831	C83	0.089600	0.663000	0.691500
C841	C84	0.058400	0.569000	0.638400
C851	C85	0.149200	0.672900	0.694600
H801	H80	0.172500	0.626500	0.663100
C861	C86	0.175500	0.756000	0.746800
C871	C87	0.240400	0.748000	0.749800
C881	C88	0.140600	0.825000	0.790300
H811	H81	0.157700	0.877400	0.824900
C891	C89	0.160700	0.054100	0.504700
C901	C90	0.158800	0.098100	0.564500
H821	H82	0.122400	0.127600	0.581800
C911	C91	0.208000	0.101000	0.600100
C921	C92	0.204600	0.166000	0.663200
C931	C93	0.260700	0.048900	0.574900
H831	H83	0.294600	0.046000	0.598700
C941	C94	0.264400	0.000800	0.514800
C951	C95	0.322100	0.957300	0.491300
C961	C96	0.214100	0.007500	0.480300
H841	H84	0.216600	0.979500	0.439300
