data_RIZNIY_freeONLY_PM
_symmetry_space_group_name_H-M	'P1'
_cell_length_a	19.099900
_cell_length_b	22.876200
_cell_length_c	13.387600
_cell_angle_alpha	90.000000
_cell_angle_beta	112.928000
_cell_angle_gamma	90.000000
_symmetry_Int_Tables_number 1

loop_
_symmetry_equiv_pos_as_xyz
'x,y,z'

loop_
_atom_site_label
_atom_site_type_symbol
_atom_site_fract_x
_atom_site_fract_y
_atom_site_fract_z
Cu11	Cu1	0.497540	0.764290	0.557790
N11	N1	0.469200	0.678790	0.546200
N21	N2	0.407500	0.767700	0.416700
N31	N3	0.574400	0.933850	0.802600
O11	O1	0.512900	0.848400	0.565900
O21	O2	0.621600	0.848110	0.541000
O31	O3	0.581000	0.747750	0.693900
O41	O4	0.579000	0.810810	0.820000
C11	C1	0.502900	0.635500	0.612900
H11	H1	0.542100	0.644000	0.679100
C21	C2	0.480900	0.577100	0.586400
H21	H2	0.506100	0.547300	0.634300
C31	C3	0.424100	0.564200	0.492700
H31	H3	0.408700	0.525600	0.476100
C41	C4	0.387200	0.609300	0.418900
C51	C5	0.325100	0.601300	0.314700
H41	H4	0.306500	0.563900	0.293000
C61	C6	0.294200	0.645800	0.249800
H51	H5	0.255200	0.638800	0.182900
C71	C7	0.318900	0.704400	0.279300
C81	C8	0.288900	0.754300	0.216500
H61	H6	0.249600	0.750700	0.148500
C91	C9	0.316500	0.806800	0.254000
H71	H7	0.295800	0.839700	0.212200
C101	C10	0.375300	0.813400	0.354200
H81	H8	0.392900	0.850700	0.378500
C111	C11	0.378300	0.713600	0.380500
C121	C12	0.412200	0.665900	0.450500
C131	C13	0.648700	0.932000	0.857000
H91	H9	0.672900	0.895900	0.874100
C141	C14	0.691800	0.983200	0.889500
H101	H10	0.744100	0.980800	0.927500
C151	C15	0.657900	0.035900	0.866100
H111	H11	0.686600	0.069700	0.889000
C161	C16	0.580200	0.039600	0.807800
C171	C17	0.537900	0.093000	0.777900
H121	H12	0.563400	0.128500	0.797500
C181	C18	0.539900	0.987300	0.778600
C191	C19	0.568000	0.873300	0.552600
C201	C20	0.565800	0.938500	0.546000
H131	H13	0.611600	0.958700	0.569300
C211	C21	0.501900	0.968800	0.508800
H141	H14	0.456500	0.948600	0.493000
C221	C22	0.605500	0.768400	0.786300
C231	C23	0.674400	0.740100	0.866700
H151	H15	0.689100	0.704100	0.849300
C241	C24	0.715700	0.763300	0.961200
H161	H16	0.700100	0.798800	0.979400
Cu21	Cu2	0.997540	0.264290	0.557790
N41	N4	0.969200	0.178790	0.546200
N51	N5	0.907500	0.267700	0.416700
N61	N6	0.074400	0.433850	0.802600
O51	O5	0.012900	0.348400	0.565900
O61	O6	0.121600	0.348110	0.541000
O71	O7	0.081000	0.247750	0.693900
O81	O8	0.079000	0.310810	0.820000
C251	C25	0.002900	0.135500	0.612900
H171	H17	0.042100	0.144000	0.679100
C261	C26	0.980900	0.077100	0.586400
H181	H18	0.006100	0.047300	0.634300
C271	C27	0.924100	0.064200	0.492700
H191	H19	0.908700	0.025600	0.476100
C281	C28	0.887200	0.109300	0.418900
C291	C29	0.825100	0.101300	0.314700
H201	H20	0.806500	0.063900	0.293000
C301	C30	0.794200	0.145800	0.249800
H211	H21	0.755200	0.138800	0.182900
C311	C31	0.818900	0.204400	0.279300
C321	C32	0.788900	0.254300	0.216500
H221	H22	0.749600	0.250700	0.148500
C331	C33	0.816500	0.306800	0.254000
H231	H23	0.795800	0.339700	0.212200
C341	C34	0.875300	0.313400	0.354200
H241	H24	0.892900	0.350700	0.378500
C351	C35	0.878300	0.213600	0.380500
C361	C36	0.912200	0.165900	0.450500
C371	C37	0.148700	0.432000	0.857000
H251	H25	0.172900	0.395900	0.874100
C381	C38	0.191800	0.483200	0.889500
H261	H26	0.244100	0.480800	0.927500
C391	C39	0.157900	0.535900	0.866100
H271	H27	0.186600	0.569700	0.889000
C401	C40	0.080200	0.539600	0.807800
C411	C41	0.037900	0.593000	0.777900
H281	H28	0.063400	0.628500	0.797500
C421	C42	0.039900	0.487300	0.778600
C431	C43	0.068000	0.373300	0.552600
C441	C44	0.065800	0.438500	0.546000
H291	H29	0.111600	0.458700	0.569300
C451	C45	0.001900	0.468800	0.508800
H301	H30	0.956500	0.448600	0.493000
C461	C46	0.105500	0.268400	0.786300
C471	C47	0.174400	0.240100	0.866700
H311	H31	0.189100	0.204100	0.849300
C481	C48	0.215700	0.263300	0.961200
H321	H32	0.200100	0.298800	0.979400
Cu31	Cu3	0.502460	0.764290	0.942210
N71	N7	0.530800	0.678790	0.953800
N81	N8	0.592500	0.767700	0.083300
N91	N9	0.425600	0.933850	0.697400
O91	O9	0.487100	0.848400	0.934100
O101	O10	0.378400	0.848110	0.959000
O111	O11	0.419000	0.747750	0.806100
O121	O12	0.421000	0.810810	0.680000
C491	C49	0.497100	0.635500	0.887100
H331	H33	0.457900	0.644000	0.820900
C501	C50	0.519100	0.577100	0.913600
H341	H34	0.493900	0.547300	0.865700
C511	C51	0.575900	0.564200	0.007300
H351	H35	0.591300	0.525600	0.023900
C521	C52	0.612800	0.609300	0.081100
C531	C53	0.674900	0.601300	0.185300
H361	H36	0.693500	0.563900	0.207000
C541	C54	0.705800	0.645800	0.250200
H371	H37	0.744800	0.638800	0.317100
C551	C55	0.681100	0.704400	0.220700
C561	C56	0.711100	0.754300	0.283500
H381	H38	0.750400	0.750700	0.351500
C571	C57	0.683500	0.806800	0.246000
H391	H39	0.704200	0.839700	0.287800
C581	C58	0.624700	0.813400	0.145800
H401	H40	0.607100	0.850700	0.121500
C591	C59	0.621700	0.713600	0.119500
C601	C60	0.587800	0.665900	0.049500
C611	C61	0.351300	0.932000	0.643000
H411	H41	0.327100	0.895900	0.625900
C621	C62	0.308200	0.983200	0.610500
H421	H42	0.255900	0.980800	0.572500
C631	C63	0.342100	0.035900	0.633900
H431	H43	0.313400	0.069700	0.611000
C641	C64	0.419800	0.039600	0.692200
C651	C65	0.462100	0.093000	0.722100
H441	H44	0.436600	0.128500	0.702500
C661	C66	0.460100	0.987300	0.721400
C671	C67	0.432000	0.873300	0.947400
C681	C68	0.434200	0.938500	0.954000
H451	H45	0.388400	0.958700	0.930700
C691	C69	0.498100	0.968800	0.991200
H461	H46	0.543500	0.948600	0.007000
C701	C70	0.394500	0.768400	0.713700
C711	C71	0.325600	0.740100	0.633300
H471	H47	0.310900	0.704100	0.650700
C721	C72	0.284300	0.763300	0.538800
H481	H48	0.299900	0.798800	0.520600
Cu41	Cu4	0.002460	0.264290	0.942210
N101	N10	0.030800	0.178790	0.953800
N111	N11	0.092500	0.267700	0.083300
N121	N12	0.925600	0.433850	0.697400
O131	O13	0.987100	0.348400	0.934100
O141	O14	0.878400	0.348110	0.959000
O151	O15	0.919000	0.247750	0.806100
O161	O16	0.921000	0.310810	0.680000
C731	C73	0.997100	0.135500	0.887100
H491	H49	0.957900	0.144000	0.820900
C741	C74	0.019100	0.077100	0.913600
H501	H50	0.993900	0.047300	0.865700
C751	C75	0.075900	0.064200	0.007300
H511	H51	0.091300	0.025600	0.023900
C761	C76	0.112800	0.109300	0.081100
C771	C77	0.174900	0.101300	0.185300
H521	H52	0.193500	0.063900	0.207000
C781	C78	0.205800	0.145800	0.250200
H531	H53	0.244800	0.138800	0.317100
C791	C79	0.181100	0.204400	0.220700
C801	C80	0.211100	0.254300	0.283500
H541	H54	0.250400	0.250700	0.351500
C811	C81	0.183500	0.306800	0.246000
H551	H55	0.204200	0.339700	0.287800
C821	C82	0.124700	0.313400	0.145800
H561	H56	0.107100	0.350700	0.121500
C831	C83	0.121700	0.213600	0.119500
C841	C84	0.087800	0.165900	0.049500
C851	C85	0.851300	0.432000	0.643000
H571	H57	0.827100	0.395900	0.625900
C861	C86	0.808200	0.483200	0.610500
H581	H58	0.755900	0.480800	0.572500
C871	C87	0.842100	0.535900	0.633900
H591	H59	0.813400	0.569700	0.611000
C881	C88	0.919800	0.539600	0.692200
C891	C89	0.962100	0.593000	0.722100
H601	H60	0.936600	0.628500	0.702500
C901	C90	0.960100	0.487300	0.721400
C911	C91	0.932000	0.373300	0.947400
C921	C92	0.934200	0.438500	0.954000
H611	H61	0.888400	0.458700	0.930700
C931	C93	0.998100	0.468800	0.991200
H621	H62	0.043500	0.448600	0.007000
C941	C94	0.894500	0.268400	0.713700
C951	C95	0.825600	0.240100	0.633300
H631	H63	0.810900	0.204100	0.650700
C961	C96	0.784300	0.263300	0.538800
H641	H64	0.799900	0.298800	0.520600
Cu51	Cu5	0.502460	0.235710	0.442210
N131	N13	0.530800	0.321210	0.453800
N141	N14	0.592500	0.232300	0.583300
N151	N15	0.425600	0.066150	0.197400
O171	O17	0.487100	0.151600	0.434100
O181	O18	0.378400	0.151890	0.459000
O191	O19	0.419000	0.252250	0.306100
O201	O20	0.421000	0.189190	0.180000
C971	C97	0.497100	0.364500	0.387100
H651	H65	0.457900	0.356000	0.320900
C981	C98	0.519100	0.422900	0.413600
H661	H66	0.493900	0.452700	0.365700
C991	C99	0.575900	0.435800	0.507300
H671	H67	0.591300	0.474400	0.523900
C1001	C100	0.612800	0.390700	0.581100
C1011	C101	0.674900	0.398700	0.685300
H681	H68	0.693500	0.436100	0.707000
C1021	C102	0.705800	0.354200	0.750200
H691	H69	0.744800	0.361200	0.817100
C1031	C103	0.681100	0.295600	0.720700
C1041	C104	0.711100	0.245700	0.783500
H701	H70	0.750400	0.249300	0.851500
C1051	C105	0.683500	0.193200	0.746000
H711	H71	0.704200	0.160300	0.787800
C1061	C106	0.624700	0.186600	0.645800
H721	H72	0.607100	0.149300	0.621500
C1071	C107	0.621700	0.286400	0.619500
C1081	C108	0.587800	0.334100	0.549500
C1091	C109	0.351300	0.068000	0.143000
H731	H73	0.327100	0.104100	0.125900
C1101	C110	0.308200	0.016800	0.110500
H741	H74	0.255900	0.019200	0.072500
C1111	C111	0.342100	0.964100	0.133900
H751	H75	0.313400	0.930300	0.111000
C1121	C112	0.419800	0.960400	0.192200
C1131	C113	0.462100	0.907000	0.222100
H761	H76	0.436600	0.871500	0.202500
C1141	C114	0.460100	0.012700	0.221400
C1151	C115	0.432000	0.126700	0.447400
C1161	C116	0.434200	0.061500	0.454000
H771	H77	0.388400	0.041300	0.430700
C1171	C117	0.498100	0.031200	0.491200
H781	H78	0.543500	0.051400	0.507000
C1181	C118	0.394500	0.231600	0.213700
C1191	C119	0.325600	0.259900	0.133300
H791	H79	0.310900	0.295900	0.150700
C1201	C120	0.284300	0.236700	0.038800
H801	H80	0.299900	0.201200	0.020600
Cu61	Cu6	0.002460	0.735710	0.442210
N161	N16	0.030800	0.821210	0.453800
N171	N17	0.092500	0.732300	0.583300
N181	N18	0.925600	0.566150	0.197400
O211	O21	0.987100	0.651600	0.434100
O221	O22	0.878400	0.651890	0.459000
O231	O23	0.919000	0.752250	0.306100
O241	O24	0.921000	0.689190	0.180000
C1211	C121	0.997100	0.864500	0.387100
H811	H81	0.957900	0.856000	0.320900
C1221	C122	0.019100	0.922900	0.413600
H821	H82	0.993900	0.952700	0.365700
C1231	C123	0.075900	0.935800	0.507300
H831	H83	0.091300	0.974400	0.523900
C1241	C124	0.112800	0.890700	0.581100
C1251	C125	0.174900	0.898700	0.685300
H841	H84	0.193500	0.936100	0.707000
C1261	C126	0.205800	0.854200	0.750200
H851	H85	0.244800	0.861200	0.817100
C1271	C127	0.181100	0.795600	0.720700
C1281	C128	0.211100	0.745700	0.783500
H861	H86	0.250400	0.749300	0.851500
C1291	C129	0.183500	0.693200	0.746000
H871	H87	0.204200	0.660300	0.787800
C1301	C130	0.124700	0.686600	0.645800
H881	H88	0.107100	0.649300	0.621500
C1311	C131	0.121700	0.786400	0.619500
C1321	C132	0.087800	0.834100	0.549500
C1331	C133	0.851300	0.568000	0.143000
H891	H89	0.827100	0.604100	0.125900
C1341	C134	0.808200	0.516800	0.110500
H901	H90	0.755900	0.519200	0.072500
C1351	C135	0.842100	0.464100	0.133900
H911	H91	0.813400	0.430300	0.111000
C1361	C136	0.919800	0.460400	0.192200
C1371	C137	0.962100	0.407000	0.222100
H921	H92	0.936600	0.371500	0.202500
C1381	C138	0.960100	0.512700	0.221400
C1391	C139	0.932000	0.626700	0.447400
C1401	C140	0.934200	0.561500	0.454000
H931	H93	0.888400	0.541300	0.430700
C1411	C141	0.998100	0.531200	0.491200
H941	H94	0.043500	0.551400	0.507000
C1421	C142	0.894500	0.731600	0.213700
C1431	C143	0.825600	0.759900	0.133300
H951	H95	0.810900	0.795900	0.150700
C1441	C144	0.784300	0.736700	0.038800
H961	H96	0.799900	0.701200	0.020600
Cu71	Cu7	0.497540	0.235710	0.057790
N191	N19	0.469200	0.321210	0.046200
N201	N20	0.407500	0.232300	0.916700
N211	N21	0.574400	0.066150	0.302600
O251	O25	0.512900	0.151600	0.065900
O261	O26	0.621600	0.151890	0.041000
O271	O27	0.581000	0.252250	0.193900
O281	O28	0.579000	0.189190	0.320000
C1451	C145	0.502900	0.364500	0.112900
H971	H97	0.542100	0.356000	0.179100
C1461	C146	0.480900	0.422900	0.086400
H981	H98	0.506100	0.452700	0.134300
C1471	C147	0.424100	0.435800	0.992700
H991	H99	0.408700	0.474400	0.976100
C1481	C148	0.387200	0.390700	0.918900
C1491	C149	0.325100	0.398700	0.814700
H1001	H100	0.306500	0.436100	0.793000
C1501	C150	0.294200	0.354200	0.749800
H1011	H101	0.255200	0.361200	0.682900
C1511	C151	0.318900	0.295600	0.779300
C1521	C152	0.288900	0.245700	0.716500
H1021	H102	0.249600	0.249300	0.648500
C1531	C153	0.316500	0.193200	0.754000
H1031	H103	0.295800	0.160300	0.712200
C1541	C154	0.375300	0.186600	0.854200
H1041	H104	0.392900	0.149300	0.878500
C1551	C155	0.378300	0.286400	0.880500
C1561	C156	0.412200	0.334100	0.950500
C1571	C157	0.648700	0.068000	0.357000
H1051	H105	0.672900	0.104100	0.374100
C1581	C158	0.691800	0.016800	0.389500
H1061	H106	0.744100	0.019200	0.427500
C1591	C159	0.657900	0.964100	0.366100
H1071	H107	0.686600	0.930300	0.389000
C1601	C160	0.580200	0.960400	0.307800
C1611	C161	0.537900	0.907000	0.277900
H1081	H108	0.563400	0.871500	0.297500
C1621	C162	0.539900	0.012700	0.278600
C1631	C163	0.568000	0.126700	0.052600
C1641	C164	0.565800	0.061500	0.046000
H1091	H109	0.611600	0.041300	0.069300
C1651	C165	0.501900	0.031200	0.008800
H1101	H110	0.456500	0.051400	0.993000
C1661	C166	0.605500	0.231600	0.286300
C1671	C167	0.674400	0.259900	0.366700
H1111	H111	0.689100	0.295900	0.349300
C1681	C168	0.715700	0.236700	0.461200
H1121	H112	0.700100	0.201200	0.479400
Cu81	Cu8	0.997540	0.735710	0.057790
N221	N22	0.969200	0.821210	0.046200
N231	N23	0.907500	0.732300	0.916700
N241	N24	0.074400	0.566150	0.302600
O291	O29	0.012900	0.651600	0.065900
O301	O30	0.121600	0.651890	0.041000
O311	O31	0.081000	0.752250	0.193900
O321	O32	0.079000	0.689190	0.320000
C1691	C169	0.002900	0.864500	0.112900
H1131	H113	0.042100	0.856000	0.179100
C1701	C170	0.980900	0.922900	0.086400
H1141	H114	0.006100	0.952700	0.134300
C1711	C171	0.924100	0.935800	0.992700
H1151	H115	0.908700	0.974400	0.976100
C1721	C172	0.887200	0.890700	0.918900
C1731	C173	0.825100	0.898700	0.814700
H1161	H116	0.806500	0.936100	0.793000
C1741	C174	0.794200	0.854200	0.749800
H1171	H117	0.755200	0.861200	0.682900
C1751	C175	0.818900	0.795600	0.779300
C1761	C176	0.788900	0.745700	0.716500
H1181	H118	0.749600	0.749300	0.648500
C1771	C177	0.816500	0.693200	0.754000
H1191	H119	0.795800	0.660300	0.712200
C1781	C178	0.875300	0.686600	0.854200
H1201	H120	0.892900	0.649300	0.878500
C1791	C179	0.878300	0.786400	0.880500
C1801	C180	0.912200	0.834100	0.950500
C1811	C181	0.148700	0.568000	0.357000
H1211	H121	0.172900	0.604100	0.374100
C1821	C182	0.191800	0.516800	0.389500
H1221	H122	0.244100	0.519200	0.427500
C1831	C183	0.157900	0.464100	0.366100
H1231	H123	0.186600	0.430300	0.389000
C1841	C184	0.080200	0.460400	0.307800
C1851	C185	0.037900	0.407000	0.277900
H1241	H124	0.063400	0.371500	0.297500
C1861	C186	0.039900	0.512700	0.278600
C1871	C187	0.068000	0.626700	0.052600
C1881	C188	0.065800	0.561500	0.046000
H1251	H125	0.111600	0.541300	0.069300
C1891	C189	0.001900	0.531200	0.008800
H1261	H126	0.956500	0.551400	0.993000
C1901	C190	0.105500	0.731600	0.286300
C1911	C191	0.174400	0.759900	0.366700
H1271	H127	0.189100	0.795900	0.349300
C1921	C192	0.215700	0.736700	0.461200
H1281	H128	0.200100	0.701200	0.479400
Cu91	Cu9	0.500000	0.867720	0.750000
Cu101	Cu10	0.000000	0.367720	0.750000
Cu111	Cu11	0.500000	0.132280	0.250000
Cu121	Cu12	0.000000	0.632280	0.250000
