data_RIZNIY01_freeONLY_PM
_symmetry_space_group_name_H-M	'P1'
_cell_length_a	13.283100
_cell_length_b	22.743900
_cell_length_c	18.635400
_cell_angle_alpha	90.000000
_cell_angle_beta	109.050000
_cell_angle_gamma	90.000000
_symmetry_Int_Tables_number 1

loop_
_symmetry_equiv_pos_as_xyz
'x,y,z'

loop_
_atom_site_label
_atom_site_type_symbol
_atom_site_fract_x
_atom_site_fract_y
_atom_site_fract_z
Cu11	Cu1	0.447270	0.262610	0.512990
N11	N1	0.498300	0.259500	0.422970
C11	C1	0.534300	0.302380	0.389900
H11	H1	0.532800	0.341100	0.407100
C21	C2	0.574400	0.292300	0.330700
H21	H2	0.598900	0.324000	0.308600
C31	C3	0.578200	0.236400	0.304700
H31	H3	0.606500	0.229300	0.265500
C41	C4	0.539100	0.189900	0.337600
C51	C5	0.499700	0.203930	0.396000
C61	C6	0.458500	0.158960	0.432300
C71	C7	0.456400	0.100460	0.408200
C81	C8	0.414200	0.058950	0.445600
H41	H4	0.410800	0.019200	0.431300
C91	C9	0.377700	0.076000	0.503000
H51	H5	0.348800	0.048300	0.528200
C101	C10	0.384100	0.135290	0.523500
H61	H6	0.360100	0.146700	0.563700
N21	N2	0.422500	0.176260	0.488860
C111	C11	0.536000	0.129900	0.313700
H71	H7	0.561800	0.120000	0.273900
C121	C12	0.496600	0.087300	0.347500
H81	H8	0.495600	0.048200	0.330800
Cu21	Cu2	0.253190	0.366680	0.508320
N31	N3	0.230000	0.429150	0.428330
C131	C13	0.209800	0.423440	0.354700
H91	H9	0.202200	0.385500	0.333600
C141	C14	0.199400	0.472180	0.306700
H101	H10	0.186300	0.466600	0.254400
C151	C15	0.208000	0.527260	0.335500
H111	H11	0.201100	0.560000	0.303400
C161	C16	0.227500	0.535170	0.413600
C171	C17	0.238500	0.484440	0.457400
C181	C18	0.261300	0.488410	0.537900
C191	C19	0.270300	0.543680	0.572800
C201	C20	0.290800	0.543600	0.651400
H121	H12	0.297100	0.579400	0.677600
C211	C21	0.301700	0.492350	0.689800
H131	H13	0.315200	0.492500	0.742500
C221	C22	0.292900	0.438970	0.650800
H141	H14	0.301200	0.403600	0.678100
N41	N4	0.273100	0.437030	0.576290
C231	C23	0.237600	0.590930	0.450200
H151	H15	0.230500	0.625400	0.421200
C241	C24	0.257100	0.595230	0.525800
H161	H16	0.262200	0.632600	0.548200
Cu31	Cu3	0.065030	0.236620	0.015680
N51	N5	0.076100	0.321230	0.049190
C251	C25	0.102600	0.368090	0.017100
H171	H17	0.130600	0.362600	0.977300
C261	C26	0.090700	0.425320	0.040300
H181	H18	0.111300	0.457600	0.016900
C271	C27	0.048800	0.433850	0.097000
H191	H19	0.039200	0.472200	0.112400
C281	C28	0.020000	0.385520	0.132600
C291	C29	0.034400	0.329940	0.105400
C301	C30	0.003000	0.278720	0.137000
C311	C31	0.960500	0.283070	0.196200
C321	C32	0.933100	0.231200	0.224500
H201	H20	0.903100	0.232200	0.263700
C331	C33	0.950100	0.178800	0.195000
H211	H21	0.933700	0.143400	0.214900
C341	C34	0.991600	0.177650	0.135500
H221	H22	0.002400	0.141100	0.115600
N61	N6	0.016700	0.226430	0.105810
C351	C35	0.976000	0.389000	0.193200
H231	H23	0.966700	0.426100	0.212400
C361	C36	0.947900	0.341000	0.223000
H241	H24	0.919100	0.345100	0.262600
O11	O1	0.396400	0.250260	0.598730
O21	O2	0.264700	0.314140	0.592410
C371	C37	0.326500	0.272250	0.621600
C381	C38	0.315000	0.245190	0.690800
H251	H25	0.346900	0.208400	0.706400
C391	C39	0.262100	0.270000	0.731900
H261	H26	0.229300	0.306500	0.716100
O31	O3	0.455040	0.347910	0.522210
O41	O4	0.581600	0.353270	0.636280
C401	C40	0.519500	0.375990	0.578500
C411	C41	0.520200	0.440740	0.570200
H271	H27	0.539900	0.463600	0.614700
C421	C42	0.494800	0.468840	0.503900
H281	H28	0.468400	0.446400	0.459400
O51	O5	0.247070	0.194550	0.934730
O61	O6	0.118600	0.258600	0.934670
C431	C43	0.187200	0.237980	0.908900
C441	C44	0.199100	0.267390	0.841900
H291	H29	0.167600	0.304500	0.828200
C451	C45	0.252200	0.243910	0.799900
H301	H30	0.286000	0.207600	0.815600
O71	O7	0.058340	0.347150	0.493350
O81	O8	0.913400	0.343650	0.389110
C461	C46	0.984000	0.371050	0.438500
C471	C47	0.980700	0.435710	0.437200
H311	H31	0.959000	0.454700	0.389800
C481	C48	0.007000	0.468650	0.499600
H321	H32	0.036900	0.449600	0.546500
Cu41	Cu4	0.552730	0.762610	0.987010
N71	N7	0.501700	0.759500	0.077030
C491	C49	0.465700	0.802380	0.110100
H331	H33	0.467200	0.841100	0.092900
C501	C50	0.425600	0.792300	0.169300
H341	H34	0.401100	0.824000	0.191400
C511	C51	0.421800	0.736400	0.195300
H351	H35	0.393500	0.729300	0.234500
C521	C52	0.460900	0.689900	0.162400
C531	C53	0.500300	0.703930	0.104000
C541	C54	0.541500	0.658960	0.067700
C551	C55	0.543600	0.600460	0.091800
C561	C56	0.585800	0.558950	0.054400
H361	H36	0.589200	0.519200	0.068700
C571	C57	0.622300	0.576000	0.997000
H371	H37	0.651200	0.548300	0.971800
C581	C58	0.615900	0.635290	0.976500
H381	H38	0.639900	0.646700	0.936300
N81	N8	0.577500	0.676260	0.011140
C591	C59	0.464000	0.629900	0.186300
H391	H39	0.438200	0.620000	0.226100
C601	C60	0.503400	0.587300	0.152500
H401	H40	0.504400	0.548200	0.169200
Cu51	Cu5	0.746810	0.866680	0.991680
N91	N9	0.770000	0.929150	0.071670
C611	C61	0.790200	0.923440	0.145300
H411	H41	0.797800	0.885500	0.166400
C621	C62	0.800600	0.972180	0.193300
H421	H42	0.813700	0.966600	0.245600
C631	C63	0.792000	0.027260	0.164500
H431	H43	0.798900	0.060000	0.196600
C641	C64	0.772500	0.035170	0.086400
C651	C65	0.761500	0.984440	0.042600
C661	C66	0.738700	0.988410	0.962100
C671	C67	0.729700	0.043680	0.927200
C681	C68	0.709200	0.043600	0.848600
H441	H44	0.702900	0.079400	0.822400
C691	C69	0.698300	0.992350	0.810200
H451	H45	0.684800	0.992500	0.757500
C701	C70	0.707100	0.938970	0.849200
H461	H46	0.698800	0.903600	0.821900
N101	N10	0.726900	0.937030	0.923710
C711	C71	0.762400	0.090930	0.049800
H471	H47	0.769500	0.125400	0.078800
C721	C72	0.742900	0.095230	0.974200
H481	H48	0.737800	0.132600	0.951800
Cu61	Cu6	0.934970	0.736620	0.484320
N111	N11	0.923900	0.821230	0.450810
C731	C73	0.897400	0.868090	0.482900
H491	H49	0.869400	0.862600	0.522700
C741	C74	0.909300	0.925320	0.459700
H501	H50	0.888700	0.957600	0.483100
C751	C75	0.951200	0.933850	0.403000
H511	H51	0.960800	0.972200	0.387600
C761	C76	0.980000	0.885520	0.367400
C771	C77	0.965600	0.829940	0.394600
C781	C78	0.997000	0.778720	0.363000
C791	C79	0.039500	0.783070	0.303800
C801	C80	0.066900	0.731200	0.275500
H521	H52	0.096900	0.732200	0.236300
C811	C81	0.049900	0.678800	0.305000
H531	H53	0.066300	0.643400	0.285100
C821	C82	0.008400	0.677650	0.364500
H541	H54	0.997600	0.641100	0.384400
N121	N12	0.983300	0.726430	0.394190
C831	C83	0.024000	0.889000	0.306800
H551	H55	0.033300	0.926100	0.287600
C841	C84	0.052100	0.841000	0.277000
H561	H56	0.080900	0.845100	0.237400
O91	O9	0.603600	0.750260	0.901270
O101	O10	0.735300	0.814140	0.907590
C851	C85	0.673500	0.772250	0.878400
C861	C86	0.685000	0.745190	0.809200
H571	H57	0.653100	0.708400	0.793600
C871	C87	0.737900	0.770000	0.768100
H581	H58	0.770700	0.806500	0.783900
O111	O11	0.544960	0.847910	0.977790
O121	O12	0.418400	0.853270	0.863720
C881	C88	0.480500	0.875990	0.921500
C891	C89	0.479800	0.940740	0.929800
H591	H59	0.460100	0.963600	0.885300
C901	C90	0.505200	0.968840	0.996100
H601	H60	0.531600	0.946400	0.040600
O131	O13	0.752930	0.694550	0.565270
O141	O14	0.881400	0.758600	0.565330
C911	C91	0.812800	0.737980	0.591100
C921	C92	0.800900	0.767390	0.658100
H611	H61	0.832400	0.804500	0.671800
C931	C93	0.747800	0.743910	0.700100
H621	H62	0.714000	0.707600	0.684400
O151	O15	0.941660	0.847150	0.006650
O161	O16	0.086600	0.843650	0.110890
C941	C94	0.016000	0.871050	0.061500
C951	C95	0.019300	0.935710	0.062800
H631	H63	0.041000	0.954700	0.110200
C961	C96	0.993000	0.968650	0.000400
H641	H64	0.963100	0.949600	0.953500
Cu71	Cu7	0.552730	0.737390	0.487010
N131	N13	0.501700	0.740500	0.577030
C971	C97	0.465700	0.697620	0.610100
H651	H65	0.467200	0.658900	0.592900
C981	C98	0.425600	0.707700	0.669300
H661	H66	0.401100	0.676000	0.691400
C991	C99	0.421800	0.763600	0.695300
H671	H67	0.393500	0.770700	0.734500
C1001	C100	0.460900	0.810100	0.662400
C1011	C101	0.500300	0.796070	0.604000
C1021	C102	0.541500	0.841040	0.567700
C1031	C103	0.543600	0.899540	0.591800
C1041	C104	0.585800	0.941050	0.554400
H681	H68	0.589200	0.980800	0.568700
C1051	C105	0.622300	0.924000	0.497000
H691	H69	0.651200	0.951700	0.471800
C1061	C106	0.615900	0.864710	0.476500
H701	H70	0.639900	0.853300	0.436300
N141	N14	0.577500	0.823740	0.511140
C1071	C107	0.464000	0.870100	0.686300
H711	H71	0.438200	0.880000	0.726100
C1081	C108	0.503400	0.912700	0.652500
H721	H72	0.504400	0.951800	0.669200
Cu81	Cu8	0.746810	0.633320	0.491680
N151	N15	0.770000	0.570850	0.571670
C1091	C109	0.790200	0.576560	0.645300
H731	H73	0.797800	0.614500	0.666400
C1101	C110	0.800600	0.527820	0.693300
H741	H74	0.813700	0.533400	0.745600
C1111	C111	0.792000	0.472740	0.664500
H751	H75	0.798900	0.440000	0.696600
C1121	C112	0.772500	0.464830	0.586400
C1131	C113	0.761500	0.515560	0.542600
C1141	C114	0.738700	0.511590	0.462100
C1151	C115	0.729700	0.456320	0.427200
C1161	C116	0.709200	0.456400	0.348600
H761	H76	0.702900	0.420600	0.322400
C1171	C117	0.698300	0.507650	0.310200
H771	H77	0.684800	0.507500	0.257500
C1181	C118	0.707100	0.561030	0.349200
H781	H78	0.698800	0.596400	0.321900
N161	N16	0.726900	0.562970	0.423710
C1191	C119	0.762400	0.409070	0.549800
H791	H79	0.769500	0.374600	0.578800
C1201	C120	0.742900	0.404770	0.474200
H801	H80	0.737800	0.367400	0.451800
Cu91	Cu9	0.934970	0.763380	0.984320
N171	N17	0.923900	0.678770	0.950810
C1211	C121	0.897400	0.631910	0.982900
H811	H81	0.869400	0.637400	0.022700
C1221	C122	0.909300	0.574680	0.959700
H821	H82	0.888700	0.542400	0.983100
C1231	C123	0.951200	0.566150	0.903000
H831	H83	0.960800	0.527800	0.887600
C1241	C124	0.980000	0.614480	0.867400
C1251	C125	0.965600	0.670060	0.894600
C1261	C126	0.997000	0.721280	0.863000
C1271	C127	0.039500	0.716930	0.803800
C1281	C128	0.066900	0.768800	0.775500
H841	H84	0.096900	0.767800	0.736300
C1291	C129	0.049900	0.821200	0.805000
H851	H85	0.066300	0.856600	0.785100
C1301	C130	0.008400	0.822350	0.864500
H861	H86	0.997600	0.858900	0.884400
N181	N18	0.983300	0.773570	0.894190
C1311	C131	0.024000	0.611000	0.806800
H871	H87	0.033300	0.573900	0.787600
C1321	C132	0.052100	0.659000	0.777000
H881	H88	0.080900	0.654900	0.737400
O171	O17	0.603600	0.749740	0.401270
O181	O18	0.735300	0.685860	0.407590
C1331	C133	0.673500	0.727750	0.378400
C1341	C134	0.685000	0.754810	0.309200
H891	H89	0.653100	0.791600	0.293600
C1351	C135	0.737900	0.730000	0.268100
H901	H90	0.770700	0.693500	0.283900
O191	O19	0.544960	0.652090	0.477790
O201	O20	0.418400	0.646730	0.363720
C1361	C136	0.480500	0.624010	0.421500
C1371	C137	0.479800	0.559260	0.429800
H911	H91	0.460100	0.536400	0.385300
C1381	C138	0.505200	0.531160	0.496100
H921	H92	0.531600	0.553600	0.540600
O211	O21	0.752930	0.805450	0.065270
O221	O22	0.881400	0.741400	0.065330
C1391	C139	0.812800	0.762020	0.091100
C1401	C140	0.800900	0.732610	0.158100
H931	H93	0.832400	0.695500	0.171800
C1411	C141	0.747800	0.756090	0.200100
H941	H94	0.714000	0.792400	0.184400
O231	O23	0.941660	0.652850	0.506650
O241	O24	0.086600	0.656350	0.610890
C1421	C142	0.016000	0.628950	0.561500
C1431	C143	0.019300	0.564290	0.562800
H951	H95	0.041000	0.545300	0.610200
C1441	C144	0.993000	0.531350	0.500400
H961	H96	0.963100	0.550400	0.453500
Cu101	Cu10	0.447270	0.237390	0.012990
N191	N19	0.498300	0.240500	0.922970
C1451	C145	0.534300	0.197620	0.889900
H971	H97	0.532800	0.158900	0.907100
C1461	C146	0.574400	0.207700	0.830700
H981	H98	0.598900	0.176000	0.808600
C1471	C147	0.578200	0.263600	0.804700
H991	H99	0.606500	0.270700	0.765500
C1481	C148	0.539100	0.310100	0.837600
C1491	C149	0.499700	0.296070	0.896000
C1501	C150	0.458500	0.341040	0.932300
C1511	C151	0.456400	0.399540	0.908200
C1521	C152	0.414200	0.441050	0.945600
H1001	H100	0.410800	0.480800	0.931300
C1531	C153	0.377700	0.424000	0.003000
H1011	H101	0.348800	0.451700	0.028200
C1541	C154	0.384100	0.364710	0.023500
H1021	H102	0.360100	0.353300	0.063700
N201	N20	0.422500	0.323740	0.988860
C1551	C155	0.536000	0.370100	0.813700
H1031	H103	0.561800	0.380000	0.773900
C1561	C156	0.496600	0.412700	0.847500
H1041	H104	0.495600	0.451800	0.830800
Cu111	Cu11	0.253190	0.133320	0.008320
N211	N21	0.230000	0.070850	0.928330
C1571	C157	0.209800	0.076560	0.854700
H1051	H105	0.202200	0.114500	0.833600
C1581	C158	0.199400	0.027820	0.806700
H1061	H106	0.186300	0.033400	0.754400
C1591	C159	0.208000	0.972740	0.835500
H1071	H107	0.201100	0.940000	0.803400
C1601	C160	0.227500	0.964830	0.913600
C1611	C161	0.238500	0.015560	0.957400
C1621	C162	0.261300	0.011590	0.037900
C1631	C163	0.270300	0.956320	0.072800
C1641	C164	0.290800	0.956400	0.151400
H1081	H108	0.297100	0.920600	0.177600
C1651	C165	0.301700	0.007650	0.189800
H1091	H109	0.315200	0.007500	0.242500
C1661	C166	0.292900	0.061030	0.150800
H1101	H110	0.301200	0.096400	0.178100
N221	N22	0.273100	0.062970	0.076290
C1671	C167	0.237600	0.909070	0.950200
H1111	H111	0.230500	0.874600	0.921200
C1681	C168	0.257100	0.904770	0.025800
H1121	H112	0.262200	0.867400	0.048200
Cu121	Cu12	0.065030	0.263380	0.515680
N231	N23	0.076100	0.178770	0.549190
C1691	C169	0.102600	0.131910	0.517100
H1131	H113	0.130600	0.137400	0.477300
C1701	C170	0.090700	0.074680	0.540300
H1141	H114	0.111300	0.042400	0.516900
C1711	C171	0.048800	0.066150	0.597000
H1151	H115	0.039200	0.027800	0.612400
C1721	C172	0.020000	0.114480	0.632600
C1731	C173	0.034400	0.170060	0.605400
C1741	C174	0.003000	0.221280	0.637000
C1751	C175	0.960500	0.216930	0.696200
C1761	C176	0.933100	0.268800	0.724500
H1161	H116	0.903100	0.267800	0.763700
C1771	C177	0.950100	0.321200	0.695000
H1171	H117	0.933700	0.356600	0.714900
C1781	C178	0.991600	0.322350	0.635500
H1181	H118	0.002400	0.358900	0.615600
N241	N24	0.016700	0.273570	0.605810
C1791	C179	0.976000	0.111000	0.693200
H1191	H119	0.966700	0.073900	0.712400
C1801	C180	0.947900	0.159000	0.723000
H1201	H120	0.919100	0.154900	0.762600
O251	O25	0.396400	0.249740	0.098730
O261	O26	0.264700	0.185860	0.092410
C1811	C181	0.326500	0.227750	0.121600
C1821	C182	0.315000	0.254810	0.190800
H1211	H121	0.346900	0.291600	0.206400
C1831	C183	0.262100	0.230000	0.231900
H1221	H122	0.229300	0.193500	0.216100
O271	O27	0.455040	0.152090	0.022210
O281	O28	0.581600	0.146730	0.136280
C1841	C184	0.519500	0.124010	0.078500
C1851	C185	0.520200	0.059260	0.070200
H1231	H123	0.539900	0.036400	0.114700
C1861	C186	0.494800	0.031160	0.003900
H1241	H124	0.468400	0.053600	0.959400
O291	O29	0.247070	0.305450	0.434730
O301	O30	0.118600	0.241400	0.434670
C1871	C187	0.187200	0.262020	0.408900
C1881	C188	0.199100	0.232610	0.341900
H1251	H125	0.167600	0.195500	0.328200
C1891	C189	0.252200	0.256090	0.299900
H1261	H126	0.286000	0.292400	0.315600
O311	O31	0.058340	0.152850	0.993350
O321	O32	0.913400	0.156350	0.889110
C1901	C190	0.984000	0.128950	0.938500
C1911	C191	0.980700	0.064290	0.937200
H1271	H127	0.959000	0.045300	0.889800
C1921	C192	0.007000	0.031350	0.999600
H1281	H128	0.036900	0.050400	0.046500
