data_ROBWAH_freeONLY_PM
_symmetry_space_group_name_H-M	'P1'
_cell_length_a	23.458000
_cell_length_b	7.554600
_cell_length_c	16.518000
_cell_angle_alpha	90.000000
_cell_angle_beta	90.000000
_cell_angle_gamma	90.000000
_symmetry_Int_Tables_number 1

loop_
_symmetry_equiv_pos_as_xyz
'x,y,z'

loop_
_atom_site_label
_atom_site_type_symbol
_atom_site_fract_x
_atom_site_fract_y
_atom_site_fract_z
Ag11	Ag1	0.142630	0.119730	0.565120
S11	S1	0.222320	0.662300	0.040660
S21	S2	0.153990	0.791100	0.657940
C11	C1	0.239900	0.747800	0.135800
C21	C2	0.310100	0.817200	0.220400
H11	H1	0.348600	0.832700	0.231800
C31	C3	0.271800	0.865400	0.277800
H21	H2	0.283600	0.906400	0.328200
C41	C4	0.215500	0.851600	0.259000
C51	C5	0.167400	0.896500	0.315900
C61	C6	0.110600	0.851700	0.294900
H31	H3	0.102500	0.799100	0.245300
C71	C7	0.068400	0.886000	0.347800
H41	H4	0.031100	0.855600	0.334900
C81	C8	0.079600	0.963700	0.418300
H51	H5	0.049500	0.989800	0.452900
C91	C9	0.174600	0.969200	0.388700
H61	H6	0.211600	0.996800	0.404300
C101	C10	0.147300	0.689700	0.041900
H71	H7	0.130100	0.607000	0.079600
H81	H8	0.137500	0.809000	0.058600
C111	C11	0.125400	0.654000	0.954300
C121	C12	0.135200	0.763200	0.892800
H91	H9	0.156700	0.865000	0.901700
C131	C13	0.114200	0.729000	0.815200
C141	C14	0.082400	0.591600	0.800400
H101	H10	0.065100	0.579600	0.750000
C151	C15	0.073800	0.460300	0.860200
H111	H11	0.054400	0.356200	0.848200
C161	C16	0.094500	0.490000	0.935600
H121	H12	0.089000	0.405700	0.975900
C171	C17	0.124000	0.870700	0.751400
H131	H13	0.149200	0.959900	0.773700
H141	H14	0.087800	0.927500	0.739700
C181	C18	0.228600	0.784400	0.676700
C191	C19	0.313000	0.716000	0.626700
H151	H15	0.335600	0.674500	0.584500
C201	C20	0.339500	0.776300	0.691200
H161	H16	0.379100	0.776600	0.694500
C211	C21	0.305300	0.841000	0.755500
C221	C22	0.329000	0.912100	0.831900
C231	C23	0.293600	0.961900	0.890800
H171	H17	0.254400	0.960700	0.883200
C241	C24	0.317200	0.015600	0.963600
H181	H18	0.293300	0.040900	0.007100
C251	C25	0.373800	0.031600	0.972400
H191	H19	0.387900	0.078000	0.020600
C261	C26	0.387100	0.927600	0.847800
H201	H20	0.411800	0.894600	0.806400
N11	N1	0.296300	0.749800	0.149400
N21	N2	0.198900	0.786200	0.187000
N31	N3	0.132500	0.005400	0.441200
N41	N4	0.257400	0.708900	0.616100
N51	N5	0.249500	0.850700	0.747100
N61	N6	0.410600	0.984300	0.915400
Ag21	Ag2	0.857370	0.880270	0.565120
S31	S3	0.777680	0.337700	0.040660
S41	S4	0.846010	0.208900	0.657940
C271	C27	0.760100	0.252200	0.135800
C281	C28	0.689900	0.182800	0.220400
H211	H21	0.651400	0.167300	0.231800
C291	C29	0.728200	0.134600	0.277800
H221	H22	0.716400	0.093600	0.328200
C301	C30	0.784500	0.148400	0.259000
C311	C31	0.832600	0.103500	0.315900
C321	C32	0.889400	0.148300	0.294900
H231	H23	0.897500	0.200900	0.245300
C331	C33	0.931600	0.114000	0.347800
H241	H24	0.968900	0.144400	0.334900
C341	C34	0.920400	0.036300	0.418300
H251	H25	0.950500	0.010200	0.452900
C351	C35	0.825400	0.030800	0.388700
H261	H26	0.788400	0.003200	0.404300
C361	C36	0.852700	0.310300	0.041900
H271	H27	0.869900	0.393000	0.079600
H281	H28	0.862500	0.191000	0.058600
C371	C37	0.874600	0.346000	0.954300
C381	C38	0.864800	0.236800	0.892800
H291	H29	0.843300	0.135000	0.901700
C391	C39	0.885800	0.271000	0.815200
C401	C40	0.917600	0.408400	0.800400
H301	H30	0.934900	0.420400	0.750000
C411	C41	0.926200	0.539700	0.860200
H311	H31	0.945600	0.643800	0.848200
C421	C42	0.905500	0.510000	0.935600
H321	H32	0.911000	0.594300	0.975900
C431	C43	0.876000	0.129300	0.751400
H331	H33	0.850800	0.040100	0.773700
H341	H34	0.912200	0.072500	0.739700
C441	C44	0.771400	0.215600	0.676700
C451	C45	0.687000	0.284000	0.626700
H351	H35	0.664400	0.325500	0.584500
C461	C46	0.660500	0.223700	0.691200
H361	H36	0.620900	0.223400	0.694500
C471	C47	0.694700	0.159000	0.755500
C481	C48	0.671000	0.087900	0.831900
C491	C49	0.706400	0.038100	0.890800
H371	H37	0.745600	0.039300	0.883200
C501	C50	0.682800	0.984400	0.963600
H381	H38	0.706700	0.959100	0.007100
C511	C51	0.626200	0.968400	0.972400
H391	H39	0.612100	0.922000	0.020600
C521	C52	0.612900	0.072400	0.847800
H401	H40	0.588200	0.105400	0.806400
N71	N7	0.703700	0.250200	0.149400
N81	N8	0.801100	0.213800	0.187000
N91	N9	0.867500	0.994600	0.441200
N101	N10	0.742600	0.291100	0.616100
N111	N11	0.750500	0.149300	0.747100
N121	N12	0.589400	0.015700	0.915400
Ag31	Ag3	0.642630	0.380270	0.065120
S51	S5	0.722320	0.837700	0.540660
S61	S6	0.653990	0.708900	0.157940
C531	C53	0.739900	0.752200	0.635800
C541	C54	0.810100	0.682800	0.720400
H411	H41	0.848600	0.667300	0.731800
C551	C55	0.771800	0.634600	0.777800
H421	H42	0.783600	0.593600	0.828200
C561	C56	0.715500	0.648400	0.759000
C571	C57	0.667400	0.603500	0.815900
C581	C58	0.610600	0.648300	0.794900
H431	H43	0.602500	0.700900	0.745300
C591	C59	0.568400	0.614000	0.847800
H441	H44	0.531100	0.644400	0.834900
C601	C60	0.579600	0.536300	0.918300
H451	H45	0.549500	0.510200	0.952900
C611	C61	0.674600	0.530800	0.888700
H461	H46	0.711600	0.503200	0.904300
C621	C62	0.647300	0.810300	0.541900
H471	H47	0.630100	0.893000	0.579600
H481	H48	0.637500	0.691000	0.558600
C631	C63	0.625400	0.846000	0.454300
C641	C64	0.635200	0.736800	0.392800
H491	H49	0.656700	0.635000	0.401700
C651	C65	0.614200	0.771000	0.315200
C661	C66	0.582400	0.908400	0.300400
H501	H50	0.565100	0.920400	0.250000
C671	C67	0.573800	0.039700	0.360200
H511	H51	0.554400	0.143800	0.348200
C681	C68	0.594500	0.010000	0.435600
H521	H52	0.589000	0.094300	0.475900
C691	C69	0.624000	0.629300	0.251400
H531	H53	0.649200	0.540100	0.273700
H541	H54	0.587800	0.572500	0.239700
C701	C70	0.728600	0.715600	0.176700
C711	C71	0.813000	0.784000	0.126700
H551	H55	0.835600	0.825500	0.084500
C721	C72	0.839500	0.723700	0.191200
H561	H56	0.879100	0.723400	0.194500
C731	C73	0.805300	0.659000	0.255500
C741	C74	0.829000	0.587900	0.331900
C751	C75	0.793600	0.538100	0.390800
H571	H57	0.754400	0.539300	0.383200
C761	C76	0.817200	0.484400	0.463600
H581	H58	0.793300	0.459100	0.507100
C771	C77	0.873800	0.468400	0.472400
H591	H59	0.887900	0.422000	0.520600
C781	C78	0.887100	0.572400	0.347800
H601	H60	0.911800	0.605400	0.306400
N131	N13	0.796300	0.750200	0.649400
N141	N14	0.698900	0.713800	0.687000
N151	N15	0.632500	0.494600	0.941200
N161	N16	0.757400	0.791100	0.116100
N171	N17	0.749500	0.649300	0.247100
N181	N18	0.910600	0.515700	0.415400
Ag41	Ag4	0.357370	0.619730	0.065120
S71	S7	0.277680	0.162300	0.540660
S81	S8	0.346010	0.291100	0.157940
C791	C79	0.260100	0.247800	0.635800
C801	C80	0.189900	0.317200	0.720400
H611	H61	0.151400	0.332700	0.731800
C811	C81	0.228200	0.365400	0.777800
H621	H62	0.216400	0.406400	0.828200
C821	C82	0.284500	0.351600	0.759000
C831	C83	0.332600	0.396500	0.815900
C841	C84	0.389400	0.351700	0.794900
H631	H63	0.397500	0.299100	0.745300
C851	C85	0.431600	0.386000	0.847800
H641	H64	0.468900	0.355600	0.834900
C861	C86	0.420400	0.463700	0.918300
H651	H65	0.450500	0.489800	0.952900
C871	C87	0.325400	0.469200	0.888700
H661	H66	0.288400	0.496800	0.904300
C881	C88	0.352700	0.189700	0.541900
H671	H67	0.369900	0.107000	0.579600
H681	H68	0.362500	0.309000	0.558600
C891	C89	0.374600	0.154000	0.454300
C901	C90	0.364800	0.263200	0.392800
H691	H69	0.343300	0.365000	0.401700
C911	C91	0.385800	0.229000	0.315200
C921	C92	0.417600	0.091600	0.300400
H701	H70	0.434900	0.079600	0.250000
C931	C93	0.426200	0.960300	0.360200
H711	H71	0.445600	0.856200	0.348200
C941	C94	0.405500	0.990000	0.435600
H721	H72	0.411000	0.905700	0.475900
C951	C95	0.376000	0.370700	0.251400
H731	H73	0.350800	0.459900	0.273700
H741	H74	0.412200	0.427500	0.239700
C961	C96	0.271400	0.284400	0.176700
C971	C97	0.187000	0.216000	0.126700
H751	H75	0.164400	0.174500	0.084500
C981	C98	0.160500	0.276300	0.191200
H761	H76	0.120900	0.276600	0.194500
C991	C99	0.194700	0.341000	0.255500
C1001	C100	0.171000	0.412100	0.331900
C1011	C101	0.206400	0.461900	0.390800
H771	H77	0.245600	0.460700	0.383200
C1021	C102	0.182800	0.515600	0.463600
H781	H78	0.206700	0.540900	0.507100
C1031	C103	0.126200	0.531600	0.472400
H791	H79	0.112100	0.578000	0.520600
C1041	C104	0.112900	0.427600	0.347800
H801	H80	0.088200	0.394600	0.306400
N191	N19	0.203700	0.249800	0.649400
N201	N20	0.301100	0.286200	0.687000
N211	N21	0.367500	0.505400	0.941200
N221	N22	0.242600	0.208900	0.116100
N231	N23	0.250500	0.350700	0.247100
N241	N24	0.089400	0.484300	0.415400
Ag51	Ag5	0.500000	0.000000	0.933410
Ag61	Ag6	0.000000	0.500000	0.433410
