data_ROCZIU_freeONLY_PM
_symmetry_space_group_name_H-M	'P1'
_cell_length_a	9.638000
_cell_length_b	15.443000
_cell_length_c	18.717000
_cell_angle_alpha	90.000000
_cell_angle_beta	90.000000
_cell_angle_gamma	90.000000
_symmetry_Int_Tables_number 1

loop_
_symmetry_equiv_pos_as_xyz
'x,y,z'

loop_
_atom_site_label
_atom_site_type_symbol
_atom_site_fract_x
_atom_site_fract_y
_atom_site_fract_z
Cd11	Cd1	0.116470	0.783100	0.939020
C11	C1	0.418100	0.855400	0.983400
H11	H1	0.357500	0.892700	0.006900
C21	C2	0.557000	0.869900	0.990900
H21	H2	0.588900	0.916200	0.018100
C31	C3	0.648900	0.815300	0.957700
C41	C4	0.593000	0.748500	0.918300
H31	H3	0.651400	0.709500	0.895300
C51	C5	0.452700	0.739000	0.912800
H41	H4	0.418300	0.693700	0.885200
C61	C6	0.801900	0.831100	0.963100
C71	C7	0.050700	0.827300	0.299400
H51	H5	0.993600	0.853400	0.333200
C81	C8	0.046400	0.857700	0.230600
H61	H6	0.990100	0.904400	0.218700
C91	C9	0.125700	0.818300	0.180000
C101	C10	0.208700	0.750300	0.200900
H71	H7	0.263100	0.721300	0.167600
C111	C11	0.210500	0.725600	0.271500
H81	H8	0.269300	0.680800	0.285200
C121	C12	0.118900	0.847200	0.103100
C131	C13	0.108200	0.597500	0.022600
C141	C14	0.037100	0.549400	0.131300
H91	H9	0.975400	0.502200	0.144000
H101	H10	0.035500	0.592500	0.169000
C151	C15	0.179700	0.517400	0.118800
H111	H11	0.241200	0.533400	0.157600
H121	H12	0.181300	0.455000	0.112900
C161	C16	0.869300	0.631300	0.053900
H131	H13	0.804600	0.613900	0.090100
H141	H14	0.832500	0.617100	0.007700
H151	H15	0.884500	0.692600	0.056800
C171	C17	0.349100	0.550800	0.020900
H161	H16	0.411600	0.522800	0.053400
H171	H17	0.385200	0.606800	0.008400
H181	H18	0.339600	0.516300	0.978500
N11	N1	0.363500	0.791300	0.944800
N21	N2	0.132100	0.762700	0.320600
N31	N3	0.121200	0.928500	0.914900
N41	N4	0.171000	0.963200	0.866700
N51	N5	0.215000	0.997600	0.818100
N61	N6	0.998400	0.586600	0.064300
N71	N7	0.216700	0.560700	0.054000
O11	O1	0.106600	0.925900	0.091890
O21	O2	0.128800	0.788300	0.057980
O31	O3	0.838800	0.892900	0.000700
O41	O4	0.879500	0.780400	0.929670
O51	O5	0.109500	0.634300	0.962790
Cd21	Cd2	0.883530	0.283100	0.560980
C181	C18	0.581900	0.355400	0.516600
H191	H19	0.642500	0.392700	0.493100
C191	C19	0.443000	0.369900	0.509100
H201	H20	0.411100	0.416200	0.481900
C201	C20	0.351100	0.315300	0.542300
C211	C21	0.407000	0.248500	0.581700
H211	H21	0.348600	0.209500	0.604700
C221	C22	0.547300	0.239000	0.587200
H221	H22	0.581700	0.193700	0.614800
C231	C23	0.198100	0.331100	0.536900
C241	C24	0.949300	0.327300	0.200600
H231	H23	0.006400	0.353400	0.166800
C251	C25	0.953600	0.357700	0.269400
H241	H24	0.009900	0.404400	0.281300
C261	C26	0.874300	0.318300	0.320000
C271	C27	0.791300	0.250300	0.299100
H251	H25	0.736900	0.221300	0.332400
C281	C28	0.789500	0.225600	0.228500
H261	H26	0.730700	0.180800	0.214800
C291	C29	0.881100	0.347200	0.396900
C301	C30	0.891800	0.097500	0.477400
C311	C31	0.962900	0.049400	0.368700
H271	H27	0.024600	0.002200	0.356000
H281	H28	0.964500	0.092500	0.331000
C321	C32	0.820300	0.017400	0.381200
H291	H29	0.758800	0.033400	0.342400
H301	H30	0.818700	0.955000	0.387100
C331	C33	0.130700	0.131300	0.446100
H311	H31	0.195400	0.113900	0.409900
H321	H32	0.167500	0.117100	0.492300
H331	H33	0.115500	0.192600	0.443200
C341	C34	0.650900	0.050800	0.479100
H341	H34	0.588400	0.022800	0.446600
H351	H35	0.614800	0.106800	0.491600
H361	H36	0.660400	0.016300	0.521500
N81	N8	0.636500	0.291300	0.555200
N91	N9	0.867900	0.262700	0.179400
N101	N10	0.878800	0.428500	0.585100
N111	N11	0.829000	0.463200	0.633300
N121	N12	0.785000	0.497600	0.681900
N131	N13	0.001600	0.086600	0.435700
N141	N14	0.783300	0.060700	0.446000
O61	O6	0.893400	0.425900	0.408110
O71	O7	0.871200	0.288300	0.442020
O81	O8	0.161200	0.392900	0.499300
O91	O9	0.120500	0.280400	0.570330
O101	O10	0.890500	0.134300	0.537210
Cd31	Cd3	0.883530	0.216900	0.060980
C351	C35	0.581900	0.144600	0.016600
H371	H37	0.642500	0.107300	0.993100
C361	C36	0.443000	0.130100	0.009100
H381	H38	0.411100	0.083800	0.981900
C371	C37	0.351100	0.184700	0.042300
C381	C38	0.407000	0.251500	0.081700
H391	H39	0.348600	0.290500	0.104700
C391	C39	0.547300	0.261000	0.087200
H401	H40	0.581700	0.306300	0.114800
C401	C40	0.198100	0.168900	0.036900
C411	C41	0.949300	0.172700	0.700600
H411	H41	0.006400	0.146600	0.666800
C421	C42	0.953600	0.142300	0.769400
H421	H42	0.009900	0.095600	0.781300
C431	C43	0.874300	0.181700	0.820000
C441	C44	0.791300	0.249700	0.799100
H431	H43	0.736900	0.278700	0.832400
C451	C45	0.789500	0.274400	0.728500
H441	H44	0.730700	0.319200	0.714800
C461	C46	0.881100	0.152800	0.896900
C471	C47	0.891800	0.402500	0.977400
C481	C48	0.962900	0.450600	0.868700
H451	H45	0.024600	0.497800	0.856000
H461	H46	0.964500	0.407500	0.831000
C491	C49	0.820300	0.482600	0.881200
H471	H47	0.758800	0.466600	0.842400
H481	H48	0.818700	0.545000	0.887100
C501	C50	0.130700	0.368700	0.946100
H491	H49	0.195400	0.386100	0.909900
H501	H50	0.167500	0.382900	0.992300
H511	H51	0.115500	0.307400	0.943200
C511	C51	0.650900	0.449200	0.979100
H521	H52	0.588400	0.477200	0.946600
H531	H53	0.614800	0.393200	0.991600
H541	H54	0.660400	0.483700	0.021500
N151	N15	0.636500	0.208700	0.055200
N161	N16	0.867900	0.237300	0.679400
N171	N17	0.878800	0.071500	0.085100
N181	N18	0.829000	0.036800	0.133300
N191	N19	0.785000	0.002400	0.181900
N201	N20	0.001600	0.413400	0.935700
N211	N21	0.783300	0.439300	0.946000
O111	O11	0.893400	0.074100	0.908110
O121	O12	0.871200	0.211700	0.942020
O131	O13	0.161200	0.107100	0.999300
O141	O14	0.120500	0.219600	0.070330
O151	O15	0.890500	0.365700	0.037210
Cd41	Cd4	0.116470	0.716900	0.439020
C521	C52	0.418100	0.644600	0.483400
H551	H55	0.357500	0.607300	0.506900
C531	C53	0.557000	0.630100	0.490900
H561	H56	0.588900	0.583800	0.518100
C541	C54	0.648900	0.684700	0.457700
C551	C55	0.593000	0.751500	0.418300
H571	H57	0.651400	0.790500	0.395300
C561	C56	0.452700	0.761000	0.412800
H581	H58	0.418300	0.806300	0.385200
C571	C57	0.801900	0.668900	0.463100
C581	C58	0.050700	0.672700	0.799400
H591	H59	0.993600	0.646600	0.833200
C591	C59	0.046400	0.642300	0.730600
H601	H60	0.990100	0.595600	0.718700
C601	C60	0.125700	0.681700	0.680000
C611	C61	0.208700	0.749700	0.700900
H611	H61	0.263100	0.778700	0.667600
C621	C62	0.210500	0.774400	0.771500
H621	H62	0.269300	0.819200	0.785200
C631	C63	0.118900	0.652800	0.603100
C641	C64	0.108200	0.902500	0.522600
C651	C65	0.037100	0.950600	0.631300
H631	H63	0.975400	0.997800	0.644000
H641	H64	0.035500	0.907500	0.669000
C661	C66	0.179700	0.982600	0.618800
H651	H65	0.241200	0.966600	0.657600
H661	H66	0.181300	0.045000	0.612900
C671	C67	0.869300	0.868700	0.553900
H671	H67	0.804600	0.886100	0.590100
H681	H68	0.832500	0.882900	0.507700
H691	H69	0.884500	0.807400	0.556800
C681	C68	0.349100	0.949200	0.520900
H701	H70	0.411600	0.977200	0.553400
H711	H71	0.385200	0.893200	0.508400
H721	H72	0.339600	0.983700	0.478500
N221	N22	0.363500	0.708700	0.444800
N231	N23	0.132100	0.737300	0.820600
N241	N24	0.121200	0.571500	0.414900
N251	N25	0.171000	0.536800	0.366700
N261	N26	0.215000	0.502400	0.318100
N271	N27	0.998400	0.913400	0.564300
N281	N28	0.216700	0.939300	0.554000
O161	O16	0.106600	0.574100	0.591890
O171	O17	0.128800	0.711700	0.557980
O181	O18	0.838800	0.607100	0.500700
O191	O19	0.879500	0.719600	0.429670
O201	O20	0.109500	0.865700	0.462790
Cd51	Cd5	0.000000	0.000000	0.000000
Cd61	Cd6	0.000000	0.500000	0.500000
