data_ROGSAI_freeONLY_PM
_symmetry_space_group_name_H-M	'P1'
_cell_length_a	11.077000
_cell_length_b	14.815600
_cell_length_c	13.433600
_cell_angle_alpha	99.046000
_cell_angle_beta	90.000000
_cell_angle_gamma	90.000000
_symmetry_Int_Tables_number 1

loop_
_symmetry_equiv_pos_as_xyz
'x,y,z'

loop_
_atom_site_label
_atom_site_type_symbol
_atom_site_fract_x
_atom_site_fract_y
_atom_site_fract_z
Ni11	Ni1	0.998630	0.956530	0.888250
Ni21	Ni2	0.148190	0.864880	0.092480
Ni31	Ni3	0.498630	0.043470	0.611750
Ni41	Ni4	0.648190	0.135120	0.407520
Ni51	Ni5	0.001370	0.043470	0.111750
Ni61	Ni6	0.851810	0.135120	0.907520
Ni71	Ni7	0.501370	0.956530	0.388250
Ni81	Ni8	0.351810	0.864880	0.592480
H11	H1	0.887000	0.817400	0.843000
H21	H2	0.948000	0.832900	0.757100
H31	H3	0.307000	0.876000	0.216000
H41	H4	0.353500	0.827000	0.126700
H51	H5	0.062100	0.114300	0.962500
H61	H6	0.366000	0.047100	0.927400
H71	H7	0.397500	0.946900	0.090000
H81	H8	0.497300	0.878100	0.911800
H91	H9	0.104300	0.700500	0.193100
H101	H10	0.055500	0.551000	0.157400
H111	H11	0.008700	0.582000	0.876300
H121	H12	0.071700	0.729200	0.918400
H131	H13	0.387000	0.182600	0.657000
H141	H14	0.448000	0.167100	0.742900
H151	H15	0.807000	0.124000	0.284000
H161	H16	0.853500	0.173000	0.373300
H171	H17	0.562100	0.885700	0.537500
H181	H18	0.866000	0.952900	0.572600
H191	H19	0.897500	0.053100	0.410000
H201	H20	0.997300	0.121900	0.588200
H211	H21	0.604300	0.299500	0.306900
H221	H22	0.555500	0.449000	0.342600
H231	H23	0.508700	0.418000	0.623700
H241	H24	0.571700	0.270800	0.581600
H251	H25	0.113000	0.182600	0.157000
H261	H26	0.052000	0.167100	0.242900
H271	H27	0.693000	0.124000	0.784000
H281	H28	0.646500	0.173000	0.873300
H291	H29	0.937900	0.885700	0.037500
H301	H30	0.634000	0.952900	0.072600
H311	H31	0.602500	0.053100	0.910000
H321	H32	0.502700	0.121900	0.088200
H331	H33	0.895700	0.299500	0.806900
H341	H34	0.944500	0.449000	0.842600
H351	H35	0.991300	0.418000	0.123700
H361	H36	0.928300	0.270800	0.081600
H371	H37	0.613000	0.817400	0.343000
H381	H38	0.552000	0.832900	0.257100
H391	H39	0.193000	0.876000	0.716000
H401	H40	0.146500	0.827000	0.626700
H411	H41	0.437900	0.114300	0.462500
H421	H42	0.134000	0.047100	0.427400
H431	H43	0.102500	0.946900	0.590000
H441	H44	0.002700	0.878100	0.411800
H451	H45	0.395700	0.700500	0.693100
H461	H46	0.444500	0.551000	0.657400
H471	H47	0.491300	0.582000	0.376300
H481	H48	0.428300	0.729200	0.418400
C11	C1	0.378200	0.988500	0.951000
C21	C2	0.393800	0.006300	0.066700
C31	C3	0.491500	0.941000	0.898100
C41	C4	0.264400	0.929000	0.926100
C51	C5	0.280800	0.055600	0.111300
C61	C6	0.475500	0.940900	0.785000
C71	C7	0.087600	0.676000	0.126400
C81	C8	0.054600	0.586400	0.106100
C91	C9	0.020500	0.548300	0.011800
C101	C10	0.028900	0.603700	0.942900
C111	C11	0.067300	0.693200	0.969100
C121	C12	0.878200	0.011500	0.549000
C131	C13	0.893800	0.993700	0.433300
C141	C14	0.991500	0.059000	0.601900
C151	C15	0.764400	0.071000	0.573900
C161	C16	0.780800	0.944400	0.388700
C171	C17	0.975500	0.059100	0.715000
C181	C18	0.587600	0.324000	0.373600
C191	C19	0.554600	0.413600	0.393900
C201	C20	0.520500	0.451700	0.488200
C211	C21	0.528900	0.396300	0.557100
C221	C22	0.567300	0.306800	0.530900
C231	C23	0.621800	0.011500	0.049000
C241	C24	0.606200	0.993700	0.933300
C251	C25	0.508500	0.059000	0.101900
C261	C26	0.735600	0.071000	0.073900
C271	C27	0.719200	0.944400	0.888700
C281	C28	0.524500	0.059100	0.215000
C291	C29	0.912400	0.324000	0.873600
C301	C30	0.945400	0.413600	0.893900
C311	C31	0.979500	0.451700	0.988200
C321	C32	0.971100	0.396300	0.057100
C331	C33	0.932700	0.306800	0.030900
C341	C34	0.121800	0.988500	0.451000
C351	C35	0.106200	0.006300	0.566700
C361	C36	0.008500	0.941000	0.398100
C371	C37	0.235600	0.929000	0.426100
C381	C38	0.219200	0.055600	0.611300
C391	C39	0.024500	0.940900	0.285000
C401	C40	0.412400	0.676000	0.626400
C411	C41	0.445400	0.586400	0.606100
C421	C42	0.479500	0.548300	0.511800
C431	C43	0.471100	0.603700	0.442900
C441	C44	0.432700	0.693200	0.469100
N11	N1	0.097200	0.729700	0.058600
N21	N2	0.597200	0.270300	0.441400
N31	N3	0.902800	0.270300	0.941400
N41	N4	0.402800	0.729700	0.558600
O11	O1	0.955800	0.824300	0.817700
O21	O2	0.300300	0.829000	0.172000
O31	O3	0.185700	0.958900	0.873200
O41	O4	0.256000	0.855400	0.962200
O51	O5	0.186500	0.006500	0.113000
O61	O6	0.282000	0.138800	0.141000
O71	O7	0.425900	0.872800	0.734500
O81	O8	0.509400	0.010500	0.751700
O91	O9	0.998400	0.085000	0.972500
O101	O10	0.455800	0.175700	0.682300
O111	O11	0.800300	0.171000	0.328000
O121	O12	0.685700	0.041100	0.626800
O131	O13	0.756000	0.144600	0.537800
O141	O14	0.686500	0.993500	0.387000
O151	O15	0.782000	0.861200	0.359000
O161	O16	0.925900	0.127200	0.765500
O171	O17	0.009400	0.989500	0.748300
O181	O18	0.498400	0.915000	0.527500
O191	O19	0.044200	0.175700	0.182300
O201	O20	0.699700	0.171000	0.828000
O211	O21	0.814300	0.041100	0.126800
O221	O22	0.744000	0.144600	0.037800
O231	O23	0.813500	0.993500	0.887000
O241	O24	0.718000	0.861200	0.859000
O251	O25	0.574100	0.127200	0.265500
O261	O26	0.490600	0.989500	0.248300
O271	O27	0.001600	0.915000	0.027500
O281	O28	0.544200	0.824300	0.317700
O291	O29	0.199700	0.829000	0.672000
O301	O30	0.314300	0.958900	0.373200
O311	O31	0.244000	0.855400	0.462200
O321	O32	0.313500	0.006500	0.613000
O331	O33	0.218000	0.138800	0.641000
O341	O34	0.074100	0.872800	0.234500
O351	O35	0.990600	0.010500	0.251700
O361	O36	0.501600	0.085000	0.472500
