data_ROHWOC_freeONLY_PM
_symmetry_space_group_name_H-M	'P1'
_cell_length_a	14.845000
_cell_length_b	18.355000
_cell_length_c	11.160800
_cell_angle_alpha	90.000000
_cell_angle_beta	90.000000
_cell_angle_gamma	90.000000
_symmetry_Int_Tables_number 1

loop_
_symmetry_equiv_pos_as_xyz
'x,y,z'

loop_
_atom_site_label
_atom_site_type_symbol
_atom_site_fract_x
_atom_site_fract_y
_atom_site_fract_z
C11	C1	0.926200	0.108300	0.511200
H11	H1	0.926900	0.058700	0.494300
C21	C2	0.941000	0.157900	0.421700
H21	H2	0.952100	0.141400	0.344300
C31	C3	0.939800	0.232100	0.443600
C41	C4	0.926300	0.254200	0.558300
H31	H3	0.928400	0.303700	0.576300
C51	C5	0.910100	0.205600	0.647000
H41	H4	0.898400	0.222100	0.724200
C61	C6	0.910700	0.131600	0.623700
C71	C7	0.949900	0.285300	0.343100
H51	H5	0.891800	0.304200	0.321600
H61	H6	0.976100	0.261200	0.275200
H71	H7	0.988200	0.324600	0.367900
C81	C8	0.953400	0.138300	0.930700
H81	H8	0.900300	0.168300	0.913600
C91	C9	0.038700	0.185300	0.914900
C101	C10	0.948300	0.112200	0.059200
H91	H9	0.959900	0.152800	0.112500
H101	H10	0.994600	0.075900	0.072700
C111	C11	0.855900	0.079100	0.089300
H111	H11	0.842000	0.042200	0.029900
H121	H12	0.860200	0.054900	0.166400
C121	C12	0.777900	0.132800	0.094100
C131	C13	0.308800	0.058900	0.871200
H131	H13	0.250900	0.044300	0.850000
C141	C14	0.375400	0.008500	0.870600
H141	H14	0.362400	0.960900	0.847800
C151	C15	0.462900	0.026700	0.903500
C161	C16	0.476000	0.097800	0.935000
H151	H15	0.533200	0.113100	0.957800
C171	C17	0.406000	0.147400	0.933700
H161	H16	0.417500	0.195200	0.956400
C181	C18	0.203700	0.286200	0.651300
H171	H17	0.211700	0.330400	0.690800
C191	C19	0.198700	0.286900	0.529900
H181	H18	0.201800	0.331000	0.489100
C201	C20	0.189100	0.223500	0.466700
C211	C21	0.179800	0.161300	0.533900
H191	H19	0.170500	0.116800	0.496200
C221	C22	0.184100	0.164900	0.656300
H201	H20	0.177000	0.121800	0.699300
C231	C23	0.190300	0.222600	0.334700
C241	C24	0.176500	0.283400	0.266000
H211	H21	0.162000	0.327200	0.303100
C251	C25	0.183900	0.280800	0.143600
H221	H22	0.174600	0.323600	0.100600
C261	C26	0.215900	0.159800	0.147800
H231	H23	0.228500	0.116400	0.108000
C271	C27	0.210600	0.159200	0.270400
H241	H24	0.220700	0.116000	0.311600
Cu11	Cu1	0.211030	0.220800	0.899530
N11	N1	0.197700	0.225700	0.717200
N21	N2	0.203600	0.220500	0.083200
N31	N3	0.322000	0.128900	0.900900
N41	N4	0.955300	0.077400	0.847000
O11	O1	0.033900	0.251700	0.917200
O21	O2	0.111300	0.148890	0.902200
O31	O3	0.702300	0.110000	0.097400
O41	O4	0.800500	0.200890	0.096000
H251	H25	0.007400	0.058800	0.826300
O51	O5	0.798900	0.090000	0.786500
O61	O6	0.895200	0.997300	0.692200
S11	S1	0.883900	0.069440	0.738410
C281	C28	0.073800	0.891700	0.511200
H261	H26	0.073100	0.941300	0.494300
C291	C29	0.059000	0.842100	0.421700
H271	H27	0.047900	0.858600	0.344300
C301	C30	0.060200	0.767900	0.443600
C311	C31	0.073700	0.745800	0.558300
H281	H28	0.071600	0.696300	0.576300
C321	C32	0.089900	0.794400	0.647000
H291	H29	0.101600	0.777900	0.724200
C331	C33	0.089300	0.868400	0.623700
C341	C34	0.050100	0.714700	0.343100
H301	H30	0.108200	0.695800	0.321600
H311	H31	0.023900	0.738800	0.275200
H321	H32	0.011800	0.675400	0.367900
C351	C35	0.046600	0.861700	0.930700
H331	H33	0.099700	0.831700	0.913600
C361	C36	0.961300	0.814700	0.914900
C371	C37	0.051700	0.887800	0.059200
H341	H34	0.040100	0.847200	0.112500
H351	H35	0.005400	0.924100	0.072700
C381	C38	0.144100	0.920900	0.089300
H361	H36	0.158000	0.957800	0.029900
H371	H37	0.139800	0.945100	0.166400
C391	C39	0.222100	0.867200	0.094100
C401	C40	0.691200	0.941100	0.871200
H381	H38	0.749100	0.955700	0.850000
C411	C41	0.624600	0.991500	0.870600
H391	H39	0.637600	0.039100	0.847800
C421	C42	0.537100	0.973300	0.903500
C431	C43	0.524000	0.902200	0.935000
H401	H40	0.466800	0.886900	0.957800
C441	C44	0.594000	0.852600	0.933700
H411	H41	0.582500	0.804800	0.956400
C451	C45	0.796300	0.713800	0.651300
H421	H42	0.788300	0.669600	0.690800
C461	C46	0.801300	0.713100	0.529900
H431	H43	0.798200	0.669000	0.489100
C471	C47	0.810900	0.776500	0.466700
C481	C48	0.820200	0.838700	0.533900
H441	H44	0.829500	0.883200	0.496200
C491	C49	0.815900	0.835100	0.656300
H451	H45	0.823000	0.878200	0.699300
C501	C50	0.809700	0.777400	0.334700
C511	C51	0.823500	0.716600	0.266000
H461	H46	0.838000	0.672800	0.303100
C521	C52	0.816100	0.719200	0.143600
H471	H47	0.825400	0.676400	0.100600
C531	C53	0.784100	0.840200	0.147800
H481	H48	0.771500	0.883600	0.108000
C541	C54	0.789400	0.840800	0.270400
H491	H49	0.779300	0.884000	0.311600
Cu21	Cu2	0.788970	0.779200	0.899530
N51	N5	0.802300	0.774300	0.717200
N61	N6	0.796400	0.779500	0.083200
N71	N7	0.678000	0.871100	0.900900
N81	N8	0.044700	0.922600	0.847000
O71	O7	0.966100	0.748300	0.917200
O81	O8	0.888700	0.851110	0.902200
O91	O9	0.297700	0.890000	0.097400
O101	O10	0.199500	0.799110	0.096000
H501	H50	0.992600	0.941200	0.826300
O111	O11	0.201100	0.910000	0.786500
O121	O12	0.104800	0.002700	0.692200
S21	S2	0.116100	0.930560	0.738410
C551	C55	0.573800	0.608300	0.488800
H511	H51	0.573100	0.558700	0.505700
C561	C56	0.559000	0.657900	0.578300
H521	H52	0.547900	0.641400	0.655700
C571	C57	0.560200	0.732100	0.556400
C581	C58	0.573700	0.754200	0.441700
H531	H53	0.571600	0.803700	0.423700
C591	C59	0.589900	0.705600	0.353000
H541	H54	0.601600	0.722100	0.275800
C601	C60	0.589300	0.631600	0.376300
C611	C61	0.550100	0.785300	0.656900
H551	H55	0.608200	0.804200	0.678400
H561	H56	0.523900	0.761200	0.724800
H571	H57	0.511800	0.824600	0.632100
C621	C62	0.546600	0.638300	0.069300
H581	H58	0.599700	0.668300	0.086400
C631	C63	0.461300	0.685300	0.085100
C641	C64	0.551700	0.612200	0.940800
H591	H59	0.540100	0.652800	0.887500
H601	H60	0.505400	0.575900	0.927300
C651	C65	0.644100	0.579100	0.910700
H611	H61	0.658000	0.542200	0.970100
H621	H62	0.639800	0.554900	0.833600
C661	C66	0.722100	0.632800	0.905900
C671	C67	0.191200	0.558900	0.128800
H631	H63	0.249100	0.544300	0.150000
C681	C68	0.124600	0.508500	0.129400
H641	H64	0.137600	0.460900	0.152200
C691	C69	0.037100	0.526700	0.096500
C701	C70	0.024000	0.597800	0.065000
H651	H65	0.966800	0.613100	0.042200
C711	C71	0.094000	0.647400	0.066300
H661	H66	0.082500	0.695200	0.043600
C721	C72	0.296300	0.786200	0.348700
H671	H67	0.288300	0.830400	0.309200
C731	C73	0.301300	0.786900	0.470100
H681	H68	0.298200	0.831000	0.510900
C741	C74	0.310900	0.723500	0.533300
C751	C75	0.320200	0.661300	0.466100
H691	H69	0.329500	0.616800	0.503800
C761	C76	0.315900	0.664900	0.343700
H701	H70	0.323000	0.621800	0.300700
C771	C77	0.309700	0.722600	0.665300
C781	C78	0.323500	0.783400	0.734000
H711	H71	0.338000	0.827200	0.696900
C791	C79	0.316100	0.780800	0.856400
H721	H72	0.325400	0.823600	0.899400
C801	C80	0.284100	0.659800	0.852200
H731	H73	0.271500	0.616400	0.892000
C811	C81	0.289400	0.659200	0.729600
H741	H74	0.279300	0.616000	0.688400
Cu31	Cu3	0.288970	0.720800	0.100470
N91	N9	0.302300	0.725700	0.282800
N101	N10	0.296400	0.720500	0.916800
N111	N11	0.178000	0.628900	0.099100
N121	N12	0.544700	0.577400	0.153000
O131	O13	0.466100	0.751700	0.082800
O141	O14	0.388700	0.648890	0.097800
O151	O15	0.797700	0.610000	0.902600
O161	O16	0.699500	0.700890	0.904000
H751	H75	0.492600	0.558800	0.173700
O171	O17	0.701100	0.590000	0.213500
O181	O18	0.604800	0.497300	0.307800
S31	S3	0.616100	0.569440	0.261590
C821	C82	0.426200	0.391700	0.488800
H761	H76	0.426900	0.441300	0.505700
C831	C83	0.441000	0.342100	0.578300
H771	H77	0.452100	0.358600	0.655700
C841	C84	0.439800	0.267900	0.556400
C851	C85	0.426300	0.245800	0.441700
H781	H78	0.428400	0.196300	0.423700
C861	C86	0.410100	0.294400	0.353000
H791	H79	0.398400	0.277900	0.275800
C871	C87	0.410700	0.368400	0.376300
C881	C88	0.449900	0.214700	0.656900
H801	H80	0.391800	0.195800	0.678400
H811	H81	0.476100	0.238800	0.724800
H821	H82	0.488200	0.175400	0.632100
C891	C89	0.453400	0.361700	0.069300
H831	H83	0.400300	0.331700	0.086400
C901	C90	0.538700	0.314700	0.085100
C911	C91	0.448300	0.387800	0.940800
H841	H84	0.459900	0.347200	0.887500
H851	H85	0.494600	0.424100	0.927300
C921	C92	0.355900	0.420900	0.910700
H861	H86	0.342000	0.457800	0.970100
H871	H87	0.360200	0.445100	0.833600
C931	C93	0.277900	0.367200	0.905900
C941	C94	0.808800	0.441100	0.128800
H881	H88	0.750900	0.455700	0.150000
C951	C95	0.875400	0.491500	0.129400
H891	H89	0.862400	0.539100	0.152200
C961	C96	0.962900	0.473300	0.096500
C971	C97	0.976000	0.402200	0.065000
H901	H90	0.033200	0.386900	0.042200
C981	C98	0.906000	0.352600	0.066300
H911	H91	0.917500	0.304800	0.043600
C991	C99	0.703700	0.213800	0.348700
H921	H92	0.711700	0.169600	0.309200
C1001	C100	0.698700	0.213100	0.470100
H931	H93	0.701800	0.169000	0.510900
C1011	C101	0.689100	0.276500	0.533300
C1021	C102	0.679800	0.338700	0.466100
H941	H94	0.670500	0.383200	0.503800
C1031	C103	0.684100	0.335100	0.343700
H951	H95	0.677000	0.378200	0.300700
C1041	C104	0.690300	0.277400	0.665300
C1051	C105	0.676500	0.216600	0.734000
H961	H96	0.662000	0.172800	0.696900
C1061	C106	0.683900	0.219200	0.856400
H971	H97	0.674600	0.176400	0.899400
C1071	C107	0.715900	0.340200	0.852200
H981	H98	0.728500	0.383600	0.892000
C1081	C108	0.710600	0.340800	0.729600
H991	H99	0.720700	0.384000	0.688400
Cu41	Cu4	0.711030	0.279200	0.100470
N131	N13	0.697700	0.274300	0.282800
N141	N14	0.703600	0.279500	0.916800
N151	N15	0.822000	0.371100	0.099100
N161	N16	0.455300	0.422600	0.153000
O191	O19	0.533900	0.248300	0.082800
O201	O20	0.611300	0.351110	0.097800
O211	O21	0.202300	0.390000	0.902600
O221	O22	0.300500	0.299110	0.904000
H1001	H100	0.507400	0.441200	0.173700
O231	O23	0.298900	0.410000	0.213500
O241	O24	0.395200	0.502700	0.307800
S41	S4	0.383900	0.430560	0.261590
