data_ROLCEC15_freeONLY_PM
_symmetry_space_group_name_H-M	'P1'
_cell_length_a	7.328500
_cell_length_b	7.328500
_cell_length_c	24.431000
_cell_angle_alpha	90.000000
_cell_angle_beta	90.000000
_cell_angle_gamma	120.000000
_symmetry_Int_Tables_number 1

loop_
_symmetry_equiv_pos_as_xyz
'x,y,z'

loop_
_atom_site_label
_atom_site_type_symbol
_atom_site_fract_x
_atom_site_fract_y
_atom_site_fract_z
O11	O1	0.337500	0.450600	0.132200
O21	O2	0.922000	0.298200	0.964900
O31	O3	0.141100	0.417300	0.033800
C11	C1	0.032400	0.429900	0.998600
H11	H1	0.033100	0.557100	0.996900
O41	O4	0.549400	0.886900	0.465530
O51	O5	0.701800	0.623800	0.298230
O61	O6	0.582700	0.723800	0.367130
C21	C2	0.570100	0.602500	0.331930
H21	H2	0.442900	0.476000	0.330230
O71	O7	0.113100	0.662500	0.798870
O81	O8	0.376200	0.078000	0.631570
O91	O9	0.276200	0.858900	0.700470
C31	C3	0.397500	0.967600	0.665270
H31	H3	0.524000	0.966900	0.663570
O101	O10	0.662500	0.549400	0.632200
O111	O11	0.078000	0.701800	0.464900
O121	O12	0.858900	0.582700	0.533800
C41	C4	0.967600	0.570100	0.498600
H41	H4	0.966900	0.442900	0.496900
O131	O13	0.450600	0.113100	0.965530
O141	O14	0.298200	0.376200	0.798230
O151	O15	0.417300	0.276200	0.867130
C51	C5	0.429900	0.397500	0.831930
H51	H5	0.557100	0.524000	0.830230
O161	O16	0.886900	0.337500	0.298870
O171	O17	0.623800	0.922000	0.131570
O181	O18	0.723800	0.141100	0.200470
C61	C6	0.602500	0.032400	0.165270
H61	H6	0.476000	0.033100	0.163570
O191	O19	0.450600	0.337500	0.201130
O201	O20	0.298200	0.922000	0.368430
O211	O21	0.417300	0.141100	0.299530
C71	C7	0.429900	0.032400	0.334730
H71	H7	0.557100	0.033100	0.336430
O221	O22	0.886900	0.549400	0.867800
O231	O23	0.623800	0.701800	0.035100
O241	O24	0.723800	0.582700	0.966200
C81	C8	0.602500	0.570100	0.001400
H81	H8	0.476000	0.442900	0.003100
O251	O25	0.662500	0.113100	0.534470
O261	O26	0.078000	0.376200	0.701770
O271	O27	0.858900	0.276200	0.632870
C91	C9	0.967600	0.397500	0.668070
H91	H9	0.966900	0.524000	0.669770
O281	O28	0.549400	0.662500	0.701130
O291	O29	0.701800	0.078000	0.868430
O301	O30	0.582700	0.858900	0.799530
C101	C10	0.570100	0.967600	0.834730
H101	H10	0.442900	0.966900	0.836430
O311	O31	0.113100	0.450600	0.367800
O321	O32	0.376200	0.298200	0.535100
O331	O33	0.276200	0.417300	0.466200
C111	C11	0.397500	0.429900	0.501400
H111	H11	0.524000	0.557100	0.503100
O341	O34	0.337500	0.886900	0.034470
O351	O35	0.922000	0.623800	0.201770
O361	O36	0.141100	0.723800	0.132870
C121	C12	0.032400	0.602500	0.168070
H121	H12	0.033100	0.476000	0.169770
Cu11	Cu1	0.364510	0.682260	0.083330
Cu21	Cu2	0.317740	0.682260	0.416670
Cu31	Cu3	0.317740	0.635490	0.750000
Cu41	Cu4	0.635490	0.317740	0.583330
Cu51	Cu5	0.682260	0.317740	0.916670
Cu61	Cu6	0.682250	0.364510	0.250000
C131	C13	0.477000	0.477000	0.166670
H131	H13	0.603900	0.603900	0.166670
C141	C14	0.523000	0.000000	0.500000
H141	H14	0.396100	0.000000	0.500000
C151	C15	0.000000	0.523000	0.833330
H151	H15	0.000000	0.396100	0.833330
C161	C16	0.523000	0.523000	0.666670
H161	H16	0.396100	0.396100	0.666670
C171	C17	0.477000	0.000000	0.000000
H171	H17	0.603900	0.000000	0.000000
C181	C18	0.000000	0.477000	0.333330
H181	H18	0.000000	0.603900	0.333330
