data_RONWIA_freeONLY_PM
_symmetry_space_group_name_H-M	'P1'
_cell_length_a	12.382900
_cell_length_b	8.597000
_cell_length_c	12.663300
_cell_angle_alpha	90.000000
_cell_angle_beta	109.984000
_cell_angle_gamma	90.000000
_symmetry_Int_Tables_number 1

loop_
_symmetry_equiv_pos_as_xyz
'x,y,z'

loop_
_atom_site_label
_atom_site_type_symbol
_atom_site_fract_x
_atom_site_fract_y
_atom_site_fract_z
Cu11	Cu1	0.148000	0.204910	0.259650
Cu21	Cu2	0.406270	0.295670	0.662080
C11	C1	0.282400	0.232300	0.399600
N11	N1	0.335300	0.252300	0.492900
C21	C2	0.071900	0.002000	0.235500
C31	C3	0.522700	0.114300	0.716600
C41	C4	0.499900	0.491400	0.688400
C51	C5	0.052900	0.396400	0.214100
C61	C6	0.285300	0.291600	0.729800
Cu31	Cu3	0.352000	0.204910	0.240350
Cu41	Cu4	0.093730	0.295670	0.837920
C71	C7	0.217600	0.232300	0.100400
N21	N2	0.164700	0.252300	0.007100
C81	C8	0.428100	0.002000	0.264500
C91	C9	0.977300	0.114300	0.783400
C101	C10	0.000100	0.491400	0.811600
C111	C11	0.447100	0.396400	0.285900
C121	C12	0.214700	0.291600	0.770200
Cu51	Cu5	0.852000	0.795090	0.740350
Cu61	Cu6	0.593730	0.704330	0.337920
C131	C13	0.717600	0.767700	0.600400
N31	N3	0.664700	0.747700	0.507100
C141	C14	0.928100	0.998000	0.764500
C151	C15	0.477300	0.885700	0.283400
C161	C16	0.500100	0.508600	0.311600
C171	C17	0.947100	0.603600	0.785900
C181	C18	0.714700	0.708400	0.270200
Cu71	Cu7	0.648000	0.795090	0.759650
Cu81	Cu8	0.906270	0.704330	0.162080
C191	C19	0.782400	0.767700	0.899600
N41	N4	0.835300	0.747700	0.992900
C201	C20	0.571900	0.998000	0.735500
C211	C21	0.022700	0.885700	0.216600
C221	C22	0.999900	0.508600	0.188400
C231	C23	0.552900	0.603600	0.714100
C241	C24	0.785300	0.708400	0.229800
