data_ROQDIM01_freeONLY_PM
_symmetry_space_group_name_H-M	'P1'
_cell_length_a	12.825900
_cell_length_b	12.825900
_cell_length_c	12.825900
_cell_angle_alpha	90.000000
_cell_angle_beta	90.000000
_cell_angle_gamma	90.000000
_symmetry_Int_Tables_number 1

loop_
_symmetry_equiv_pos_as_xyz
'x,y,z'

loop_
_atom_site_label
_atom_site_type_symbol
_atom_site_fract_x
_atom_site_fract_y
_atom_site_fract_z
N11	N1	0.642980	0.938250	0.955340
N21	N2	0.725640	0.980110	0.964310
N31	N3	0.807460	0.017740	0.970760
N41	N4	0.857020	0.061750	0.455340
N51	N5	0.774360	0.019890	0.464310
N61	N6	0.692540	0.982260	0.470760
N71	N7	0.357020	0.438250	0.544660
N81	N8	0.274360	0.480110	0.535690
N91	N9	0.192540	0.517740	0.529240
N101	N10	0.142980	0.561750	0.044660
N111	N11	0.225640	0.519890	0.035690
N121	N12	0.307460	0.482260	0.029240
N131	N13	0.955340	0.642980	0.938250
N141	N14	0.964310	0.725640	0.980110
N151	N15	0.970760	0.807460	0.017740
N161	N16	0.455340	0.857020	0.061750
N171	N17	0.464310	0.774360	0.019890
N181	N18	0.470760	0.692540	0.982260
N191	N19	0.544660	0.357020	0.438250
N201	N20	0.535690	0.274360	0.480110
N211	N21	0.529240	0.192540	0.517740
N221	N22	0.044660	0.142980	0.561750
N231	N23	0.035690	0.225640	0.519890
N241	N24	0.029240	0.307460	0.482260
N251	N25	0.938250	0.955340	0.642980
N261	N26	0.980110	0.964310	0.725640
N271	N27	0.017740	0.970760	0.807460
N281	N28	0.061750	0.455340	0.857020
N291	N29	0.019890	0.464310	0.774360
N301	N30	0.982260	0.470760	0.692540
N311	N31	0.438250	0.544660	0.357020
N321	N32	0.480110	0.535690	0.274360
N331	N33	0.517740	0.529240	0.192540
N341	N34	0.561750	0.044660	0.142980
N351	N35	0.519890	0.035690	0.225640
N361	N36	0.482260	0.029240	0.307460
N371	N37	0.357020	0.061750	0.044660
N381	N38	0.274360	0.019890	0.035690
N391	N39	0.192540	0.982260	0.029240
N401	N40	0.142980	0.938250	0.544660
N411	N41	0.225640	0.980110	0.535690
N421	N42	0.307460	0.017740	0.529240
N431	N43	0.642980	0.561750	0.455340
N441	N44	0.725640	0.519890	0.464310
N451	N45	0.807460	0.482260	0.470760
N461	N46	0.857020	0.438250	0.955340
N471	N47	0.774360	0.480110	0.964310
N481	N48	0.692540	0.517740	0.970760
N491	N49	0.044660	0.357020	0.061750
N501	N50	0.035690	0.274360	0.019890
N511	N51	0.029240	0.192540	0.982260
N521	N52	0.544660	0.142980	0.938250
N531	N53	0.535690	0.225640	0.980110
N541	N54	0.529240	0.307460	0.017740
N551	N55	0.455340	0.642980	0.561750
N561	N56	0.464310	0.725640	0.519890
N571	N57	0.470760	0.807460	0.482260
N581	N58	0.955340	0.857020	0.438250
N591	N59	0.964310	0.774360	0.480110
N601	N60	0.970760	0.692540	0.517740
N611	N61	0.061750	0.044660	0.357020
N621	N62	0.019890	0.035690	0.274360
N631	N63	0.982260	0.029240	0.192540
N641	N64	0.938250	0.544660	0.142980
N651	N65	0.980110	0.535690	0.225640
N661	N66	0.017740	0.529240	0.307460
N671	N67	0.561750	0.455340	0.642980
N681	N68	0.519890	0.464310	0.725640
N691	N69	0.482260	0.470760	0.807460
N701	N70	0.438250	0.955340	0.857020
N711	N71	0.480110	0.964310	0.774360
N721	N72	0.517740	0.970760	0.692540
Fe11	Fe1	0.500000	0.000000	0.000000
Fe21	Fe2	0.000000	0.000000	0.500000
Fe31	Fe3	0.500000	0.500000	0.500000
Fe41	Fe4	0.000000	0.500000	0.000000
Na11	Na1	0.000000	0.000000	0.000000
Na21	Na2	0.500000	0.000000	0.500000
Na31	Na3	0.000000	0.500000	0.500000
Na41	Na4	0.500000	0.500000	0.000000
