data_ROQDIM_freeONLY_PM
_symmetry_space_group_name_H-M	'P1'
_cell_length_a	12.795600
_cell_length_b	12.795600
_cell_length_c	12.795600
_cell_angle_alpha	90.000000
_cell_angle_beta	90.000000
_cell_angle_gamma	90.000000
_symmetry_Int_Tables_number 1

loop_
_symmetry_equiv_pos_as_xyz
'x,y,z'

loop_
_atom_site_label
_atom_site_type_symbol
_atom_site_fract_x
_atom_site_fract_y
_atom_site_fract_z
N11	N1	0.642840	0.937340	0.954940
N21	N2	0.725780	0.979660	0.963790
N31	N3	0.807740	0.017890	0.970220
N41	N4	0.857160	0.062660	0.454940
N51	N5	0.774220	0.020340	0.463790
N61	N6	0.692260	0.982110	0.470220
N71	N7	0.357160	0.437340	0.545060
N81	N8	0.274220	0.479660	0.536210
N91	N9	0.192260	0.517890	0.529780
N101	N10	0.142840	0.562660	0.045060
N111	N11	0.225780	0.520340	0.036210
N121	N12	0.307740	0.482110	0.029780
N131	N13	0.954940	0.642840	0.937340
N141	N14	0.963790	0.725780	0.979660
N151	N15	0.970220	0.807740	0.017890
N161	N16	0.454940	0.857160	0.062660
N171	N17	0.463790	0.774220	0.020340
N181	N18	0.470220	0.692260	0.982110
N191	N19	0.545060	0.357160	0.437340
N201	N20	0.536210	0.274220	0.479660
N211	N21	0.529780	0.192260	0.517890
N221	N22	0.045060	0.142840	0.562660
N231	N23	0.036210	0.225780	0.520340
N241	N24	0.029780	0.307740	0.482110
N251	N25	0.937340	0.954940	0.642840
N261	N26	0.979660	0.963790	0.725780
N271	N27	0.017890	0.970220	0.807740
N281	N28	0.062660	0.454940	0.857160
N291	N29	0.020340	0.463790	0.774220
N301	N30	0.982110	0.470220	0.692260
N311	N31	0.437340	0.545060	0.357160
N321	N32	0.479660	0.536210	0.274220
N331	N33	0.517890	0.529780	0.192260
N341	N34	0.562660	0.045060	0.142840
N351	N35	0.520340	0.036210	0.225780
N361	N36	0.482110	0.029780	0.307740
N371	N37	0.357160	0.062660	0.045060
N381	N38	0.274220	0.020340	0.036210
N391	N39	0.192260	0.982110	0.029780
N401	N40	0.142840	0.937340	0.545060
N411	N41	0.225780	0.979660	0.536210
N421	N42	0.307740	0.017890	0.529780
N431	N43	0.642840	0.562660	0.454940
N441	N44	0.725780	0.520340	0.463790
N451	N45	0.807740	0.482110	0.470220
N461	N46	0.857160	0.437340	0.954940
N471	N47	0.774220	0.479660	0.963790
N481	N48	0.692260	0.517890	0.970220
N491	N49	0.045060	0.357160	0.062660
N501	N50	0.036210	0.274220	0.020340
N511	N51	0.029780	0.192260	0.982110
N521	N52	0.545060	0.142840	0.937340
N531	N53	0.536210	0.225780	0.979660
N541	N54	0.529780	0.307740	0.017890
N551	N55	0.454940	0.642840	0.562660
N561	N56	0.463790	0.725780	0.520340
N571	N57	0.470220	0.807740	0.482110
N581	N58	0.954940	0.857160	0.437340
N591	N59	0.963790	0.774220	0.479660
N601	N60	0.970220	0.692260	0.517890
N611	N61	0.062660	0.045060	0.357160
N621	N62	0.020340	0.036210	0.274220
N631	N63	0.982110	0.029780	0.192260
N641	N64	0.937340	0.545060	0.142840
N651	N65	0.979660	0.536210	0.225780
N661	N66	0.017890	0.529780	0.307740
N671	N67	0.562660	0.454940	0.642840
N681	N68	0.520340	0.463790	0.725780
N691	N69	0.482110	0.470220	0.807740
N701	N70	0.437340	0.954940	0.857160
N711	N71	0.479660	0.963790	0.774220
N721	N72	0.517890	0.970220	0.692260
Fe11	Fe1	0.500000	0.000000	0.000000
Fe21	Fe2	0.000000	0.000000	0.500000
Fe31	Fe3	0.500000	0.500000	0.500000
Fe41	Fe4	0.000000	0.500000	0.000000
Na11	Na1	0.000000	0.000000	0.000000
Na21	Na2	0.500000	0.000000	0.500000
Na31	Na3	0.000000	0.500000	0.500000
Na41	Na4	0.500000	0.500000	0.000000
