data_ROQDIM02_freeONLY_PM
_symmetry_space_group_name_H-M	'P1'
_cell_length_a	12.855000
_cell_length_b	12.855000
_cell_length_c	12.855000
_cell_angle_alpha	90.000000
_cell_angle_beta	90.000000
_cell_angle_gamma	90.000000
_symmetry_Int_Tables_number 1

loop_
_symmetry_equiv_pos_as_xyz
'x,y,z'

loop_
_atom_site_label
_atom_site_type_symbol
_atom_site_fract_x
_atom_site_fract_y
_atom_site_fract_z
N11	N1	0.643050	0.939170	0.955790
N21	N2	0.725590	0.980560	0.964800
N31	N3	0.807300	0.017610	0.971360
N41	N4	0.856950	0.060830	0.455790
N51	N5	0.774410	0.019440	0.464800
N61	N6	0.692700	0.982390	0.471360
N71	N7	0.356950	0.439170	0.544210
N81	N8	0.274410	0.480560	0.535200
N91	N9	0.192700	0.517610	0.528640
N101	N10	0.143050	0.560830	0.044210
N111	N11	0.225590	0.519440	0.035200
N121	N12	0.307300	0.482390	0.028640
N131	N13	0.955790	0.643050	0.939170
N141	N14	0.964800	0.725590	0.980560
N151	N15	0.971360	0.807300	0.017610
N161	N16	0.455790	0.856950	0.060830
N171	N17	0.464800	0.774410	0.019440
N181	N18	0.471360	0.692700	0.982390
N191	N19	0.544210	0.356950	0.439170
N201	N20	0.535200	0.274410	0.480560
N211	N21	0.528640	0.192700	0.517610
N221	N22	0.044210	0.143050	0.560830
N231	N23	0.035200	0.225590	0.519440
N241	N24	0.028640	0.307300	0.482390
N251	N25	0.939170	0.955790	0.643050
N261	N26	0.980560	0.964800	0.725590
N271	N27	0.017610	0.971360	0.807300
N281	N28	0.060830	0.455790	0.856950
N291	N29	0.019440	0.464800	0.774410
N301	N30	0.982390	0.471360	0.692700
N311	N31	0.439170	0.544210	0.356950
N321	N32	0.480560	0.535200	0.274410
N331	N33	0.517610	0.528640	0.192700
N341	N34	0.560830	0.044210	0.143050
N351	N35	0.519440	0.035200	0.225590
N361	N36	0.482390	0.028640	0.307300
N371	N37	0.356950	0.060830	0.044210
N381	N38	0.274410	0.019440	0.035200
N391	N39	0.192700	0.982390	0.028640
N401	N40	0.143050	0.939170	0.544210
N411	N41	0.225590	0.980560	0.535200
N421	N42	0.307300	0.017610	0.528640
N431	N43	0.643050	0.560830	0.455790
N441	N44	0.725590	0.519440	0.464800
N451	N45	0.807300	0.482390	0.471360
N461	N46	0.856950	0.439170	0.955790
N471	N47	0.774410	0.480560	0.964800
N481	N48	0.692700	0.517610	0.971360
N491	N49	0.044210	0.356950	0.060830
N501	N50	0.035200	0.274410	0.019440
N511	N51	0.028640	0.192700	0.982390
N521	N52	0.544210	0.143050	0.939170
N531	N53	0.535200	0.225590	0.980560
N541	N54	0.528640	0.307300	0.017610
N551	N55	0.455790	0.643050	0.560830
N561	N56	0.464800	0.725590	0.519440
N571	N57	0.471360	0.807300	0.482390
N581	N58	0.955790	0.856950	0.439170
N591	N59	0.964800	0.774410	0.480560
N601	N60	0.971360	0.692700	0.517610
N611	N61	0.060830	0.044210	0.356950
N621	N62	0.019440	0.035200	0.274410
N631	N63	0.982390	0.028640	0.192700
N641	N64	0.939170	0.544210	0.143050
N651	N65	0.980560	0.535200	0.225590
N661	N66	0.017610	0.528640	0.307300
N671	N67	0.560830	0.455790	0.643050
N681	N68	0.519440	0.464800	0.725590
N691	N69	0.482390	0.471360	0.807300
N701	N70	0.439170	0.955790	0.856950
N711	N71	0.480560	0.964800	0.774410
N721	N72	0.517610	0.971360	0.692700
Fe11	Fe1	0.500000	0.000000	0.000000
Fe21	Fe2	0.000000	0.000000	0.500000
Fe31	Fe3	0.500000	0.500000	0.500000
Fe41	Fe4	0.000000	0.500000	0.000000
Na11	Na1	0.000000	0.000000	0.000000
Na21	Na2	0.500000	0.000000	0.500000
Na31	Na3	0.000000	0.500000	0.500000
Na41	Na4	0.500000	0.500000	0.000000
