data_ROQFUA03_freeONLY_PM
_symmetry_space_group_name_H-M	'P1'
_cell_length_a	13.201900
_cell_length_b	13.201900
_cell_length_c	13.201900
_cell_angle_alpha	90.000000
_cell_angle_beta	90.000000
_cell_angle_gamma	90.000000
_symmetry_Int_Tables_number 1

loop_
_symmetry_equiv_pos_as_xyz
'x,y,z'

loop_
_atom_site_label
_atom_site_type_symbol
_atom_site_fract_x
_atom_site_fract_y
_atom_site_fract_z
N11	N1	0.637040	0.935980	0.954990
N21	N2	0.715440	0.980250	0.960750
N31	N3	0.792560	0.021170	0.964500
N41	N4	0.862960	0.064020	0.454990
N51	N5	0.784560	0.019750	0.460750
N61	N6	0.707440	0.978830	0.464500
N71	N7	0.362960	0.435980	0.545010
N81	N8	0.284560	0.480250	0.539250
N91	N9	0.207440	0.521170	0.535500
N101	N10	0.137040	0.564020	0.045010
N111	N11	0.215440	0.519750	0.039250
N121	N12	0.292560	0.478830	0.035500
N131	N13	0.954990	0.637040	0.935980
N141	N14	0.960750	0.715440	0.980250
N151	N15	0.964500	0.792560	0.021170
N161	N16	0.454990	0.862960	0.064020
N171	N17	0.460750	0.784560	0.019750
N181	N18	0.464500	0.707440	0.978830
N191	N19	0.545010	0.362960	0.435980
N201	N20	0.539250	0.284560	0.480250
N211	N21	0.535500	0.207440	0.521170
N221	N22	0.045010	0.137040	0.564020
N231	N23	0.039250	0.215440	0.519750
N241	N24	0.035500	0.292560	0.478830
N251	N25	0.935980	0.954990	0.637040
N261	N26	0.980250	0.960750	0.715440
N271	N27	0.021170	0.964500	0.792560
N281	N28	0.064020	0.454990	0.862960
N291	N29	0.019750	0.460750	0.784560
N301	N30	0.978830	0.464500	0.707440
N311	N31	0.435980	0.545010	0.362960
N321	N32	0.480250	0.539250	0.284560
N331	N33	0.521170	0.535500	0.207440
N341	N34	0.564020	0.045010	0.137040
N351	N35	0.519750	0.039250	0.215440
N361	N36	0.478830	0.035500	0.292560
N371	N37	0.362960	0.064020	0.045010
N381	N38	0.284560	0.019750	0.039250
N391	N39	0.207440	0.978830	0.035500
N401	N40	0.137040	0.935980	0.545010
N411	N41	0.215440	0.980250	0.539250
N421	N42	0.292560	0.021170	0.535500
N431	N43	0.637040	0.564020	0.454990
N441	N44	0.715440	0.519750	0.460750
N451	N45	0.792560	0.478830	0.464500
N461	N46	0.862960	0.435980	0.954990
N471	N47	0.784560	0.480250	0.960750
N481	N48	0.707440	0.521170	0.964500
N491	N49	0.045010	0.362960	0.064020
N501	N50	0.039250	0.284560	0.019750
N511	N51	0.035500	0.207440	0.978830
N521	N52	0.545010	0.137040	0.935980
N531	N53	0.539250	0.215440	0.980250
N541	N54	0.535500	0.292560	0.021170
N551	N55	0.454990	0.637040	0.564020
N561	N56	0.460750	0.715440	0.519750
N571	N57	0.464500	0.792560	0.478830
N581	N58	0.954990	0.862960	0.435980
N591	N59	0.960750	0.784560	0.480250
N601	N60	0.964500	0.707440	0.521170
N611	N61	0.064020	0.045010	0.362960
N621	N62	0.019750	0.039250	0.284560
N631	N63	0.978830	0.035500	0.207440
N641	N64	0.935980	0.545010	0.137040
N651	N65	0.980250	0.539250	0.215440
N661	N66	0.021170	0.535500	0.292560
N671	N67	0.564020	0.454990	0.637040
N681	N68	0.519750	0.460750	0.715440
N691	N69	0.478830	0.464500	0.792560
N701	N70	0.435980	0.954990	0.862960
N711	N71	0.480250	0.960750	0.784560
N721	N72	0.521170	0.964500	0.707440
Fe11	Fe1	0.500000	0.000000	0.000000
Fe21	Fe2	0.000000	0.000000	0.500000
Fe31	Fe3	0.500000	0.500000	0.500000
Fe41	Fe4	0.000000	0.500000	0.000000
K11	K1	0.000000	0.000000	0.000000
K21	K2	0.500000	0.000000	0.500000
K31	K3	0.000000	0.500000	0.500000
K41	K4	0.500000	0.500000	0.000000
