data_ROQMER01_freeONLY_PM
_symmetry_space_group_name_H-M	'P1'
_cell_length_a	12.762100
_cell_length_b	12.762100
_cell_length_c	12.762100
_cell_angle_alpha	90.000000
_cell_angle_beta	90.000000
_cell_angle_gamma	90.000000
_symmetry_Int_Tables_number 1

loop_
_symmetry_equiv_pos_as_xyz
'x,y,z'

loop_
_atom_site_label
_atom_site_type_symbol
_atom_site_fract_x
_atom_site_fract_y
_atom_site_fract_z
N11	N1	0.061260	0.043800	0.358940
N21	N2	0.019840	0.034560	0.275820
N31	N3	0.983190	0.029070	0.192990
N41	N4	0.438740	0.956200	0.858940
N51	N5	0.480160	0.965440	0.775820
N61	N6	0.516810	0.970930	0.692990
N71	N7	0.938740	0.543800	0.141060
N81	N8	0.980160	0.534560	0.224180
N91	N9	0.016810	0.529070	0.307010
N101	N10	0.561260	0.456200	0.641060
N111	N11	0.519840	0.465440	0.724180
N121	N12	0.483190	0.470930	0.807010
N131	N13	0.358940	0.061260	0.043800
N141	N14	0.275820	0.019840	0.034560
N151	N15	0.192990	0.983190	0.029070
N161	N16	0.858940	0.438740	0.956200
N171	N17	0.775820	0.480160	0.965440
N181	N18	0.692990	0.516810	0.970930
N191	N19	0.141060	0.938740	0.543800
N201	N20	0.224180	0.980160	0.534560
N211	N21	0.307010	0.016810	0.529070
N221	N22	0.641060	0.561260	0.456200
N231	N23	0.724180	0.519840	0.465440
N241	N24	0.807010	0.483190	0.470930
N251	N25	0.043800	0.358940	0.061260
N261	N26	0.034560	0.275820	0.019840
N271	N27	0.029070	0.192990	0.983190
N281	N28	0.956200	0.858940	0.438740
N291	N29	0.965440	0.775820	0.480160
N301	N30	0.970930	0.692990	0.516810
N311	N31	0.543800	0.141060	0.938740
N321	N32	0.534560	0.224180	0.980160
N331	N33	0.529070	0.307010	0.016810
N341	N34	0.456200	0.641060	0.561260
N351	N35	0.465440	0.724180	0.519840
N361	N36	0.470930	0.807010	0.483190
N371	N37	0.938740	0.956200	0.641060
N381	N38	0.980160	0.965440	0.724180
N391	N39	0.016810	0.970930	0.807010
N401	N40	0.561260	0.043800	0.141060
N411	N41	0.519840	0.034560	0.224180
N421	N42	0.483190	0.029070	0.307010
N431	N43	0.061260	0.456200	0.858940
N441	N44	0.019840	0.465440	0.775820
N451	N45	0.983190	0.470930	0.692990
N461	N46	0.438740	0.543800	0.358940
N471	N47	0.480160	0.534560	0.275820
N481	N48	0.516810	0.529070	0.192990
N491	N49	0.641060	0.938740	0.956200
N501	N50	0.724180	0.980160	0.965440
N511	N51	0.807010	0.016810	0.970930
N521	N52	0.141060	0.561260	0.043800
N531	N53	0.224180	0.519840	0.034560
N541	N54	0.307010	0.483190	0.029070
N551	N55	0.858940	0.061260	0.456200
N561	N56	0.775820	0.019840	0.465440
N571	N57	0.692990	0.983190	0.470930
N581	N58	0.358940	0.438740	0.543800
N591	N59	0.275820	0.480160	0.534560
N601	N60	0.192990	0.516810	0.529070
N611	N61	0.956200	0.641060	0.938740
N621	N62	0.965440	0.724180	0.980160
N631	N63	0.970930	0.807010	0.016810
N641	N64	0.043800	0.141060	0.561260
N651	N65	0.034560	0.224180	0.519840
N661	N66	0.029070	0.307010	0.483190
N671	N67	0.456200	0.858940	0.061260
N681	N68	0.465440	0.775820	0.019840
N691	N69	0.470930	0.692990	0.983190
N701	N70	0.543800	0.358940	0.438740
N711	N71	0.534560	0.275820	0.480160
N721	N72	0.529070	0.192990	0.516810
Cr11	Cr1	0.000000	0.000000	0.500000
Cr21	Cr2	0.500000	0.000000	0.000000
Cr31	Cr3	0.000000	0.500000	0.000000
Cr41	Cr4	0.500000	0.500000	0.500000
Na11	Na1	0.000000	0.000000	0.000000
Na21	Na2	0.500000	0.000000	0.500000
Na31	Na3	0.000000	0.500000	0.500000
Na41	Na4	0.500000	0.500000	0.000000
