data_ROQMER03_freeONLY_PM
_symmetry_space_group_name_H-M	'P1'
_cell_length_a	12.843400
_cell_length_b	12.843400
_cell_length_c	12.843400
_cell_angle_alpha	90.000000
_cell_angle_beta	90.000000
_cell_angle_gamma	90.000000
_symmetry_Int_Tables_number 1

loop_
_symmetry_equiv_pos_as_xyz
'x,y,z'

loop_
_atom_site_label
_atom_site_type_symbol
_atom_site_fract_x
_atom_site_fract_y
_atom_site_fract_z
N11	N1	0.059150	0.042500	0.358860
N21	N2	0.018500	0.032900	0.275940
N31	N3	0.983800	0.027200	0.193830
N41	N4	0.440850	0.957500	0.858860
N51	N5	0.481500	0.967100	0.775940
N61	N6	0.516200	0.972800	0.693830
N71	N7	0.940850	0.542500	0.141140
N81	N8	0.981500	0.532900	0.224060
N91	N9	0.016200	0.527200	0.306170
N101	N10	0.559150	0.457500	0.641140
N111	N11	0.518500	0.467100	0.724060
N121	N12	0.483800	0.472800	0.806170
N131	N13	0.358860	0.059150	0.042500
N141	N14	0.275940	0.018500	0.032900
N151	N15	0.193830	0.983800	0.027200
N161	N16	0.858860	0.440850	0.957500
N171	N17	0.775940	0.481500	0.967100
N181	N18	0.693830	0.516200	0.972800
N191	N19	0.141140	0.940850	0.542500
N201	N20	0.224060	0.981500	0.532900
N211	N21	0.306170	0.016200	0.527200
N221	N22	0.641140	0.559150	0.457500
N231	N23	0.724060	0.518500	0.467100
N241	N24	0.806170	0.483800	0.472800
N251	N25	0.042500	0.358860	0.059150
N261	N26	0.032900	0.275940	0.018500
N271	N27	0.027200	0.193830	0.983800
N281	N28	0.957500	0.858860	0.440850
N291	N29	0.967100	0.775940	0.481500
N301	N30	0.972800	0.693830	0.516200
N311	N31	0.542500	0.141140	0.940850
N321	N32	0.532900	0.224060	0.981500
N331	N33	0.527200	0.306170	0.016200
N341	N34	0.457500	0.641140	0.559150
N351	N35	0.467100	0.724060	0.518500
N361	N36	0.472800	0.806170	0.483800
N371	N37	0.940850	0.957500	0.641140
N381	N38	0.981500	0.967100	0.724060
N391	N39	0.016200	0.972800	0.806170
N401	N40	0.559150	0.042500	0.141140
N411	N41	0.518500	0.032900	0.224060
N421	N42	0.483800	0.027200	0.306170
N431	N43	0.059150	0.457500	0.858860
N441	N44	0.018500	0.467100	0.775940
N451	N45	0.983800	0.472800	0.693830
N461	N46	0.440850	0.542500	0.358860
N471	N47	0.481500	0.532900	0.275940
N481	N48	0.516200	0.527200	0.193830
N491	N49	0.641140	0.940850	0.957500
N501	N50	0.724060	0.981500	0.967100
N511	N51	0.806170	0.016200	0.972800
N521	N52	0.141140	0.559150	0.042500
N531	N53	0.224060	0.518500	0.032900
N541	N54	0.306170	0.483800	0.027200
N551	N55	0.858860	0.059150	0.457500
N561	N56	0.775940	0.018500	0.467100
N571	N57	0.693830	0.983800	0.472800
N581	N58	0.358860	0.440850	0.542500
N591	N59	0.275940	0.481500	0.532900
N601	N60	0.193830	0.516200	0.527200
N611	N61	0.957500	0.641140	0.940850
N621	N62	0.967100	0.724060	0.981500
N631	N63	0.972800	0.806170	0.016200
N641	N64	0.042500	0.141140	0.559150
N651	N65	0.032900	0.224060	0.518500
N661	N66	0.027200	0.306170	0.483800
N671	N67	0.457500	0.858860	0.059150
N681	N68	0.467100	0.775940	0.018500
N691	N69	0.472800	0.693830	0.983800
N701	N70	0.542500	0.358860	0.440850
N711	N71	0.532900	0.275940	0.481500
N721	N72	0.527200	0.193830	0.516200
Cr11	Cr1	0.000000	0.000000	0.500000
Cr21	Cr2	0.500000	0.000000	0.000000
Cr31	Cr3	0.000000	0.500000	0.000000
Cr41	Cr4	0.500000	0.500000	0.500000
Na11	Na1	0.000000	0.000000	0.000000
Na21	Na2	0.500000	0.000000	0.500000
Na31	Na3	0.000000	0.500000	0.500000
Na41	Na4	0.500000	0.500000	0.000000
