data_ROQNES03_freeONLY_PM
_symmetry_space_group_name_H-M	'P1'
_cell_length_a	13.149700
_cell_length_b	13.149700
_cell_length_c	13.149700
_cell_angle_alpha	90.000000
_cell_angle_beta	90.000000
_cell_angle_gamma	90.000000
_symmetry_Int_Tables_number 1

loop_
_symmetry_equiv_pos_as_xyz
'x,y,z'

loop_
_atom_site_label
_atom_site_type_symbol
_atom_site_fract_x
_atom_site_fract_y
_atom_site_fract_z
N11	N1	0.437600	0.456700	0.135360
N21	N2	0.481300	0.462800	0.214060
N31	N3	0.519200	0.466200	0.292200
N41	N4	0.062400	0.543300	0.635360
N51	N5	0.018700	0.537200	0.714060
N61	N6	0.980800	0.533800	0.792200
N71	N7	0.562400	0.956700	0.364640
N81	N8	0.518700	0.962800	0.285940
N91	N9	0.480800	0.966200	0.207800
N101	N10	0.937600	0.043300	0.864640
N111	N11	0.981300	0.037200	0.785940
N121	N12	0.019200	0.033800	0.707800
N131	N13	0.135360	0.437600	0.456700
N141	N14	0.214060	0.481300	0.462800
N151	N15	0.292200	0.519200	0.466200
N161	N16	0.635360	0.062400	0.543300
N171	N17	0.714060	0.018700	0.537200
N181	N18	0.792200	0.980800	0.533800
N191	N19	0.364640	0.562400	0.956700
N201	N20	0.285940	0.518700	0.962800
N211	N21	0.207800	0.480800	0.966200
N221	N22	0.864640	0.937600	0.043300
N231	N23	0.785940	0.981300	0.037200
N241	N24	0.707800	0.019200	0.033800
N251	N25	0.456700	0.135360	0.437600
N261	N26	0.462800	0.214060	0.481300
N271	N27	0.466200	0.292200	0.519200
N281	N28	0.543300	0.635360	0.062400
N291	N29	0.537200	0.714060	0.018700
N301	N30	0.533800	0.792200	0.980800
N311	N31	0.956700	0.364640	0.562400
N321	N32	0.962800	0.285940	0.518700
N331	N33	0.966200	0.207800	0.480800
N341	N34	0.043300	0.864640	0.937600
N351	N35	0.037200	0.785940	0.981300
N361	N36	0.033800	0.707800	0.019200
N371	N37	0.562400	0.543300	0.864640
N381	N38	0.518700	0.537200	0.785940
N391	N39	0.480800	0.533800	0.707800
N401	N40	0.937600	0.456700	0.364640
N411	N41	0.981300	0.462800	0.285940
N421	N42	0.019200	0.466200	0.207800
N431	N43	0.437600	0.043300	0.635360
N441	N44	0.481300	0.037200	0.714060
N451	N45	0.519200	0.033800	0.792200
N461	N46	0.062400	0.956700	0.135360
N471	N47	0.018700	0.962800	0.214060
N481	N48	0.980800	0.966200	0.292200
N491	N49	0.864640	0.562400	0.543300
N501	N50	0.785940	0.518700	0.537200
N511	N51	0.707800	0.480800	0.533800
N521	N52	0.364640	0.937600	0.456700
N531	N53	0.285940	0.981300	0.462800
N541	N54	0.207800	0.019200	0.466200
N551	N55	0.635360	0.437600	0.043300
N561	N56	0.714060	0.481300	0.037200
N571	N57	0.792200	0.519200	0.033800
N581	N58	0.135360	0.062400	0.956700
N591	N59	0.214060	0.018700	0.962800
N601	N60	0.292200	0.980800	0.966200
N611	N61	0.543300	0.864640	0.562400
N621	N62	0.537200	0.785940	0.518700
N631	N63	0.533800	0.707800	0.480800
N641	N64	0.456700	0.364640	0.937600
N651	N65	0.462800	0.285940	0.981300
N661	N66	0.466200	0.207800	0.019200
N671	N67	0.043300	0.635360	0.437600
N681	N68	0.037200	0.714060	0.481300
N691	N69	0.033800	0.792200	0.519200
N701	N70	0.956700	0.135360	0.062400
N711	N71	0.962800	0.214060	0.018700
N721	N72	0.966200	0.292200	0.980800
Cr11	Cr1	0.500000	0.500000	0.000000
Cr21	Cr2	0.000000	0.500000	0.500000
Cr31	Cr3	0.500000	0.000000	0.500000
Cr41	Cr4	0.000000	0.000000	0.000000
K11	K1	0.500000	0.500000	0.500000
K21	K2	0.000000	0.500000	0.000000
K31	K3	0.500000	0.000000	0.000000
K41	K4	0.000000	0.000000	0.500000
