data_ROQNES02_freeONLY_PM
_symmetry_space_group_name_H-M	'P1'
_cell_length_a	13.097300
_cell_length_b	13.097300
_cell_length_c	13.097300
_cell_angle_alpha	90.000000
_cell_angle_beta	90.000000
_cell_angle_gamma	90.000000
_symmetry_Int_Tables_number 1

loop_
_symmetry_equiv_pos_as_xyz
'x,y,z'

loop_
_atom_site_label
_atom_site_type_symbol
_atom_site_fract_x
_atom_site_fract_y
_atom_site_fract_z
N11	N1	0.436310	0.455990	0.135200
N21	N2	0.480520	0.461110	0.214040
N31	N3	0.520100	0.464500	0.292460
N41	N4	0.063690	0.544010	0.635200
N51	N5	0.019480	0.538890	0.714040
N61	N6	0.979900	0.535500	0.792460
N71	N7	0.563690	0.955990	0.364800
N81	N8	0.519480	0.961110	0.285960
N91	N9	0.479900	0.964500	0.207540
N101	N10	0.936310	0.044010	0.864800
N111	N11	0.980520	0.038890	0.785960
N121	N12	0.020100	0.035500	0.707540
N131	N13	0.135200	0.436310	0.455990
N141	N14	0.214040	0.480520	0.461110
N151	N15	0.292460	0.520100	0.464500
N161	N16	0.635200	0.063690	0.544010
N171	N17	0.714040	0.019480	0.538890
N181	N18	0.792460	0.979900	0.535500
N191	N19	0.364800	0.563690	0.955990
N201	N20	0.285960	0.519480	0.961110
N211	N21	0.207540	0.479900	0.964500
N221	N22	0.864800	0.936310	0.044010
N231	N23	0.785960	0.980520	0.038890
N241	N24	0.707540	0.020100	0.035500
N251	N25	0.455990	0.135200	0.436310
N261	N26	0.461110	0.214040	0.480520
N271	N27	0.464500	0.292460	0.520100
N281	N28	0.544010	0.635200	0.063690
N291	N29	0.538890	0.714040	0.019480
N301	N30	0.535500	0.792460	0.979900
N311	N31	0.955990	0.364800	0.563690
N321	N32	0.961110	0.285960	0.519480
N331	N33	0.964500	0.207540	0.479900
N341	N34	0.044010	0.864800	0.936310
N351	N35	0.038890	0.785960	0.980520
N361	N36	0.035500	0.707540	0.020100
N371	N37	0.563690	0.544010	0.864800
N381	N38	0.519480	0.538890	0.785960
N391	N39	0.479900	0.535500	0.707540
N401	N40	0.936310	0.455990	0.364800
N411	N41	0.980520	0.461110	0.285960
N421	N42	0.020100	0.464500	0.207540
N431	N43	0.436310	0.044010	0.635200
N441	N44	0.480520	0.038890	0.714040
N451	N45	0.520100	0.035500	0.792460
N461	N46	0.063690	0.955990	0.135200
N471	N47	0.019480	0.961110	0.214040
N481	N48	0.979900	0.964500	0.292460
N491	N49	0.864800	0.563690	0.544010
N501	N50	0.785960	0.519480	0.538890
N511	N51	0.707540	0.479900	0.535500
N521	N52	0.364800	0.936310	0.455990
N531	N53	0.285960	0.980520	0.461110
N541	N54	0.207540	0.020100	0.464500
N551	N55	0.635200	0.436310	0.044010
N561	N56	0.714040	0.480520	0.038890
N571	N57	0.792460	0.520100	0.035500
N581	N58	0.135200	0.063690	0.955990
N591	N59	0.214040	0.019480	0.961110
N601	N60	0.292460	0.979900	0.964500
N611	N61	0.544010	0.864800	0.563690
N621	N62	0.538890	0.785960	0.519480
N631	N63	0.535500	0.707540	0.479900
N641	N64	0.455990	0.364800	0.936310
N651	N65	0.461110	0.285960	0.980520
N661	N66	0.464500	0.207540	0.020100
N671	N67	0.044010	0.635200	0.436310
N681	N68	0.038890	0.714040	0.480520
N691	N69	0.035500	0.792460	0.520100
N701	N70	0.955990	0.135200	0.063690
N711	N71	0.961110	0.214040	0.019480
N721	N72	0.964500	0.292460	0.979900
Cr11	Cr1	0.500000	0.500000	0.000000
Cr21	Cr2	0.000000	0.500000	0.500000
Cr31	Cr3	0.500000	0.000000	0.500000
Cr41	Cr4	0.000000	0.000000	0.000000
K11	K1	0.500000	0.500000	0.500000
K21	K2	0.000000	0.500000	0.000000
K31	K3	0.500000	0.000000	0.000000
K41	K4	0.000000	0.000000	0.500000
