data_RORTAV_freeONLY_PM
_symmetry_space_group_name_H-M	'P1'
_cell_length_a	23.188500
_cell_length_b	23.188500
_cell_length_c	23.188500
_cell_angle_alpha	90.000000
_cell_angle_beta	90.000000
_cell_angle_gamma	90.000000
_symmetry_Int_Tables_number 1

loop_
_symmetry_equiv_pos_as_xyz
'x,y,z'

loop_
_atom_site_label
_atom_site_type_symbol
_atom_site_fract_x
_atom_site_fract_y
_atom_site_fract_z
O11	O1	0.324000	0.223200	0.291900
N11	N1	0.324000	0.221000	0.349200
C11	C1	0.362000	0.252800	0.378100
H11	H1	0.387600	0.276100	0.357800
C21	C2	0.364100	0.252000	0.435900
H21	H2	0.390700	0.275100	0.454900
C31	C3	0.326700	0.216600	0.468400
C41	C4	0.289800	0.182800	0.436900
H31	H3	0.264900	0.158200	0.456400
C51	C5	0.288100	0.183900	0.376000
H41	H4	0.263300	0.160100	0.355400
O21	O2	0.824000	0.723200	0.791900
N21	N2	0.824000	0.721000	0.849200
C61	C6	0.862000	0.752800	0.878100
H51	H5	0.887600	0.776100	0.857800
C71	C7	0.864100	0.752000	0.935900
H61	H6	0.890700	0.775100	0.954900
C81	C8	0.826700	0.716600	0.968400
C91	C9	0.789800	0.682800	0.936900
H71	H7	0.764900	0.658200	0.956400
C101	C10	0.788100	0.683900	0.876000
H81	H8	0.763300	0.660100	0.855400
O31	O3	0.676000	0.776800	0.291900
N31	N3	0.676000	0.779000	0.349200
C111	C11	0.638000	0.747200	0.378100
H91	H9	0.612400	0.723900	0.357800
C121	C12	0.635900	0.748000	0.435900
H101	H10	0.609300	0.724900	0.454900
C131	C13	0.673300	0.783400	0.468400
C141	C14	0.710200	0.817200	0.436900
H111	H11	0.735100	0.841800	0.456400
C151	C15	0.711900	0.816100	0.376000
H121	H12	0.736700	0.839900	0.355400
O41	O4	0.176000	0.276800	0.791900
N41	N4	0.176000	0.279000	0.849200
C161	C16	0.138000	0.247200	0.878100
H131	H13	0.112400	0.223900	0.857800
C171	C17	0.135900	0.248000	0.935900
H141	H14	0.109300	0.224900	0.954900
C181	C18	0.173300	0.283400	0.968400
C191	C19	0.210200	0.317200	0.936900
H151	H15	0.235100	0.341800	0.956400
C201	C20	0.211900	0.316100	0.876000
H161	H16	0.236700	0.339900	0.855400
O51	O5	0.676000	0.223200	0.708100
N51	N5	0.676000	0.221000	0.650800
C211	C21	0.638000	0.252800	0.621900
H171	H17	0.612400	0.276100	0.642200
C221	C22	0.635900	0.252000	0.564100
H181	H18	0.609300	0.275100	0.545100
C231	C23	0.673300	0.216600	0.531600
C241	C24	0.710200	0.182800	0.563100
H191	H19	0.735100	0.158200	0.543600
C251	C25	0.711900	0.183900	0.624000
H201	H20	0.736700	0.160100	0.644600
O61	O6	0.176000	0.723200	0.208100
N61	N6	0.176000	0.721000	0.150800
C261	C26	0.138000	0.752800	0.121900
H211	H21	0.112400	0.776100	0.142200
C271	C27	0.135900	0.752000	0.064100
H221	H22	0.109300	0.775100	0.045100
C281	C28	0.173300	0.716600	0.031600
C291	C29	0.210200	0.682800	0.063100
H231	H23	0.235100	0.658200	0.043600
C301	C30	0.211900	0.683900	0.124000
H241	H24	0.236700	0.660100	0.144600
O71	O7	0.324000	0.776800	0.708100
N71	N7	0.324000	0.779000	0.650800
C311	C31	0.362000	0.747200	0.621900
H251	H25	0.387600	0.723900	0.642200
C321	C32	0.364100	0.748000	0.564100
H261	H26	0.390700	0.724900	0.545100
C331	C33	0.326700	0.783400	0.531600
C341	C34	0.289800	0.817200	0.563100
H271	H27	0.264900	0.841800	0.543600
C351	C35	0.288100	0.816100	0.624000
H281	H28	0.263300	0.839900	0.644600
O81	O8	0.824000	0.276800	0.208100
N81	N8	0.824000	0.279000	0.150800
C361	C36	0.862000	0.247200	0.121900
H291	H29	0.887600	0.223900	0.142200
C371	C37	0.864100	0.248000	0.064100
H301	H30	0.890700	0.224900	0.045100
C381	C38	0.826700	0.283400	0.031600
C391	C39	0.789800	0.317200	0.063100
H311	H31	0.764900	0.341800	0.043600
C401	C40	0.788100	0.316100	0.124000
H321	H32	0.763300	0.339900	0.144600
O91	O9	0.291900	0.324000	0.223200
N91	N9	0.349200	0.324000	0.221000
C411	C41	0.378100	0.362000	0.252800
H331	H33	0.357800	0.387600	0.276100
C421	C42	0.435900	0.364100	0.252000
H341	H34	0.454900	0.390700	0.275100
C431	C43	0.468400	0.326700	0.216600
C441	C44	0.436900	0.289800	0.182800
H351	H35	0.456400	0.264900	0.158200
C451	C45	0.376000	0.288100	0.183900
H361	H36	0.355400	0.263300	0.160100
O101	O10	0.791900	0.824000	0.723200
N101	N10	0.849200	0.824000	0.721000
C461	C46	0.878100	0.862000	0.752800
H371	H37	0.857800	0.887600	0.776100
C471	C47	0.935900	0.864100	0.752000
H381	H38	0.954900	0.890700	0.775100
C481	C48	0.968400	0.826700	0.716600
C491	C49	0.936900	0.789800	0.682800
H391	H39	0.956400	0.764900	0.658200
C501	C50	0.876000	0.788100	0.683900
H401	H40	0.855400	0.763300	0.660100
O111	O11	0.291900	0.676000	0.776800
N111	N11	0.349200	0.676000	0.779000
C511	C51	0.378100	0.638000	0.747200
H411	H41	0.357800	0.612400	0.723900
C521	C52	0.435900	0.635900	0.748000
H421	H42	0.454900	0.609300	0.724900
C531	C53	0.468400	0.673300	0.783400
C541	C54	0.436900	0.710200	0.817200
H431	H43	0.456400	0.735100	0.841800
C551	C55	0.376000	0.711900	0.816100
H441	H44	0.355400	0.736700	0.839900
O121	O12	0.791900	0.176000	0.276800
N121	N12	0.849200	0.176000	0.279000
C561	C56	0.878100	0.138000	0.247200
H451	H45	0.857800	0.112400	0.223900
C571	C57	0.935900	0.135900	0.248000
H461	H46	0.954900	0.109300	0.224900
C581	C58	0.968400	0.173300	0.283400
C591	C59	0.936900	0.210200	0.317200
H471	H47	0.956400	0.235100	0.341800
C601	C60	0.876000	0.211900	0.316100
H481	H48	0.855400	0.236700	0.339900
O131	O13	0.708100	0.676000	0.223200
N131	N13	0.650800	0.676000	0.221000
C611	C61	0.621900	0.638000	0.252800
H491	H49	0.642200	0.612400	0.276100
C621	C62	0.564100	0.635900	0.252000
H501	H50	0.545100	0.609300	0.275100
C631	C63	0.531600	0.673300	0.216600
C641	C64	0.563100	0.710200	0.182800
H511	H51	0.543600	0.735100	0.158200
C651	C65	0.624000	0.711900	0.183900
H521	H52	0.644600	0.736700	0.160100
O141	O14	0.208100	0.176000	0.723200
N141	N14	0.150800	0.176000	0.721000
C661	C66	0.121900	0.138000	0.752800
H531	H53	0.142200	0.112400	0.776100
C671	C67	0.064100	0.135900	0.752000
H541	H54	0.045100	0.109300	0.775100
C681	C68	0.031600	0.173300	0.716600
C691	C69	0.063100	0.210200	0.682800
H551	H55	0.043600	0.235100	0.658200
C701	C70	0.124000	0.211900	0.683900
H561	H56	0.144600	0.236700	0.660100
O151	O15	0.708100	0.324000	0.776800
N151	N15	0.650800	0.324000	0.779000
C711	C71	0.621900	0.362000	0.747200
H571	H57	0.642200	0.387600	0.723900
C721	C72	0.564100	0.364100	0.748000
H581	H58	0.545100	0.390700	0.724900
C731	C73	0.531600	0.326700	0.783400
C741	C74	0.563100	0.289800	0.817200
H591	H59	0.543600	0.264900	0.841800
C751	C75	0.624000	0.288100	0.816100
H601	H60	0.644600	0.263300	0.839900
O161	O16	0.208100	0.824000	0.276800
N161	N16	0.150800	0.824000	0.279000
C761	C76	0.121900	0.862000	0.247200
H611	H61	0.142200	0.887600	0.223900
C771	C77	0.064100	0.864100	0.248000
H621	H62	0.045100	0.890700	0.224900
C781	C78	0.031600	0.826700	0.283400
C791	C79	0.063100	0.789800	0.317200
H631	H63	0.043600	0.764900	0.341800
C801	C80	0.124000	0.788100	0.316100
H641	H64	0.144600	0.763300	0.339900
O171	O17	0.223200	0.291900	0.324000
N171	N17	0.221000	0.349200	0.324000
C811	C81	0.252800	0.378100	0.362000
H651	H65	0.276100	0.357800	0.387600
C821	C82	0.252000	0.435900	0.364100
H661	H66	0.275100	0.454900	0.390700
C831	C83	0.216600	0.468400	0.326700
C841	C84	0.182800	0.436900	0.289800
H671	H67	0.158200	0.456400	0.264900
C851	C85	0.183900	0.376000	0.288100
H681	H68	0.160100	0.355400	0.263300
O181	O18	0.723200	0.791900	0.824000
N181	N18	0.721000	0.849200	0.824000
C861	C86	0.752800	0.878100	0.862000
H691	H69	0.776100	0.857800	0.887600
C871	C87	0.752000	0.935900	0.864100
H701	H70	0.775100	0.954900	0.890700
C881	C88	0.716600	0.968400	0.826700
C891	C89	0.682800	0.936900	0.789800
H711	H71	0.658200	0.956400	0.764900
C901	C90	0.683900	0.876000	0.788100
H721	H72	0.660100	0.855400	0.763300
O191	O19	0.776800	0.291900	0.676000
N191	N19	0.779000	0.349200	0.676000
C911	C91	0.747200	0.378100	0.638000
H731	H73	0.723900	0.357800	0.612400
C921	C92	0.748000	0.435900	0.635900
H741	H74	0.724900	0.454900	0.609300
C931	C93	0.783400	0.468400	0.673300
C941	C94	0.817200	0.436900	0.710200
H751	H75	0.841800	0.456400	0.735100
C951	C95	0.816100	0.376000	0.711900
H761	H76	0.839900	0.355400	0.736700
O201	O20	0.276800	0.791900	0.176000
N201	N20	0.279000	0.849200	0.176000
C961	C96	0.247200	0.878100	0.138000
H771	H77	0.223900	0.857800	0.112400
C971	C97	0.248000	0.935900	0.135900
H781	H78	0.224900	0.954900	0.109300
C981	C98	0.283400	0.968400	0.173300
C991	C99	0.317200	0.936900	0.210200
H791	H79	0.341800	0.956400	0.235100
C1001	C100	0.316100	0.876000	0.211900
H801	H80	0.339900	0.855400	0.236700
O211	O21	0.223200	0.708100	0.676000
N211	N21	0.221000	0.650800	0.676000
C1011	C101	0.252800	0.621900	0.638000
H811	H81	0.276100	0.642200	0.612400
C1021	C102	0.252000	0.564100	0.635900
H821	H82	0.275100	0.545100	0.609300
C1031	C103	0.216600	0.531600	0.673300
C1041	C104	0.182800	0.563100	0.710200
H831	H83	0.158200	0.543600	0.735100
C1051	C105	0.183900	0.624000	0.711900
H841	H84	0.160100	0.644600	0.736700
O221	O22	0.723200	0.208100	0.176000
N221	N22	0.721000	0.150800	0.176000
C1061	C106	0.752800	0.121900	0.138000
H851	H85	0.776100	0.142200	0.112400
C1071	C107	0.752000	0.064100	0.135900
H861	H86	0.775100	0.045100	0.109300
C1081	C108	0.716600	0.031600	0.173300
C1091	C109	0.682800	0.063100	0.210200
H871	H87	0.658200	0.043600	0.235100
C1101	C110	0.683900	0.124000	0.211900
H881	H88	0.660100	0.144600	0.236700
O231	O23	0.776800	0.708100	0.324000
N231	N23	0.779000	0.650800	0.324000
C1111	C111	0.747200	0.621900	0.362000
H891	H89	0.723900	0.642200	0.387600
C1121	C112	0.748000	0.564100	0.364100
H901	H90	0.724900	0.545100	0.390700
C1131	C113	0.783400	0.531600	0.326700
C1141	C114	0.817200	0.563100	0.289800
H911	H91	0.841800	0.543600	0.264900
C1151	C115	0.816100	0.624000	0.288100
H921	H92	0.839900	0.644600	0.263300
O241	O24	0.276800	0.208100	0.824000
N241	N24	0.279000	0.150800	0.824000
C1161	C116	0.247200	0.121900	0.862000
H931	H93	0.223900	0.142200	0.887600
C1171	C117	0.248000	0.064100	0.864100
H941	H94	0.224900	0.045100	0.890700
C1181	C118	0.283400	0.031600	0.826700
C1191	C119	0.317200	0.063100	0.789800
H951	H95	0.341800	0.043600	0.764900
C1201	C120	0.316100	0.124000	0.788100
H961	H96	0.339900	0.144600	0.763300
O251	O25	0.676000	0.776800	0.708100
N251	N25	0.676000	0.779000	0.650800
C1211	C121	0.638000	0.747200	0.621900
H971	H97	0.612400	0.723900	0.642200
C1221	C122	0.635900	0.748000	0.564100
H981	H98	0.609300	0.724900	0.545100
C1231	C123	0.673300	0.783400	0.531600
C1241	C124	0.710200	0.817200	0.563100
H991	H99	0.735100	0.841800	0.543600
C1251	C125	0.711900	0.816100	0.624000
H1001	H100	0.736700	0.839900	0.644600
O261	O26	0.176000	0.276800	0.208100
N261	N26	0.176000	0.279000	0.150800
C1261	C126	0.138000	0.247200	0.121900
H1011	H101	0.112400	0.223900	0.142200
C1271	C127	0.135900	0.248000	0.064100
H1021	H102	0.109300	0.224900	0.045100
C1281	C128	0.173300	0.283400	0.031600
C1291	C129	0.210200	0.317200	0.063100
H1031	H103	0.235100	0.341800	0.043600
C1301	C130	0.211900	0.316100	0.124000
H1041	H104	0.236700	0.339900	0.144600
O271	O27	0.324000	0.223200	0.708100
N271	N27	0.324000	0.221000	0.650800
C1311	C131	0.362000	0.252800	0.621900
H1051	H105	0.387600	0.276100	0.642200
C1321	C132	0.364100	0.252000	0.564100
H1061	H106	0.390700	0.275100	0.545100
C1331	C133	0.326700	0.216600	0.531600
C1341	C134	0.289800	0.182800	0.563100
H1071	H107	0.264900	0.158200	0.543600
C1351	C135	0.288100	0.183900	0.624000
H1081	H108	0.263300	0.160100	0.644600
O281	O28	0.824000	0.723200	0.208100
N281	N28	0.824000	0.721000	0.150800
C1361	C136	0.862000	0.752800	0.121900
H1091	H109	0.887600	0.776100	0.142200
C1371	C137	0.864100	0.752000	0.064100
H1101	H110	0.890700	0.775100	0.045100
C1381	C138	0.826700	0.716600	0.031600
C1391	C139	0.789800	0.682800	0.063100
H1111	H111	0.764900	0.658200	0.043600
C1401	C140	0.788100	0.683900	0.124000
H1121	H112	0.763300	0.660100	0.144600
O291	O29	0.324000	0.776800	0.291900
N291	N29	0.324000	0.779000	0.349200
C1411	C141	0.362000	0.747200	0.378100
H1131	H113	0.387600	0.723900	0.357800
C1421	C142	0.364100	0.748000	0.435900
H1141	H114	0.390700	0.724900	0.454900
C1431	C143	0.326700	0.783400	0.468400
C1441	C144	0.289800	0.817200	0.436900
H1151	H115	0.264900	0.841800	0.456400
C1451	C145	0.288100	0.816100	0.376000
H1161	H116	0.263300	0.839900	0.355400
O301	O30	0.824000	0.276800	0.791900
N301	N30	0.824000	0.279000	0.849200
C1461	C146	0.862000	0.247200	0.878100
H1171	H117	0.887600	0.223900	0.857800
C1471	C147	0.864100	0.248000	0.935900
H1181	H118	0.890700	0.224900	0.954900
C1481	C148	0.826700	0.283400	0.968400
C1491	C149	0.789800	0.317200	0.936900
H1191	H119	0.764900	0.341800	0.956400
C1501	C150	0.788100	0.316100	0.876000
H1201	H120	0.763300	0.339900	0.855400
O311	O31	0.676000	0.223200	0.291900
N311	N31	0.676000	0.221000	0.349200
C1511	C151	0.638000	0.252800	0.378100
H1211	H121	0.612400	0.276100	0.357800
C1521	C152	0.635900	0.252000	0.435900
H1221	H122	0.609300	0.275100	0.454900
C1531	C153	0.673300	0.216600	0.468400
C1541	C154	0.710200	0.182800	0.436900
H1231	H123	0.735100	0.158200	0.456400
C1551	C155	0.711900	0.183900	0.376000
H1241	H124	0.736700	0.160100	0.355400
O321	O32	0.176000	0.723200	0.791900
N321	N32	0.176000	0.721000	0.849200
C1561	C156	0.138000	0.752800	0.878100
H1251	H125	0.112400	0.776100	0.857800
C1571	C157	0.135900	0.752000	0.935900
H1261	H126	0.109300	0.775100	0.954900
C1581	C158	0.173300	0.716600	0.968400
C1591	C159	0.210200	0.682800	0.936900
H1271	H127	0.235100	0.658200	0.956400
C1601	C160	0.211900	0.683900	0.876000
H1281	H128	0.236700	0.660100	0.855400
O331	O33	0.708100	0.676000	0.776800
N331	N33	0.650800	0.676000	0.779000
C1611	C161	0.621900	0.638000	0.747200
H1291	H129	0.642200	0.612400	0.723900
C1621	C162	0.564100	0.635900	0.748000
H1301	H130	0.545100	0.609300	0.724900
C1631	C163	0.531600	0.673300	0.783400
C1641	C164	0.563100	0.710200	0.817200
H1311	H131	0.543600	0.735100	0.841800
C1651	C165	0.624000	0.711900	0.816100
H1321	H132	0.644600	0.736700	0.839900
O341	O34	0.208100	0.176000	0.276800
N341	N34	0.150800	0.176000	0.279000
C1661	C166	0.121900	0.138000	0.247200
H1331	H133	0.142200	0.112400	0.223900
C1671	C167	0.064100	0.135900	0.248000
H1341	H134	0.045100	0.109300	0.224900
C1681	C168	0.031600	0.173300	0.283400
C1691	C169	0.063100	0.210200	0.317200
H1351	H135	0.043600	0.235100	0.341800
C1701	C170	0.124000	0.211900	0.316100
H1361	H136	0.144600	0.236700	0.339900
O351	O35	0.708100	0.324000	0.223200
N351	N35	0.650800	0.324000	0.221000
C1711	C171	0.621900	0.362000	0.252800
H1371	H137	0.642200	0.387600	0.276100
C1721	C172	0.564100	0.364100	0.252000
H1381	H138	0.545100	0.390700	0.275100
C1731	C173	0.531600	0.326700	0.216600
C1741	C174	0.563100	0.289800	0.182800
H1391	H139	0.543600	0.264900	0.158200
C1751	C175	0.624000	0.288100	0.183900
H1401	H140	0.644600	0.263300	0.160100
O361	O36	0.208100	0.824000	0.723200
N361	N36	0.150800	0.824000	0.721000
C1761	C176	0.121900	0.862000	0.752800
H1411	H141	0.142200	0.887600	0.776100
C1771	C177	0.064100	0.864100	0.752000
H1421	H142	0.045100	0.890700	0.775100
C1781	C178	0.031600	0.826700	0.716600
C1791	C179	0.063100	0.789800	0.682800
H1431	H143	0.043600	0.764900	0.658200
C1801	C180	0.124000	0.788100	0.683900
H1441	H144	0.144600	0.763300	0.660100
O371	O37	0.291900	0.324000	0.776800
N371	N37	0.349200	0.324000	0.779000
C1811	C181	0.378100	0.362000	0.747200
H1451	H145	0.357800	0.387600	0.723900
C1821	C182	0.435900	0.364100	0.748000
H1461	H146	0.454900	0.390700	0.724900
C1831	C183	0.468400	0.326700	0.783400
C1841	C184	0.436900	0.289800	0.817200
H1471	H147	0.456400	0.264900	0.841800
C1851	C185	0.376000	0.288100	0.816100
H1481	H148	0.355400	0.263300	0.839900
O381	O38	0.791900	0.824000	0.276800
N381	N38	0.849200	0.824000	0.279000
C1861	C186	0.878100	0.862000	0.247200
H1491	H149	0.857800	0.887600	0.223900
C1871	C187	0.935900	0.864100	0.248000
H1501	H150	0.954900	0.890700	0.224900
C1881	C188	0.968400	0.826700	0.283400
C1891	C189	0.936900	0.789800	0.317200
H1511	H151	0.956400	0.764900	0.341800
C1901	C190	0.876000	0.788100	0.316100
H1521	H152	0.855400	0.763300	0.339900
O391	O39	0.291900	0.676000	0.223200
N391	N39	0.349200	0.676000	0.221000
C1911	C191	0.378100	0.638000	0.252800
H1531	H153	0.357800	0.612400	0.276100
C1921	C192	0.435900	0.635900	0.252000
H1541	H154	0.454900	0.609300	0.275100
C1931	C193	0.468400	0.673300	0.216600
C1941	C194	0.436900	0.710200	0.182800
H1551	H155	0.456400	0.735100	0.158200
C1951	C195	0.376000	0.711900	0.183900
H1561	H156	0.355400	0.736700	0.160100
O401	O40	0.791900	0.176000	0.723200
N401	N40	0.849200	0.176000	0.721000
C1961	C196	0.878100	0.138000	0.752800
H1571	H157	0.857800	0.112400	0.776100
C1971	C197	0.935900	0.135900	0.752000
H1581	H158	0.954900	0.109300	0.775100
C1981	C198	0.968400	0.173300	0.716600
C1991	C199	0.936900	0.210200	0.682800
H1591	H159	0.956400	0.235100	0.658200
C2001	C200	0.876000	0.211900	0.683900
H1601	H160	0.855400	0.236700	0.660100
O411	O41	0.776800	0.708100	0.676000
N411	N41	0.779000	0.650800	0.676000
C2011	C201	0.747200	0.621900	0.638000
H1611	H161	0.723900	0.642200	0.612400
C2021	C202	0.748000	0.564100	0.635900
H1621	H162	0.724900	0.545100	0.609300
C2031	C203	0.783400	0.531600	0.673300
C2041	C204	0.817200	0.563100	0.710200
H1631	H163	0.841800	0.543600	0.735100
C2051	C205	0.816100	0.624000	0.711900
H1641	H164	0.839900	0.644600	0.736700
O421	O42	0.276800	0.208100	0.176000
N421	N42	0.279000	0.150800	0.176000
C2061	C206	0.247200	0.121900	0.138000
H1651	H165	0.223900	0.142200	0.112400
C2071	C207	0.248000	0.064100	0.135900
H1661	H166	0.224900	0.045100	0.109300
C2081	C208	0.283400	0.031600	0.173300
C2091	C209	0.317200	0.063100	0.210200
H1671	H167	0.341800	0.043600	0.235100
C2101	C210	0.316100	0.124000	0.211900
H1681	H168	0.339900	0.144600	0.236700
O431	O43	0.223200	0.708100	0.324000
N431	N43	0.221000	0.650800	0.324000
C2111	C211	0.252800	0.621900	0.362000
H1691	H169	0.276100	0.642200	0.387600
C2121	C212	0.252000	0.564100	0.364100
H1701	H170	0.275100	0.545100	0.390700
C2131	C213	0.216600	0.531600	0.326700
C2141	C214	0.182800	0.563100	0.289800
H1711	H171	0.158200	0.543600	0.264900
C2151	C215	0.183900	0.624000	0.288100
H1721	H172	0.160100	0.644600	0.263300
O441	O44	0.723200	0.208100	0.824000
N441	N44	0.721000	0.150800	0.824000
C2161	C216	0.752800	0.121900	0.862000
H1731	H173	0.776100	0.142200	0.887600
C2171	C217	0.752000	0.064100	0.864100
H1741	H174	0.775100	0.045100	0.890700
C2181	C218	0.716600	0.031600	0.826700
C2191	C219	0.682800	0.063100	0.789800
H1751	H175	0.658200	0.043600	0.764900
C2201	C220	0.683900	0.124000	0.788100
H1761	H176	0.660100	0.144600	0.763300
O451	O45	0.776800	0.291900	0.324000
N451	N45	0.779000	0.349200	0.324000
C2211	C221	0.747200	0.378100	0.362000
H1771	H177	0.723900	0.357800	0.387600
C2221	C222	0.748000	0.435900	0.364100
H1781	H178	0.724900	0.454900	0.390700
C2231	C223	0.783400	0.468400	0.326700
C2241	C224	0.817200	0.436900	0.289800
H1791	H179	0.841800	0.456400	0.264900
C2251	C225	0.816100	0.376000	0.288100
H1801	H180	0.839900	0.355400	0.263300
O461	O46	0.276800	0.791900	0.824000
N461	N46	0.279000	0.849200	0.824000
C2261	C226	0.247200	0.878100	0.862000
H1811	H181	0.223900	0.857800	0.887600
C2271	C227	0.248000	0.935900	0.864100
H1821	H182	0.224900	0.954900	0.890700
C2281	C228	0.283400	0.968400	0.826700
C2291	C229	0.317200	0.936900	0.789800
H1831	H183	0.341800	0.956400	0.764900
C2301	C230	0.316100	0.876000	0.788100
H1841	H184	0.339900	0.855400	0.763300
O471	O47	0.223200	0.291900	0.676000
N471	N47	0.221000	0.349200	0.676000
C2311	C231	0.252800	0.378100	0.638000
H1851	H185	0.276100	0.357800	0.612400
C2321	C232	0.252000	0.435900	0.635900
H1861	H186	0.275100	0.454900	0.609300
C2331	C233	0.216600	0.468400	0.673300
C2341	C234	0.182800	0.436900	0.710200
H1871	H187	0.158200	0.456400	0.735100
C2351	C235	0.183900	0.376000	0.711900
H1881	H188	0.160100	0.355400	0.736700
O481	O48	0.723200	0.791900	0.176000
N481	N48	0.721000	0.849200	0.176000
C2361	C236	0.752800	0.878100	0.138000
H1891	H189	0.776100	0.857800	0.112400
C2371	C237	0.752000	0.935900	0.135900
H1901	H190	0.775100	0.954900	0.109300
C2381	C238	0.716600	0.968400	0.173300
C2391	C239	0.682800	0.936900	0.210200
H1911	H191	0.658200	0.956400	0.235100
C2401	C240	0.683900	0.876000	0.211900
H1921	H192	0.660100	0.855400	0.236700
Cu11	Cu1	0.250000	0.250000	0.250000
Cu21	Cu2	0.750000	0.750000	0.250000
Cu31	Cu3	0.750000	0.250000	0.750000
Cu41	Cu4	0.250000	0.750000	0.750000
Cu51	Cu5	0.750000	0.750000	0.750000
Cu61	Cu6	0.250000	0.250000	0.750000
Cu71	Cu7	0.250000	0.750000	0.250000
Cu81	Cu8	0.750000	0.250000	0.250000
