data_RUBHOM_freeONLY_PM
_symmetry_space_group_name_H-M	'P1'
_cell_length_a	9.286400
_cell_length_b	9.884000
_cell_length_c	22.446000
_cell_angle_alpha	90.000000
_cell_angle_beta	90.000000
_cell_angle_gamma	116.564000
_symmetry_Int_Tables_number 1

loop_
_symmetry_equiv_pos_as_xyz
'x,y,z'

loop_
_atom_site_label
_atom_site_type_symbol
_atom_site_fract_x
_atom_site_fract_y
_atom_site_fract_z
La11	La1	0.359770	0.115620	0.008840
La21	La2	0.640230	0.384380	0.508840
La31	La3	0.640230	0.884380	0.991160
La41	La4	0.359770	0.615620	0.491160
Ag11	Ag1	0.317790	0.974500	0.353460
Ag21	Ag2	0.682210	0.525500	0.853460
Ag31	Ag3	0.682210	0.025500	0.646540
Ag41	Ag4	0.317790	0.474500	0.146540
H11	H1	0.598800	0.890100	0.331900
H21	H2	0.738000	0.860800	0.255100
H31	H3	0.681900	0.898200	0.157600
H41	H4	0.357300	0.010300	0.222200
H51	H5	0.811000	0.289100	0.840300
H61	H6	0.021800	0.245600	0.869700
H71	H7	0.216600	0.435700	0.926900
H81	H8	0.969900	0.678900	0.929200
H91	H9	0.401200	0.609900	0.831900
H101	H10	0.262000	0.639200	0.755100
H111	H11	0.318100	0.601800	0.657600
H121	H12	0.642700	0.489700	0.722200
H131	H13	0.189000	0.210900	0.340300
H141	H14	0.978200	0.254400	0.369700
H151	H15	0.783400	0.064300	0.426900
H161	H16	0.030100	0.821100	0.429200
H171	H17	0.401200	0.109900	0.668100
H181	H18	0.262000	0.139200	0.744900
H191	H19	0.318100	0.101800	0.842400
H201	H20	0.642700	0.989700	0.777800
H211	H21	0.189000	0.710900	0.159700
H221	H22	0.978200	0.754400	0.130300
H231	H23	0.783400	0.564300	0.073100
H241	H24	0.030100	0.321100	0.070800
H251	H25	0.598800	0.390100	0.168100
H261	H26	0.738000	0.360800	0.244900
H271	H27	0.681900	0.398200	0.342400
H281	H28	0.357300	0.510300	0.277800
H291	H29	0.811000	0.789100	0.659700
H301	H30	0.021800	0.745600	0.630300
H311	H31	0.216600	0.935700	0.573100
H321	H32	0.969900	0.178900	0.570800
C11	C1	0.575800	0.908700	0.293300
C21	C2	0.657700	0.890400	0.247500
C31	C3	0.626500	0.914300	0.189200
C41	C4	0.513400	0.961400	0.179900
C51	C5	0.436100	0.978200	0.228400
C61	C6	0.470300	0.997000	0.119600
C71	C7	0.890700	0.359400	0.864500
C81	C8	0.013100	0.332500	0.880500
C91	C9	0.126100	0.445800	0.914900
C101	C10	0.112100	0.580800	0.933600
C111	C11	0.985000	0.596100	0.917100
C121	C12	0.238100	0.713100	0.969500
C131	C13	0.475100	0.498100	0.033400
C141	C14	0.992600	0.992000	0.033520
C151	C15	0.424200	0.591300	0.793300
C161	C16	0.342300	0.609600	0.747500
C171	C17	0.373500	0.585700	0.689200
C181	C18	0.486600	0.538600	0.679900
C191	C19	0.563900	0.521800	0.728400
C201	C20	0.529700	0.503000	0.619600
C211	C21	0.109300	0.140600	0.364500
C221	C22	0.986900	0.167500	0.380500
C231	C23	0.873900	0.054200	0.414900
C241	C24	0.887900	0.919200	0.433600
C251	C25	0.015000	0.903900	0.417100
C261	C26	0.761900	0.786900	0.469500
C271	C27	0.524900	0.001900	0.533400
C281	C28	0.007400	0.508000	0.533520
C291	C29	0.424200	0.091300	0.706700
C301	C30	0.342300	0.109600	0.752500
C311	C31	0.373500	0.085700	0.810800
C321	C32	0.486600	0.038600	0.820100
C331	C33	0.563900	0.021800	0.771600
C341	C34	0.529700	0.003000	0.880400
C351	C35	0.109300	0.640600	0.135500
C361	C36	0.986900	0.667500	0.119500
C371	C37	0.873900	0.554200	0.085100
C381	C38	0.887900	0.419200	0.066400
C391	C39	0.015000	0.403900	0.082900
C401	C40	0.761900	0.286900	0.030500
C411	C41	0.524900	0.501900	0.966600
C421	C42	0.007400	0.008000	0.966480
C431	C43	0.575800	0.408700	0.206700
C441	C44	0.657700	0.390400	0.252500
C451	C45	0.626500	0.414300	0.310800
C461	C46	0.513400	0.461400	0.320100
C471	C47	0.436100	0.478200	0.271600
C481	C48	0.470300	0.497000	0.380400
C491	C49	0.890700	0.859400	0.635500
C501	C50	0.013100	0.832500	0.619500
C511	C51	0.126100	0.945800	0.585100
C521	C52	0.112100	0.080800	0.566400
C531	C53	0.985000	0.096100	0.582900
C541	C54	0.238100	0.213100	0.530500
C551	C55	0.475100	0.998100	0.466600
C561	C56	0.992600	0.492000	0.466480
N11	N1	0.464000	0.952200	0.284300
N21	N2	0.875800	0.486500	0.881800
N31	N3	0.536000	0.547800	0.784300
N41	N4	0.124200	0.013500	0.381800
N51	N5	0.536000	0.047800	0.715700
N61	N6	0.124200	0.513500	0.118200
N71	N7	0.464000	0.452200	0.215700
N81	N8	0.875800	0.986500	0.618200
O11	O1	0.520100	0.960600	0.073370
O21	O2	0.383700	0.062200	0.118040
O31	O3	0.208700	0.817400	0.993450
O41	O4	0.362100	0.707000	0.971000
O51	O5	0.381800	0.372800	0.055190
O61	O6	0.539000	0.635500	0.059030
O71	O7	0.114600	0.051200	0.064150
O81	O8	0.859300	0.921900	0.055900
O91	O9	0.479900	0.539400	0.573370
O101	O10	0.616300	0.437800	0.618040
O111	O11	0.791300	0.682600	0.493450
O121	O12	0.637900	0.793000	0.471000
O131	O13	0.618200	0.127200	0.555190
O141	O14	0.461000	0.864500	0.559030
O151	O15	0.885400	0.448800	0.564150
O161	O16	0.140700	0.578100	0.555900
O171	O17	0.479900	0.039400	0.926630
O181	O18	0.616300	0.937800	0.881960
O191	O19	0.791300	0.182600	0.006550
O201	O20	0.637900	0.293000	0.029000
O211	O21	0.618200	0.627200	0.944810
O221	O22	0.461000	0.364500	0.940970
O231	O23	0.885400	0.948800	0.935850
O241	O24	0.140700	0.078100	0.944100
O251	O25	0.520100	0.460600	0.426630
O261	O26	0.383700	0.562200	0.381960
O271	O27	0.208700	0.317400	0.506550
O281	O28	0.362100	0.207000	0.529000
O291	O29	0.381800	0.872800	0.444810
O301	O30	0.539000	0.135500	0.440970
O311	O31	0.114600	0.551200	0.435850
O321	O32	0.859300	0.421900	0.444100
