data_RUGJUA_freeONLY_PM
_symmetry_space_group_name_H-M	'P1'
_cell_length_a	6.637500
_cell_length_b	18.295300
_cell_length_c	8.405800
_cell_angle_alpha	90.000000
_cell_angle_beta	90.000000
_cell_angle_gamma	90.000000
_symmetry_Int_Tables_number 1

loop_
_symmetry_equiv_pos_as_xyz
'x,y,z'

loop_
_atom_site_label
_atom_site_type_symbol
_atom_site_fract_x
_atom_site_fract_y
_atom_site_fract_z
O11	O1	0.014700	0.050000	0.429200
O21	O2	0.335200	0.094850	0.227500
O31	O3	0.179500	0.242070	0.153100
O41	O4	0.326100	0.316530	0.980900
C11	C1	0.264500	0.256300	0.023800
H11	H1	0.282900	0.217700	0.953500
O51	O5	0.514700	0.550000	0.429200
O61	O6	0.835200	0.594850	0.227500
O71	O7	0.679500	0.742070	0.153100
O81	O8	0.826100	0.816530	0.980900
C21	C2	0.764500	0.756300	0.023800
H21	H2	0.782900	0.717700	0.953500
O91	O9	0.985300	0.950000	0.929200
O101	O10	0.664800	0.905150	0.727500
O111	O11	0.820500	0.757930	0.653100
O121	O12	0.673900	0.683470	0.480900
C31	C3	0.735500	0.743700	0.523800
H31	H3	0.717100	0.782300	0.453500
O131	O13	0.485300	0.450000	0.929200
O141	O14	0.164800	0.405150	0.727500
O151	O15	0.320500	0.257930	0.653100
O161	O16	0.173900	0.183470	0.480900
C41	C4	0.235500	0.243700	0.523800
H41	H4	0.217100	0.282300	0.453500
O171	O17	0.985300	0.050000	0.070800
O181	O18	0.664800	0.094850	0.272500
O191	O19	0.820500	0.242070	0.346900
O201	O20	0.673900	0.316530	0.519100
C51	C5	0.735500	0.256300	0.476200
H51	H5	0.717100	0.217700	0.546500
O211	O21	0.485300	0.550000	0.070800
O221	O22	0.164800	0.594850	0.272500
O231	O23	0.320500	0.742070	0.346900
O241	O24	0.173900	0.816530	0.519100
C61	C6	0.235500	0.756300	0.476200
H61	H6	0.217100	0.717700	0.546500
O251	O25	0.014700	0.950000	0.570800
O261	O26	0.335200	0.905150	0.772500
O271	O27	0.179500	0.757930	0.846900
O281	O28	0.326100	0.683470	0.019100
C71	C7	0.264500	0.743700	0.976200
H71	H7	0.282900	0.782300	0.046500
O291	O29	0.514700	0.450000	0.570800
O301	O30	0.835200	0.405150	0.772500
O311	O31	0.679500	0.257930	0.846900
O321	O32	0.826100	0.183470	0.019100
C81	C8	0.764500	0.243700	0.976200
H81	H8	0.782900	0.282300	0.046500
Tm11	Tm1	0.000000	0.142810	0.250000
Tm21	Tm2	0.500000	0.642810	0.250000
Tm31	Tm3	0.000000	0.857190	0.750000
Tm41	Tm4	0.500000	0.357190	0.750000
C91	C9	0.500000	0.126000	0.250000
H91	H9	0.500000	0.176900	0.250000
C101	C10	0.000000	0.626000	0.250000
H101	H10	0.000000	0.676900	0.250000
C111	C11	0.500000	0.874000	0.750000
H111	H11	0.500000	0.823100	0.750000
C121	C12	0.000000	0.374000	0.750000
H121	H12	0.000000	0.323100	0.750000
C131	C13	0.924300	0.000000	0.500000
H131	H13	0.784200	0.000000	0.500000
C141	C14	0.424300	0.500000	0.500000
H141	H14	0.284200	0.500000	0.500000
C151	C15	0.075700	0.000000	0.000000
H151	H15	0.215800	0.000000	0.000000
C161	C16	0.575700	0.500000	0.000000
H161	H16	0.715800	0.500000	0.000000
