data_RUGJOU_freeONLY_PM
_symmetry_space_group_name_H-M	'P1'
_cell_length_a	6.666700
_cell_length_b	18.408000
_cell_length_c	8.446800
_cell_angle_alpha	90.000000
_cell_angle_beta	90.000000
_cell_angle_gamma	90.000000
_symmetry_Int_Tables_number 1

loop_
_symmetry_equiv_pos_as_xyz
'x,y,z'

loop_
_atom_site_label
_atom_site_type_symbol
_atom_site_fract_x
_atom_site_fract_y
_atom_site_fract_z
O11	O1	0.012700	0.549800	0.069600
O21	O2	0.664800	0.594600	0.228300
O31	O3	0.680400	0.757800	0.652200
O41	O4	0.824900	0.683400	0.481800
C11	C1	0.764100	0.743400	0.525200
H11	H1	0.783000	0.781900	0.455300
O51	O5	0.512700	0.049800	0.069600
O61	O6	0.164800	0.094600	0.228300
O71	O7	0.180400	0.257800	0.652200
O81	O8	0.324900	0.183400	0.481800
C21	C2	0.264100	0.243400	0.525200
H21	H2	0.283000	0.281900	0.455300
O91	O9	0.987300	0.450200	0.569600
O101	O10	0.335200	0.405400	0.728300
O111	O11	0.319600	0.242200	0.152200
O121	O12	0.175100	0.316600	0.981800
C31	C3	0.235900	0.256600	0.025200
H31	H3	0.217000	0.218100	0.955300
O131	O13	0.487300	0.950200	0.569600
O141	O14	0.835200	0.905400	0.728300
O151	O15	0.819600	0.742200	0.152200
O161	O16	0.675100	0.816600	0.981800
C41	C4	0.735900	0.756600	0.025200
H41	H4	0.717000	0.718100	0.955300
O171	O17	0.987300	0.549800	0.430400
O181	O18	0.335200	0.594600	0.271700
O191	O19	0.319600	0.757800	0.847800
O201	O20	0.175100	0.683400	0.018200
C51	C5	0.235900	0.743400	0.974800
H51	H5	0.217000	0.781900	0.044700
O211	O21	0.487300	0.049800	0.430400
O221	O22	0.835200	0.094600	0.271700
O231	O23	0.819600	0.257800	0.847800
O241	O24	0.675100	0.183400	0.018200
C61	C6	0.735900	0.243400	0.974800
H61	H6	0.717000	0.281900	0.044700
O251	O25	0.012700	0.450200	0.930400
O261	O26	0.664800	0.405400	0.771700
O271	O27	0.680400	0.242200	0.347800
O281	O28	0.824900	0.316600	0.518200
C71	C7	0.764100	0.256600	0.474800
H71	H7	0.783000	0.218100	0.544700
O291	O29	0.512700	0.950200	0.930400
O301	O30	0.164800	0.905400	0.771700
O311	O31	0.180400	0.742200	0.347800
O321	O32	0.324900	0.816600	0.518200
C81	C8	0.264100	0.756600	0.474800
H81	H8	0.283000	0.718100	0.544700
Ho11	Ho1	0.000000	0.642690	0.250000
Ho21	Ho2	0.500000	0.142690	0.250000
Ho31	Ho3	0.000000	0.357310	0.750000
Ho41	Ho4	0.500000	0.857310	0.750000
C91	C9	0.500000	0.625600	0.250000
H91	H9	0.500000	0.676200	0.250000
C101	C10	0.000000	0.125600	0.250000
H101	H10	0.000000	0.176200	0.250000
C111	C11	0.500000	0.374400	0.750000
H111	H11	0.500000	0.323800	0.750000
C121	C12	0.000000	0.874400	0.750000
H121	H12	0.000000	0.823800	0.750000
C131	C13	0.925300	0.500000	0.000000
H131	H13	0.785800	0.500000	0.000000
C141	C14	0.425300	0.000000	0.000000
H141	H14	0.285800	0.000000	0.000000
C151	C15	0.074700	0.500000	0.500000
H151	H15	0.214200	0.500000	0.500000
C161	C16	0.574700	0.000000	0.500000
H161	H16	0.714200	0.000000	0.500000
