data_RUJGOT_freeONLY_PM
_symmetry_space_group_name_H-M	'P1'
_cell_length_a	10.314200
_cell_length_b	10.314200
_cell_length_c	11.418000
_cell_angle_alpha	84.994500
_cell_angle_beta	84.994500
_cell_angle_gamma	65.656000
_symmetry_Int_Tables_number 1

loop_
_symmetry_equiv_pos_as_xyz
'x,y,z'

loop_
_atom_site_label
_atom_site_type_symbol
_atom_site_fract_x
_atom_site_fract_y
_atom_site_fract_z
Mn11	Mn1	0.540890	0.636710	0.485110
Mn21	Mn2	0.363290	0.459110	0.014890
Mn31	Mn3	0.459110	0.363290	0.514890
Mn41	Mn4	0.636710	0.540890	0.985110
Mn51	Mn5	0.629740	0.370260	0.750000
Mn61	Mn6	0.370260	0.629740	0.250000
H11	H1	0.621000	0.299000	0.961000
H21	H2	0.640300	0.904300	0.508000
H31	H3	0.912400	0.532400	0.625000
H41	H4	0.970400	0.630400	0.787000
H51	H5	0.852200	0.886200	0.800000
H61	H6	0.208000	0.554000	0.690000
H71	H7	0.701000	0.379000	0.539000
H81	H8	0.095700	0.359700	0.992000
H91	H9	0.467600	0.087600	0.875000
H101	H10	0.369600	0.029600	0.713000
H111	H11	0.113800	0.147800	0.700000
H121	H12	0.446000	0.792000	0.810000
H131	H13	0.379000	0.701000	0.039000
H141	H14	0.359700	0.095700	0.492000
H151	H15	0.087600	0.467600	0.375000
H161	H16	0.029600	0.369600	0.213000
H171	H17	0.147800	0.113800	0.200000
H181	H18	0.792000	0.446000	0.310000
H191	H19	0.299000	0.621000	0.461000
H201	H20	0.904300	0.640300	0.008000
H211	H21	0.532400	0.912400	0.125000
H221	H22	0.630400	0.970400	0.287000
H231	H23	0.886200	0.852200	0.300000
H241	H24	0.554000	0.208000	0.190000
C11	C1	0.659640	0.081840	0.657900
C21	C2	0.735640	0.921040	0.656500
C31	C3	0.707980	0.853580	0.568200
C41	C4	0.871500	0.630500	0.639700
C51	C5	0.900000	0.693400	0.729100
C61	C6	0.832500	0.838700	0.738500
C71	C7	0.287700	0.501500	0.745400
C81	C8	0.918160	0.340360	0.842100
C91	C9	0.078960	0.264360	0.843500
C101	C10	0.146420	0.292020	0.931800
C111	C11	0.369500	0.128500	0.860300
C121	C12	0.306600	0.100000	0.770900
C131	C13	0.161300	0.167500	0.761500
C141	C14	0.498500	0.712300	0.754600
C151	C15	0.340360	0.918160	0.342100
C161	C16	0.264360	0.078960	0.343500
C171	C17	0.292020	0.146420	0.431800
C181	C18	0.128500	0.369500	0.360300
C191	C19	0.100000	0.306600	0.270900
C201	C20	0.167500	0.161300	0.261500
C211	C21	0.712300	0.498500	0.254600
C221	C22	0.081840	0.659640	0.157900
C231	C23	0.921040	0.735640	0.156500
C241	C24	0.853580	0.707980	0.068200
C251	C25	0.630500	0.871500	0.139700
C261	C26	0.693400	0.900000	0.229100
C271	C27	0.838700	0.832500	0.238500
C281	C28	0.501500	0.287700	0.245400
N11	N1	0.774960	0.710960	0.561200
N21	N2	0.289040	0.225040	0.938800
N31	N3	0.225040	0.289040	0.438800
N41	N4	0.710960	0.774960	0.061200
O11	O1	0.746780	0.648180	0.475100
O21	O2	0.571820	0.142220	0.580040
O31	O3	0.689670	0.141870	0.736380
O41	O4	0.256950	0.537550	0.849290
O51	O5	0.580770	0.369370	0.939650
O61	O6	0.405800	0.422900	0.703310
O71	O7	0.351820	0.253220	0.024900
O81	O8	0.857780	0.428180	0.919960
O91	O9	0.858130	0.310330	0.763620
O101	O10	0.462450	0.743050	0.650710
O111	O11	0.630630	0.419230	0.560350
O121	O12	0.577100	0.594200	0.796690
O131	O13	0.253220	0.351820	0.524900
O141	O14	0.428180	0.857780	0.419960
O151	O15	0.310330	0.858130	0.263620
O161	O16	0.743050	0.462450	0.150710
O171	O17	0.419230	0.630630	0.060350
O181	O18	0.594200	0.577100	0.296690
O191	O19	0.648180	0.746780	0.975100
O201	O20	0.142220	0.571820	0.080040
O211	O21	0.141870	0.689670	0.236380
O221	O22	0.537550	0.256950	0.349290
O231	O23	0.369370	0.580770	0.439650
O241	O24	0.422900	0.405800	0.203310
