data_RULXOM_freeONLY_PM
_symmetry_space_group_name_H-M	'P1'
_cell_length_a	22.061100
_cell_length_b	22.061100
_cell_length_c	22.061100
_cell_angle_alpha	109.471000
_cell_angle_beta	109.471000
_cell_angle_gamma	109.471000
_symmetry_Int_Tables_number 1

loop_
_symmetry_equiv_pos_as_xyz
'x,y,z'

loop_
_atom_site_label
_atom_site_type_symbol
_atom_site_fract_x
_atom_site_fract_y
_atom_site_fract_z
Fe11	Fe1	0.409220	0.500000	0.909220
Fe21	Fe2	0.590780	0.500000	0.090780
Fe31	Fe3	0.909220	0.409220	0.500000
Fe41	Fe4	0.090780	0.590780	0.500000
Fe51	Fe5	0.500000	0.090780	0.590780
Fe61	Fe6	0.500000	0.909220	0.409220
Fe71	Fe7	0.500000	0.590780	0.090780
Fe81	Fe8	0.500000	0.409220	0.909220
Fe91	Fe9	0.590780	0.090780	0.500000
Fe101	Fe10	0.409220	0.909220	0.500000
Fe111	Fe11	0.909220	0.500000	0.409220
Fe121	Fe12	0.090780	0.500000	0.590780
H11	H1	0.439800	0.687400	0.887000
H21	H2	0.470100	0.799900	0.888400
H31	H3	0.800400	0.552800	0.113000
H41	H4	0.911500	0.581700	0.111600
H51	H5	0.199600	0.312600	0.752400
H61	H6	0.088500	0.200100	0.670200
H71	H7	0.560200	0.447200	0.247600
H81	H8	0.529900	0.418300	0.329800
H91	H9	0.752400	0.199600	0.312600
H101	H10	0.670200	0.088500	0.200100
H111	H11	0.247600	0.560200	0.447200
H121	H12	0.329800	0.529900	0.418300
H131	H13	0.887000	0.439800	0.687400
H141	H14	0.888400	0.470100	0.799900
H151	H15	0.113000	0.800400	0.552800
H161	H16	0.111600	0.911500	0.581700
H171	H17	0.552800	0.113000	0.800400
H181	H18	0.581700	0.111600	0.911500
H191	H19	0.687400	0.887000	0.439800
H201	H20	0.799900	0.888400	0.470100
H211	H21	0.447200	0.247600	0.560200
H221	H22	0.418300	0.329800	0.529900
H231	H23	0.312600	0.752400	0.199600
H241	H24	0.200100	0.670200	0.088500
H251	H25	0.312600	0.560200	0.113000
H261	H26	0.200100	0.529900	0.111600
H271	H27	0.447200	0.199600	0.887000
H281	H28	0.418300	0.088500	0.888400
H291	H29	0.687400	0.800400	0.247600
H301	H30	0.799900	0.911500	0.329800
H311	H31	0.552800	0.439800	0.752400
H321	H32	0.581700	0.470100	0.670200
H331	H33	0.800400	0.247600	0.687400
H341	H34	0.911500	0.329800	0.799900
H351	H35	0.439800	0.752400	0.552800
H361	H36	0.470100	0.670200	0.581700
H371	H37	0.560200	0.113000	0.312600
H381	H38	0.529900	0.111600	0.200100
H391	H39	0.199600	0.887000	0.447200
H401	H40	0.088500	0.888400	0.418300
H411	H41	0.887000	0.447200	0.199600
H421	H42	0.888400	0.418300	0.088500
H431	H43	0.113000	0.312600	0.560200
H441	H44	0.111600	0.200100	0.529900
H451	H45	0.752400	0.552800	0.439800
H461	H46	0.670200	0.581700	0.470100
H471	H47	0.247600	0.687400	0.800400
H481	H48	0.329800	0.799900	0.911500
H491	H49	0.560200	0.312600	0.113000
H501	H50	0.529900	0.200100	0.111600
H511	H51	0.199600	0.447200	0.887000
H521	H52	0.088500	0.418300	0.888400
H531	H53	0.800400	0.687400	0.247600
H541	H54	0.911500	0.799900	0.329800
H551	H55	0.439800	0.552800	0.752400
H561	H56	0.470100	0.581700	0.670200
H571	H57	0.247600	0.800400	0.687400
H581	H58	0.329800	0.911500	0.799900
H591	H59	0.752400	0.439800	0.552800
H601	H60	0.670200	0.470100	0.581700
H611	H61	0.113000	0.560200	0.312600
H621	H62	0.111600	0.529900	0.200100
H631	H63	0.887000	0.199600	0.447200
H641	H64	0.888400	0.088500	0.418300
H651	H65	0.447200	0.887000	0.199600
H661	H66	0.418300	0.888400	0.088500
H671	H67	0.312600	0.113000	0.560200
H681	H68	0.200100	0.111600	0.529900
H691	H69	0.552800	0.752400	0.439800
H701	H70	0.581700	0.670200	0.470100
H711	H71	0.687400	0.247600	0.800400
H721	H72	0.799900	0.329800	0.911500
H731	H73	0.687400	0.439800	0.887000
H741	H74	0.799900	0.470100	0.888400
H751	H75	0.552800	0.800400	0.113000
H761	H76	0.581700	0.911500	0.111600
H771	H77	0.312600	0.199600	0.752400
H781	H78	0.200100	0.088500	0.670200
H791	H79	0.447200	0.560200	0.247600
H801	H80	0.418300	0.529900	0.329800
H811	H81	0.199600	0.752400	0.312600
H821	H82	0.088500	0.670200	0.200100
H831	H83	0.560200	0.247600	0.447200
H841	H84	0.529900	0.329800	0.418300
H851	H85	0.439800	0.887000	0.687400
H861	H86	0.470100	0.888400	0.799900
H871	H87	0.800400	0.113000	0.552800
H881	H88	0.911500	0.111600	0.581700
H891	H89	0.113000	0.552800	0.800400
H901	H90	0.111600	0.581700	0.911500
H911	H91	0.887000	0.687400	0.439800
H921	H92	0.888400	0.799900	0.470100
H931	H93	0.247600	0.447200	0.560200
H941	H94	0.329800	0.418300	0.529900
H951	H95	0.752400	0.312600	0.199600
H961	H96	0.670200	0.200100	0.088500
C11	C1	0.470600	0.732900	0.932900
C21	C2	0.489700	0.800300	0.934000
C31	C3	0.800000	0.537700	0.067100
C41	C4	0.866300	0.555700	0.066000
C51	C5	0.200000	0.267100	0.737700
C61	C6	0.133700	0.199700	0.689400
C71	C7	0.529400	0.462300	0.262300
C81	C8	0.510300	0.444300	0.310600
C91	C9	0.737700	0.200000	0.267100
C101	C10	0.689400	0.133700	0.199700
C111	C11	0.262300	0.529400	0.462300
C121	C12	0.310600	0.510300	0.444300
C131	C13	0.932900	0.470600	0.732900
C141	C14	0.934000	0.489700	0.800300
C151	C15	0.067100	0.800000	0.537700
C161	C16	0.066000	0.866300	0.555700
C171	C17	0.537700	0.067100	0.800000
C181	C18	0.555700	0.066000	0.866300
C191	C19	0.732900	0.932900	0.470600
C201	C20	0.800300	0.934000	0.489700
C211	C21	0.462300	0.262300	0.529400
C221	C22	0.444300	0.310600	0.510300
C231	C23	0.267100	0.737700	0.200000
C241	C24	0.199700	0.689400	0.133700
C251	C25	0.267100	0.529400	0.067100
C261	C26	0.199700	0.510300	0.066000
C271	C27	0.462300	0.200000	0.932900
C281	C28	0.444300	0.133700	0.934000
C291	C29	0.732900	0.800000	0.262300
C301	C30	0.800300	0.866300	0.310600
C311	C31	0.537700	0.470600	0.737700
C321	C32	0.555700	0.489700	0.689400
C331	C33	0.800000	0.262300	0.732900
C341	C34	0.866300	0.310600	0.800300
C351	C35	0.470600	0.737700	0.537700
C361	C36	0.489700	0.689400	0.555700
C371	C37	0.529400	0.067100	0.267100
C381	C38	0.510300	0.066000	0.199700
C391	C39	0.200000	0.932900	0.462300
C401	C40	0.133700	0.934000	0.444300
C411	C41	0.932900	0.462300	0.200000
C421	C42	0.934000	0.444300	0.133700
C431	C43	0.067100	0.267100	0.529400
C441	C44	0.066000	0.199700	0.510300
C451	C45	0.737700	0.537700	0.470600
C461	C46	0.689400	0.555700	0.489700
C471	C47	0.262300	0.732900	0.800000
C481	C48	0.310600	0.800300	0.866300
C491	C49	0.529400	0.267100	0.067100
C501	C50	0.510300	0.199700	0.066000
C511	C51	0.200000	0.462300	0.932900
C521	C52	0.133700	0.444300	0.934000
C531	C53	0.800000	0.732900	0.262300
C541	C54	0.866300	0.800300	0.310600
C551	C55	0.470600	0.537700	0.737700
C561	C56	0.489700	0.555700	0.689400
C571	C57	0.262300	0.800000	0.732900
C581	C58	0.310600	0.866300	0.800300
C591	C59	0.737700	0.470600	0.537700
C601	C60	0.689400	0.489700	0.555700
C611	C61	0.067100	0.529400	0.267100
C621	C62	0.066000	0.510300	0.199700
C631	C63	0.932900	0.200000	0.462300
C641	C64	0.934000	0.133700	0.444300
C651	C65	0.462300	0.932900	0.200000
C661	C66	0.444300	0.934000	0.133700
C671	C67	0.267100	0.067100	0.529400
C681	C68	0.199700	0.066000	0.510300
C691	C69	0.537700	0.737700	0.470600
C701	C70	0.555700	0.689400	0.489700
C711	C71	0.732900	0.262300	0.800000
C721	C72	0.800300	0.310600	0.866300
C731	C73	0.732900	0.470600	0.932900
C741	C74	0.800300	0.489700	0.934000
C751	C75	0.537700	0.800000	0.067100
C761	C76	0.555700	0.866300	0.066000
C771	C77	0.267100	0.200000	0.737700
C781	C78	0.199700	0.133700	0.689400
C791	C79	0.462300	0.529400	0.262300
C801	C80	0.444300	0.510300	0.310600
C811	C81	0.200000	0.737700	0.267100
C821	C82	0.133700	0.689400	0.199700
C831	C83	0.529400	0.262300	0.462300
C841	C84	0.510300	0.310600	0.444300
C851	C85	0.470600	0.932900	0.732900
C861	C86	0.489700	0.934000	0.800300
C871	C87	0.800000	0.067100	0.537700
C881	C88	0.866300	0.066000	0.555700
C891	C89	0.067100	0.537700	0.800000
C901	C90	0.066000	0.555700	0.866300
C911	C91	0.932900	0.732900	0.470600
C921	C92	0.934000	0.800300	0.489700
C931	C93	0.262300	0.462300	0.529400
C941	C94	0.310600	0.444300	0.510300
C951	C95	0.737700	0.267100	0.200000
C961	C96	0.689400	0.199700	0.133700
C971	C97	0.476700	0.669300	0.000000
C981	C98	0.497100	0.732700	0.000000
C991	C99	0.536690	0.868310	0.000000
C1001	C100	0.557100	0.935500	0.000000
C1011	C101	0.669300	0.476700	0.000000
C1021	C102	0.732700	0.497100	0.000000
C1031	C103	0.868310	0.536690	0.000000
C1041	C104	0.935500	0.557100	0.000000
C1051	C105	0.330700	0.330700	0.807400
C1061	C106	0.267300	0.267300	0.764400
C1071	C107	0.131690	0.131690	0.668380
C1081	C108	0.064500	0.064500	0.621600
C1091	C109	0.523300	0.523300	0.192600
C1101	C110	0.502900	0.502900	0.235600
C1111	C111	0.463310	0.463310	0.331620
C1121	C112	0.442900	0.442900	0.378400
C1131	C113	0.807400	0.330700	0.330700
C1141	C114	0.764400	0.267300	0.267300
C1151	C115	0.668380	0.131690	0.131690
C1161	C116	0.621600	0.064500	0.064500
C1171	C117	0.192600	0.523300	0.523300
C1181	C118	0.235600	0.502900	0.502900
C1191	C119	0.331620	0.463310	0.463310
C1201	C120	0.378400	0.442900	0.442900
C1211	C121	0.000000	0.476700	0.669300
C1221	C122	0.000000	0.497100	0.732700
C1231	C123	0.000000	0.536690	0.868310
C1241	C124	0.000000	0.557100	0.935500
C1251	C125	0.000000	0.669300	0.476700
C1261	C126	0.000000	0.732700	0.497100
C1271	C127	0.000000	0.868310	0.536690
C1281	C128	0.000000	0.935500	0.557100
C1291	C129	0.476700	0.000000	0.669300
C1301	C130	0.497100	0.000000	0.732700
C1311	C131	0.536690	0.000000	0.868310
C1321	C132	0.557100	0.000000	0.935500
C1331	C133	0.669300	0.000000	0.476700
C1341	C134	0.732700	0.000000	0.497100
C1351	C135	0.868310	0.000000	0.536690
C1361	C136	0.935500	0.000000	0.557100
C1371	C137	0.523300	0.192600	0.523300
C1381	C138	0.502900	0.235600	0.502900
C1391	C139	0.463310	0.331620	0.463310
C1401	C140	0.442900	0.378400	0.442900
C1411	C141	0.330700	0.807400	0.330700
C1421	C142	0.267300	0.764400	0.267300
C1431	C143	0.131690	0.668380	0.131690
C1441	C144	0.064500	0.621600	0.064500
C1451	C145	0.330700	0.523300	0.000000
C1461	C146	0.267300	0.502900	0.000000
C1471	C147	0.131690	0.463310	0.000000
C1481	C148	0.064500	0.442900	0.000000
C1491	C149	0.523300	0.330700	0.000000
C1501	C150	0.502900	0.267300	0.000000
C1511	C151	0.463310	0.131690	0.000000
C1521	C152	0.442900	0.064500	0.000000
C1531	C153	0.669300	0.669300	0.192600
C1541	C154	0.732700	0.732700	0.235600
C1551	C155	0.868310	0.868310	0.331620
C1561	C156	0.935500	0.935500	0.378400
C1571	C157	0.476700	0.476700	0.807400
C1581	C158	0.497100	0.497100	0.764400
C1591	C159	0.536690	0.536690	0.668380
C1601	C160	0.557100	0.557100	0.621600
C1611	C161	0.669300	0.192600	0.669300
C1621	C162	0.732700	0.235600	0.732700
C1631	C163	0.868310	0.331620	0.868310
C1641	C164	0.935500	0.378400	0.935500
C1651	C165	0.476700	0.807400	0.476700
C1661	C166	0.497100	0.764400	0.497100
C1671	C167	0.536690	0.668380	0.536690
C1681	C168	0.557100	0.621600	0.557100
C1691	C169	0.523300	0.000000	0.330700
C1701	C170	0.502900	0.000000	0.267300
C1711	C171	0.463310	0.000000	0.131690
C1721	C172	0.442900	0.000000	0.064500
C1731	C173	0.330700	0.000000	0.523300
C1741	C174	0.267300	0.000000	0.502900
C1751	C175	0.131690	0.000000	0.463310
C1761	C176	0.064500	0.000000	0.442900
C1771	C177	0.000000	0.523300	0.330700
C1781	C178	0.000000	0.502900	0.267300
C1791	C179	0.000000	0.463310	0.131690
C1801	C180	0.000000	0.442900	0.064500
C1811	C181	0.000000	0.330700	0.523300
C1821	C182	0.000000	0.267300	0.502900
C1831	C183	0.000000	0.131690	0.463310
C1841	C184	0.000000	0.064500	0.442900
C1851	C185	0.807400	0.476700	0.476700
C1861	C186	0.764400	0.497100	0.497100
C1871	C187	0.668380	0.536690	0.536690
C1881	C188	0.621600	0.557100	0.557100
C1891	C189	0.192600	0.669300	0.669300
C1901	C190	0.235600	0.732700	0.732700
C1911	C191	0.331620	0.868310	0.868310
C1921	C192	0.378400	0.935500	0.935500
N11	N1	0.603500	0.000000	0.068700
N21	N2	0.931300	0.534800	0.931300
N31	N3	0.068700	0.000000	0.603500
N41	N4	0.396500	0.465200	0.396500
N51	N5	0.603500	0.068700	0.000000
N61	N6	0.396500	0.396500	0.465200
N71	N7	0.068700	0.603500	0.000000
N81	N8	0.931300	0.931300	0.534800
N91	N9	0.534800	0.931300	0.931300
N101	N10	0.000000	0.068700	0.603500
N111	N11	0.465200	0.396500	0.396500
N121	N12	0.000000	0.603500	0.068700
N131	N13	0.000000	0.396500	0.931300
N141	N14	0.465200	0.068700	0.068700
N151	N15	0.000000	0.931300	0.396500
N161	N16	0.534800	0.603500	0.603500
N171	N17	0.931300	0.396500	0.000000
N181	N18	0.603500	0.603500	0.534800
N191	N19	0.396500	0.931300	0.000000
N201	N20	0.068700	0.068700	0.465200
N211	N21	0.068700	0.465200	0.068700
N221	N22	0.931300	0.000000	0.396500
N231	N23	0.603500	0.534800	0.603500
N241	N24	0.396500	0.000000	0.931300
O11	O1	0.427300	0.600800	0.931700
O21	O2	0.669100	0.495600	0.068300
O31	O3	0.330900	0.399200	0.826500
O41	O4	0.572700	0.504400	0.173500
O51	O5	0.826500	0.330900	0.399200
O61	O6	0.173500	0.572700	0.504400
O71	O7	0.931700	0.427300	0.600800
O81	O8	0.068300	0.669100	0.495600
O91	O9	0.495600	0.068300	0.669100
O101	O10	0.600800	0.931700	0.427300
O111	O11	0.504400	0.173500	0.572700
O121	O12	0.399200	0.826500	0.330900
O131	O13	0.399200	0.572700	0.068300
O141	O14	0.504400	0.330900	0.931700
O151	O15	0.600800	0.669100	0.173500
O161	O16	0.495600	0.427300	0.826500
O171	O17	0.669100	0.173500	0.600800
O181	O18	0.427300	0.826500	0.495600
O191	O19	0.572700	0.068300	0.399200
O201	O20	0.330900	0.931700	0.504400
O211	O21	0.931700	0.504400	0.330900
O221	O22	0.068300	0.399200	0.572700
O231	O23	0.826500	0.495600	0.427300
O241	O24	0.173500	0.600800	0.669100
O251	O25	0.572700	0.399200	0.068300
O261	O26	0.330900	0.504400	0.931700
O271	O27	0.669100	0.600800	0.173500
O281	O28	0.427300	0.495600	0.826500
O291	O29	0.173500	0.669100	0.600800
O301	O30	0.826500	0.427300	0.495600
O311	O31	0.068300	0.572700	0.399200
O321	O32	0.931700	0.330900	0.504400
O331	O33	0.504400	0.931700	0.330900
O341	O34	0.399200	0.068300	0.572700
O351	O35	0.495600	0.826500	0.427300
O361	O36	0.600800	0.173500	0.669100
O371	O37	0.600800	0.427300	0.931700
O381	O38	0.495600	0.669100	0.068300
O391	O39	0.399200	0.330900	0.826500
O401	O40	0.504400	0.572700	0.173500
O411	O41	0.330900	0.826500	0.399200
O421	O42	0.572700	0.173500	0.504400
O431	O43	0.427300	0.931700	0.600800
O441	O44	0.669100	0.068300	0.495600
O451	O45	0.068300	0.495600	0.669100
O461	O46	0.931700	0.600800	0.427300
O471	O47	0.173500	0.504400	0.572700
O481	O48	0.826500	0.399200	0.330900
