data_RUMRUO_freeONLY_PM
_symmetry_space_group_name_H-M	'P1'
_cell_length_a	6.557600
_cell_length_b	9.715000
_cell_length_c	8.635800
_cell_angle_alpha	90.000000
_cell_angle_beta	90.579000
_cell_angle_gamma	90.000000
_symmetry_Int_Tables_number 1

loop_
_symmetry_equiv_pos_as_xyz
'x,y,z'

loop_
_atom_site_label
_atom_site_type_symbol
_atom_site_fract_x
_atom_site_fract_y
_atom_site_fract_z
N11	N1	0.141500	0.155700	0.862600
N21	N2	0.415700	0.255000	0.776700
N31	N3	0.348000	0.155700	0.861000
N41	N4	0.253000	0.324100	0.717100
C11	C1	0.085600	0.261200	0.772800
N51	N5	0.890500	0.295200	0.737600
H11	H1	0.791700	0.247200	0.774000
H21	H2	0.865300	0.364700	0.678800
N61	N6	0.858500	0.155700	0.137400
N71	N7	0.584300	0.255000	0.223300
N81	N8	0.652000	0.155700	0.139000
N91	N9	0.747000	0.324100	0.282900
C21	C2	0.914400	0.261200	0.227200
N101	N10	0.109500	0.295200	0.262400
H31	H3	0.208300	0.247200	0.226000
H41	H4	0.134700	0.364700	0.321200
N111	N11	0.858500	0.844300	0.137400
N121	N12	0.584300	0.745000	0.223300
N131	N13	0.652000	0.844300	0.139000
N141	N14	0.747000	0.675900	0.282900
C31	C3	0.914400	0.738800	0.227200
N151	N15	0.109500	0.704800	0.262400
H51	H5	0.208300	0.752800	0.226000
H61	H6	0.134700	0.635300	0.321200
N161	N16	0.141500	0.844300	0.862600
N171	N17	0.415700	0.745000	0.776700
N181	N18	0.348000	0.844300	0.861000
N191	N19	0.253000	0.675900	0.717100
C41	C4	0.085600	0.738800	0.772800
N201	N20	0.890500	0.704800	0.737600
H71	H7	0.791700	0.752800	0.774000
H81	H8	0.865300	0.635300	0.678800
Zn11	Zn1	0.297090	0.500000	0.597080
F11	F1	0.385200	0.500000	0.382200
Zn21	Zn2	0.702910	0.500000	0.402920
F21	F2	0.614800	0.500000	0.617800
Zn31	Zn3	0.000000	0.000000	0.000000
Zn41	Zn4	0.500000	0.000000	0.000000
F31	F3	0.257900	0.000000	0.138300
F41	F4	0.742100	0.000000	0.861700
F51	F5	0.000000	0.500000	0.500000
