data_RUPZIM_freeONLY_PM
_symmetry_space_group_name_H-M	'P1'
_cell_length_a	7.614500
_cell_length_b	11.133000
_cell_length_c	16.868800
_cell_angle_alpha	90.000000
_cell_angle_beta	90.000000
_cell_angle_gamma	90.000000
_symmetry_Int_Tables_number 1

loop_
_symmetry_equiv_pos_as_xyz
'x,y,z'

loop_
_atom_site_label
_atom_site_type_symbol
_atom_site_fract_x
_atom_site_fract_y
_atom_site_fract_z
Zn11	Zn1	0.897710	0.859080	0.038420
Zn21	Zn2	0.602290	0.140920	0.538420
Zn31	Zn3	0.102290	0.359080	0.461580
Zn41	Zn4	0.397710	0.640920	0.961580
H11	H1	0.783400	0.794800	0.784100
H21	H2	0.755100	0.607400	0.367900
H31	H3	0.984200	0.400800	0.154900
H41	H4	0.740700	0.827000	0.649500
H51	H5	0.987400	0.314600	0.280000
H61	H6	0.754600	0.694400	0.242700
H71	H7	0.987000	0.124000	0.805600
H81	H8	0.939000	0.174000	0.669000
H91	H9	0.716600	0.205200	0.284100
H101	H10	0.744900	0.392600	0.867900
H111	H11	0.515800	0.599200	0.654900
H121	H12	0.759300	0.173000	0.149500
H131	H13	0.512600	0.685400	0.780000
H141	H14	0.745400	0.305600	0.742700
H151	H15	0.513000	0.876000	0.305600
H161	H16	0.561000	0.826000	0.169000
H171	H17	0.216600	0.294800	0.715900
H181	H18	0.244900	0.107400	0.132100
H191	H19	0.015800	0.900800	0.345100
H201	H20	0.259300	0.327000	0.850500
H211	H21	0.012600	0.814600	0.220000
H221	H22	0.245400	0.194400	0.257300
H231	H23	0.013000	0.624000	0.694400
H241	H24	0.061000	0.674000	0.831000
H251	H25	0.283400	0.705200	0.215900
H261	H26	0.255100	0.892600	0.632100
H271	H27	0.484200	0.099200	0.845100
H281	H28	0.240700	0.673000	0.350500
H291	H29	0.487400	0.185400	0.720000
H301	H30	0.254600	0.805600	0.757300
H311	H31	0.487000	0.376000	0.194400
H321	H32	0.439000	0.326000	0.331000
C11	C1	0.914400	0.085000	0.693500
C21	C2	0.815700	0.867700	0.761600
C31	C3	0.889300	0.955000	0.808200
C41	C4	0.799600	0.564900	0.324800
C51	C5	0.868900	0.556300	0.185500
C61	C6	0.937400	0.442900	0.197600
C71	C7	0.788900	0.887000	0.681000
C81	C8	0.864600	0.450200	0.335800
C91	C9	0.912800	0.933900	0.893500
C101	C10	0.937800	0.390100	0.272700
C111	C11	0.800400	0.617700	0.249600
C121	C12	0.835200	0.997700	0.648300
C131	C13	0.938000	0.064300	0.774000
C141	C14	0.872700	0.616100	0.105500
C151	C15	0.585600	0.915000	0.193500
C161	C16	0.684300	0.132300	0.261600
C171	C17	0.610700	0.045000	0.308200
C181	C18	0.700400	0.435100	0.824800
C191	C19	0.631100	0.443700	0.685500
C201	C20	0.562600	0.557100	0.697600
C211	C21	0.711100	0.113000	0.181000
C221	C22	0.635400	0.549800	0.835800
C231	C23	0.587200	0.066100	0.393500
C241	C24	0.562200	0.609900	0.772700
C251	C25	0.699600	0.382300	0.749600
C261	C26	0.664800	0.002300	0.148300
C271	C27	0.562000	0.935700	0.274000
C281	C28	0.627300	0.383900	0.605500
C291	C29	0.085600	0.585000	0.806500
C301	C30	0.184300	0.367700	0.738400
C311	C31	0.110700	0.455000	0.691800
C321	C32	0.200400	0.064900	0.175200
C331	C33	0.131100	0.056300	0.314500
C341	C34	0.062600	0.942900	0.302400
C351	C35	0.211100	0.387000	0.819000
C361	C36	0.135400	0.950200	0.164200
C371	C37	0.087200	0.433900	0.606500
C381	C38	0.062200	0.890100	0.227300
C391	C39	0.199600	0.117700	0.250400
C401	C40	0.164800	0.497700	0.851700
C411	C41	0.062000	0.564300	0.726000
C421	C42	0.127300	0.116100	0.394500
C431	C43	0.414400	0.415000	0.306500
C441	C44	0.315700	0.632300	0.238400
C451	C45	0.389300	0.545000	0.191800
C461	C46	0.299600	0.935100	0.675200
C471	C47	0.368900	0.943700	0.814500
C481	C48	0.437400	0.057100	0.802400
C491	C49	0.288900	0.613000	0.319000
C501	C50	0.364600	0.049800	0.664200
C511	C51	0.412800	0.566100	0.106500
C521	C52	0.437800	0.109900	0.727300
C531	C53	0.300400	0.882300	0.750400
C541	C54	0.335200	0.502300	0.351700
C551	C55	0.438000	0.435700	0.226000
C561	C56	0.372700	0.883900	0.894500
N11	N1	0.801200	0.019400	0.564400
N21	N2	0.856400	0.391700	0.412600
N31	N3	0.698800	0.980600	0.064400
N41	N4	0.643600	0.608300	0.912600
N51	N5	0.198800	0.519400	0.935600
N61	N6	0.143600	0.891700	0.087400
N71	N7	0.301200	0.480600	0.435600
N81	N8	0.356400	0.108300	0.587400
O11	O1	0.866400	0.832200	0.923300
O21	O2	0.977200	0.013500	0.938100
O31	O3	0.822700	0.723100	0.102100
O41	O4	0.917500	0.555400	0.046400
O51	O5	0.633600	0.167800	0.423300
O61	O6	0.522800	0.986500	0.438100
O71	O7	0.677300	0.276900	0.602100
O81	O8	0.582500	0.444600	0.546400
O91	O9	0.133600	0.332200	0.576700
O101	O10	0.022800	0.513500	0.561900
O111	O11	0.177300	0.223100	0.397900
O121	O12	0.082500	0.055400	0.453600
O131	O13	0.366400	0.667800	0.076700
O141	O14	0.477200	0.486500	0.061900
O151	O15	0.322700	0.776900	0.897900
O161	O16	0.417500	0.944600	0.953600
