data_RURPEA_freeONLY_PM
_symmetry_space_group_name_H-M	'P1'
_cell_length_a	7.281000
_cell_length_b	7.441000
_cell_length_c	7.460000
_cell_angle_alpha	90.000000
_cell_angle_beta	90.000000
_cell_angle_gamma	95.814000
_symmetry_Int_Tables_number 1

loop_
_symmetry_equiv_pos_as_xyz
'x,y,z'

loop_
_atom_site_label
_atom_site_type_symbol
_atom_site_fract_x
_atom_site_fract_y
_atom_site_fract_z
Fe11	Fe1	0.000000	0.500000	0.500000
H11	H1	0.658400	0.491200	0.761200
H21	H2	0.341600	0.508800	0.761200
H31	H3	0.341600	0.508800	0.238800
H41	H4	0.658400	0.491200	0.238800
Pt11	Pt1	0.000000	0.000000	0.000000
C11	C1	0.596000	0.495000	0.653000
C21	C2	0.991400	0.189000	0.811000
C31	C3	0.404000	0.505000	0.653000
C41	C4	0.008600	0.811000	0.811000
C51	C5	0.404000	0.505000	0.347000
C61	C6	0.008600	0.811000	0.189000
C71	C7	0.596000	0.495000	0.347000
C81	C8	0.991400	0.189000	0.189000
N11	N1	0.990500	0.300000	0.704700
N21	N2	0.009500	0.700000	0.704700
N31	N3	0.009500	0.700000	0.295300
N41	N4	0.990500	0.300000	0.295300
N51	N5	0.689700	0.489000	0.500000
N61	N6	0.310300	0.511000	0.500000
