data_RUVBOB_freeONLY_PM
_symmetry_space_group_name_H-M	'P1'
_cell_length_a	12.946000
_cell_length_b	17.321000
_cell_length_c	22.153000
_cell_angle_alpha	70.130000
_cell_angle_beta	76.080000
_cell_angle_gamma	73.310000
_symmetry_Int_Tables_number 1

loop_
_symmetry_equiv_pos_as_xyz
'x,y,z'

loop_
_atom_site_label
_atom_site_type_symbol
_atom_site_fract_x
_atom_site_fract_y
_atom_site_fract_z
Cd11	Cd1	0.165150	0.548650	0.013100
Cd21	Cd2	0.178090	0.734050	0.090750
Cd31	Cd3	0.174650	0.776850	0.248080
Cd41	Cd4	0.176310	0.811870	0.408310
Cd51	Cd5	0.167460	0.005260	0.483190
Cl11	Cl1	0.292310	0.620300	0.031490
Cl21	Cl2	0.055320	0.837230	0.154910
Cl31	Cl3	0.279520	0.704580	0.347250
Cl41	Cl4	0.055360	0.919540	0.468100
N11	N1	0.139900	0.636000	0.525200
N21	N2	0.163100	0.713000	0.511000
N31	N3	0.162800	0.653600	0.614300
N41	N4	0.016800	0.626300	0.065000
N51	N5	0.015900	0.689800	0.088800
N61	N6	0.847400	0.681900	0.097800
N71	N7	0.187400	0.624200	0.190300
N81	N8	0.173700	0.642800	0.247400
N91	N9	0.173000	0.510400	0.270200
N101	N10	0.180900	0.909400	0.250500
N111	N11	0.179100	0.925300	0.307300
N121	N12	0.179500	0.042400	0.228000
N131	N13	0.011200	0.802800	0.381500
N141	N14	0.011700	0.792300	0.322200
N151	N15	0.842700	0.818100	0.371900
N161	N16	0.140900	0.919300	0.979500
N171	N17	0.159100	0.832500	0.991900
N181	N18	0.158300	0.890200	0.888200
C11	C1	0.142000	0.603200	0.586300
H11	H1	0.130300	0.549600	0.609100
C21	C2	0.176100	0.722200	0.563100
H21	H2	0.192600	0.769700	0.565700
C31	C3	0.167300	0.638800	0.682100
C41	C4	0.125200	0.703800	0.709700
H31	H3	0.096000	0.757300	0.684200
C51	C5	0.125800	0.690500	0.774400
H41	H4	0.096100	0.734400	0.793000
C61	C6	0.171400	0.610300	0.811800
C71	C7	0.213800	0.545200	0.783200
H51	H5	0.243900	0.491600	0.808000
C81	C8	0.211400	0.559800	0.718100
H61	H6	0.239600	0.516300	0.699000
C91	C9	0.172600	0.594300	0.883000
C101	C10	0.915200	0.621600	0.071200
H71	H7	0.893000	0.583000	0.059200
C111	C11	0.914500	0.721800	0.108200
H81	H8	0.891200	0.765900	0.126800
C121	C12	0.729900	0.700800	0.107800
C131	C13	0.672200	0.705100	0.166800
H91	H9	0.707800	0.695000	0.201400
C141	C14	0.559200	0.724700	0.174700
H101	H10	0.518500	0.728900	0.214600
C151	C15	0.506500	0.737900	0.123600
C161	C16	0.568300	0.724200	0.067600
H111	H11	0.533700	0.724600	0.035200
C171	C17	0.680300	0.709800	0.057400
H121	H12	0.721000	0.706300	0.017300
C181	C18	0.382300	0.757600	0.133600
C191	C19	0.187200	0.545200	0.204000
H131	H13	0.195400	0.516700	0.173800
C201	C20	0.165600	0.573900	0.294700
H141	H14	0.156200	0.569100	0.338700
C211	C21	0.166800	0.424700	0.306000
C221	C22	0.198400	0.390400	0.365800
H151	H15	0.220300	0.422600	0.384400
C231	C23	0.197100	0.305900	0.398700
H161	H16	0.219900	0.281400	0.439100
C241	C24	0.162800	0.259200	0.372300
C251	C25	0.127400	0.295800	0.312600
H171	H17	0.103200	0.264200	0.294400
C261	C26	0.128000	0.379300	0.280100
H181	H18	0.102200	0.404700	0.240600
C271	C27	0.164300	0.167700	0.407200
C281	C28	0.178700	0.005300	0.293000
H191	H19	0.177900	0.032600	0.322800
C291	C29	0.180100	0.980200	0.203500
H201	H20	0.180000	0.986800	0.160100
C301	C30	0.175900	0.129700	0.193000
C311	C31	0.110300	0.168800	0.146500
H211	H21	0.068400	0.139400	0.137800
C321	C32	0.106700	0.253100	0.112400
H221	H22	0.062500	0.280100	0.080400
C331	C33	0.168000	0.297100	0.125400
C341	C34	0.235200	0.255000	0.172400
H231	H23	0.277400	0.283800	0.181500
C351	C35	0.240300	0.170800	0.206000
H241	H24	0.286500	0.142700	0.236900
C361	C36	0.159800	0.390500	0.090400
C371	C37	0.907400	0.803300	0.317800
H251	H25	0.882900	0.801000	0.282500
C381	C38	0.911800	0.817500	0.409800
H261	H26	0.889900	0.826500	0.450500
C391	C39	0.725000	0.832500	0.386500
C401	C40	0.669100	0.889800	0.419200
H271	H27	0.706800	0.917800	0.432500
C411	C41	0.556500	0.906200	0.432400
H281	H28	0.518100	0.945100	0.454700
C421	C42	0.500700	0.864000	0.412000
C431	C43	0.558400	0.807400	0.377700
H291	H29	0.520900	0.780700	0.362900
C441	C44	0.672100	0.789800	0.364900
H301	H30	0.711300	0.750800	0.342700
C451	C45	0.377300	0.883600	0.424400
C461	C46	0.140200	0.950400	0.918600
H311	H31	0.128700	0.007800	0.897200
C471	C47	0.167600	0.817800	0.937800
H321	H32	0.178700	0.764500	0.933300
C481	C48	0.169700	0.898500	0.820700
C491	C49	0.105000	0.966600	0.781800
H331	H33	0.053400	0.006300	0.799500
C501	C50	0.119100	0.974400	0.716000
H341	H34	0.078800	0.021000	0.688800
C511	C51	0.192000	0.913600	0.690800
C521	C52	0.255100	0.844900	0.730900
H351	H35	0.304100	0.803700	0.713700
C531	C53	0.245200	0.837600	0.795800
H361	H36	0.288500	0.792600	0.822400
C541	C54	0.205800	0.919900	0.619500
O11	O1	0.202500	0.519600	0.916800
O21	O2	0.143600	0.654800	0.906300
O31	O3	0.341400	0.756000	0.088800
O41	O4	0.336000	0.772900	0.183800
O51	O5	0.197300	0.137400	0.461500
O61	O6	0.135700	0.124800	0.381700
O71	O7	0.214200	0.428300	0.103600
O81	O8	0.098000	0.424700	0.049200
O91	O9	0.333300	0.829700	0.423100
O101	O10	0.331000	0.953500	0.434100
O111	O11	0.244200	0.857000	0.600200
O121	O12	0.171600	0.993700	0.583700
Cd61	Cd6	0.834850	0.451350	0.986900
Cd71	Cd7	0.821910	0.265950	0.909250
Cd81	Cd8	0.825350	0.223150	0.751920
Cd91	Cd9	0.823690	0.188130	0.591690
Cd101	Cd10	0.832540	0.994740	0.516810
Cl51	Cl5	0.707690	0.379700	0.968510
Cl61	Cl6	0.944680	0.162770	0.845090
Cl71	Cl7	0.720480	0.295420	0.652750
Cl81	Cl8	0.944640	0.080460	0.531900
N191	N19	0.860100	0.364000	0.474800
N201	N20	0.836900	0.287000	0.489000
N211	N21	0.837200	0.346400	0.385700
N221	N22	0.983200	0.373700	0.935000
N231	N23	0.984100	0.310200	0.911200
N241	N24	0.152600	0.318100	0.902200
N251	N25	0.812600	0.375800	0.809700
N261	N26	0.826300	0.357200	0.752600
N271	N27	0.827000	0.489600	0.729800
N281	N28	0.819100	0.090600	0.749500
N291	N29	0.820900	0.074700	0.692700
N301	N30	0.820500	0.957600	0.772000
N311	N31	0.988800	0.197200	0.618500
N321	N32	0.988300	0.207700	0.677800
N331	N33	0.157300	0.181900	0.628100
N341	N34	0.859100	0.080700	0.020500
N351	N35	0.840900	0.167500	0.008100
N361	N36	0.841700	0.109800	0.111800
C551	C55	0.858000	0.396800	0.413700
H371	H37	0.869700	0.450400	0.390900
C561	C56	0.823900	0.277800	0.436900
H381	H38	0.807400	0.230300	0.434300
C571	C57	0.832700	0.361200	0.317900
C581	C58	0.874800	0.296200	0.290300
H391	H39	0.904000	0.242700	0.315800
C591	C59	0.874200	0.309500	0.225600
H401	H40	0.903900	0.265600	0.207000
C601	C60	0.828600	0.389700	0.188200
C611	C61	0.786200	0.454800	0.216800
H411	H41	0.756100	0.508400	0.192000
C621	C62	0.788600	0.440200	0.281900
H421	H42	0.760400	0.483700	0.301000
C631	C63	0.827400	0.405700	0.117000
C641	C64	0.084800	0.378400	0.928800
H431	H43	0.107000	0.417000	0.940800
C651	C65	0.085500	0.278200	0.891800
H441	H44	0.108800	0.234100	0.873200
C661	C66	0.270100	0.299200	0.892200
C671	C67	0.327800	0.294900	0.833200
H451	H45	0.292200	0.305000	0.798600
C681	C68	0.440800	0.275300	0.825300
H461	H46	0.481500	0.271100	0.785400
C691	C69	0.493500	0.262100	0.876400
C701	C70	0.431700	0.275800	0.932400
H471	H47	0.466300	0.275400	0.964800
C711	C71	0.319700	0.290200	0.942600
H481	H48	0.279000	0.293700	0.982700
C721	C72	0.617700	0.242400	0.866400
C731	C73	0.812800	0.454800	0.796000
H491	H49	0.804600	0.483300	0.826200
C741	C74	0.834400	0.426100	0.705300
H501	H50	0.843800	0.430900	0.661300
C751	C75	0.833200	0.575300	0.694000
C761	C76	0.801600	0.609600	0.634200
H511	H51	0.779700	0.577400	0.615600
C771	C77	0.802900	0.694100	0.601300
H521	H52	0.780100	0.718600	0.560900
C781	C78	0.837200	0.740800	0.627700
C791	C79	0.872600	0.704200	0.687400
H531	H53	0.896800	0.735800	0.705600
C801	C80	0.872000	0.620700	0.719900
H541	H54	0.897800	0.595300	0.759400
C811	C81	0.835700	0.832300	0.592800
C821	C82	0.821300	0.994700	0.707000
H551	H55	0.822100	0.967400	0.677200
C831	C83	0.819900	0.019800	0.796500
H561	H56	0.820000	0.013200	0.839900
C841	C84	0.824100	0.870300	0.807000
C851	C85	0.889700	0.831200	0.853500
H571	H57	0.931600	0.860600	0.862200
C861	C86	0.893300	0.746900	0.887600
H581	H58	0.937500	0.719900	0.919600
C871	C87	0.832000	0.702900	0.874600
C881	C88	0.764800	0.745000	0.827600
H591	H59	0.722600	0.716200	0.818500
C891	C89	0.759700	0.829200	0.794000
H601	H60	0.713500	0.857300	0.763100
C901	C90	0.840200	0.609500	0.909600
C911	C91	0.092600	0.196700	0.682200
H611	H61	0.117100	0.199000	0.717500
C921	C92	0.088200	0.182500	0.590200
H621	H62	0.110100	0.173500	0.549500
C931	C93	0.275000	0.167500	0.613500
C941	C94	0.330900	0.110200	0.580800
H631	H63	0.293200	0.082200	0.567500
C951	C95	0.443500	0.093800	0.567600
H641	H64	0.481900	0.054900	0.545300
C961	C96	0.499300	0.136000	0.588000
C971	C97	0.441600	0.192600	0.622300
H651	H65	0.479100	0.219300	0.637100
C981	C98	0.327900	0.210200	0.635100
H661	H66	0.288700	0.249200	0.657300
C991	C99	0.622700	0.116400	0.575600
C1001	C100	0.859800	0.049600	0.081400
H671	H67	0.871300	0.992200	0.102800
C1011	C101	0.832400	0.182200	0.062200
H681	H68	0.821300	0.235500	0.066700
C1021	C102	0.830300	0.101500	0.179300
C1031	C103	0.895000	0.033400	0.218200
H691	H69	0.946600	0.993700	0.200500
C1041	C104	0.880900	0.025600	0.284000
H701	H70	0.921200	0.979000	0.311200
C1051	C105	0.808000	0.086400	0.309200
C1061	C106	0.744900	0.155100	0.269100
H711	H71	0.695900	0.196300	0.286300
C1071	C107	0.754800	0.162400	0.204200
H721	H72	0.711500	0.207400	0.177600
C1081	C108	0.794200	0.080100	0.380500
O131	O13	0.797500	0.480400	0.083200
O141	O14	0.856400	0.345200	0.093700
O151	O15	0.658600	0.244000	0.911200
O161	O16	0.664000	0.227100	0.816200
O171	O17	0.802700	0.862600	0.538500
O181	O18	0.864300	0.875200	0.618300
O191	O19	0.785800	0.571700	0.896400
O201	O20	0.902000	0.575300	0.950800
O211	O21	0.666700	0.170300	0.576900
O221	O22	0.669000	0.046500	0.565900
O231	O23	0.755800	0.143000	0.399800
O241	O24	0.828400	0.006300	0.416300
