data_RUWZUG_freeONLY_PM
_symmetry_space_group_name_H-M	'P1'
_cell_length_a	37.352000
_cell_length_b	8.834000
_cell_length_c	29.562000
_cell_angle_alpha	90.000000
_cell_angle_beta	126.838000
_cell_angle_gamma	90.000000
_symmetry_Int_Tables_number 1

loop_
_symmetry_equiv_pos_as_xyz
'x,y,z'

loop_
_atom_site_label
_atom_site_type_symbol
_atom_site_fract_x
_atom_site_fract_y
_atom_site_fract_z
O11	O1	0.198470	0.080700	0.452980
O21	O2	0.164390	0.053300	0.494130
O31	O3	0.914130	0.720900	0.378380
O41	O4	0.987690	0.684700	0.443430
O51	O5	0.001650	0.176800	0.302510
O61	O6	0.056660	0.575600	0.294250
N11	N1	0.188980	0.374700	0.367220
N21	N2	0.200980	0.423500	0.456920
N31	N3	0.240330	0.262300	0.560700
H11	H1	0.220600	0.178400	0.554300
N41	N4	0.938230	0.593100	0.542670
N51	N5	0.933010	0.480900	0.461740
H21	H2	0.918500	0.569700	0.437400
N61	N6	0.009390	0.656400	0.560650
C11	C1	0.971250	0.281500	0.259000
H31	H3	0.956300	0.341600	0.270600
H41	H4	0.948800	0.228200	0.224400
C21	C2	0.029900	0.480700	0.302580
H51	H5	0.011700	0.542500	0.308700
H61	H6	0.049000	0.416900	0.335500
C31	C3	0.985830	0.067300	0.319160
C41	C4	0.018800	0.971100	0.360500
H71	H7	0.047900	0.978100	0.371600
C51	C5	0.008370	0.865500	0.385000
H81	H8	0.030700	0.803100	0.413500
C61	C6	0.964370	0.850800	0.367650
C71	C7	0.931920	0.942400	0.323780
H91	H9	0.902300	0.930100	0.310300
C81	C8	0.941860	0.051700	0.299160
H101	H10	0.919500	0.112500	0.270000
C91	C9	0.083290	0.681700	0.335460
C101	C10	0.090350	0.687800	0.386840
H111	H11	0.077000	0.617400	0.395800
C111	C11	0.117710	0.800300	0.424980
H121	H12	0.121700	0.806500	0.459200
C121	C12	0.139130	0.903300	0.413650
C131	C13	0.169750	0.021400	0.457070
C141	C14	0.132310	0.891900	0.362100
H131	H13	0.146900	0.959000	0.353800
C151	C15	0.104570	0.783900	0.323100
H141	H14	0.100000	0.779100	0.288500
C161	C16	0.954880	0.744800	0.398800
C171	C17	0.917910	0.346300	0.424300
H151	H15	0.885700	0.350000	0.395700
H161	H16	0.925200	0.254600	0.446200
C181	C18	0.058770	0.654500	0.603940
H171	H17	0.067400	0.565200	0.627500
H181	H18	0.068000	0.742900	0.628000
C191	C19	0.995170	0.816600	0.544400
H191	H19	0.008300	0.857300	0.526800
H201	H20	0.006300	0.875600	0.578100
C201	C20	0.944290	0.832000	0.503400
H211	H21	0.936400	0.938300	0.499100
H221	H22	0.934000	0.793700	0.466600
C211	C21	0.986060	0.597200	0.584100
H231	H23	0.996800	0.495800	0.598600
H241	H24	0.993500	0.660700	0.615400
C221	C22	0.919760	0.475500	0.500480
H251	H25	0.887400	0.480800	0.477800
H261	H26	0.928800	0.378300	0.519600
C231	C23	0.920570	0.746500	0.523300
H271	H27	0.924000	0.802200	0.553900
H281	H28	0.888900	0.740600	0.492500
C241	C24	0.168490	0.378300	0.396040
H291	H29	0.156500	0.278900	0.393900
H301	H30	0.143800	0.449400	0.377000
C251	C25	0.204700	0.526000	0.366700
H311	H31	0.179000	0.590700	0.342100
H321	H32	0.221100	0.519200	0.350900
C261	C26	0.234470	0.598600	0.424700
H331	H33	0.238000	0.705300	0.420500
H341	H34	0.263800	0.552100	0.445900
C271	C27	0.215170	0.581400	0.457300
H351	H35	0.237500	0.612800	0.496100
H361	H36	0.189600	0.648100	0.441000
C281	C28	0.179950	0.419500	0.486300
H371	H37	0.159400	0.334600	0.472500
H381	H38	0.163000	0.511700	0.478200
C291	C29	0.215380	0.404300	0.549640
H391	H39	0.235600	0.490000	0.563900
H401	H40	0.201400	0.402200	0.568600
C301	C30	0.281460	0.250700	0.620380
H411	H41	0.298300	0.343900	0.629900
H421	H42	0.272300	0.242900	0.644900
O71	O7	0.698470	0.580700	0.452980
O81	O8	0.664390	0.553300	0.494130
O91	O9	0.414130	0.220900	0.378380
O101	O10	0.487690	0.184700	0.443430
O111	O11	0.501650	0.676800	0.302510
O121	O12	0.556660	0.075600	0.294250
N71	N7	0.688980	0.874700	0.367220
N81	N8	0.700980	0.923500	0.456920
N91	N9	0.740330	0.762300	0.560700
H431	H43	0.720600	0.678400	0.554300
N101	N10	0.438230	0.093100	0.542670
N111	N11	0.433010	0.980900	0.461740
H441	H44	0.418500	0.069700	0.437400
N121	N12	0.509390	0.156400	0.560650
C311	C31	0.471250	0.781500	0.259000
H451	H45	0.456300	0.841600	0.270600
H461	H46	0.448800	0.728200	0.224400
C321	C32	0.529900	0.980700	0.302580
H471	H47	0.511700	0.042500	0.308700
H481	H48	0.549000	0.916900	0.335500
C331	C33	0.485830	0.567300	0.319160
C341	C34	0.518800	0.471100	0.360500
H491	H49	0.547900	0.478100	0.371600
C351	C35	0.508370	0.365500	0.385000
H501	H50	0.530700	0.303100	0.413500
C361	C36	0.464370	0.350800	0.367650
C371	C37	0.431920	0.442400	0.323780
H511	H51	0.402300	0.430100	0.310300
C381	C38	0.441860	0.551700	0.299160
H521	H52	0.419500	0.612500	0.270000
C391	C39	0.583290	0.181700	0.335460
C401	C40	0.590350	0.187800	0.386840
H531	H53	0.577000	0.117400	0.395800
C411	C41	0.617710	0.300300	0.424980
H541	H54	0.621700	0.306500	0.459200
C421	C42	0.639130	0.403300	0.413650
C431	C43	0.669750	0.521400	0.457070
C441	C44	0.632310	0.391900	0.362100
H551	H55	0.646900	0.459000	0.353800
C451	C45	0.604570	0.283900	0.323100
H561	H56	0.600000	0.279100	0.288500
C461	C46	0.454880	0.244800	0.398800
C471	C47	0.417910	0.846300	0.424300
H571	H57	0.385700	0.850000	0.395700
H581	H58	0.425200	0.754600	0.446200
C481	C48	0.558770	0.154500	0.603940
H591	H59	0.567400	0.065200	0.627500
H601	H60	0.568000	0.242900	0.628000
C491	C49	0.495170	0.316600	0.544400
H611	H61	0.508300	0.357300	0.526800
H621	H62	0.506300	0.375600	0.578100
C501	C50	0.444290	0.332000	0.503400
H631	H63	0.436400	0.438300	0.499100
H641	H64	0.434000	0.293700	0.466600
C511	C51	0.486060	0.097200	0.584100
H651	H65	0.496800	0.995800	0.598600
H661	H66	0.493500	0.160700	0.615400
C521	C52	0.419760	0.975500	0.500480
H671	H67	0.387400	0.980800	0.477800
H681	H68	0.428800	0.878300	0.519600
C531	C53	0.420570	0.246500	0.523300
H691	H69	0.424000	0.302200	0.553900
H701	H70	0.388900	0.240600	0.492500
C541	C54	0.668490	0.878300	0.396040
H711	H71	0.656500	0.778900	0.393900
H721	H72	0.643800	0.949400	0.377000
C551	C55	0.704700	0.026000	0.366700
H731	H73	0.679000	0.090700	0.342100
H741	H74	0.721100	0.019200	0.350900
C561	C56	0.734470	0.098600	0.424700
H751	H75	0.738000	0.205300	0.420500
H761	H76	0.763800	0.052100	0.445900
C571	C57	0.715170	0.081400	0.457300
H771	H77	0.737500	0.112800	0.496100
H781	H78	0.689600	0.148100	0.441000
C581	C58	0.679950	0.919500	0.486300
H791	H79	0.659400	0.834600	0.472500
H801	H80	0.663000	0.011700	0.478200
C591	C59	0.715380	0.904300	0.549640
H811	H81	0.735600	0.990000	0.563900
H821	H82	0.701400	0.902200	0.568600
C601	C60	0.781460	0.750700	0.620380
H831	H83	0.798300	0.843900	0.629900
H841	H84	0.772300	0.742900	0.644900
O131	O13	0.801530	0.080700	0.047020
O141	O14	0.835610	0.053300	0.005870
O151	O15	0.085870	0.720900	0.121620
O161	O16	0.012310	0.684700	0.056570
O171	O17	0.998350	0.176800	0.197490
O181	O18	0.943340	0.575600	0.205750
N131	N13	0.811020	0.374700	0.132780
N141	N14	0.799020	0.423500	0.043080
N151	N15	0.759670	0.262300	0.939300
H851	H85	0.779400	0.178400	0.945700
N161	N16	0.061770	0.593100	0.957330
N171	N17	0.066990	0.480900	0.038260
H861	H86	0.081500	0.569700	0.062600
N181	N18	0.990610	0.656400	0.939350
C611	C61	0.028750	0.281500	0.241000
H871	H87	0.043700	0.341600	0.229400
H881	H88	0.051200	0.228200	0.275600
C621	C62	0.970100	0.480700	0.197420
H891	H89	0.988300	0.542500	0.191300
H901	H90	0.951000	0.416900	0.164500
C631	C63	0.014170	0.067300	0.180840
C641	C64	0.981200	0.971100	0.139500
H911	H91	0.952100	0.978100	0.128400
C651	C65	0.991630	0.865500	0.115000
H921	H92	0.969300	0.803100	0.086500
C661	C66	0.035630	0.850800	0.132350
C671	C67	0.068080	0.942400	0.176220
H931	H93	0.097700	0.930100	0.189700
C681	C68	0.058140	0.051700	0.200840
H941	H94	0.080500	0.112500	0.230000
C691	C69	0.916710	0.681700	0.164540
C701	C70	0.909650	0.687800	0.113160
H951	H95	0.923000	0.617400	0.104200
C711	C71	0.882290	0.800300	0.075020
H961	H96	0.878300	0.806500	0.040800
C721	C72	0.860870	0.903300	0.086350
C731	C73	0.830250	0.021400	0.042930
C741	C74	0.867690	0.891900	0.137900
H971	H97	0.853100	0.959000	0.146200
C751	C75	0.895430	0.783900	0.176900
H981	H98	0.900000	0.779100	0.211500
C761	C76	0.045120	0.744800	0.101200
C771	C77	0.082090	0.346300	0.075700
H991	H99	0.114300	0.350000	0.104300
H1001	H100	0.074800	0.254600	0.053800
C781	C78	0.941230	0.654500	0.896060
H1011	H101	0.932600	0.565200	0.872500
H1021	H102	0.932000	0.742900	0.872000
C791	C79	0.004830	0.816600	0.955600
H1031	H103	0.991700	0.857300	0.973200
H1041	H104	0.993700	0.875600	0.921900
C801	C80	0.055710	0.832000	0.996600
H1051	H105	0.063600	0.938300	0.000900
H1061	H106	0.066000	0.793700	0.033400
C811	C81	0.013940	0.597200	0.915900
H1071	H107	0.003200	0.495800	0.901400
H1081	H108	0.006500	0.660700	0.884600
C821	C82	0.080240	0.475500	0.999520
H1091	H109	0.112600	0.480800	0.022200
H1101	H110	0.071200	0.378300	0.980400
C831	C83	0.079430	0.746500	0.976700
H1111	H111	0.076000	0.802200	0.946100
H1121	H112	0.111100	0.740600	0.007500
C841	C84	0.831510	0.378300	0.103960
H1131	H113	0.843500	0.278900	0.106100
H1141	H114	0.856200	0.449400	0.123000
C851	C85	0.795300	0.526000	0.133300
H1151	H115	0.821000	0.590700	0.157900
H1161	H116	0.778900	0.519200	0.149100
C861	C86	0.765530	0.598600	0.075300
H1171	H117	0.762000	0.705300	0.079500
H1181	H118	0.736200	0.552100	0.054100
C871	C87	0.784830	0.581400	0.042700
H1191	H119	0.762500	0.612800	0.003900
H1201	H120	0.810400	0.648100	0.059000
C881	C88	0.820050	0.419500	0.013700
H1211	H121	0.840600	0.334600	0.027500
H1221	H122	0.837000	0.511700	0.021800
C891	C89	0.784620	0.404300	0.950360
H1231	H123	0.764400	0.490000	0.936100
H1241	H124	0.798600	0.402200	0.931400
C901	C90	0.718540	0.250700	0.879620
H1251	H125	0.701700	0.343900	0.870100
H1261	H126	0.727700	0.242900	0.855100
O191	O19	0.301530	0.580700	0.047020
O201	O20	0.335610	0.553300	0.005870
O211	O21	0.585870	0.220900	0.121620
O221	O22	0.512310	0.184700	0.056570
O231	O23	0.498350	0.676800	0.197490
O241	O24	0.443340	0.075600	0.205750
N191	N19	0.311020	0.874700	0.132780
N201	N20	0.299020	0.923500	0.043080
N211	N21	0.259670	0.762300	0.939300
H1271	H127	0.279400	0.678400	0.945700
N221	N22	0.561770	0.093100	0.957330
N231	N23	0.566990	0.980900	0.038260
H1281	H128	0.581500	0.069700	0.062600
N241	N24	0.490610	0.156400	0.939350
C911	C91	0.528750	0.781500	0.241000
H1291	H129	0.543700	0.841600	0.229400
H1301	H130	0.551200	0.728200	0.275600
C921	C92	0.470100	0.980700	0.197420
H1311	H131	0.488300	0.042500	0.191300
H1321	H132	0.451000	0.916900	0.164500
C931	C93	0.514170	0.567300	0.180840
C941	C94	0.481200	0.471100	0.139500
H1331	H133	0.452100	0.478100	0.128400
C951	C95	0.491630	0.365500	0.115000
H1341	H134	0.469300	0.303100	0.086500
C961	C96	0.535630	0.350800	0.132350
C971	C97	0.568080	0.442400	0.176220
H1351	H135	0.597700	0.430100	0.189700
C981	C98	0.558140	0.551700	0.200840
H1361	H136	0.580500	0.612500	0.230000
C991	C99	0.416710	0.181700	0.164540
C1001	C100	0.409650	0.187800	0.113160
H1371	H137	0.423000	0.117400	0.104200
C1011	C101	0.382290	0.300300	0.075020
H1381	H138	0.378300	0.306500	0.040800
C1021	C102	0.360870	0.403300	0.086350
C1031	C103	0.330250	0.521400	0.042930
C1041	C104	0.367690	0.391900	0.137900
H1391	H139	0.353100	0.459000	0.146200
C1051	C105	0.395430	0.283900	0.176900
H1401	H140	0.400000	0.279100	0.211500
C1061	C106	0.545120	0.244800	0.101200
C1071	C107	0.582090	0.846300	0.075700
H1411	H141	0.614300	0.850000	0.104300
H1421	H142	0.574800	0.754600	0.053800
C1081	C108	0.441230	0.154500	0.896060
H1431	H143	0.432600	0.065200	0.872500
H1441	H144	0.432000	0.242900	0.872000
C1091	C109	0.504830	0.316600	0.955600
H1451	H145	0.491700	0.357300	0.973200
H1461	H146	0.493700	0.375600	0.921900
C1101	C110	0.555710	0.332000	0.996600
H1471	H147	0.563600	0.438300	0.000900
H1481	H148	0.566000	0.293700	0.033400
C1111	C111	0.513940	0.097200	0.915900
H1491	H149	0.503200	0.995800	0.901400
H1501	H150	0.506500	0.160700	0.884600
C1121	C112	0.580240	0.975500	0.999520
H1511	H151	0.612600	0.980800	0.022200
H1521	H152	0.571200	0.878300	0.980400
C1131	C113	0.579430	0.246500	0.976700
H1531	H153	0.576000	0.302200	0.946100
H1541	H154	0.611100	0.240600	0.007500
C1141	C114	0.331510	0.878300	0.103960
H1551	H155	0.343500	0.778900	0.106100
H1561	H156	0.356200	0.949400	0.123000
C1151	C115	0.295300	0.026000	0.133300
H1571	H157	0.321000	0.090700	0.157900
H1581	H158	0.278900	0.019200	0.149100
C1161	C116	0.265530	0.098600	0.075300
H1591	H159	0.262000	0.205300	0.079500
H1601	H160	0.236200	0.052100	0.054100
C1171	C117	0.284830	0.081400	0.042700
H1611	H161	0.262500	0.112800	0.003900
H1621	H162	0.310400	0.148100	0.059000
C1181	C118	0.320050	0.919500	0.013700
H1631	H163	0.340600	0.834600	0.027500
H1641	H164	0.337000	0.011700	0.021800
C1191	C119	0.284620	0.904300	0.950360
H1651	H165	0.264400	0.990000	0.936100
H1661	H166	0.298600	0.902200	0.931400
C1201	C120	0.218540	0.750700	0.879620
H1671	H167	0.201700	0.843900	0.870100
H1681	H168	0.227700	0.742900	0.855100
O251	O25	0.801530	0.919300	0.547020
O261	O26	0.835610	0.946700	0.505870
O271	O27	0.085870	0.279100	0.621620
O281	O28	0.012310	0.315300	0.556570
O291	O29	0.998350	0.823200	0.697490
O301	O30	0.943340	0.424400	0.705750
N251	N25	0.811020	0.625300	0.632780
N261	N26	0.799020	0.576500	0.543080
N271	N27	0.759670	0.737700	0.439300
H1691	H169	0.779400	0.821600	0.445700
N281	N28	0.061770	0.406900	0.457330
N291	N29	0.066990	0.519100	0.538260
H1701	H170	0.081500	0.430300	0.562600
N301	N30	0.990610	0.343600	0.439350
C1211	C121	0.028750	0.718500	0.741000
H1711	H171	0.043700	0.658400	0.729400
H1721	H172	0.051200	0.771800	0.775600
C1221	C122	0.970100	0.519300	0.697420
H1731	H173	0.988300	0.457500	0.691300
H1741	H174	0.951000	0.583100	0.664500
C1231	C123	0.014170	0.932700	0.680840
C1241	C124	0.981200	0.028900	0.639500
H1751	H175	0.952100	0.021900	0.628400
C1251	C125	0.991630	0.134500	0.615000
H1761	H176	0.969300	0.196900	0.586500
C1261	C126	0.035630	0.149200	0.632350
C1271	C127	0.068080	0.057600	0.676220
H1771	H177	0.097700	0.069900	0.689700
C1281	C128	0.058140	0.948300	0.700840
H1781	H178	0.080500	0.887500	0.730000
C1291	C129	0.916710	0.318300	0.664540
C1301	C130	0.909650	0.312200	0.613160
H1791	H179	0.923000	0.382600	0.604200
C1311	C131	0.882290	0.199700	0.575020
H1801	H180	0.878300	0.193500	0.540800
C1321	C132	0.860870	0.096700	0.586350
C1331	C133	0.830250	0.978600	0.542930
C1341	C134	0.867690	0.108100	0.637900
H1811	H181	0.853100	0.041000	0.646200
C1351	C135	0.895430	0.216100	0.676900
H1821	H182	0.900000	0.220900	0.711500
C1361	C136	0.045120	0.255200	0.601200
C1371	C137	0.082090	0.653700	0.575700
H1831	H183	0.114300	0.650000	0.604300
H1841	H184	0.074800	0.745400	0.553800
C1381	C138	0.941230	0.345500	0.396060
H1851	H185	0.932600	0.434800	0.372500
H1861	H186	0.932000	0.257100	0.372000
C1391	C139	0.004830	0.183400	0.455600
H1871	H187	0.991700	0.142700	0.473200
H1881	H188	0.993700	0.124400	0.421900
C1401	C140	0.055710	0.168000	0.496600
H1891	H189	0.063600	0.061700	0.500900
H1901	H190	0.066000	0.206300	0.533400
C1411	C141	0.013940	0.402800	0.415900
H1911	H191	0.003200	0.504200	0.401400
H1921	H192	0.006500	0.339300	0.384600
C1421	C142	0.080240	0.524500	0.499520
H1931	H193	0.112600	0.519200	0.522200
H1941	H194	0.071200	0.621700	0.480400
C1431	C143	0.079430	0.253500	0.476700
H1951	H195	0.076000	0.197800	0.446100
H1961	H196	0.111100	0.259400	0.507500
C1441	C144	0.831510	0.621700	0.603960
H1971	H197	0.843500	0.721100	0.606100
H1981	H198	0.856200	0.550600	0.623000
C1451	C145	0.795300	0.474000	0.633300
H1991	H199	0.821000	0.409300	0.657900
H2001	H200	0.778900	0.480800	0.649100
C1461	C146	0.765530	0.401400	0.575300
H2011	H201	0.762000	0.294700	0.579500
H2021	H202	0.736200	0.447900	0.554100
C1471	C147	0.784830	0.418600	0.542700
H2031	H203	0.762500	0.387200	0.503900
H2041	H204	0.810400	0.351900	0.559000
C1481	C148	0.820050	0.580500	0.513700
H2051	H205	0.840600	0.665400	0.527500
H2061	H206	0.837000	0.488300	0.521800
C1491	C149	0.784620	0.595700	0.450360
H2071	H207	0.764400	0.510000	0.436100
H2081	H208	0.798600	0.597800	0.431400
C1501	C150	0.718540	0.749300	0.379620
H2091	H209	0.701700	0.656100	0.370100
H2101	H210	0.727700	0.757100	0.355100
O311	O31	0.301530	0.419300	0.547020
O321	O32	0.335610	0.446700	0.505870
O331	O33	0.585870	0.779100	0.621620
O341	O34	0.512310	0.815300	0.556570
O351	O35	0.498350	0.323200	0.697490
O361	O36	0.443340	0.924400	0.705750
N311	N31	0.311020	0.125300	0.632780
N321	N32	0.299020	0.076500	0.543080
N331	N33	0.259670	0.237700	0.439300
H2111	H211	0.279400	0.321600	0.445700
N341	N34	0.561770	0.906900	0.457330
N351	N35	0.566990	0.019100	0.538260
H2121	H212	0.581500	0.930300	0.562600
N361	N36	0.490610	0.843600	0.439350
C1511	C151	0.528750	0.218500	0.741000
H2131	H213	0.543700	0.158400	0.729400
H2141	H214	0.551200	0.271800	0.775600
C1521	C152	0.470100	0.019300	0.697420
H2151	H215	0.488300	0.957500	0.691300
H2161	H216	0.451000	0.083100	0.664500
C1531	C153	0.514170	0.432700	0.680840
C1541	C154	0.481200	0.528900	0.639500
H2171	H217	0.452100	0.521900	0.628400
C1551	C155	0.491630	0.634500	0.615000
H2181	H218	0.469300	0.696900	0.586500
C1561	C156	0.535630	0.649200	0.632350
C1571	C157	0.568080	0.557600	0.676220
H2191	H219	0.597700	0.569900	0.689700
C1581	C158	0.558140	0.448300	0.700840
H2201	H220	0.580500	0.387500	0.730000
C1591	C159	0.416710	0.818300	0.664540
C1601	C160	0.409650	0.812200	0.613160
H2211	H221	0.423000	0.882600	0.604200
C1611	C161	0.382290	0.699700	0.575020
H2221	H222	0.378300	0.693500	0.540800
C1621	C162	0.360870	0.596700	0.586350
C1631	C163	0.330250	0.478600	0.542930
C1641	C164	0.367690	0.608100	0.637900
H2231	H223	0.353100	0.541000	0.646200
C1651	C165	0.395430	0.716100	0.676900
H2241	H224	0.400000	0.720900	0.711500
C1661	C166	0.545120	0.755200	0.601200
C1671	C167	0.582090	0.153700	0.575700
H2251	H225	0.614300	0.150000	0.604300
H2261	H226	0.574800	0.245400	0.553800
C1681	C168	0.441230	0.845500	0.396060
H2271	H227	0.432600	0.934800	0.372500
H2281	H228	0.432000	0.757100	0.372000
C1691	C169	0.504830	0.683400	0.455600
H2291	H229	0.491700	0.642700	0.473200
H2301	H230	0.493700	0.624400	0.421900
C1701	C170	0.555710	0.668000	0.496600
H2311	H231	0.563600	0.561700	0.500900
H2321	H232	0.566000	0.706300	0.533400
C1711	C171	0.513940	0.902800	0.415900
H2331	H233	0.503200	0.004200	0.401400
H2341	H234	0.506500	0.839300	0.384600
C1721	C172	0.580240	0.024500	0.499520
H2351	H235	0.612600	0.019200	0.522200
H2361	H236	0.571200	0.121700	0.480400
C1731	C173	0.579430	0.753500	0.476700
H2371	H237	0.576000	0.697800	0.446100
H2381	H238	0.611100	0.759400	0.507500
C1741	C174	0.331510	0.121700	0.603960
H2391	H239	0.343500	0.221100	0.606100
H2401	H240	0.356200	0.050600	0.623000
C1751	C175	0.295300	0.974000	0.633300
H2411	H241	0.321000	0.909300	0.657900
H2421	H242	0.278900	0.980800	0.649100
C1761	C176	0.265530	0.901400	0.575300
H2431	H243	0.262000	0.794700	0.579500
H2441	H244	0.236200	0.947900	0.554100
C1771	C177	0.284830	0.918600	0.542700
H2451	H245	0.262500	0.887200	0.503900
H2461	H246	0.310400	0.851900	0.559000
C1781	C178	0.320050	0.080500	0.513700
H2471	H247	0.340600	0.165400	0.527500
H2481	H248	0.337000	0.988300	0.521800
C1791	C179	0.284620	0.095700	0.450360
H2491	H249	0.264400	0.010000	0.436100
H2501	H250	0.298600	0.097800	0.431400
C1801	C180	0.218540	0.249300	0.379620
H2511	H251	0.201700	0.156100	0.370100
H2521	H252	0.227700	0.257100	0.355100
O371	O37	0.198470	0.919300	0.952980
O381	O38	0.164390	0.946700	0.994130
O391	O39	0.914130	0.279100	0.878380
O401	O40	0.987690	0.315300	0.943430
O411	O41	0.001650	0.823200	0.802510
O421	O42	0.056660	0.424400	0.794250
N371	N37	0.188980	0.625300	0.867220
N381	N38	0.200980	0.576500	0.956920
N391	N39	0.240330	0.737700	0.060700
H2531	H253	0.220600	0.821600	0.054300
N401	N40	0.938230	0.406900	0.042670
N411	N41	0.933010	0.519100	0.961740
H2541	H254	0.918500	0.430300	0.937400
N421	N42	0.009390	0.343600	0.060650
C1811	C181	0.971250	0.718500	0.759000
H2551	H255	0.956300	0.658400	0.770600
H2561	H256	0.948800	0.771800	0.724400
C1821	C182	0.029900	0.519300	0.802580
H2571	H257	0.011700	0.457500	0.808700
H2581	H258	0.049000	0.583100	0.835500
C1831	C183	0.985830	0.932700	0.819160
C1841	C184	0.018800	0.028900	0.860500
H2591	H259	0.047900	0.021900	0.871600
C1851	C185	0.008370	0.134500	0.885000
H2601	H260	0.030700	0.196900	0.913500
C1861	C186	0.964370	0.149200	0.867650
C1871	C187	0.931920	0.057600	0.823780
H2611	H261	0.902300	0.069900	0.810300
C1881	C188	0.941860	0.948300	0.799160
H2621	H262	0.919500	0.887500	0.770000
C1891	C189	0.083290	0.318300	0.835460
C1901	C190	0.090350	0.312200	0.886840
H2631	H263	0.077000	0.382600	0.895800
C1911	C191	0.117710	0.199700	0.924980
H2641	H264	0.121700	0.193500	0.959200
C1921	C192	0.139130	0.096700	0.913650
C1931	C193	0.169750	0.978600	0.957070
C1941	C194	0.132310	0.108100	0.862100
H2651	H265	0.146900	0.041000	0.853800
C1951	C195	0.104570	0.216100	0.823100
H2661	H266	0.100000	0.220900	0.788500
C1961	C196	0.954880	0.255200	0.898800
C1971	C197	0.917910	0.653700	0.924300
H2671	H267	0.885700	0.650000	0.895700
H2681	H268	0.925200	0.745400	0.946200
C1981	C198	0.058770	0.345500	0.103940
H2691	H269	0.067400	0.434800	0.127500
H2701	H270	0.068000	0.257100	0.128000
C1991	C199	0.995170	0.183400	0.044400
H2711	H271	0.008300	0.142700	0.026800
H2721	H272	0.006300	0.124400	0.078100
C2001	C200	0.944290	0.168000	0.003400
H2731	H273	0.936400	0.061700	0.999100
H2741	H274	0.934000	0.206300	0.966600
C2011	C201	0.986060	0.402800	0.084100
H2751	H275	0.996800	0.504200	0.098600
H2761	H276	0.993500	0.339300	0.115400
C2021	C202	0.919760	0.524500	0.000480
H2771	H277	0.887400	0.519200	0.977800
H2781	H278	0.928800	0.621700	0.019600
C2031	C203	0.920570	0.253500	0.023300
H2791	H279	0.924000	0.197800	0.053900
H2801	H280	0.888900	0.259400	0.992500
C2041	C204	0.168490	0.621700	0.896040
H2811	H281	0.156500	0.721100	0.893900
H2821	H282	0.143800	0.550600	0.877000
C2051	C205	0.204700	0.474000	0.866700
H2831	H283	0.179000	0.409300	0.842100
H2841	H284	0.221100	0.480800	0.850900
C2061	C206	0.234470	0.401400	0.924700
H2851	H285	0.238000	0.294700	0.920500
H2861	H286	0.263800	0.447900	0.945900
C2071	C207	0.215170	0.418600	0.957300
H2871	H287	0.237500	0.387200	0.996100
H2881	H288	0.189600	0.351900	0.941000
C2081	C208	0.179950	0.580500	0.986300
H2891	H289	0.159400	0.665400	0.972500
H2901	H290	0.163000	0.488300	0.978200
C2091	C209	0.215380	0.595700	0.049640
H2911	H291	0.235600	0.510000	0.063900
H2921	H292	0.201400	0.597800	0.068600
C2101	C210	0.281460	0.749300	0.120380
H2931	H293	0.298300	0.656100	0.129900
H2941	H294	0.272300	0.757100	0.144900
O431	O43	0.698470	0.419300	0.952980
O441	O44	0.664390	0.446700	0.994130
O451	O45	0.414130	0.779100	0.878380
O461	O46	0.487690	0.815300	0.943430
O471	O47	0.501650	0.323200	0.802510
O481	O48	0.556660	0.924400	0.794250
N431	N43	0.688980	0.125300	0.867220
N441	N44	0.700980	0.076500	0.956920
N451	N45	0.740330	0.237700	0.060700
H2951	H295	0.720600	0.321600	0.054300
N461	N46	0.438230	0.906900	0.042670
N471	N47	0.433010	0.019100	0.961740
H2961	H296	0.418500	0.930300	0.937400
N481	N48	0.509390	0.843600	0.060650
C2111	C211	0.471250	0.218500	0.759000
H2971	H297	0.456300	0.158400	0.770600
H2981	H298	0.448800	0.271800	0.724400
C2121	C212	0.529900	0.019300	0.802580
H2991	H299	0.511700	0.957500	0.808700
H3001	H300	0.549000	0.083100	0.835500
C2131	C213	0.485830	0.432700	0.819160
C2141	C214	0.518800	0.528900	0.860500
H3011	H301	0.547900	0.521900	0.871600
C2151	C215	0.508370	0.634500	0.885000
H3021	H302	0.530700	0.696900	0.913500
C2161	C216	0.464370	0.649200	0.867650
C2171	C217	0.431920	0.557600	0.823780
H3031	H303	0.402300	0.569900	0.810300
C2181	C218	0.441860	0.448300	0.799160
H3041	H304	0.419500	0.387500	0.770000
C2191	C219	0.583290	0.818300	0.835460
C2201	C220	0.590350	0.812200	0.886840
H3051	H305	0.577000	0.882600	0.895800
C2211	C221	0.617710	0.699700	0.924980
H3061	H306	0.621700	0.693500	0.959200
C2221	C222	0.639130	0.596700	0.913650
C2231	C223	0.669750	0.478600	0.957070
C2241	C224	0.632310	0.608100	0.862100
H3071	H307	0.646900	0.541000	0.853800
C2251	C225	0.604570	0.716100	0.823100
H3081	H308	0.600000	0.720900	0.788500
C2261	C226	0.454880	0.755200	0.898800
C2271	C227	0.417910	0.153700	0.924300
H3091	H309	0.385700	0.150000	0.895700
H3101	H310	0.425200	0.245400	0.946200
C2281	C228	0.558770	0.845500	0.103940
H3111	H311	0.567400	0.934800	0.127500
H3121	H312	0.568000	0.757100	0.128000
C2291	C229	0.495170	0.683400	0.044400
H3131	H313	0.508300	0.642700	0.026800
H3141	H314	0.506300	0.624400	0.078100
C2301	C230	0.444290	0.668000	0.003400
H3151	H315	0.436400	0.561700	0.999100
H3161	H316	0.434000	0.706300	0.966600
C2311	C231	0.486060	0.902800	0.084100
H3171	H317	0.496800	0.004200	0.098600
H3181	H318	0.493500	0.839300	0.115400
C2321	C232	0.419760	0.024500	0.000480
H3191	H319	0.387400	0.019200	0.977800
H3201	H320	0.428800	0.121700	0.019600
C2331	C233	0.420570	0.753500	0.023300
H3211	H321	0.424000	0.697800	0.053900
H3221	H322	0.388900	0.759400	0.992500
C2341	C234	0.668490	0.121700	0.896040
H3231	H323	0.656500	0.221100	0.893900
H3241	H324	0.643800	0.050600	0.877000
C2351	C235	0.704700	0.974000	0.866700
H3251	H325	0.679000	0.909300	0.842100
H3261	H326	0.721100	0.980800	0.850900
C2361	C236	0.734470	0.901400	0.924700
H3271	H327	0.738000	0.794700	0.920500
H3281	H328	0.763800	0.947900	0.945900
C2371	C237	0.715170	0.918600	0.957300
H3291	H329	0.737500	0.887200	0.996100
H3301	H330	0.689600	0.851900	0.941000
C2381	C238	0.679950	0.080500	0.986300
H3311	H331	0.659400	0.165400	0.972500
H3321	H332	0.663000	0.988300	0.978200
C2391	C239	0.715380	0.095700	0.049640
H3331	H333	0.735600	0.010000	0.063900
H3341	H334	0.701400	0.097800	0.068600
C2401	C240	0.781460	0.249300	0.120380
H3351	H335	0.798300	0.156100	0.129900
H3361	H336	0.772300	0.257100	0.144900
Ni11	Ni1	0.000000	0.500000	0.500000
Ni21	Ni2	0.500000	0.000000	0.500000
Ni31	Ni3	0.000000	0.500000	0.000000
Ni41	Ni4	0.500000	0.000000	0.000000
Ni51	Ni5	0.250000	0.250000	0.500000
Ni61	Ni6	0.750000	0.250000	0.000000
Ni71	Ni7	0.750000	0.750000	0.500000
Ni81	Ni8	0.250000	0.750000	0.000000
C2411	C241	0.000000	0.383000	0.250000
C2421	C242	0.500000	0.883000	0.250000
C2431	C243	0.000000	0.617000	0.750000
C2441	C244	0.500000	0.117000	0.750000
