data_RUYVEO_freeONLY_PM
_symmetry_space_group_name_H-M	'P1'
_cell_length_a	28.320000
_cell_length_b	28.320000
_cell_length_c	12.835000
_cell_angle_alpha	90.000000
_cell_angle_beta	90.000000
_cell_angle_gamma	120.000000
_symmetry_Int_Tables_number 1

loop_
_symmetry_equiv_pos_as_xyz
'x,y,z'

loop_
_atom_site_label
_atom_site_type_symbol
_atom_site_fract_x
_atom_site_fract_y
_atom_site_fract_z
O11	O1	0.313520	0.067600	0.242090
O21	O2	0.042930	0.310240	0.197120
O31	O3	0.081960	0.386170	0.105840
C11	C1	0.295380	0.156680	0.224030
C21	C2	0.295380	0.205050	0.224030
C31	C3	0.284980	0.299780	0.163960
C41	C4	0.284980	0.348170	0.163960
C51	C5	0.233450	0.348170	0.161070
C61	C6	0.188430	0.307670	0.210300
C71	C7	0.140080	0.307680	0.207590
C81	C8	0.136740	0.348190	0.155640
C91	C9	0.181750	0.388690	0.106410
C101	C10	0.230110	0.388670	0.109120
C111	C11	0.084860	0.348200	0.152730
H11	H1	0.267680	0.125170	0.265910
H21	H2	0.267680	0.208860	0.265910
H31	H3	0.249680	0.264480	0.161970
H41	H4	0.190870	0.278120	0.248220
H51	H5	0.107220	0.278130	0.243530
H61	H6	0.179310	0.418240	0.068490
H71	H7	0.262960	0.418230	0.073180
O41	O4	0.980190	0.400930	0.575420
O51	O5	0.709600	0.643570	0.530450
O61	O6	0.748630	0.719500	0.439170
C121	C12	0.962050	0.490010	0.557360
C131	C13	0.962050	0.538380	0.557360
C141	C14	0.951650	0.633110	0.497290
C151	C15	0.951650	0.681500	0.497290
C161	C16	0.900120	0.681500	0.494400
C171	C17	0.855100	0.641000	0.543630
C181	C18	0.806750	0.641010	0.540920
C191	C19	0.803410	0.681520	0.488970
C201	C20	0.848420	0.722020	0.439740
C211	C21	0.896780	0.722000	0.442450
C221	C22	0.751530	0.681530	0.486060
H81	H8	0.934350	0.458500	0.599240
H91	H9	0.934350	0.542190	0.599240
H101	H10	0.916350	0.597810	0.495300
H111	H11	0.857540	0.611450	0.581550
H121	H12	0.773890	0.611460	0.576860
H131	H13	0.845980	0.751570	0.401820
H141	H14	0.929630	0.751560	0.406510
O71	O7	0.646850	0.734270	0.908760
O81	O8	0.376260	0.976910	0.863790
O91	O9	0.415290	0.052840	0.772510
C231	C23	0.628710	0.823350	0.890700
C241	C24	0.628710	0.871720	0.890700
C251	C25	0.618310	0.966450	0.830630
C261	C26	0.618310	0.014840	0.830630
C271	C27	0.566780	0.014840	0.827740
C281	C28	0.521760	0.974340	0.876970
C291	C29	0.473410	0.974350	0.874260
C301	C30	0.470070	0.014860	0.822310
C311	C31	0.515080	0.055360	0.773080
C321	C32	0.563440	0.055340	0.775790
C331	C33	0.418190	0.014870	0.819400
H151	H15	0.601010	0.791840	0.932580
H161	H16	0.601010	0.875530	0.932580
H171	H17	0.583010	0.931150	0.828640
H181	H18	0.524200	0.944790	0.914890
H191	H19	0.440550	0.944800	0.910200
H201	H20	0.512640	0.084910	0.735160
H211	H21	0.596290	0.084900	0.739850
O101	O10	0.932400	0.245920	0.242090
O111	O11	0.689760	0.732690	0.197120
O121	O12	0.613830	0.695790	0.105840
C341	C34	0.843320	0.138700	0.224030
C351	C35	0.794950	0.090330	0.224030
C361	C36	0.700220	0.985200	0.163960
C371	C37	0.651830	0.936810	0.163960
C381	C38	0.651830	0.885280	0.161070
C391	C39	0.692330	0.880760	0.210300
C401	C40	0.692320	0.832400	0.207590
C411	C41	0.651810	0.788550	0.155640
C421	C42	0.611310	0.793060	0.106410
C431	C43	0.611330	0.841440	0.109120
C441	C44	0.651800	0.736660	0.152730
H221	H22	0.874830	0.142510	0.265910
H231	H23	0.791140	0.058820	0.265910
H241	H24	0.735520	0.985200	0.161970
H251	H25	0.721880	0.912750	0.248220
H261	H26	0.721870	0.829090	0.243530
H271	H27	0.581760	0.761070	0.068490
H281	H28	0.581770	0.844730	0.073180
O131	O13	0.599070	0.579250	0.575420
O141	O14	0.356430	0.066020	0.530450
O151	O15	0.280500	0.029120	0.439170
C451	C45	0.509990	0.472030	0.557360
C461	C46	0.461620	0.423660	0.557360
C471	C47	0.366890	0.318530	0.497290
C481	C48	0.318500	0.270140	0.497290
C491	C49	0.318500	0.218610	0.494400
C501	C50	0.359000	0.214090	0.543630
C511	C51	0.358990	0.165730	0.540920
C521	C52	0.318480	0.121880	0.488970
C531	C53	0.277980	0.126390	0.439740
C541	C54	0.278000	0.174770	0.442450
C551	C55	0.318470	0.069990	0.486060
H291	H29	0.541500	0.475840	0.599240
H301	H30	0.457810	0.392150	0.599240
H311	H31	0.402190	0.318530	0.495300
H321	H32	0.388550	0.246080	0.581550
H331	H33	0.388540	0.162420	0.576860
H341	H34	0.248430	0.094400	0.401820
H351	H35	0.248440	0.178060	0.406510
O161	O16	0.265730	0.912590	0.908760
O171	O17	0.023090	0.399360	0.863790
O181	O18	0.947160	0.362460	0.772510
C561	C56	0.176650	0.805370	0.890700
C571	C57	0.128280	0.757000	0.890700
C581	C58	0.033550	0.651870	0.830630
C591	C59	0.985160	0.603480	0.830630
C601	C60	0.985160	0.551950	0.827740
C611	C61	0.025660	0.547430	0.876970
C621	C62	0.025650	0.499070	0.874260
C631	C63	0.985140	0.455220	0.822310
C641	C64	0.944640	0.459730	0.773080
C651	C65	0.944660	0.508110	0.775790
C661	C66	0.985130	0.403330	0.819400
H361	H36	0.208160	0.809180	0.932580
H371	H37	0.124470	0.725490	0.932580
H381	H38	0.068850	0.651870	0.828640
H391	H39	0.055210	0.579420	0.914890
H401	H40	0.055200	0.495760	0.910200
H411	H41	0.915090	0.427740	0.735160
H421	H42	0.915100	0.511400	0.739850
O191	O19	0.754080	0.686480	0.242090
O201	O20	0.267310	0.957070	0.197120
O211	O21	0.304210	0.918040	0.105840
C671	C67	0.861300	0.704620	0.224030
C681	C68	0.909670	0.704620	0.224030
C691	C69	0.014800	0.715020	0.163960
C701	C70	0.063190	0.715020	0.163960
C711	C71	0.114720	0.766550	0.161070
C721	C72	0.119240	0.811570	0.210300
C731	C73	0.167600	0.859920	0.207590
C741	C74	0.211450	0.863260	0.155640
C751	C75	0.206940	0.818250	0.106410
C761	C76	0.158560	0.769890	0.109120
C771	C77	0.263340	0.915140	0.152730
H431	H43	0.857490	0.732320	0.265910
H441	H44	0.941180	0.732320	0.265910
H451	H45	0.014800	0.750320	0.161970
H461	H46	0.087250	0.809130	0.248220
H471	H47	0.170910	0.892780	0.243530
H481	H48	0.238930	0.820690	0.068490
H491	H49	0.155270	0.737040	0.073180
O221	O22	0.420750	0.019810	0.575420
O231	O23	0.933980	0.290400	0.530450
O241	O24	0.970880	0.251370	0.439170
C781	C78	0.527970	0.037950	0.557360
C791	C79	0.576340	0.037950	0.557360
C801	C80	0.681470	0.048350	0.497290
C811	C81	0.729860	0.048350	0.497290
C821	C82	0.781390	0.099880	0.494400
C831	C83	0.785910	0.144900	0.543630
C841	C84	0.834270	0.193250	0.540920
C851	C85	0.878120	0.196590	0.488970
C861	C86	0.873610	0.151580	0.439740
C871	C87	0.825230	0.103220	0.442450
C881	C88	0.930010	0.248470	0.486060
H501	H50	0.524160	0.065650	0.599240
H511	H51	0.607850	0.065650	0.599240
H521	H52	0.681470	0.083650	0.495300
H531	H53	0.753920	0.142460	0.581550
H541	H54	0.837580	0.226110	0.576860
H551	H55	0.905600	0.154020	0.401820
H561	H56	0.821940	0.070370	0.406510
O251	O25	0.087410	0.353150	0.908760
O261	O26	0.600640	0.623740	0.863790
O271	O27	0.637540	0.584710	0.772510
C891	C89	0.194630	0.371290	0.890700
C901	C90	0.243000	0.371290	0.890700
C911	C91	0.348130	0.381690	0.830630
C921	C92	0.396520	0.381690	0.830630
C931	C93	0.448050	0.433220	0.827740
C941	C94	0.452570	0.478240	0.876970
C951	C95	0.500930	0.526590	0.874260
C961	C96	0.544780	0.529930	0.822310
C971	C97	0.540270	0.484920	0.773080
C981	C98	0.491890	0.436560	0.775790
C991	C99	0.596670	0.581810	0.819400
H571	H57	0.190820	0.398990	0.932580
H581	H58	0.274510	0.398990	0.932580
H591	H59	0.348130	0.416990	0.828640
H601	H60	0.420580	0.475800	0.914890
H611	H61	0.504240	0.559450	0.910200
H621	H62	0.572260	0.487360	0.735160
H631	H63	0.488600	0.403710	0.739850
O281	O28	0.067600	0.313520	0.757910
O291	O29	0.310240	0.042930	0.802880
O301	O30	0.386170	0.081960	0.894160
C1001	C100	0.156680	0.295380	0.775970
C1011	C101	0.205050	0.295380	0.775970
C1021	C102	0.299780	0.284980	0.836040
C1031	C103	0.348170	0.284980	0.836040
C1041	C104	0.348170	0.233450	0.838930
C1051	C105	0.307670	0.188430	0.789700
C1061	C106	0.307680	0.140080	0.792410
C1071	C107	0.348190	0.136740	0.844360
C1081	C108	0.388690	0.181750	0.893590
C1091	C109	0.388670	0.230110	0.890880
C1101	C110	0.348200	0.084860	0.847270
H641	H64	0.125170	0.267680	0.734090
H651	H65	0.208860	0.267680	0.734090
H661	H66	0.264480	0.249680	0.838030
H671	H67	0.278120	0.190870	0.751780
H681	H68	0.278130	0.107220	0.756470
H691	H69	0.418240	0.179310	0.931510
H701	H70	0.418230	0.262960	0.926820
O311	O31	0.734270	0.646850	0.091240
O321	O32	0.976910	0.376260	0.136210
O331	O33	0.052840	0.415290	0.227490
C1111	C111	0.823350	0.628710	0.109300
C1121	C112	0.871720	0.628710	0.109300
C1131	C113	0.966450	0.618310	0.169370
C1141	C114	0.014840	0.618310	0.169370
C1151	C115	0.014840	0.566780	0.172260
C1161	C116	0.974340	0.521760	0.123030
C1171	C117	0.974350	0.473410	0.125740
C1181	C118	0.014860	0.470070	0.177690
C1191	C119	0.055360	0.515080	0.226920
C1201	C120	0.055340	0.563440	0.224210
C1211	C121	0.014870	0.418190	0.180600
H711	H71	0.791840	0.601010	0.067420
H721	H72	0.875530	0.601010	0.067420
H731	H73	0.931150	0.583010	0.171360
H741	H74	0.944790	0.524200	0.085110
H751	H75	0.944800	0.440550	0.089800
H761	H76	0.084910	0.512640	0.264840
H771	H77	0.084900	0.596290	0.260150
O341	O34	0.400930	0.980190	0.424580
O351	O35	0.643570	0.709600	0.469550
O361	O36	0.719500	0.748630	0.560830
C1221	C122	0.490010	0.962050	0.442640
C1231	C123	0.538380	0.962050	0.442640
C1241	C124	0.633110	0.951650	0.502710
C1251	C125	0.681500	0.951650	0.502710
C1261	C126	0.681500	0.900120	0.505600
C1271	C127	0.641000	0.855100	0.456370
C1281	C128	0.641010	0.806750	0.459080
C1291	C129	0.681520	0.803410	0.511030
C1301	C130	0.722020	0.848420	0.560260
C1311	C131	0.722000	0.896780	0.557550
C1321	C132	0.681530	0.751530	0.513940
H781	H78	0.458500	0.934350	0.400760
H791	H79	0.542190	0.934350	0.400760
H801	H80	0.597810	0.916350	0.504700
H811	H81	0.611450	0.857540	0.418450
H821	H82	0.611460	0.773890	0.423140
H831	H83	0.751570	0.845980	0.598180
H841	H84	0.751560	0.929630	0.593490
O371	O37	0.245920	0.932400	0.757910
O381	O38	0.732690	0.689760	0.802880
O391	O39	0.695790	0.613830	0.894160
C1331	C133	0.138700	0.843320	0.775970
C1341	C134	0.090330	0.794950	0.775970
C1351	C135	0.985200	0.700220	0.836040
C1361	C136	0.936810	0.651830	0.836040
C1371	C137	0.885280	0.651830	0.838930
C1381	C138	0.880760	0.692330	0.789700
C1391	C139	0.832400	0.692320	0.792410
C1401	C140	0.788550	0.651810	0.844360
C1411	C141	0.793060	0.611310	0.893590
C1421	C142	0.841440	0.611330	0.890880
C1431	C143	0.736660	0.651800	0.847270
H851	H85	0.142510	0.874830	0.734090
H861	H86	0.058820	0.791140	0.734090
H871	H87	0.985200	0.735520	0.838030
H881	H88	0.912750	0.721880	0.751780
H891	H89	0.829090	0.721870	0.756470
H901	H90	0.761070	0.581760	0.931510
H911	H91	0.844730	0.581770	0.926820
O401	O40	0.912590	0.265730	0.091240
O411	O41	0.399360	0.023090	0.136210
O421	O42	0.362460	0.947160	0.227490
C1441	C144	0.805370	0.176650	0.109300
C1451	C145	0.757000	0.128280	0.109300
C1461	C146	0.651870	0.033550	0.169370
C1471	C147	0.603480	0.985160	0.169370
C1481	C148	0.551950	0.985160	0.172260
C1491	C149	0.547430	0.025660	0.123030
C1501	C150	0.499070	0.025650	0.125740
C1511	C151	0.455220	0.985140	0.177690
C1521	C152	0.459730	0.944640	0.226920
C1531	C153	0.508110	0.944660	0.224210
C1541	C154	0.403330	0.985130	0.180600
H921	H92	0.809180	0.208160	0.067420
H931	H93	0.725490	0.124470	0.067420
H941	H94	0.651870	0.068850	0.171360
H951	H95	0.579420	0.055210	0.085110
H961	H96	0.495760	0.055200	0.089800
H971	H97	0.427740	0.915090	0.264840
H981	H98	0.511400	0.915100	0.260150
O431	O43	0.579250	0.599070	0.424580
O441	O44	0.066020	0.356430	0.469550
O451	O45	0.029120	0.280500	0.560830
C1551	C155	0.472030	0.509990	0.442640
C1561	C156	0.423660	0.461620	0.442640
C1571	C157	0.318530	0.366890	0.502710
C1581	C158	0.270140	0.318500	0.502710
C1591	C159	0.218610	0.318500	0.505600
C1601	C160	0.214090	0.359000	0.456370
C1611	C161	0.165730	0.358990	0.459080
C1621	C162	0.121880	0.318480	0.511030
C1631	C163	0.126390	0.277980	0.560260
C1641	C164	0.174770	0.278000	0.557550
C1651	C165	0.069990	0.318470	0.513940
H991	H99	0.475840	0.541500	0.400760
H1001	H100	0.392150	0.457810	0.400760
H1011	H101	0.318530	0.402190	0.504700
H1021	H102	0.246080	0.388550	0.418450
H1031	H103	0.162420	0.388540	0.423140
H1041	H104	0.094400	0.248430	0.598180
H1051	H105	0.178060	0.248440	0.593490
O461	O46	0.686480	0.754080	0.757910
O471	O47	0.957070	0.267310	0.802880
O481	O48	0.918040	0.304210	0.894160
C1661	C166	0.704620	0.861300	0.775970
C1671	C167	0.704620	0.909670	0.775970
C1681	C168	0.715020	0.014800	0.836040
C1691	C169	0.715020	0.063190	0.836040
C1701	C170	0.766550	0.114720	0.838930
C1711	C171	0.811570	0.119240	0.789700
C1721	C172	0.859920	0.167600	0.792410
C1731	C173	0.863260	0.211450	0.844360
C1741	C174	0.818250	0.206940	0.893590
C1751	C175	0.769890	0.158560	0.890880
C1761	C176	0.915140	0.263340	0.847270
H1061	H106	0.732320	0.857490	0.734090
H1071	H107	0.732320	0.941180	0.734090
H1081	H108	0.750320	0.014800	0.838030
H1091	H109	0.809130	0.087250	0.751780
H1101	H110	0.892780	0.170910	0.756470
H1111	H111	0.820690	0.238930	0.931510
H1121	H112	0.737040	0.155270	0.926820
O491	O49	0.353150	0.087410	0.091240
O501	O50	0.623740	0.600640	0.136210
O511	O51	0.584710	0.637540	0.227490
C1771	C177	0.371290	0.194630	0.109300
C1781	C178	0.371290	0.243000	0.109300
C1791	C179	0.381690	0.348130	0.169370
C1801	C180	0.381690	0.396520	0.169370
C1811	C181	0.433220	0.448050	0.172260
C1821	C182	0.478240	0.452570	0.123030
C1831	C183	0.526590	0.500930	0.125740
C1841	C184	0.529930	0.544780	0.177690
C1851	C185	0.484920	0.540270	0.226920
C1861	C186	0.436560	0.491890	0.224210
C1871	C187	0.581810	0.596670	0.180600
H1131	H113	0.398990	0.190820	0.067420
H1141	H114	0.398990	0.274510	0.067420
H1151	H115	0.416990	0.348130	0.171360
H1161	H116	0.475800	0.420580	0.085110
H1171	H117	0.559450	0.504240	0.089800
H1181	H118	0.487360	0.572260	0.264840
H1191	H119	0.403710	0.488600	0.260150
O521	O52	0.019810	0.420750	0.424580
O531	O53	0.290400	0.933980	0.469550
O541	O54	0.251370	0.970880	0.560830
C1881	C188	0.037950	0.527970	0.442640
C1891	C189	0.037950	0.576340	0.442640
C1901	C190	0.048350	0.681470	0.502710
C1911	C191	0.048350	0.729860	0.502710
C1921	C192	0.099880	0.781390	0.505600
C1931	C193	0.144900	0.785910	0.456370
C1941	C194	0.193250	0.834270	0.459080
C1951	C195	0.196590	0.878120	0.511030
C1961	C196	0.151580	0.873610	0.560260
C1971	C197	0.103220	0.825230	0.557550
C1981	C198	0.248470	0.930010	0.513940
H1201	H120	0.065650	0.524160	0.400760
H1211	H121	0.065650	0.607850	0.400760
H1221	H122	0.083650	0.681470	0.504700
H1231	H123	0.142460	0.753920	0.418450
H1241	H124	0.226110	0.837580	0.423140
H1251	H125	0.154020	0.905600	0.598180
H1261	H126	0.070370	0.821940	0.593490
La11	La1	0.322450	0.000000	0.000000
O551	O55	0.234110	0.000000	0.000000
La21	La2	0.989120	0.333330	0.333330
O561	O56	0.900780	0.333330	0.333330
La31	La3	0.655780	0.666670	0.666670
O571	O57	0.567440	0.666670	0.666670
La41	La4	0.000000	0.322450	0.000000
O581	O58	0.000000	0.234110	0.000000
La51	La5	0.666670	0.655780	0.333330
O591	O59	0.666670	0.567440	0.333330
La61	La6	0.333330	0.989120	0.666670
O601	O60	0.333330	0.900780	0.666670
La71	La7	0.677550	0.677550	0.000000
O611	O61	0.765890	0.765890	0.000000
La81	La8	0.344220	0.010880	0.333330
O621	O62	0.432560	0.099220	0.333330
La91	La9	0.010880	0.344220	0.666670
O631	O63	0.099220	0.432560	0.666670
C1991	C199	0.333330	0.099570	0.166670
C2001	C200	0.333330	0.151470	0.166670
C2011	C201	0.333330	0.248230	0.166670
C2021	C202	0.333330	0.299780	0.166670
C2031	C203	0.333330	0.396520	0.166670
H1271	H127	0.333330	0.431830	0.166670
C2041	C204	0.000000	0.432900	0.500000
C2051	C205	0.000000	0.484810	0.500000
C2061	C206	0.000000	0.581570	0.500000
C2071	C207	0.000000	0.633120	0.500000
C2081	C208	0.000000	0.729860	0.500000
H1281	H128	0.000000	0.765170	0.500000
C2091	C209	0.900430	0.233760	0.166670
C2101	C210	0.848530	0.181860	0.166670
C2111	C211	0.751770	0.085100	0.166670
C2121	C212	0.700220	0.033550	0.166670
C2131	C213	0.603480	0.936810	0.166670
H1291	H129	0.568170	0.901500	0.166670
C2141	C214	0.567100	0.567100	0.500000
C2151	C215	0.515190	0.515200	0.500000
C2161	C216	0.418440	0.418440	0.500000
C2171	C217	0.366880	0.366880	0.500000
C2181	C218	0.270140	0.270140	0.500000
H1301	H130	0.234830	0.234830	0.500000
C2191	C219	0.766240	0.666670	0.166670
C2201	C220	0.818140	0.666670	0.166670
C2211	C221	0.914900	0.666670	0.166670
C2221	C222	0.966450	0.666670	0.166670
C2231	C223	0.063190	0.666670	0.166670
H1311	H131	0.098500	0.666670	0.166670
C2241	C224	0.432900	0.000000	0.500000
C2251	C225	0.484810	0.000000	0.500000
C2261	C226	0.581570	0.000000	0.500000
C2271	C227	0.633120	0.000000	0.500000
C2281	C228	0.729860	0.000000	0.500000
H1321	H132	0.765170	0.000000	0.500000
C2291	C229	0.099570	0.333330	0.833330
C2301	C230	0.151470	0.333330	0.833330
C2311	C231	0.248230	0.333330	0.833330
C2321	C232	0.299780	0.333330	0.833330
C2331	C233	0.396520	0.333330	0.833330
H1331	H133	0.431830	0.333330	0.833330
C2341	C234	0.233760	0.900430	0.833330
C2351	C235	0.181860	0.848530	0.833330
C2361	C236	0.085100	0.751770	0.833330
C2371	C237	0.033550	0.700220	0.833330
C2381	C238	0.936810	0.603480	0.833330
H1341	H134	0.901500	0.568170	0.833330
C2391	C239	0.666670	0.766240	0.833330
C2401	C240	0.666670	0.818140	0.833330
C2411	C241	0.666670	0.914900	0.833330
C2421	C242	0.666670	0.966450	0.833330
C2431	C243	0.666670	0.063190	0.833330
H1351	H135	0.666670	0.098500	0.833330
