data_SAKRAZ_freeONLY_PM
_symmetry_space_group_name_H-M	'P1'
_cell_length_a	10.334000
_cell_length_b	11.672000
_cell_length_c	20.341000
_cell_angle_alpha	90.000000
_cell_angle_beta	90.000000
_cell_angle_gamma	90.000000
_symmetry_Int_Tables_number 1

loop_
_symmetry_equiv_pos_as_xyz
'x,y,z'

loop_
_atom_site_label
_atom_site_type_symbol
_atom_site_fract_x
_atom_site_fract_y
_atom_site_fract_z
Zn11	Zn1	0.152690	0.674870	0.011470
Zn21	Zn2	0.465620	0.580530	0.007170
Zn31	Zn3	0.347310	0.325130	0.511470
Zn41	Zn4	0.034380	0.419470	0.507170
Zn51	Zn5	0.847310	0.174870	0.488540
Zn61	Zn6	0.534380	0.080530	0.492830
Zn71	Zn7	0.652690	0.825130	0.988540
Zn81	Zn8	0.965620	0.919470	0.992830
H11	H1	0.064100	0.560700	0.821900
H21	H2	0.440000	0.471900	0.808000
H31	H3	0.034800	0.514600	0.711400
H41	H4	0.411900	0.432000	0.697600
H51	H5	0.244100	0.972300	0.987200
H61	H6	0.156700	0.946700	0.881600
H71	H7	0.308200	0.946700	0.878200
H81	H8	0.231900	0.830800	0.874400
H91	H9	0.456700	0.360000	0.928000
H101	H10	0.454700	0.187800	0.879400
H111	H11	0.593400	0.133400	0.880000
H121	H12	0.485400	0.084900	0.926400
H131	H13	0.676100	0.256300	0.036400
H141	H14	0.629100	0.129400	0.028100
H151	H15	0.737200	0.178400	0.981800
H161	H16	0.435900	0.439300	0.321900
H171	H17	0.060000	0.528100	0.308000
H181	H18	0.465200	0.485400	0.211400
H191	H19	0.088100	0.568000	0.197600
H201	H20	0.255900	0.027700	0.487200
H211	H21	0.343300	0.053300	0.381600
H221	H22	0.191800	0.053300	0.378200
H231	H23	0.268100	0.169200	0.374400
H241	H24	0.043300	0.640000	0.428000
H251	H25	0.045300	0.812200	0.379400
H261	H26	0.906600	0.866600	0.380000
H271	H27	0.014600	0.915100	0.426400
H281	H28	0.823900	0.743700	0.536400
H291	H29	0.870900	0.870600	0.528100
H301	H30	0.762800	0.821600	0.481800
H311	H31	0.935900	0.060700	0.678100
H321	H32	0.560000	0.971900	0.692000
H331	H33	0.965200	0.014600	0.788600
H341	H34	0.588100	0.932000	0.802400
H351	H35	0.755900	0.472300	0.512800
H361	H36	0.843300	0.446700	0.618400
H371	H37	0.691800	0.446700	0.621800
H381	H38	0.768100	0.330800	0.625600
H391	H39	0.543300	0.860000	0.572000
H401	H40	0.545300	0.687800	0.620600
H411	H41	0.406600	0.633400	0.620000
H421	H42	0.514600	0.584900	0.573600
H431	H43	0.323900	0.756300	0.463600
H441	H44	0.370900	0.629400	0.471900
H451	H45	0.262800	0.678400	0.518200
H461	H46	0.564100	0.939300	0.178100
H471	H47	0.940000	0.028100	0.192000
H481	H48	0.534800	0.985400	0.288600
H491	H49	0.911900	0.068000	0.302400
H501	H50	0.744100	0.527700	0.012800
H511	H51	0.656700	0.553300	0.118400
H521	H52	0.808200	0.553300	0.121800
H531	H53	0.731900	0.669200	0.125600
H541	H54	0.956700	0.140000	0.072000
H551	H55	0.954700	0.312200	0.120600
H561	H56	0.093400	0.366600	0.120000
H571	H57	0.985400	0.415100	0.073600
H581	H58	0.176100	0.243700	0.963600
H591	H59	0.129100	0.370600	0.971900
H601	H60	0.237200	0.321600	0.018200
C11	C1	0.276300	0.556400	0.896130
C21	C2	0.256100	0.524200	0.825490
C31	C3	0.133700	0.535200	0.796880
C41	C4	0.359500	0.482700	0.788400
C51	C5	0.116100	0.507900	0.730600
C61	C6	0.342400	0.457600	0.722640
C71	C7	0.221000	0.470700	0.693640
C81	C8	0.205200	0.445900	0.620830
C91	C9	0.362500	0.831200	0.987430
C101	C10	0.240000	0.895100	0.968350
C111	C11	0.233600	0.905800	0.893720
C121	C12	0.515400	0.338900	0.960520
C131	C13	0.519800	0.153000	0.906500
C141	C14	0.659100	0.196400	0.005300
C151	C15	0.223700	0.443600	0.396130
C161	C16	0.243900	0.475800	0.325490
C171	C17	0.366300	0.464800	0.296880
C181	C18	0.140500	0.517300	0.288400
C191	C19	0.383900	0.492100	0.230600
C201	C20	0.157600	0.542400	0.222640
C211	C21	0.279000	0.529300	0.193640
C221	C22	0.294800	0.554100	0.120830
C231	C23	0.137500	0.168800	0.487430
C241	C24	0.260000	0.104900	0.468350
C251	C25	0.266400	0.094200	0.393720
C261	C26	0.984600	0.661100	0.460520
C271	C27	0.980200	0.847000	0.406500
C281	C28	0.840900	0.803600	0.505300
C291	C29	0.723700	0.056400	0.603870
C301	C30	0.743900	0.024200	0.674510
C311	C31	0.866300	0.035200	0.703120
C321	C32	0.640500	0.982700	0.711600
C331	C33	0.883900	0.007900	0.769400
C341	C34	0.657600	0.957600	0.777360
C351	C35	0.779000	0.970700	0.806360
C361	C36	0.794800	0.945900	0.879170
C371	C37	0.637500	0.331200	0.512570
C381	C38	0.760000	0.395100	0.531650
C391	C39	0.766400	0.405800	0.606280
C401	C40	0.484600	0.838900	0.539480
C411	C41	0.480200	0.653000	0.593500
C421	C42	0.340900	0.696400	0.494700
C431	C43	0.776300	0.943600	0.103870
C441	C44	0.756100	0.975800	0.174510
C451	C45	0.633700	0.964800	0.203120
C461	C46	0.859500	0.017300	0.211600
C471	C47	0.616100	0.992100	0.269400
C481	C48	0.842400	0.042400	0.277360
C491	C49	0.721000	0.029300	0.306360
C501	C50	0.705200	0.054100	0.379170
C511	C51	0.862500	0.668800	0.012570
C521	C52	0.740000	0.604900	0.031650
C531	C53	0.733600	0.594200	0.106280
C541	C54	0.015400	0.161100	0.039480
C551	C55	0.019800	0.347000	0.093500
C561	C56	0.159100	0.303600	0.994700
N11	N1	0.559700	0.234500	0.958600
N21	N2	0.940300	0.765500	0.458600
N31	N3	0.440300	0.734500	0.541400
N41	N4	0.059700	0.265500	0.041400
O11	O1	0.176600	0.582900	0.928990
O21	O2	0.390900	0.553800	0.917030
O31	O3	0.094800	0.460100	0.596660
O41	O4	0.305600	0.416200	0.590970
O51	O5	0.350400	0.731240	0.009840
O61	O6	0.468700	0.880300	0.975860
O71	O7	0.129300	0.838660	0.994210
O81	O8	0.544500	0.412810	0.001770
O91	O9	0.323400	0.417100	0.428990
O101	O10	0.109100	0.446200	0.417030
O111	O11	0.405200	0.539900	0.096660
O121	O12	0.194400	0.583800	0.090970
O131	O13	0.149600	0.268760	0.509840
O141	O14	0.031300	0.119700	0.475860
O151	O15	0.370700	0.161340	0.494210
O161	O16	0.955500	0.587190	0.501770
O171	O17	0.823400	0.082900	0.571010
O181	O18	0.609100	0.053800	0.582970
O191	O19	0.905200	0.960100	0.903340
O201	O20	0.694400	0.916200	0.909030
O211	O21	0.649600	0.231240	0.490160
O221	O22	0.531300	0.380300	0.524140
O231	O23	0.870700	0.338660	0.505790
O241	O24	0.455500	0.912810	0.498230
O251	O25	0.676600	0.917100	0.071010
O261	O26	0.890900	0.946200	0.082970
O271	O27	0.594800	0.039900	0.403340
O281	O28	0.805600	0.083800	0.409030
O291	O29	0.850400	0.768760	0.990160
O301	O30	0.968700	0.619700	0.024140
O311	O31	0.629300	0.661340	0.005790
O321	O32	0.044500	0.087190	0.998230
