data_SEJBAL_freeONLY_PM
_symmetry_space_group_name_H-M	'P1'
_cell_length_a	8.242020
_cell_length_b	11.259000
_cell_length_c	12.898100
_cell_angle_alpha	104.239000
_cell_angle_beta	108.633000
_cell_angle_gamma	90.000000
_symmetry_Int_Tables_number 1

loop_
_symmetry_equiv_pos_as_xyz
'x,y,z'

loop_
_atom_site_label
_atom_site_type_symbol
_atom_site_fract_x
_atom_site_fract_y
_atom_site_fract_z
Ni11	Ni1	0.491440	0.436740	0.371300
Ni21	Ni2	0.120140	0.563260	0.628700
H11	H1	0.998500	0.700700	0.356800
H21	H2	0.926400	0.787900	0.205200
H31	H3	0.707500	0.693300	0.039800
H41	H4	0.320300	0.598000	0.223400
H51	H5	0.314200	0.795600	0.216800
H61	H6	0.661800	0.889500	0.528600
H71	H7	0.648500	0.689400	0.529000
H81	H8	0.736200	0.255300	0.464000
H91	H9	0.739000	0.054200	0.469600
H101	H10	0.253100	0.993000	0.261800
H111	H11	0.264600	0.197000	0.258200
H121	H12	0.199200	0.498300	0.348000
H131	H13	0.184300	0.383300	0.277600
H141	H14	0.641700	0.299300	0.643200
H151	H15	0.721200	0.212100	0.794800
H161	H16	0.667700	0.306700	0.960200
H171	H17	0.096900	0.402000	0.776600
H181	H18	0.097400	0.204400	0.783200
H191	H19	0.133200	0.110500	0.471400
H201	H20	0.119500	0.310600	0.471000
H211	H21	0.272200	0.744700	0.536000
H221	H22	0.269400	0.945800	0.530400
H231	H23	0.991300	0.007000	0.738200
H241	H24	0.006400	0.803000	0.741800
H251	H25	0.851200	0.501700	0.652000
H261	H26	0.906700	0.616700	0.722400
C11	C1	0.643200	0.555300	0.096600
C21	C2	0.683900	0.500300	0.188600
C31	C3	0.816300	0.558800	0.287000
C41	C4	0.907600	0.664100	0.291400
C51	C5	0.865900	0.715800	0.200200
C61	C6	0.734300	0.660200	0.101800
C71	C7	0.585400	0.382700	0.177600
C81	C8	0.860400	0.509600	0.391200
C91	C9	0.389800	0.657500	0.285800
C101	C10	0.387900	0.775600	0.280200
C111	C11	0.496400	0.868800	0.369600
C121	C12	0.592000	0.831900	0.464800
C131	C13	0.583000	0.711200	0.464200
C141	C14	0.637000	0.203000	0.423000
C151	C15	0.639300	0.080700	0.426400
C161	C16	0.500600	0.999000	0.368400
C171	C17	0.352900	0.044400	0.303400
C181	C18	0.360700	0.168300	0.303000
C191	C19	0.546600	0.444700	0.903400
C201	C20	0.495300	0.499700	0.811400
C211	C21	0.529300	0.441200	0.713000
C221	C22	0.616200	0.335900	0.708600
C231	C23	0.665700	0.284200	0.799800
C241	C24	0.632500	0.339800	0.898200
C251	C25	0.407800	0.617300	0.822400
C261	C26	0.469200	0.490400	0.608800
C271	C27	0.104000	0.342500	0.714200
C281	C28	0.107700	0.224400	0.719800
C291	C29	0.126800	0.131200	0.630400
C301	C30	0.127200	0.168100	0.535200
C311	C31	0.118800	0.288800	0.535800
C321	C32	0.214000	0.797000	0.577000
C331	C33	0.212900	0.919300	0.573600
C341	C34	0.132200	0.001000	0.631600
C351	C35	0.049500	0.955600	0.696600
C361	C36	0.057700	0.831700	0.697000
N11	N1	0.486020	0.620700	0.376240
N21	N2	0.499310	0.248900	0.364020
N31	N3	0.109780	0.379300	0.623760
N41	N4	0.135290	0.751100	0.635980
O11	O1	0.444710	0.386100	0.197220
O21	O2	0.644050	0.284400	0.138900
O31	O3	0.753520	0.448000	0.408240
O41	O4	0.013370	0.537600	0.456940
O51	O5	0.233510	0.426500	0.341620
O61	O6	0.247490	0.613900	0.802780
O71	O7	0.505150	0.715600	0.861100
O81	O8	0.345280	0.552000	0.591760
O91	O9	0.556430	0.462400	0.543060
O101	O10	0.891890	0.573500	0.658380
O111	O11	0.503600	0.500000	0.000000
