data_SEQSOY_freeONLY_PM
_symmetry_space_group_name_H-M	'P1'
_cell_length_a	11.077800
_cell_length_b	11.077800
_cell_length_c	27.879300
_cell_angle_alpha	90.000000
_cell_angle_beta	90.000000
_cell_angle_gamma	120.000000
_symmetry_Int_Tables_number 1

loop_
_symmetry_equiv_pos_as_xyz
'x,y,z'

loop_
_atom_site_label
_atom_site_type_symbol
_atom_site_fract_x
_atom_site_fract_y
_atom_site_fract_z
Co11	Co1	0.920150	0.170750	0.029200
Co21	Co2	0.250600	0.079850	0.362530
Co31	Co3	0.829250	0.749400	0.695860
Co41	Co4	0.749400	0.829250	0.970800
Co51	Co5	0.170750	0.920150	0.637470
Co61	Co6	0.079850	0.250600	0.304140
H11	H1	0.935700	0.441400	0.000300
H21	H2	0.657400	0.502400	0.072300
H31	H3	0.745100	0.207800	0.110600
H41	H4	0.689000	0.245400	0.184600
H51	H5	0.544700	0.197100	0.250300
H61	H6	0.301100	0.297100	0.174500
H71	H7	0.444700	0.347300	0.108900
H81	H8	0.505700	0.064300	0.333630
H91	H9	0.845000	0.342600	0.405630
H101	H10	0.462700	0.254900	0.443930
H111	H11	0.556400	0.311000	0.517930
H121	H12	0.652400	0.455300	0.583630
H131	H13	0.996000	0.698900	0.507830
H141	H14	0.902600	0.555300	0.442230
H151	H15	0.558600	0.494300	0.666970
H161	H16	0.497600	0.155000	0.738970
H171	H17	0.792200	0.537300	0.777270
H181	H18	0.754600	0.443600	0.851270
H191	H19	0.802900	0.347600	0.916970
H201	H20	0.702900	0.004000	0.841170
H211	H21	0.652700	0.097400	0.775570
H221	H22	0.494300	0.558600	0.999700
H231	H23	0.155000	0.497600	0.927700
H241	H24	0.537300	0.792200	0.889400
H251	H25	0.443600	0.754600	0.815400
H261	H26	0.347600	0.802900	0.749700
H271	H27	0.004000	0.702900	0.825500
H281	H28	0.097400	0.652700	0.891100
H291	H29	0.441400	0.935700	0.666370
H301	H30	0.502400	0.657400	0.594370
H311	H31	0.207800	0.745100	0.556070
H321	H32	0.245400	0.689000	0.482070
H331	H33	0.197100	0.544700	0.416370
H341	H34	0.297100	0.301100	0.492170
H351	H35	0.347300	0.444700	0.557770
H361	H36	0.064300	0.505700	0.333030
H371	H37	0.342600	0.845000	0.261030
H381	H38	0.254900	0.462700	0.222730
H391	H39	0.311000	0.556400	0.148730
H401	H40	0.455300	0.652400	0.083030
H411	H41	0.698900	0.996000	0.158830
H421	H42	0.555300	0.902600	0.224430
C11	C1	0.870900	0.416600	0.024960
C21	C2	0.800900	0.490900	0.030230
C31	C3	0.705700	0.454600	0.067940
C41	C4	0.683700	0.347900	0.098590
C51	C5	0.758600	0.279400	0.089990
C61	C6	0.586500	0.307500	0.140040
C71	C7	0.612500	0.258500	0.182540
C81	C8	0.525400	0.228900	0.222030
C91	C9	0.411000	0.246300	0.219690
C101	C10	0.380400	0.288800	0.176790
C111	C11	0.466600	0.319000	0.137440
C121	C12	0.826800	0.604900	0.995010
C131	C13	0.320800	0.224300	0.263630
C141	C14	0.545700	0.129100	0.358290
C151	C15	0.690000	0.199100	0.363560
C161	C16	0.748900	0.294300	0.401270
C171	C17	0.664200	0.316300	0.431920
C181	C18	0.520800	0.241400	0.423320
C191	C19	0.721000	0.413500	0.473370
C201	C20	0.646000	0.387500	0.515870
C211	C21	0.703500	0.474600	0.555360
C221	C22	0.835300	0.589000	0.553020
C231	C23	0.908400	0.619600	0.510120
C241	C24	0.852400	0.533400	0.470770
C251	C25	0.778100	0.173200	0.328340
C261	C26	0.903500	0.679200	0.596960
C271	C27	0.583400	0.454300	0.691630
C281	C28	0.509100	0.310000	0.696900
C291	C29	0.545400	0.251100	0.734610
C301	C30	0.652100	0.335800	0.765260
C311	C31	0.720600	0.479200	0.756660
C321	C32	0.692500	0.279000	0.806710
C331	C33	0.741500	0.354000	0.849210
C341	C34	0.771100	0.296500	0.888700
C351	C35	0.753700	0.164700	0.886360
C361	C36	0.711200	0.091600	0.843460
C371	C37	0.681000	0.147600	0.804110
C381	C38	0.395100	0.221900	0.661680
C391	C39	0.775700	0.096500	0.930300
C401	C40	0.454300	0.583400	0.975040
C411	C41	0.310000	0.509100	0.969770
C421	C42	0.251100	0.545400	0.932060
C431	C43	0.335800	0.652100	0.901410
C441	C44	0.479200	0.720600	0.910010
C451	C45	0.279000	0.692500	0.859960
C461	C46	0.354000	0.741500	0.817460
C471	C47	0.296500	0.771100	0.777970
C481	C48	0.164700	0.753700	0.780310
C491	C49	0.091600	0.711200	0.823210
C501	C50	0.147600	0.681000	0.862560
C511	C51	0.221900	0.395100	0.004990
C521	C52	0.096500	0.775700	0.736370
C531	C53	0.416600	0.870900	0.641710
C541	C54	0.490900	0.800900	0.636440
C551	C55	0.454600	0.705700	0.598730
C561	C56	0.347900	0.683700	0.568080
C571	C57	0.279400	0.758600	0.576680
C581	C58	0.307500	0.586500	0.526630
C591	C59	0.258500	0.612500	0.484130
C601	C60	0.228900	0.525400	0.444640
C611	C61	0.246300	0.411000	0.446980
C621	C62	0.288800	0.380400	0.489880
C631	C63	0.319000	0.466600	0.529230
C641	C64	0.604900	0.826800	0.671660
C651	C65	0.224300	0.320800	0.403040
C661	C66	0.129100	0.545700	0.308370
C671	C67	0.199100	0.690000	0.303100
C681	C68	0.294300	0.748900	0.265390
C691	C69	0.316300	0.664200	0.234740
C701	C70	0.241400	0.520800	0.243340
C711	C71	0.413500	0.721000	0.193290
C721	C72	0.387500	0.646000	0.150790
C731	C73	0.474600	0.703500	0.111300
C741	C74	0.589000	0.835300	0.113640
C751	C75	0.619600	0.908400	0.156540
C761	C76	0.533400	0.852400	0.195890
C771	C77	0.173200	0.778100	0.338320
C781	C78	0.679200	0.903500	0.069700
N11	N1	0.849000	0.311300	0.053700
N21	N2	0.462300	0.151000	0.387030
N31	N3	0.688700	0.537700	0.720370
N41	N4	0.537700	0.688700	0.946300
N51	N5	0.311300	0.849000	0.612970
N61	N6	0.151000	0.462300	0.279630
O11	O1	0.903600	0.622600	0.960220
O21	O2	0.768400	0.675400	0.005300
O31	O3	0.353500	0.185500	0.301210
O41	O4	0.224000	0.248900	0.258840
O51	O5	0.057900	0.203500	0.088130
O61	O6	0.719000	0.096400	0.293550
O71	O7	0.907000	0.231600	0.338630
O81	O8	0.832000	0.646500	0.634540
O91	O9	0.024900	0.776000	0.592170
O101	O10	0.145600	0.942100	0.421460
O111	O11	0.377400	0.281000	0.626890
O121	O12	0.324600	0.093000	0.671970
O131	O13	0.814500	0.168000	0.967880
O141	O14	0.751100	0.975100	0.925510
O151	O15	0.796500	0.854400	0.754800
O161	O16	0.281000	0.377400	0.039780
O171	O17	0.093000	0.324600	0.994700
O181	O18	0.168000	0.814500	0.698790
O191	O19	0.975100	0.751100	0.741160
O201	O20	0.854400	0.796500	0.911870
O211	O21	0.622600	0.903600	0.706450
O221	O22	0.675400	0.768400	0.661370
O231	O23	0.185500	0.353500	0.365460
O241	O24	0.248900	0.224000	0.407830
O251	O25	0.203500	0.057900	0.578540
O261	O26	0.096400	0.719000	0.373110
O271	O27	0.231600	0.907000	0.328030
O281	O28	0.646500	0.832000	0.032120
O291	O29	0.776000	0.024900	0.074490
O301	O30	0.942100	0.145600	0.245200
