data_SERJUV_freeONLY_PM
_symmetry_space_group_name_H-M	'P1'
_cell_length_a	8.508300
_cell_length_b	15.704000
_cell_length_c	28.452000
_cell_angle_alpha	90.000000
_cell_angle_beta	90.000000
_cell_angle_gamma	90.000000
_symmetry_Int_Tables_number 1

loop_
_symmetry_equiv_pos_as_xyz
'x,y,z'

loop_
_atom_site_label
_atom_site_type_symbol
_atom_site_fract_x
_atom_site_fract_y
_atom_site_fract_z
Y11	Y1	0.973780	0.801420	0.584860
Y21	Y2	0.526220	0.301420	0.415140
Y31	Y3	0.026220	0.198580	0.084860
Y41	Y4	0.473780	0.698580	0.915140
Y51	Y5	0.026220	0.198580	0.415140
Y61	Y6	0.473780	0.698580	0.584860
Y71	Y7	0.973780	0.801420	0.915140
Y81	Y8	0.526220	0.301420	0.084860
H11	H1	0.898700	0.464300	0.398400
H21	H2	0.277300	0.526400	0.476300
H31	H3	0.902400	0.681800	0.464700
H41	H4	0.326300	0.595500	0.680700
H51	H5	0.996600	0.155200	0.555000
H61	H6	0.096000	0.190500	0.598600
H71	H7	0.908900	0.200800	0.597900
H81	H8	0.601300	0.964300	0.601600
H91	H9	0.222700	0.026400	0.523700
H101	H10	0.597600	0.181800	0.535300
H111	H11	0.173700	0.095500	0.319300
H121	H12	0.503400	0.655200	0.445000
H131	H13	0.404000	0.690500	0.401400
H141	H14	0.591100	0.700800	0.402100
H151	H15	0.101300	0.535700	0.898400
H161	H16	0.722700	0.473600	0.976300
H171	H17	0.097600	0.318200	0.964700
H181	H18	0.673700	0.404500	0.180700
H191	H19	0.003400	0.844800	0.055000
H201	H20	0.904000	0.809500	0.098600
H211	H21	0.091100	0.799200	0.097900
H221	H22	0.398700	0.035700	0.101600
H231	H23	0.777300	0.973600	0.023700
H241	H24	0.402400	0.818200	0.035300
H251	H25	0.826300	0.904500	0.819300
H261	H26	0.496600	0.344800	0.945000
H271	H27	0.596000	0.309500	0.901400
H281	H28	0.408900	0.299200	0.902100
H291	H29	0.101300	0.535700	0.601600
H301	H30	0.722700	0.473600	0.523700
H311	H31	0.097600	0.318200	0.535300
H321	H32	0.673700	0.404500	0.319300
H331	H33	0.003400	0.844800	0.445000
H341	H34	0.904000	0.809500	0.401400
H351	H35	0.091100	0.799200	0.402100
H361	H36	0.398700	0.035700	0.398400
H371	H37	0.777300	0.973600	0.476300
H381	H38	0.402400	0.818200	0.464700
H391	H39	0.826300	0.904500	0.680700
H401	H40	0.496600	0.344800	0.555000
H411	H41	0.596000	0.309500	0.598600
H421	H42	0.408900	0.299200	0.597900
H431	H43	0.898700	0.464300	0.101600
H441	H44	0.277300	0.526400	0.023700
H451	H45	0.902400	0.681800	0.035300
H461	H46	0.326300	0.595500	0.819300
H471	H47	0.996600	0.155200	0.945000
H481	H48	0.096000	0.190500	0.901400
H491	H49	0.908900	0.200800	0.902100
H501	H50	0.601300	0.964300	0.898400
H511	H51	0.222700	0.026400	0.976300
H521	H52	0.597600	0.181800	0.964700
H531	H53	0.173700	0.095500	0.180700
H541	H54	0.503400	0.655200	0.055000
H551	H55	0.404000	0.690500	0.098600
H561	H56	0.591100	0.700800	0.097900
H571	H57	0.103200	0.782900	0.750000
H581	H58	0.396800	0.282900	0.250000
H591	H59	0.896800	0.217100	0.250000
H601	H60	0.603200	0.717100	0.750000
C11	C1	0.951400	0.503800	0.418160
C21	C2	0.099200	0.482200	0.434780
C31	C3	0.175700	0.539100	0.464330
C41	C4	0.102100	0.614000	0.475950
C51	C5	0.953100	0.629800	0.456730
C61	C6	0.172700	0.676400	0.510580
C71	C7	0.170800	0.398000	0.423960
C81	C8	0.295200	0.620500	0.709640
C91	C9	0.210500	0.695500	0.707960
C101	C10	0.166500	0.733300	0.662010
C111	C11	0.944200	0.012000	0.589400
C121	C12	0.996800	0.163800	0.589100
C131	C13	0.928900	0.085300	0.664400
C141	C14	0.548600	0.003800	0.581840
C151	C15	0.400800	0.982200	0.565220
C161	C16	0.324300	0.039100	0.535670
C171	C17	0.397900	0.114000	0.524050
C181	C18	0.546900	0.129800	0.543270
C191	C19	0.327300	0.176400	0.489420
C201	C20	0.329200	0.898000	0.576040
C211	C21	0.204800	0.120500	0.290360
C221	C22	0.289500	0.195500	0.292040
C231	C23	0.333500	0.233300	0.337990
C241	C24	0.555800	0.512000	0.410600
C251	C25	0.503200	0.663800	0.410900
C261	C26	0.571100	0.585300	0.335600
C271	C27	0.048600	0.496200	0.918160
C281	C28	0.900800	0.517800	0.934780
C291	C29	0.824300	0.460900	0.964330
C301	C30	0.897900	0.386000	0.975950
C311	C31	0.046900	0.370200	0.956730
C321	C32	0.827300	0.323600	0.010580
C331	C33	0.829200	0.602000	0.923960
C341	C34	0.704800	0.379500	0.209640
C351	C35	0.789500	0.304500	0.207960
C361	C36	0.833500	0.266700	0.162010
C371	C37	0.055800	0.988000	0.089400
C381	C38	0.003200	0.836200	0.089100
C391	C39	0.071100	0.914700	0.164400
C401	C40	0.451400	0.996200	0.081840
C411	C41	0.599200	0.017800	0.065220
C421	C42	0.675700	0.960900	0.035670
C431	C43	0.602100	0.886000	0.024050
C441	C44	0.453100	0.870200	0.043270
C451	C45	0.672700	0.823600	0.989420
C461	C46	0.670800	0.102000	0.076040
C471	C47	0.795200	0.879500	0.790360
C481	C48	0.710500	0.804500	0.792040
C491	C49	0.666500	0.766700	0.837990
C501	C50	0.444200	0.488000	0.910600
C511	C51	0.496800	0.336200	0.910900
C521	C52	0.428900	0.414700	0.835600
C531	C53	0.048600	0.496200	0.581840
C541	C54	0.900800	0.517800	0.565220
C551	C55	0.824300	0.460900	0.535670
C561	C56	0.897900	0.386000	0.524050
C571	C57	0.046900	0.370200	0.543270
C581	C58	0.827300	0.323600	0.489420
C591	C59	0.829200	0.602000	0.576040
C601	C60	0.704800	0.379500	0.290360
C611	C61	0.789500	0.304500	0.292040
C621	C62	0.833500	0.266700	0.337990
C631	C63	0.055800	0.988000	0.410600
C641	C64	0.003200	0.836200	0.410900
C651	C65	0.071100	0.914700	0.335600
C661	C66	0.451400	0.996200	0.418160
C671	C67	0.599200	0.017800	0.434780
C681	C68	0.675700	0.960900	0.464330
C691	C69	0.602100	0.886000	0.475950
C701	C70	0.453100	0.870200	0.456730
C711	C71	0.672700	0.823600	0.510580
C721	C72	0.670800	0.102000	0.423960
C731	C73	0.795200	0.879500	0.709640
C741	C74	0.710500	0.804500	0.707960
C751	C75	0.666500	0.766700	0.662010
C761	C76	0.444200	0.488000	0.589400
C771	C77	0.496800	0.336200	0.589100
C781	C78	0.428900	0.414700	0.664400
C791	C79	0.951400	0.503800	0.081840
C801	C80	0.099200	0.482200	0.065220
C811	C81	0.175700	0.539100	0.035670
C821	C82	0.102100	0.614000	0.024050
C831	C83	0.953100	0.629800	0.043270
C841	C84	0.172700	0.676400	0.989420
C851	C85	0.170800	0.398000	0.076040
C861	C86	0.295200	0.620500	0.790360
C871	C87	0.210500	0.695500	0.792040
C881	C88	0.166500	0.733300	0.837990
C891	C89	0.944200	0.012000	0.910600
C901	C90	0.996800	0.163800	0.910900
C911	C91	0.928900	0.085300	0.835600
C921	C92	0.548600	0.003800	0.918160
C931	C93	0.400800	0.982200	0.934780
C941	C94	0.324300	0.039100	0.964330
C951	C95	0.397900	0.114000	0.975950
C961	C96	0.546900	0.129800	0.956730
C971	C97	0.327300	0.176400	0.010580
C981	C98	0.329200	0.898000	0.923960
C991	C99	0.204800	0.120500	0.209640
C1001	C100	0.289500	0.195500	0.207960
C1011	C101	0.333500	0.233300	0.162010
C1021	C102	0.555800	0.512000	0.089400
C1031	C103	0.503200	0.663800	0.089100
C1041	C104	0.571100	0.585300	0.164400
C1051	C105	0.165000	0.732600	0.750000
C1061	C106	0.335000	0.232600	0.250000
C1071	C107	0.835000	0.267400	0.250000
C1081	C108	0.665000	0.767400	0.750000
N11	N1	0.878900	0.576800	0.428250
N21	N2	0.980100	0.080200	0.613140
N31	N3	0.621100	0.076800	0.571750
N41	N4	0.519900	0.580200	0.386860
N51	N5	0.121100	0.423200	0.928250
N61	N6	0.019900	0.919800	0.113140
N71	N7	0.378900	0.923200	0.071750
N81	N8	0.480100	0.419800	0.886860
N91	N9	0.121100	0.423200	0.571750
N101	N10	0.019900	0.919800	0.386860
N111	N11	0.378900	0.923200	0.428250
N121	N12	0.480100	0.419800	0.613140
N131	N13	0.878900	0.576800	0.071750
N141	N14	0.980100	0.080200	0.886860
N151	N15	0.621100	0.076800	0.928250
N161	N16	0.519900	0.580200	0.113140
N171	N17	0.336800	0.580100	0.750000
N181	N18	0.163200	0.080100	0.250000
N191	N19	0.663200	0.419900	0.250000
N201	N20	0.836800	0.919900	0.750000
O11	O1	0.060900	0.789700	0.661350
O21	O2	0.915300	0.942300	0.607840
O31	O3	0.229200	0.707700	0.624300
O41	O4	0.093000	0.740700	0.520720
O51	O5	0.308600	0.658800	0.525800
O61	O6	0.081300	0.340800	0.408260
O71	O7	0.316100	0.388700	0.431530
O81	O8	0.439100	0.289700	0.338650
O91	O9	0.584700	0.442300	0.392160
O101	O10	0.270800	0.207700	0.375700
O111	O11	0.407000	0.240700	0.479280
O121	O12	0.191400	0.158800	0.474200
O131	O13	0.418700	0.840800	0.591740
O141	O14	0.183900	0.888700	0.568470
O151	O15	0.939100	0.210300	0.161350
O161	O16	0.084700	0.057700	0.107840
O171	O17	0.770800	0.292300	0.124300
O181	O18	0.907000	0.259300	0.020720
O191	O19	0.691400	0.341200	0.025800
O201	O20	0.918700	0.659200	0.908260
O211	O21	0.683900	0.611300	0.931530
O221	O22	0.560900	0.710300	0.838650
O231	O23	0.415300	0.557700	0.892160
O241	O24	0.729200	0.792300	0.875700
O251	O25	0.593000	0.759300	0.979280
O261	O26	0.808600	0.841200	0.974200
O271	O27	0.581300	0.159200	0.091740
O281	O28	0.816100	0.111300	0.068470
O291	O29	0.939100	0.210300	0.338650
O301	O30	0.084700	0.057700	0.392160
O311	O31	0.770800	0.292300	0.375700
O321	O32	0.907000	0.259300	0.479280
O331	O33	0.691400	0.341200	0.474200
O341	O34	0.918700	0.659200	0.591740
O351	O35	0.683900	0.611300	0.568470
O361	O36	0.560900	0.710300	0.661350
O371	O37	0.415300	0.557700	0.607840
O381	O38	0.729200	0.792300	0.624300
O391	O39	0.593000	0.759300	0.520720
O401	O40	0.808600	0.841200	0.525800
O411	O41	0.581300	0.159200	0.408260
O421	O42	0.816100	0.111300	0.431530
O431	O43	0.060900	0.789700	0.838650
O441	O44	0.915300	0.942300	0.892160
O451	O45	0.229200	0.707700	0.875700
O461	O46	0.093000	0.740700	0.979280
O471	O47	0.308600	0.658800	0.974200
O481	O48	0.081300	0.340800	0.091740
O491	O49	0.316100	0.388700	0.068470
O501	O50	0.439100	0.289700	0.161350
O511	O51	0.584700	0.442300	0.107840
O521	O52	0.270800	0.207700	0.124300
O531	O53	0.407000	0.240700	0.020720
O541	O54	0.191400	0.158800	0.025800
O551	O55	0.418700	0.840800	0.908260
O561	O56	0.183900	0.888700	0.931530
